102004628
  -OEChem-03292013293D

 54 56  0     1  0  0  0  0  0999 V2000
   -2.2475   -0.0214    0.9301 O   0  0  0  0  0  0  0  0  0  0  0  0
   -4.3106    0.7624    0.2179 O   0  0  0  0  0  0  0  0  0  0  0  0
    0.6343    3.0451   -0.6417 O   0  0  0  0  0  0  0  0  0  0  0  0
   -2.4562   -3.4528   -0.0759 O   0  0  0  0  0  0  0  0  0  0  0  0
    1.7665   -0.5969   -0.4180 O   0  0  0  0  0  0  0  0  0  0  0  0
    2.4048    4.0447    0.4126 O   0  0  0  0  0  0  0  0  0  0  0  0
    2.5873   -2.3975    0.7668 O   0  0  0  0  0  0  0  0  0  0  0  0
   -1.7154   -1.3481    0.9794 C   0  0  1  0  0  0  0  0  0  0  0  0
   -3.1159    0.1073   -0.2043 C   0  0  1  0  0  0  0  0  0  0  0  0
   -2.8620   -2.1927    0.4163 C   0  0  1  0  0  0  0  0  0  0  0  0
   -2.4237    0.9467   -1.3150 C   0  0  2  0  0  0  0  0  0  0  0  0
   -3.4252   -1.3185   -0.6893 C   0  0  0  0  0  0  0  0  0  0  0  0
   -0.4205   -1.4039    0.1377 C   0  0  0  0  0  0  0  0  0  0  0  0
    0.3749    1.0636    0.6748 C   0  0  2  0  0  0  0  0  0  0  0  0
    0.7162   -0.4440    0.5471 C   0  0  2  0  0  0  0  0  0  0  0  0
   -0.0504    1.7658   -0.6258 C   0  0  1  0  0  0  0  0  0  0  0  0
   -1.5540    2.1037   -0.7726 C   0  0  0  0  0  0  0  0  0  0  0  0
   -1.4358   -1.7040    2.4400 C   0  0  0  0  0  0  0  0  0  0  0  0
   -3.4515    1.4831   -2.3242 C   0  0  0  0  0  0  0  0  0  0  0  0
    1.5547    1.8939    1.0886 C   0  0  0  0  0  0  0  0  0  0  0  0
    1.6242    3.1192    0.2810 C   0  0  0  0  0  0  0  0  0  0  0  0
    2.4642    1.6564    2.0393 C   0  0  0  0  0  0  0  0  0  0  0  0
    2.6348   -1.6221   -0.1792 C   0  0  0  0  0  0  0  0  0  0  0  0
    3.6901   -1.6496   -1.2708 C   0  0  0  0  0  0  0  0  0  0  0  0
    4.8634   -0.7611   -0.8748 C   0  0  0  0  0  0  0  0  0  0  0  0
    4.1535   -3.0790   -1.5399 C   0  0  0  0  0  0  0  0  0  0  0  0
   -3.6388   -2.3470    1.1759 H   0  0  0  0  0  0  0  0  0  0  0  0
   -1.7542    0.2982   -1.8909 H   0  0  0  0  0  0  0  0  0  0  0  0
   -2.9365   -1.5547   -1.6420 H   0  0  0  0  0  0  0  0  0  0  0  0
   -4.4949   -1.5007   -0.8401 H   0  0  0  0  0  0  0  0  0  0  0  0
   -0.6358   -1.2325   -0.9216 H   0  0  0  0  0  0  0  0  0  0  0  0
   -0.0322   -2.4311    0.1646 H   0  0  0  0  0  0  0  0  0  0  0  0
   -0.3779    1.2167    1.4547 H   0  0  0  0  0  0  0  0  0  0  0  0
    1.0774   -0.7681    1.5314 H   0  0  0  0  0  0  0  0  0  0  0  0
    0.2963    1.2296   -1.5168 H   0  0  0  0  0  0  0  0  0  0  0  0
   -1.6226    2.9500   -1.4709 H   0  0  0  0  0  0  0  0  0  0  0  0
   -1.9538    2.4954    0.1712 H   0  0  0  0  0  0  0  0  0  0  0  0
   -2.3557   -1.6603    3.0348 H   0  0  0  0  0  0  0  0  0  0  0  0
   -0.7517   -0.9870    2.9054 H   0  0  0  0  0  0  0  0  0  0  0  0
   -1.0124   -2.7090    2.5340 H   0  0  0  0  0  0  0  0  0  0  0  0
   -4.1001    2.2428   -1.8754 H   0  0  0  0  0  0  0  0  0  0  0  0
   -4.0818    0.6762   -2.7121 H   0  0  0  0  0  0  0  0  0  0  0  0
   -2.9444    1.9434   -3.1794 H   0  0  0  0  0  0  0  0  0  0  0  0
   -4.8856    0.1014    0.6386 H   0  0  0  0  0  0  0  0  0  0  0  0
   -3.2319   -3.8708   -0.4870 H   0  0  0  0  0  0  0  0  0  0  0  0
    2.4171    0.7623    2.6510 H   0  0  0  0  0  0  0  0  0  0  0  0
    3.2768    2.3464    2.2410 H   0  0  0  0  0  0  0  0  0  0  0  0
    3.2380   -1.2697   -2.1956 H   0  0  0  0  0  0  0  0  0  0  0  0
    5.3315   -1.1102    0.0523 H   0  0  0  0  0  0  0  0  0  0  0  0
    4.5313    0.2692   -0.7058 H   0  0  0  0  0  0  0  0  0  0  0  0
    5.6263   -0.7466   -1.6599 H   0  0  0  0  0  0  0  0  0  0  0  0
    4.6399   -3.5155   -0.6605 H   0  0  0  0  0  0  0  0  0  0  0  0
    4.8660   -3.1073   -2.3709 H   0  0  0  0  0  0  0  0  0  0  0  0
    3.3036   -3.7198   -1.7988 H   0  0  0  0  0  0  0  0  0  0  0  0
  1  8  1  0  0  0  0
  1  9  1  0  0  0  0
  2  9  1  0  0  0  0
  2 44  1  0  0  0  0
  3 16  1  0  0  0  0
  3 21  1  0  0  0  0
  4 10  1  0  0  0  0
  4 45  1  0  0  0  0
  5 15  1  0  0  0  0
  5 23  1  0  0  0  0
  6 21  2  0  0  0  0
  7 23  2  0  0  0  0
  8 10  1  0  0  0  0
  8 13  1  0  0  0  0
  8 18  1  0  0  0  0
  9 11  1  0  0  0  0
  9 12  1  0  0  0  0
 10 12  1  0  0  0  0
 10 27  1  0  0  0  0
 11 17  1  0  0  0  0
 11 19  1  0  0  0  0
 11 28  1  0  0  0  0
 12 29  1  0  0  0  0
 12 30  1  0  0  0  0
 13 15  1  0  0  0  0
 13 31  1  0  0  0  0
 13 32  1  0  0  0  0
 14 15  1  0  0  0  0
 14 16  1  0  0  0  0
 14 20  1  0  0  0  0
 14 33  1  0  0  0  0
 15 34  1  0  0  0  0
 16 17  1  0  0  0  0
 16 35  1  0  0  0  0
 17 36  1  0  0  0  0
 17 37  1  0  0  0  0
 18 38  1  0  0  0  0
 18 39  1  0  0  0  0
 18 40  1  0  0  0  0
 19 41  1  0  0  0  0
 19 42  1  0  0  0  0
 19 43  1  0  0  0  0
 20 21  1  0  0  0  0
 20 22  2  0  0  0  0
 22 46  1  0  0  0  0
 22 47  1  0  0  0  0
 23 24  1  0  0  0  0
 24 25  1  0  0  0  0
 24 26  1  0  0  0  0
 24 48  1  0  0  0  0
 25 49  1  0  0  0  0
 25 50  1  0  0  0  0
 25 51  1  0  0  0  0
 26 52  1  0  0  0  0
 26 53  1  0  0  0  0
 26 54  1  0  0  0  0
M  END
> <PUBCHEM_COMPOUND_CID>
102004628

> <PUBCHEM_CONFORMER_RMSD>
0.8

> <PUBCHEM_CONFORMER_DIVERSEORDER>
1
19
23
13
5
27
20
12
7
11
21
15
10
3
8
6
9
26
24
2
25
22
4
17
14
16
18

> <PUBCHEM_MMFF94_PARTIAL_CHARGES>
22
1 -0.56
10 0.28
14 0.14
15 0.28
16 0.28
2 -0.68
20 -0.12
21 0.71
22 -0.3
23 0.66
24 0.06
3 -0.43
4 -0.68
44 0.4
45 0.4
46 0.15
47 0.15
5 -0.43
6 -0.57
7 -0.57
8 0.28
9 0.56

> <PUBCHEM_EFFECTIVE_ROTOR_COUNT>
4.6

> <PUBCHEM_PHARMACOPHORE_FEATURES>
10
1 1 acceptor
1 2 acceptor
1 2 donor
1 4 acceptor
1 4 donor
1 6 acceptor
1 7 acceptor
3 24 25 26 hydrophobe
5 1 8 9 10 12 rings
5 3 14 16 20 21 rings

> <PUBCHEM_HEAVY_ATOM_COUNT>
26

> <PUBCHEM_ATOM_DEF_STEREO_COUNT>
5

> <PUBCHEM_ATOM_UDEF_STEREO_COUNT>
2

> <PUBCHEM_BOND_DEF_STEREO_COUNT>
0

> <PUBCHEM_BOND_UDEF_STEREO_COUNT>
0

> <PUBCHEM_ISOTOPIC_ATOM_COUNT>
0

> <PUBCHEM_COMPONENT_COUNT>
1

> <PUBCHEM_CACTVS_TAUTO_COUNT>
2

> <PUBCHEM_CONFORMER_ID>
0614779400000001

> <PUBCHEM_MMFF94_ENERGY>
82.8957

> <PUBCHEM_FEATURE_SELFOVERLAP>
50.794

> <PUBCHEM_SHAPE_FINGERPRINT>
11680986 33 18339921614382121529
11961588 58 17095516245808952253
12035758 1 18410008810431429465
12054548 360 18335985285645634782
12553582 1 18268145344896971426
12633257 1 17970039305755344097
12788726 201 17904206932084904970
13140716 1 18261104223262685641
13149001 5 18336259059519234517
133893 2 18127432230702367362
13681431 1 18272656748933339760
13944108 23 17252287723449814597
14223421 5 18191577760631371501
14251740 79 17829905239104716550
14790565 3 17690849960326819416
14955137 171 18052570731869402331
15219462 58 17273409706954083387
15475509 8 17770508538745610261
16752209 62 17903634077805199170
16945 1 18265597815558233769
17357779 13 18201152144777410540
1813 80 17560249007253748028
18915476 22 18058716031058218200
20028762 73 16470381590817963822
20600515 1 18198607866175541962
20691752 17 17821719572730286291
20775438 99 17907817956072938463
22182313 1 18337377327390433197
22907989 373 17760686614301846182
23114952 82 18338799038648084189
23175994 123 18340216171739519151
23419403 2 17988066830037855568
23559900 14 18340763831878677760
2748010 2 18335695091827329883
2818148 4 17464582854310748683
3178227 256 18120953706982981673
4280585 95 18411129209202823834
484985 159 15119847627704786734
59554788 248 17906426068545839808
6287921 2 18120664788157189119
70251023 43 18338525264944277387
7226269 152 18044082459269349546
81228 2 17910687470798535426
84936 31 17774714372458436284
9709674 26 18337942515164188613

> <PUBCHEM_SHAPE_MULTIPOLES>
493.98
7.3
4.27
1.77
2.88
1.64
0.22
-3.9
-3.24
2.29
0.05
-0.2
-0.06
2.7

> <PUBCHEM_SHAPE_SELFOVERLAP>
1036.59

> <PUBCHEM_SHAPE_VOLUME>
278.3

> <PUBCHEM_COORDINATE_TYPE>
2
5
10

$$$$
