REMARK  Name = 102039175
REMARK  4 active torsions:
REMARK  status: ('A' for Active; 'I' for Inactive)
REMARK    1  A    between atoms: C_7  and  O_27
REMARK    2  A    between atoms: C_8  and  O_29
REMARK    3  A    between atoms: C_9  and  O_31
REMARK    4  A    between atoms: C_19  and  O_33
REMARK                            x       y       z     vdW  Elec       q    Type
REMARK                         _______ _______ _______ _____ _____    ______ ____
ROOT
ATOM      1  O   UNL     1      -3.038  -2.300  -0.082  0.00  0.00    -0.449 OA
ATOM      2  O   UNL     1      -1.054  -1.821   1.007  0.00  0.00    -0.245 OA
ATOM      3  C   UNL     1      -4.289  -0.855   1.408  0.00  0.00    +0.046 C 
ATOM      4  C   UNL     1      -5.256  -0.325   0.331  0.00  0.00    +0.038 C 
ATOM      5  C   UNL     1      -3.795  -2.287   1.151  0.00  0.00    +0.169 C 
ATOM      6  C   UNL     1       1.968   2.519  -0.712  0.00  0.00    +0.063 C 
ATOM      7  C   UNL     1       2.652   3.536   0.217  0.00  0.00    +0.118 C 
ATOM      8  C   UNL     1      -5.087   1.171   0.021  0.00  0.00    +0.133 C 
ATOM      9  C   UNL     1       0.806   3.108  -1.534  0.00  0.00    +0.135 C 
ATOM     10  C   UNL     1       3.829   2.928   0.997  0.00  0.00    +0.055 C 
ATOM     11  C   UNL     1      -4.926  -3.299   1.020  0.00  0.00    +0.047 C 
ATOM     12  C   UNL     1      -3.813   1.411  -0.750  0.00  0.00    +0.003 C 
ATOM     13  C   UNL     1      -0.509   3.021  -0.795  0.00  0.00    +0.003 C 
ATOM     14  C   UNL     1       3.418   1.919   2.035  0.00  0.00    -0.024 C 
ATOM     15  C   UNL     1      -2.778   2.179  -0.375  0.00  0.00    -0.002 C 
ATOM     16  C   UNL     1      -1.565   2.274  -1.157  0.00  0.00    -0.002 C 
ATOM     17  C   UNL     1       3.523   0.583   1.990  0.00  0.00    -0.005 C 
ATOM     18  C   UNL     1      -1.712  -2.003  -0.004  0.00  0.00    +0.341 C 
ATOM     19  C   UNL     1       4.575  -2.406  -0.199  0.00  0.00    +0.137 C 
ATOM     20  C   UNL     1       3.513  -3.419  -0.647  0.00  0.00    +0.060 C 
ATOM     21  C   UNL     1       4.017  -0.209   0.887  0.00  0.00    -0.003 C 
ATOM     22  C   UNL     1       4.095  -1.548   0.939  0.00  0.00    +0.003 C 
ATOM     23  C   UNL     1      -1.201  -1.884  -1.388  0.00  0.00    +0.082 C 
ATOM     24  C   UNL     1       2.393  -2.794  -1.431  0.00  0.00    -0.023 C 
ATOM     25  C   UNL     1       0.059  -2.136  -1.771  0.00  0.00    +0.006 C 
ATOM     26  C   UNL     1       1.139  -2.670  -0.971  0.00  0.00    -0.004 C 
ENDROOT
BRANCH   7  27
ATOM     27  O   UNL     1       1.714   4.106   1.123  0.00  0.00    -0.384 OA
ATOM     28  H   UNL     1       0.974   4.487   0.624  0.00  0.00    +0.210 HD
ENDBRANCH   7  27
BRANCH   8  29
ATOM     29  O   UNL     1      -5.135   1.931   1.222  0.00  0.00    -0.380 OA
ATOM     30  H   UNL     1      -5.967   1.750   1.687  0.00  0.00    +0.211 HD
ENDBRANCH   8  29
BRANCH   9  31
ATOM     31  O   UNL     1       0.728   2.394  -2.769  0.00  0.00    -0.380 OA
ATOM     32  H   UNL     1       1.577   2.457  -3.234  0.00  0.00    +0.211 HD
ENDBRANCH   9  31
BRANCH  19  33
ATOM     33  O   UNL     1       5.731  -3.123   0.238  0.00  0.00    -0.380 OA
ATOM     34  H   UNL     1       6.056  -3.684  -0.484  0.00  0.00    +0.211 HD
ENDBRANCH  19  33
TORSDOF 4
