REMARK  Name = 102067332
REMARK  6 active torsions:
REMARK  status: ('A' for Active; 'I' for Inactive)
REMARK    1  A    between atoms: C_1  and  O_26
REMARK    2  A    between atoms: C_5  and  C_21
REMARK    3  A    between atoms: C_8  and  C_29
REMARK    4  A    between atoms: C_10  and  O_32
REMARK    5  A    between atoms: C_18  and  O_30
REMARK    6  A    between atoms: O_32  and  C_34
REMARK                            x       y       z     vdW  Elec       q    Type
REMARK                         _______ _______ _______ _____ _____    ______ ____
ROOT
ATOM      1  C   UNL     1      -0.260  -0.259   0.467  0.00  0.00    +0.092 C 
ATOM      2  C   UNL     1      -0.842  -0.526  -0.953  0.00  0.00    +0.030 C 
ATOM      3  C   UNL     1       1.248  -0.605   0.600  0.00  0.00    +0.026 C 
ATOM      4  C   UNL     1       2.127  -0.007  -0.530  0.00  0.00    +0.013 C 
ATOM      5  C   UNL     1      -2.172   0.297  -0.951  0.00  0.00    +0.068 C 
ATOM      6  C   UNL     1       0.099   0.048  -2.050  0.00  0.00    +0.003 C 
ATOM      7  C   UNL     1      -0.624   1.214   0.763  0.00  0.00    +0.071 C 
ATOM      8  C   UNL     1       3.652  -0.349  -0.384  0.00  0.00    +0.073 C 
ATOM      9  C   UNL     1       1.554  -0.389  -1.907  0.00  0.00    +0.001 C 
ATOM     10  C   UNL     1      -1.788   1.577  -0.175  0.00  0.00    +0.175 C 
ATOM     11  C   UNL     1       1.807  -0.211   1.983  0.00  0.00    +0.007 C 
ATOM     12  C   UNL     1      -1.070  -2.025  -1.238  0.00  0.00    +0.003 C 
ATOM     13  C   UNL     1       4.122  -0.096   1.044  0.00  0.00    -0.040 C 
ATOM     14  C   UNL     1       3.257  -0.651   2.148  0.00  0.00    +0.022 C 
ATOM     15  C   UNL     1       4.474   0.461  -1.426  0.00  0.00    +0.014 C 
ATOM     16  C   UNL     1       5.955   0.568  -1.071  0.00  0.00    +0.035 C 
ATOM     17  C   UNL     1       5.230   0.610   1.336  0.00  0.00    -0.006 C 
ATOM     18  C   UNL     1       6.151   1.190   0.307  0.00  0.00    +0.132 C 
ENDROOT
BRANCH   5  21
ATOM     19  O   UNL     1      -4.839  -1.054   1.417  0.00  0.00    -0.418 OA
ATOM     20  O   UNL     1      -6.663  -2.340   0.985  0.00  0.00    -0.244 OA
ATOM     21  C   UNL     1      -3.379  -0.405  -0.396  0.00  0.00    +0.019 C 
ATOM     22  C   UNL     1      -4.230  -1.131  -1.302  0.00  0.00    +0.006 C 
ATOM     23  C   UNL     1      -3.713  -0.398   0.899  0.00  0.00    +0.179 C 
ATOM     24  C   UNL     1      -5.315  -1.773  -0.858  0.00  0.00    +0.082 C 
ATOM     25  C   UNL     1      -5.667  -1.752   0.577  0.00  0.00    +0.346 C 
ENDBRANCH   5  21
BRANCH   1  26
ATOM     26  O   UNL     1      -0.932  -1.083   1.435  0.00  0.00    -0.387 OA
ATOM     27  H   UNL     1      -0.719  -2.015   1.270  0.00  0.00    +0.210 HD
ENDBRANCH   1  26
BRANCH   8  29
ATOM     28  O   UNL     1       5.027  -2.329  -0.570  0.00  0.00    -0.288 OA
ATOM     29  C   UNL     1       3.912  -1.821  -0.631  0.00  0.00    +0.210 C 
ENDBRANCH   8  29
BRANCH  18  30
ATOM     30  O   UNL     1       7.506   0.975   0.695  0.00  0.00    -0.380 OA
ATOM     31  H   UNL     1       8.098   1.353   0.025  0.00  0.00    +0.211 HD
ENDBRANCH  18  30
BRANCH  10  32
ATOM     32  O   UNL     1      -2.875   2.151   0.532  0.00  0.00    -0.452 OA
BRANCH  32  34
ATOM     33  O   UNL     1      -3.417   3.442  -1.305  0.00  0.00    -0.250 OA
ATOM     34  C   UNL     1      -3.614   3.077  -0.154  0.00  0.00    +0.317 C 
ATOM     35  C   UNL     1      -4.721   3.596   0.713  0.00  0.00    +0.121 C 
ENDBRANCH  32  34
ENDBRANCH  10  32
TORSDOF 6
