REMARK  Name = 102032664
REMARK  8 active torsions:
REMARK  status: ('A' for Active; 'I' for Inactive)
REMARK    1  A    between atoms: N_1  and  C_32
REMARK    2  A    between atoms: C_4  and  O_22
REMARK    3  A    between atoms: C_8  and  O_24
REMARK    4  A    between atoms: C_9  and  O_26
REMARK    5  A    between atoms: C_13  and  O_34
REMARK    6  A    between atoms: C_14  and  O_28
REMARK    7  A    between atoms: C_16  and  O_30
REMARK    8  A    between atoms: O_34  and  C_36
REMARK                            x       y       z     vdW  Elec       q    Type
REMARK                         _______ _______ _______ _____ _____    ______ ____
ROOT
ATOM      1  N   UNL     1       2.712  -1.062  -0.500  0.00  0.00    +0.390 N 
ATOM      2  C   UNL     1       1.288   0.330   0.985  0.00  0.00    +0.017 C 
ATOM      3  C   UNL     1      -0.191   0.546   1.491  0.00  0.00    +0.007 C 
ATOM      4  C   UNL     1       0.473   0.076  -1.234  0.00  0.00    +0.119 C 
ATOM      5  C   UNL     1       1.311  -0.715  -0.170  0.00  0.00    -0.025 C 
ATOM      6  C   UNL     1       1.846   1.556   0.170  0.00  0.00    +0.032 C 
ATOM      7  C   UNL     1      -1.285   0.852   0.447  0.00  0.00    +0.067 C 
ATOM      8  C   UNL     1      -1.050   0.081  -0.873  0.00  0.00    +0.121 C 
ATOM      9  C   UNL     1       1.107   1.500  -1.197  0.00  0.00    +0.135 C 
ATOM     10  C   UNL     1       3.377   1.324  -0.090  0.00  0.00    +0.002 C 
ATOM     11  C   UNL     1      -0.786  -0.646   2.290  0.00  0.00    +0.006 C 
ATOM     12  C   UNL     1      -2.152  -0.953   1.658  0.00  0.00    +0.067 C 
ATOM     13  C   UNL     1      -2.570   0.425   1.167  0.00  0.00    +0.173 C 
ATOM     14  C   UNL     1       2.161   0.014   2.255  0.00  0.00    +0.130 C 
ATOM     15  C   UNL     1      -1.713  -1.325  -0.874  0.00  0.00    +0.059 C 
ATOM     16  C   UNL     1      -1.998  -1.955   0.500  0.00  0.00    +0.121 C 
ATOM     17  C   UNL     1       3.565   0.045  -0.959  0.00  0.00    -0.073 C 
ATOM     18  C   UNL     1       4.126   1.116   1.204  0.00  0.00    -0.031 C 
ATOM     19  C   UNL     1       3.570   0.511   2.254  0.00  0.00    -0.002 C 
ATOM     20  C   UNL     1       4.005   2.547  -0.789  0.00  0.00    +0.002 C 
ATOM     21  H   UNL     1       3.084  -1.305   0.418  0.00  0.00    -0.079 HD
ENDROOT
BRANCH   4  22
ATOM     22  O   UNL     1       0.633  -0.454  -2.546  0.00  0.00    -0.384 OA
ATOM     23  H   UNL     1       0.243  -1.341  -2.586  0.00  0.00    +0.210 HD
ENDBRANCH   4  22
BRANCH   8  24
ATOM     24  O   UNL     1      -1.714   0.811  -1.928  0.00  0.00    -0.353 OA
ATOM     25  C   UNL     1      -1.934  -0.021  -3.048  0.00  0.00    +0.174 C 
ENDBRANCH   8  24
BRANCH   9  26
ATOM     26  O   UNL     1       0.195   2.578  -1.327  0.00  0.00    -0.382 OA
ATOM     27  H   UNL     1      -0.252   2.521  -2.186  0.00  0.00    +0.210 HD
ENDBRANCH   9  26
BRANCH  14  28
ATOM     28  O   UNL     1       2.193  -1.392   2.500  0.00  0.00    -0.380 OA
ATOM     29  H   UNL     1       1.288  -1.740   2.505  0.00  0.00    +0.211 HD
ENDBRANCH  14  28
BRANCH  16  30
ATOM     30  O   UNL     1      -3.214  -2.707   0.403  0.00  0.00    -0.353 OA
ATOM     31  C   UNL     1      -2.986  -3.972  -0.195  0.00  0.00    +0.174 C 
ENDBRANCH  16  30
BRANCH   1  32
ATOM     32  C   UNL     1       2.852  -2.240  -1.344  0.00  0.00    -0.077 C 
ATOM     33  C   UNL     1       4.285  -2.745  -1.350  0.00  0.00    -0.025 C 
ENDBRANCH   1  32
BRANCH  13  34
ATOM     34  O   UNL     1      -3.717   0.402   0.346  0.00  0.00    -0.452 OA
BRANCH  34  36
ATOM     35  O   UNL     1      -4.250   2.558   0.982  0.00  0.00    -0.250 OA
ATOM     36  C   UNL     1      -4.481   1.542   0.342  0.00  0.00    +0.317 C 
ATOM     37  C   UNL     1      -5.659   1.373  -0.569  0.00  0.00    +0.121 C 
ENDBRANCH  34  36
ENDBRANCH  13  34
TORSDOF 8
