REMARK  Name = 102004821
REMARK  5 active torsions:
REMARK  status: ('A' for Active; 'I' for Inactive)
REMARK    1  A    between atoms: C_8  and  O_25
REMARK    2  A    between atoms: C_9  and  O_27
REMARK    3  A    between atoms: C_14  and  O_29
REMARK    4  A    between atoms: C_16  and  O_31
REMARK    5  A    between atoms: C_17  and  O_33
REMARK                            x       y       z     vdW  Elec       q    Type
REMARK                         _______ _______ _______ _____ _____    ______ ____
ROOT
ATOM      1  O   UNL     1      -0.833   1.925  -1.824  0.00  0.00    -0.332 OA
ATOM      2  O   UNL     1      -0.738  -2.552   0.116  0.00  0.00    -0.450 OA
ATOM      3  O   UNL     1      -2.111  -3.353   1.702  0.00  0.00    -0.247 OA
ATOM      4  O   UNL     1       4.714   1.241   1.487  0.00  0.00    -0.289 OA
ATOM      5  C   UNL     1      -0.959  -0.253  -0.849  0.00  0.00    +0.098 C 
ATOM      6  C   UNL     1       0.007   0.637  -0.012  0.00  0.00    +0.065 C 
ATOM      7  C   UNL     1       1.570   0.396  -0.230  0.00  0.00    +0.040 C 
ATOM      8  C   UNL     1      -2.402  -0.279  -0.212  0.00  0.00    +0.146 C 
ATOM      9  C   UNL     1      -0.604   2.007  -0.401  0.00  0.00    +0.213 C 
ATOM     10  C   UNL     1      -0.504  -1.699  -1.044  0.00  0.00    +0.174 C 
ATOM     11  C   UNL     1       1.839  -1.156  -0.270  0.00  0.00    +0.025 C 
ATOM     12  C   UNL     1      -1.004   0.539  -2.172  0.00  0.00    +0.151 C 
ATOM     13  C   UNL     1       0.988  -1.839  -1.356  0.00  0.00    +0.048 C 
ATOM     14  C   UNL     1      -1.972   2.224   0.296  0.00  0.00    +0.182 C 
ATOM     15  C   UNL     1      -2.969   1.132  -0.028  0.00  0.00    +0.014 C 
ATOM     16  C   UNL     1       2.366   0.896   1.026  0.00  0.00    +0.172 C 
ATOM     17  C   UNL     1      -2.359  -1.037   1.119  0.00  0.00    +0.238 C 
ATOM     18  C   UNL     1       2.134   1.085  -1.506  0.00  0.00    +0.003 C 
ATOM     19  C   UNL     1       3.325  -1.503  -0.295  0.00  0.00    -0.041 C 
ATOM     20  C   UNL     1      -1.759  -2.416   0.990  0.00  0.00    +0.347 C 
ATOM     21  C   UNL     1       3.846   0.540   0.969  0.00  0.00    +0.199 C 
ATOM     22  C   UNL     1       4.243  -0.715   0.288  0.00  0.00    +0.031 C 
ATOM     23  C   UNL     1      -4.262   1.448  -0.218  0.00  0.00    -0.004 C 
ATOM     24  C   UNL     1       3.763  -2.798  -0.923  0.00  0.00    +0.026 C 
ENDROOT
BRANCH   8  25
ATOM     25  O   UNL     1      -3.285  -0.986  -1.107  0.00  0.00    -0.380 OA
ATOM     26  H   UNL     1      -3.326  -0.520  -1.956  0.00  0.00    +0.211 HD
ENDBRANCH   8  25
BRANCH   9  27
ATOM     27  O   UNL     1       0.144   3.167  -0.079  0.00  0.00    -0.362 OA
ATOM     28  H   UNL     1       1.024   3.107  -0.483  0.00  0.00    +0.213 HD
ENDBRANCH   9  27
BRANCH  14  29
ATOM     29  O   UNL     1      -1.797   2.258   1.713  0.00  0.00    -0.376 OA
ATOM     30  H   UNL     1      -1.160   2.952   1.944  0.00  0.00    +0.211 HD
ENDBRANCH  14  29
BRANCH  16  31
ATOM     31  O   UNL     1       2.298   2.299   1.196  0.00  0.00    -0.377 OA
ATOM     32  H   UNL     1       1.370   2.575   1.238  0.00  0.00    +0.211 HD
ENDBRANCH  16  31
BRANCH  17  33
ATOM     33  O   UNL     1      -3.680  -1.205   1.625  0.00  0.00    -0.372 OA
ATOM     34  H   UNL     1      -4.102  -0.337   1.723  0.00  0.00    +0.211 HD
ENDBRANCH  17  33
TORSDOF 5
