102058013
  -OEChem-03292013293D

 54 58  0     1  0  0  0  0  0999 V2000
    0.2395   -1.0791    1.8422 O   0  0  0  0  0  0  0  0  0  0  0  0
   -1.0561   -2.6534    0.6730 O   0  0  0  0  0  0  0  0  0  0  0  0
    1.6092   -2.7251    0.0065 O   0  0  0  0  0  0  0  0  0  0  0  0
   -3.1519   -1.2130    1.5281 O   0  0  0  0  0  0  0  0  0  0  0  0
    1.5857    2.8119   -0.8237 O   0  0  0  0  0  0  0  0  0  0  0  0
   -1.8266   -1.2230   -2.0518 O   0  0  0  0  0  0  0  0  0  0  0  0
    1.0218    0.7907    0.4118 C   0  0  1  0  0  0  0  0  0  0  0  0
   -1.2878   -0.2922    0.1646 C   0  0  1  0  0  0  0  0  0  0  0  0
   -0.4694    1.0166   -0.0874 C   0  0  1  0  0  0  0  0  0  0  0  0
    1.6650   -0.2939   -0.5448 C   0  0  2  0  0  0  0  0  0  0  0  0
   -0.3322   -1.4292    0.5650 C   0  0  1  0  0  0  0  0  0  0  0  0
    0.8412   -1.6071   -0.4222 C   0  0  2  0  0  0  0  0  0  0  0  0
   -2.4487   -0.0259    1.1740 C   0  0  1  0  0  0  0  0  0  0  0  0
    3.2427   -0.4013   -0.5641 C   0  0  0  0  0  0  0  0  0  0  0  0
    1.8265    2.1132    0.4030 C   0  0  1  0  0  0  0  0  0  0  0  0
    0.9146    0.1890    1.8330 C   0  0  0  0  0  0  0  0  0  0  0  0
   -1.1757    2.2690    0.4966 C   0  0  0  0  0  0  0  0  0  0  0  0
   -3.3631    0.9191    0.3824 C   0  0  1  0  0  0  0  0  0  0  0  0
   -2.1299   -0.5448   -1.0852 C   0  0  0  0  0  0  0  0  0  0  0  0
   -2.6962    2.2978    0.2569 C   0  0  0  0  0  0  0  0  0  0  0  0
    3.8533    1.0224   -0.6000 C   0  0  0  0  0  0  0  0  0  0  0  0
    3.3329    1.9096    0.5269 C   0  0  0  0  0  0  0  0  0  0  0  0
   -3.4022    0.2252   -0.9584 C   0  0  0  0  0  0  0  0  0  0  0  0
    3.6795   -1.1188   -1.8660 C   0  0  0  0  0  0  0  0  0  0  0  0
    3.9067   -1.1624    0.6058 C   0  0  0  0  0  0  0  0  0  0  0  0
   -4.3787    0.2048   -1.8661 C   0  0  0  0  0  0  0  0  0  0  0  0
   -0.4243    1.1958   -1.1724 H   0  0  0  0  0  0  0  0  0  0  0  0
    1.4254    0.0838   -1.5529 H   0  0  0  0  0  0  0  0  0  0  0  0
    0.4709   -1.8768   -1.4174 H   0  0  0  0  0  0  0  0  0  0  0  0
   -2.0964    0.4181    2.1108 H   0  0  0  0  0  0  0  0  0  0  0  0
    1.4863    2.7650    1.2162 H   0  0  0  0  0  0  0  0  0  0  0  0
    1.8858    0.0469    2.3064 H   0  0  0  0  0  0  0  0  0  0  0  0
    0.3635    0.8541    2.5061 H   0  0  0  0  0  0  0  0  0  0  0  0
   -0.7484    3.1854    0.0749 H   0  0  0  0  0  0  0  0  0  0  0  0
   -0.9975    2.3333    1.5762 H   0  0  0  0  0  0  0  0  0  0  0  0
   -4.3691    0.9916    0.8091 H   0  0  0  0  0  0  0  0  0  0  0  0
   -3.1389    2.9762    0.9971 H   0  0  0  0  0  0  0  0  0  0  0  0
   -2.9058    2.7438   -0.7237 H   0  0  0  0  0  0  0  0  0  0  0  0
    3.6372    1.4963   -1.5666 H   0  0  0  0  0  0  0  0  0  0  0  0
    4.9481    0.9724   -0.5365 H   0  0  0  0  0  0  0  0  0  0  0  0
    3.5906    1.4936    1.5058 H   0  0  0  0  0  0  0  0  0  0  0  0
    3.8386    2.8806    0.4540 H   0  0  0  0  0  0  0  0  0  0  0  0
    3.7693   -2.2443    0.5446 H   0  0  0  0  0  0  0  0  0  0  0  0
    3.5571   -0.8355    1.5834 H   0  0  0  0  0  0  0  0  0  0  0  0
    3.3126   -2.1494   -1.9042 H   0  0  0  0  0  0  0  0  0  0  0  0
    4.7720   -1.1552   -1.9491 H   0  0  0  0  0  0  0  0  0  0  0  0
    3.3011   -0.5996   -2.7539 H   0  0  0  0  0  0  0  0  0  0  0  0
    4.9938   -1.0113    0.5963 H   0  0  0  0  0  0  0  0  0  0  0  0
   -0.4186   -3.3848    0.6977 H   0  0  0  0  0  0  0  0  0  0  0  0
    1.2044   -3.5277   -0.3636 H   0  0  0  0  0  0  0  0  0  0  0  0
   -3.8978   -0.9514    2.0945 H   0  0  0  0  0  0  0  0  0  0  0  0
    2.0485    3.6655   -0.7714 H   0  0  0  0  0  0  0  0  0  0  0  0
   -5.2946    0.7631   -1.7045 H   0  0  0  0  0  0  0  0  0  0  0  0
   -4.2905   -0.3624   -2.7861 H   0  0  0  0  0  0  0  0  0  0  0  0
  1 11  1  0  0  0  0
  1 16  1  0  0  0  0
  2 11  1  0  0  0  0
  2 49  1  0  0  0  0
  3 12  1  0  0  0  0
  3 50  1  0  0  0  0
  4 13  1  0  0  0  0
  4 51  1  0  0  0  0
  5 15  1  0  0  0  0
  5 52  1  0  0  0  0
  6 19  2  0  0  0  0
  7  9  1  0  0  0  0
  7 10  1  0  0  0  0
  7 15  1  0  0  0  0
  7 16  1  0  0  0  0
  8  9  1  0  0  0  0
  8 11  1  0  0  0  0
  8 13  1  0  0  0  0
  8 19  1  0  0  0  0
  9 17  1  0  0  0  0
  9 27  1  0  0  0  0
 10 12  1  0  0  0  0
 10 14  1  0  0  0  0
 10 28  1  0  0  0  0
 11 12  1  0  0  0  0
 12 29  1  0  0  0  0
 13 18  1  0  0  0  0
 13 30  1  0  0  0  0
 14 21  1  0  0  0  0
 14 24  1  0  0  0  0
 14 25  1  0  0  0  0
 15 22  1  0  0  0  0
 15 31  1  0  0  0  0
 16 32  1  0  0  0  0
 16 33  1  0  0  0  0
 17 20  1  0  0  0  0
 17 34  1  0  0  0  0
 17 35  1  0  0  0  0
 18 20  1  0  0  0  0
 18 23  1  0  0  0  0
 18 36  1  0  0  0  0
 19 23  1  0  0  0  0
 20 37  1  0  0  0  0
 20 38  1  0  0  0  0
 21 22  1  0  0  0  0
 21 39  1  0  0  0  0
 21 40  1  0  0  0  0
 22 41  1  0  0  0  0
 22 42  1  0  0  0  0
 23 26  2  0  0  0  0
 24 45  1  0  0  0  0
 24 46  1  0  0  0  0
 24 47  1  0  0  0  0
 25 43  1  0  0  0  0
 25 44  1  0  0  0  0
 25 48  1  0  0  0  0
 26 53  1  0  0  0  0
 26 54  1  0  0  0  0
M  END
> <PUBCHEM_COMPOUND_CID>
102058013

> <PUBCHEM_CONFORMER_RMSD>
0.6

> <PUBCHEM_CONFORMER_DIVERSEORDER>
1

> <PUBCHEM_MMFF94_PARTIAL_CHARGES>
22
1 -0.56
11 0.56
12 0.28
13 0.28
15 0.28
16 0.28
18 0.14
19 0.49
2 -0.68
23 -0.12
26 -0.3
3 -0.68
4 -0.68
49 0.4
5 -0.68
50 0.4
51 0.4
52 0.4
53 0.15
54 0.15
6 -0.57
8 0.06

> <PUBCHEM_EFFECTIVE_ROTOR_COUNT>
2

> <PUBCHEM_PHARMACOPHORE_FEATURES>
14
1 1 acceptor
1 2 acceptor
1 2 donor
1 3 acceptor
1 3 donor
1 4 acceptor
1 4 donor
1 5 acceptor
1 5 donor
1 6 acceptor
3 14 24 25 hydrophobe
6 7 10 14 15 21 22 rings
8 1 7 8 9 10 11 12 16 rings
8 8 9 13 17 18 19 20 23 rings

> <PUBCHEM_HEAVY_ATOM_COUNT>
26

> <PUBCHEM_ATOM_DEF_STEREO_COUNT>
7

> <PUBCHEM_ATOM_UDEF_STEREO_COUNT>
2

> <PUBCHEM_BOND_DEF_STEREO_COUNT>
0

> <PUBCHEM_BOND_UDEF_STEREO_COUNT>
0

> <PUBCHEM_ISOTOPIC_ATOM_COUNT>
0

> <PUBCHEM_COMPONENT_COUNT>
1

> <PUBCHEM_CACTVS_TAUTO_COUNT>
1

> <PUBCHEM_CONFORMER_ID>
0615481D00000001

> <PUBCHEM_MMFF94_ENERGY>
122.8693

> <PUBCHEM_FEATURE_SELFOVERLAP>
71.14

> <PUBCHEM_SHAPE_FINGERPRINT>
10062212 137 18339637820260195218
10863032 1 18113625555549286634
10948715 1 18338522915438072649
10967382 1 18410580569595019256
1100329 8 17111573285845274944
12035759 4 18271507746370966999
12236239 1 17704076192550975633
12403814 3 18060426819774798161
12553582 1 18340214003076323142
12788726 201 18129112130347288816
13140716 1 18339930440598028386
13224815 77 18413107281432579280
13583140 156 17095798923012748928
14223421 5 18334301928948341721
14251745 187 18272364317310525072
15664445 248 17054106645311367397
16945 1 18411707564581346338
17349148 13 18263628602701207074
18186145 218 18261401039514527988
18981168 100 18260826059204625843
192875 21 18339066130064287096
19862831 5 18187638098467688573
20691752 17 18261954037817955148
20905425 154 17834118541849696364
22182313 1 18265904742247526378
22802520 49 18199755897790273960
2334 1 18051697942695425362
23402539 116 18339919295474211078
23493267 7 17312820455299533273
23559900 14 18409737266431800478
238 59 18271515506907450133
25 1 18334861584424398486
2748010 2 18194410119569226018
34934 24 18122623851368757160
350125 39 18119824756852084762
474 4 18336260240635552636
633830 44 18340497681007500276
7832392 63 18126571111013257632
90525 40 17844527708581915085
9709674 26 18272094919913661188
9981440 41 17548959501112259408

> <PUBCHEM_SHAPE_MULTIPOLES>
499.85
6.82
2.61
1.6
0.2
0.47
-0.13
0.45
-2.28
0.81
0.14
-0.55
-0.51
0.11

> <PUBCHEM_SHAPE_SELFOVERLAP>
1108.43

> <PUBCHEM_SHAPE_VOLUME>
258.4

> <PUBCHEM_COORDINATE_TYPE>
2
5
10

$$$$
