10202564
  -OEChem-03292013303D

 45 48  0     0  0  0  0  0  0999 V2000
   -1.5335    0.3717   -3.1844 Cl  0  0  0  0  0  0  0  0  0  0  0  0
   -2.1800    2.2719   -0.2010 S   0  0  0  0  0  0  0  0  0  0  0  0
   -3.1633   -2.8333    0.9015 S   0  0  0  0  0  0  0  0  0  0  0  0
   -3.4954    2.6781    0.2528 O   0  0  0  0  0  0  0  0  0  0  0  0
   -1.6131    2.8255   -1.4161 O   0  0  0  0  0  0  0  0  0  0  0  0
    4.2857    1.5130   -0.2296 N   0  0  0  0  0  0  0  0  0  0  0  0
   -1.0273    2.4272    1.0814 N   0  0  0  0  0  0  0  0  0  0  0  0
    1.9741   -3.8687   -0.1401 N   0  0  0  0  0  0  0  0  0  0  0  0
   -2.6947   -0.3639    0.3922 N   0  0  0  0  0  0  0  0  0  0  0  0
   -2.2970   -1.5585   -1.4531 N   0  0  0  0  0  0  0  0  0  0  0  0
    3.1586   -0.2971    0.3875 C   0  0  0  0  0  0  0  0  0  0  0  0
    2.2754    0.8173    0.4428 C   0  0  0  0  0  0  0  0  0  0  0  0
    2.8277   -1.6981    0.7172 C   0  0  0  0  0  0  0  0  0  0  0  0
    3.0073    1.9402    0.0511 C   0  0  0  0  0  0  0  0  0  0  0  0
    2.3212   -2.4974   -0.4974 C   0  0  0  0  0  0  0  0  0  0  0  0
    0.9193    0.9789    0.7895 C   0  0  0  0  0  0  0  0  0  0  0  0
    4.3866    0.1623   -0.0294 C   0  0  0  0  0  0  0  0  0  0  0  0
    0.3471    2.2548    0.7319 C   0  0  0  0  0  0  0  0  0  0  0  0
    2.4488    3.2218   -0.0113 C   0  0  0  0  0  0  0  0  0  0  0  0
   -2.3024    0.5127   -0.5459 C   0  0  0  0  0  0  0  0  0  0  0  0
    1.1019    3.3577    0.3373 C   0  0  0  0  0  0  0  0  0  0  0  0
   -2.6731   -1.5873   -0.2048 C   0  0  0  0  0  0  0  0  0  0  0  0
   -2.0595   -0.2139   -1.6717 C   0  0  0  0  0  0  0  0  0  0  0  0
    1.4540   -4.5877   -1.3042 C   0  0  0  0  0  0  0  0  0  0  0  0
    0.9941   -3.8852    0.9468 C   0  0  0  0  0  0  0  0  0  0  0  0
   -3.0865   -0.3523    1.7097 C   0  0  0  0  0  0  0  0  0  0  0  0
   -3.3758   -1.5897    2.1471 C   0  0  0  0  0  0  0  0  0  0  0  0
    3.7118   -2.1962    1.1371 H   0  0  0  0  0  0  0  0  0  0  0  0
    2.0832   -1.6697    1.5203 H   0  0  0  0  0  0  0  0  0  0  0  0
    1.4589   -1.9787   -0.9398 H   0  0  0  0  0  0  0  0  0  0  0  0
    3.1081   -2.5078   -1.2630 H   0  0  0  0  0  0  0  0  0  0  0  0
    0.3304    0.1212    1.1028 H   0  0  0  0  0  0  0  0  0  0  0  0
    5.3235   -0.3488   -0.2022 H   0  0  0  0  0  0  0  0  0  0  0  0
    5.0397    2.1105   -0.5388 H   0  0  0  0  0  0  0  0  0  0  0  0
    3.0356    4.0810   -0.3183 H   0  0  0  0  0  0  0  0  0  0  0  0
   -1.2833    1.9319    1.9460 H   0  0  0  0  0  0  0  0  0  0  0  0
    0.6473    4.3452    0.2965 H   0  0  0  0  0  0  0  0  0  0  0  0
    1.2545   -5.6354   -1.0528 H   0  0  0  0  0  0  0  0  0  0  0  0
    0.5284   -4.1417   -1.6863 H   0  0  0  0  0  0  0  0  0  0  0  0
    2.1930   -4.5961   -2.1132 H   0  0  0  0  0  0  0  0  0  0  0  0
    1.4495   -3.6241    1.9071 H   0  0  0  0  0  0  0  0  0  0  0  0
    0.1438   -3.2222    0.7536 H   0  0  0  0  0  0  0  0  0  0  0  0
    0.5986   -4.8982    1.0910 H   0  0  0  0  0  0  0  0  0  0  0  0
   -3.1444    0.5614    2.2804 H   0  0  0  0  0  0  0  0  0  0  0  0
   -3.7075   -1.8368    3.1456 H   0  0  0  0  0  0  0  0  0  0  0  0
  1 23  1  0  0  0  0
  2  4  2  0  0  0  0
  2  5  2  0  0  0  0
  2  7  1  0  0  0  0
  2 20  1  0  0  0  0
  3 22  1  0  0  0  0
  3 27  1  0  0  0  0
  6 14  1  0  0  0  0
  6 17  1  0  0  0  0
  6 34  1  0  0  0  0
  7 18  1  0  0  0  0
  7 36  1  0  0  0  0
  8 15  1  0  0  0  0
  8 24  1  0  0  0  0
  8 25  1  0  0  0  0
  9 20  1  0  0  0  0
  9 22  1  0  0  0  0
  9 26  1  0  0  0  0
 10 22  2  0  0  0  0
 10 23  1  0  0  0  0
 11 12  1  0  0  0  0
 11 13  1  0  0  0  0
 11 17  2  0  0  0  0
 12 14  2  0  0  0  0
 12 16  1  0  0  0  0
 13 15  1  0  0  0  0
 13 28  1  0  0  0  0
 13 29  1  0  0  0  0
 14 19  1  0  0  0  0
 15 30  1  0  0  0  0
 15 31  1  0  0  0  0
 16 18  2  0  0  0  0
 16 32  1  0  0  0  0
 17 33  1  0  0  0  0
 18 21  1  0  0  0  0
 19 21  2  0  0  0  0
 19 35  1  0  0  0  0
 20 23  2  0  0  0  0
 21 37  1  0  0  0  0
 24 38  1  0  0  0  0
 24 39  1  0  0  0  0
 24 40  1  0  0  0  0
 25 41  1  0  0  0  0
 25 42  1  0  0  0  0
 25 43  1  0  0  0  0
 26 27  2  0  0  0  0
 26 44  1  0  0  0  0
 27 45  1  0  0  0  0
M  END
> <PUBCHEM_COMPOUND_CID>
10202564

> <PUBCHEM_CONFORMER_RMSD>
1

> <PUBCHEM_CONFORMER_DIVERSEORDER>
1
307
6
316
76
134
26
133
365
351
279
536
300
113
416
502
16
438
289
321
171
202
159
512
338
29
149
341
288
615
287
361
73
37
68
325
250
582
3
117
109
75
445
379
452
162
556
17
262
86
345
5
420
383
478
303
80
389
407
229
4
339
290
381
48
197
613
182
118
425
495
32
184
465
88
41
510
22
517
607
271
187
435
547
428
83
370
608
177
12
369
610
240
85
234
337
51
449
55
45
138
99
131
231
305
500
205
388
269
39
447
2
71
59
597
424
67
93
375
60
333
144
13
372
214
152
463
10
213
94
78
475
116
275
19
35
101
27
472
346
28
474
81
82
186
217
15
274
20
419
40
212
344
304
145
485
111
50
350
54
529
218
90
30
166
481
363
209
122
292
115
25
21

> <PUBCHEM_MMFF94_PARTIAL_CHARGES>
34
1 -0.12
10 -0.57
11 -0.18
13 0.18
14 -0.15
15 0.27
16 -0.15
17 -0.3
18 0.2
19 -0.15
2 1.5
20 -0.21
21 -0.15
22 0.24
23 0.35
24 0.27
25 0.27
26 -0.18
27 -0.05
3 -0.16
32 0.15
33 0.15
34 0.27
35 0.15
36 0.42
37 0.15
4 -0.65
44 0.15
45 0.15
5 -0.65
6 0.03
7 -0.76
8 -0.81
9 0.33

> <PUBCHEM_EFFECTIVE_ROTOR_COUNT>
6

> <PUBCHEM_PHARMACOPHORE_FEATURES>
11
1 4 acceptor
1 5 acceptor
1 6 cation
1 6 donor
1 7 donor
1 8 cation
3 9 10 22 cation
5 3 9 22 26 27 rings
5 6 11 12 14 17 rings
5 9 10 20 22 23 rings
6 12 14 16 18 19 21 rings

> <PUBCHEM_HEAVY_ATOM_COUNT>
27

> <PUBCHEM_ATOM_DEF_STEREO_COUNT>
0

> <PUBCHEM_ATOM_UDEF_STEREO_COUNT>
0

> <PUBCHEM_BOND_DEF_STEREO_COUNT>
0

> <PUBCHEM_BOND_UDEF_STEREO_COUNT>
0

> <PUBCHEM_ISOTOPIC_ATOM_COUNT>
0

> <PUBCHEM_COMPONENT_COUNT>
1

> <PUBCHEM_CACTVS_TAUTO_COUNT>
1

> <PUBCHEM_CONFORMER_ID>
009BADC400000001

> <PUBCHEM_MMFF94_ENERGY>
56.8354

> <PUBCHEM_FEATURE_SELFOVERLAP>
56.184

> <PUBCHEM_SHAPE_FINGERPRINT>
10064457 181 17621052279120894440
10616163 171 18410575097701046216
10675989 125 17182192744671495660
10764073 3 17762363335470014545
11513181 2 15531952875113546862
12156800 1 16109586191763954539
12539773 59 17489586805146080151
12553582 1 18340764931247640608
12596599 1 17630053882091121670
13122387 1 16754372714210309338
13140716 1 18341606006467843888
1361 2 17833536170265860687
14251757 5 16972542248348639326
19930381 70 18410291458325036851
20737093 15 17482243301036734543
20764821 26 17472977784544572268
238 59 17977065202210191630
445580 102 18408603673553300242
463206 1 17979082587726222122
469060 322 16235584117063912998
5309563 4 18120096336572695179
6287921 2 18117013254117067062

> <PUBCHEM_SHAPE_MULTIPOLES>
528.57
6.99
5.61
1.84
1.93
4.28
1.14
0.02
-1.49
1.63
0.36
-2.03
0.23
0.99

> <PUBCHEM_SHAPE_SELFOVERLAP>
1117.918

> <PUBCHEM_SHAPE_VOLUME>
302.6

> <PUBCHEM_COORDINATE_TYPE>
2
5
10

$$$$
