REMARK  Name = 102004514
REMARK  3 active torsions:
REMARK  status: ('A' for Active; 'I' for Inactive)
REMARK    1  A    between atoms: C_8  and  O_25
REMARK    2  A    between atoms: C_14  and  O_27
REMARK    3  A    between atoms: C_15  and  O_29
REMARK                            x       y       z     vdW  Elec       q    Type
REMARK                         _______ _______ _______ _____ _____    ______ ____
ROOT
ATOM      1  O   UNL     1      -1.306   1.678  -1.822  0.00  0.00    -0.332 OA
ATOM      2  O   UNL     1      -0.718  -2.743   0.162  0.00  0.00    -0.452 OA
ATOM      3  O   UNL     1      -1.891  -3.614   1.868  0.00  0.00    -0.250 OA
ATOM      4  O   UNL     1       4.339   1.676   1.362  0.00  0.00    -0.289 OA
ATOM      5  C   UNL     1      -1.176  -0.471  -0.789  0.00  0.00    +0.073 C 
ATOM      6  C   UNL     1      -0.308   0.538   0.009  0.00  0.00    +0.063 C 
ATOM      7  C   UNL     1       1.266   0.456  -0.236  0.00  0.00    +0.040 C 
ATOM      8  C   UNL     1      -1.075   1.823  -0.403  0.00  0.00    +0.213 C 
ATOM      9  C   UNL     1      -0.585  -1.864  -0.990  0.00  0.00    +0.172 C 
ATOM     10  C   UNL     1      -2.576  -0.644  -0.124  0.00  0.00    +0.038 C 
ATOM     11  C   UNL     1       1.693  -1.062  -0.254  0.00  0.00    +0.025 C 
ATOM     12  C   UNL     1      -1.370   0.274  -2.124  0.00  0.00    +0.149 C 
ATOM     13  C   UNL     1       0.908  -1.845  -1.324  0.00  0.00    +0.048 C 
ATOM     14  C   UNL     1      -2.464   1.912   0.286  0.00  0.00    +0.180 C 
ATOM     15  C   UNL     1       2.030   1.069   0.986  0.00  0.00    +0.172 C 
ATOM     16  C   UNL     1      -3.306   0.675   0.065  0.00  0.00    -0.013 C 
ATOM     17  C   UNL     1      -2.475  -1.409   1.189  0.00  0.00    +0.114 C 
ATOM     18  C   UNL     1       1.724   1.171  -1.540  0.00  0.00    +0.003 C 
ATOM     19  C   UNL     1       3.207  -1.258  -0.293  0.00  0.00    -0.041 C 
ATOM     20  C   UNL     1      -1.702  -2.689   1.081  0.00  0.00    +0.317 C 
ATOM     21  C   UNL     1       3.537   0.868   0.895  0.00  0.00    +0.199 C 
ATOM     22  C   UNL     1       4.048  -0.362   0.248  0.00  0.00    +0.031 C 
ATOM     23  C   UNL     1      -4.639   0.762  -0.075  0.00  0.00    -0.007 C 
ATOM     24  C   UNL     1       3.764  -2.524  -0.882  0.00  0.00    +0.026 C 
ENDROOT
BRANCH   8  25
ATOM     25  O   UNL     1      -0.455   3.065  -0.121  0.00  0.00    -0.362 OA
ATOM     26  H   UNL     1       0.427   3.085  -0.523  0.00  0.00    +0.213 HD
ENDBRANCH   8  25
BRANCH  14  27
ATOM     27  O   UNL     1      -2.284   2.060   1.697  0.00  0.00    -0.376 OA
ATOM     28  H   UNL     1      -1.745   2.847   1.873  0.00  0.00    +0.211 HD
ENDBRANCH  14  27
BRANCH  15  29
ATOM     29  O   UNL     1       1.814   2.460   1.127  0.00  0.00    -0.377 OA
ATOM     30  H   UNL     1       0.862   2.635   1.189  0.00  0.00    +0.211 HD
ENDBRANCH  15  29
TORSDOF 3
