REMARK  Name = 102019659
REMARK  3 active torsions:
REMARK  status: ('A' for Active; 'I' for Inactive)
REMARK    1  A    between atoms: C_10  and  O_34
REMARK    2  A    between atoms: C_11  and  O_36
REMARK    3  A    between atoms: C_23  and  C_30
REMARK                            x       y       z     vdW  Elec       q    Type
REMARK                         _______ _______ _______ _____ _____    ______ ____
ROOT
ATOM      1  O   UNL     1      -1.044   1.581   1.670  0.00  0.00    -0.337 OA
ATOM      2  O   UNL     1      -2.904  -2.361   1.845  0.00  0.00    -0.448 OA
ATOM      3  O   UNL     1       3.438   1.433  -0.265  0.00  0.00    -0.448 OA
ATOM      4  O   UNL     1      -2.389   2.087  -2.757  0.00  0.00    -0.293 OA
ATOM      5  O   UNL     1      -2.830  -4.245   0.592  0.00  0.00    -0.250 OA
ATOM      6  O   UNL     1       3.201   3.644   0.052  0.00  0.00    -0.250 OA
ATOM      7  C   UNL     1      -2.181  -0.302   0.733  0.00  0.00    +0.093 C 
ATOM      8  C   UNL     1      -0.040   0.819   0.953  0.00  0.00    +0.099 C 
ATOM      9  C   UNL     1      -0.675  -0.568   1.113  0.00  0.00    +0.033 C 
ATOM     10  C   UNL     1      -2.177   1.265   0.807  0.00  0.00    +0.216 C 
ATOM     11  C   UNL     1      -1.660   1.849  -0.499  0.00  0.00    +0.188 C 
ATOM     12  C   UNL     1      -0.196   1.388  -0.480  0.00  0.00    +0.066 C 
ATOM     13  C   UNL     1      -2.586  -0.898  -0.659  0.00  0.00    +0.026 C 
ATOM     14  C   UNL     1       1.346   0.860   1.630  0.00  0.00    +0.040 C 
ATOM     15  C   UNL     1       2.310  -0.279   1.170  0.00  0.00    +0.044 C 
ATOM     16  C   UNL     1       0.194  -1.640   0.468  0.00  0.00    +0.003 C 
ATOM     17  C   UNL     1      -3.245   0.108  -1.658  0.00  0.00    +0.055 C 
ATOM     18  C   UNL     1      -3.079  -0.933   1.816  0.00  0.00    +0.213 C 
ATOM     19  C   UNL     1       1.564  -1.650   1.163  0.00  0.00    +0.004 C 
ATOM     20  C   UNL     1      -2.418   1.399  -1.732  0.00  0.00    +0.178 C 
ATOM     21  C   UNL     1      -3.419  -2.190  -0.504  0.00  0.00    +0.110 C 
ATOM     22  C   UNL     1       2.017   2.231   1.560  0.00  0.00    +0.112 C 
ATOM     23  C   UNL     1       2.868   0.099  -0.231  0.00  0.00    +0.194 C 
ATOM     24  C   UNL     1       3.461  -0.397   2.205  0.00  0.00    +0.004 C 
ATOM     25  C   UNL     1      -3.256  -0.507  -3.080  0.00  0.00    +0.007 C 
ATOM     26  C   UNL     1      -4.696   0.484  -1.310  0.00  0.00    +0.007 C 
ATOM     27  C   UNL     1      -3.005  -3.034   0.672  0.00  0.00    +0.317 C 
ATOM     28  C   UNL     1       2.899   2.495   0.369  0.00  0.00    +0.317 C 
ENDROOT
BRANCH  23  30
ATOM     29  O   UNL     1       5.871  -1.809  -1.321  0.00  0.00    -0.448 OA
ATOM     30  C   UNL     1       3.901  -0.846  -0.826  0.00  0.00    +0.058 C 
ATOM     31  C   UNL     1       3.657  -1.945  -1.684  0.00  0.00    +0.043 C 
ATOM     32  C   UNL     1       5.263  -0.806  -0.635  0.00  0.00    +0.179 C 
ATOM     33  C   UNL     1       4.887  -2.497  -1.957  0.00  0.00    +0.180 C 
ENDBRANCH  23  30
BRANCH  10  34
ATOM     34  O   UNL     1      -3.365   1.895   1.225  0.00  0.00    -0.361 OA
ATOM     35  H   UNL     1      -3.665   1.498   2.058  0.00  0.00    +0.213 HD
ENDBRANCH  10  34
BRANCH  11  36
ATOM     36  O   UNL     1      -1.712   3.270  -0.444  0.00  0.00    -0.376 OA
ATOM     37  H   UNL     1      -1.231   3.581   0.339  0.00  0.00    +0.211 HD
ENDBRANCH  11  36
TORSDOF 3
