REMARK  Name = 102086069
REMARK  9 active torsions:
REMARK  status: ('A' for Active; 'I' for Inactive)
REMARK    1  A    between atoms: C_3  and  O_31
REMARK    2  A    between atoms: C_7  and  C_21
REMARK    3  A    between atoms: C_13  and  O_33
REMARK    4  A    between atoms: C_18  and  O_35
REMARK    5  A    between atoms: C_20  and  O_37
REMARK    6  A    between atoms: C_23  and  C_24
REMARK    7  A    between atoms: C_24  and  C_25
REMARK    8  A    between atoms: C_25  and  C_26
REMARK    9  A    between atoms: C_26  and  O_29
REMARK                            x       y       z     vdW  Elec       q    Type
REMARK                         _______ _______ _______ _____ _____    ______ ____
ROOT
ATOM      1  O   UNL     1      -3.893  -1.997   2.684  0.00  0.00    -0.291 OA
ATOM      2  C   UNL     1       0.931  -0.602  -0.486  0.00  0.00    +0.029 C 
ATOM      3  C   UNL     1      -0.208  -1.654  -0.436  0.00  0.00    +0.104 C 
ATOM      4  C   UNL     1      -1.954   0.221  -0.280  0.00  0.00    +0.023 C 
ATOM      5  C   UNL     1      -3.092   0.864   0.612  0.00  0.00    +0.038 C 
ATOM      6  C   UNL     1      -1.436  -1.118   0.269  0.00  0.00    -0.018 C 
ATOM      7  C   UNL     1       2.039  -1.409  -1.216  0.00  0.00    +0.021 C 
ATOM      8  C   UNL     1       0.432   0.627  -1.265  0.00  0.00    +0.003 C 
ATOM      9  C   UNL     1      -0.813   1.235  -0.600  0.00  0.00    +0.004 C 
ATOM     10  C   UNL     1       0.529  -2.907   0.060  0.00  0.00    +0.031 C 
ATOM     11  C   UNL     1      -4.097  -0.239   1.057  0.00  0.00    +0.067 C 
ATOM     12  C   UNL     1       1.924  -2.822  -0.598  0.00  0.00    +0.007 C 
ATOM     13  C   UNL     1      -3.878   1.968  -0.172  0.00  0.00    +0.140 C 
ATOM     14  C   UNL     1       1.412  -0.166   0.928  0.00  0.00    +0.003 C 
ATOM     15  C   UNL     1      -4.949  -0.802  -0.097  0.00  0.00    +0.040 C 
ATOM     16  C   UNL     1      -2.065  -1.817   1.225  0.00  0.00    +0.031 C 
ATOM     17  C   UNL     1      -2.495   1.510   1.897  0.00  0.00    +0.003 C 
ATOM     18  C   UNL     1      -4.723   1.390  -1.320  0.00  0.00    +0.164 C 
ATOM     19  C   UNL     1      -3.379  -1.383   1.750  0.00  0.00    +0.172 C 
ATOM     20  C   UNL     1      -5.690   0.297  -0.857  0.00  0.00    +0.140 C 
ENDROOT
BRANCH   7  21
ATOM     21  C   UNL     1       3.423  -0.848  -1.161  0.00  0.00    -0.048 C 
ATOM     22  C   UNL     1       3.768   0.074  -2.301  0.00  0.00    +0.026 C 
ATOM     23  C   UNL     1       4.322  -1.102  -0.192  0.00  0.00    -0.035 C 
BRANCH  23  24
ATOM     24  C   UNL     1       5.724  -0.571  -0.079  0.00  0.00    +0.028 C 
BRANCH  24  25
ATOM     25  C   UNL     1       5.743   0.792   0.623  0.00  0.00    +0.032 C 
BRANCH  25  26
ATOM     26  C   UNL     1       7.139   1.445   0.711  0.00  0.00    +0.089 C 
ATOM     27  C   UNL     1       7.018   2.854   1.303  0.00  0.00    +0.029 C 
ATOM     28  C   UNL     1       8.119   0.619   1.546  0.00  0.00    +0.029 C 
BRANCH  26  29
ATOM     29  O   UNL     1       7.690   1.567  -0.601  0.00  0.00    -0.387 OA
ATOM     30  H   UNL     1       7.090   2.088  -1.158  0.00  0.00    +0.210 HD
ENDBRANCH  26  29
ENDBRANCH  25  26
ENDBRANCH  24  25
ENDBRANCH  23  24
ENDBRANCH   7  21
BRANCH   3  31
ATOM     31  O   UNL     1      -0.635  -1.961  -1.783  0.00  0.00    -0.383 OA
ATOM     32  H   UNL     1      -1.111  -1.200  -2.153  0.00  0.00    +0.211 HD
ENDBRANCH   3  31
BRANCH  13  33
ATOM     33  O   UNL     1      -4.743   2.667   0.733  0.00  0.00    -0.382 OA
ATOM     34  H   UNL     1      -4.219   3.035   1.461  0.00  0.00    +0.210 HD
ENDBRANCH  13  33
BRANCH  18  35
ATOM     35  O   UNL     1      -5.466   2.430  -1.953  0.00  0.00    -0.380 OA
ATOM     36  H   UNL     1      -4.860   3.127  -2.250  0.00  0.00    +0.211 HD
ENDBRANCH  18  35
BRANCH  20  37
ATOM     37  O   UNL     1      -6.696   0.836   0.000  0.00  0.00    -0.382 OA
ATOM     38  H   UNL     1      -7.295   0.127   0.281  0.00  0.00    +0.210 HD
ENDBRANCH  20  37
TORSDOF 9
