REMARK  Name = 10206893
REMARK  10 active torsions:
REMARK  status: ('A' for Active; 'I' for Inactive)
REMARK    1  A    between atoms: C_8  and  C_17
REMARK    2  A    between atoms: C_9  and  O_20
REMARK    3  A    between atoms: C_14  and  O_33
REMARK    4  A    between atoms: C_16  and  C_37
REMARK    5  A    between atoms: O_20  and  C_22
REMARK    6  A    between atoms: C_23  and  O_27
REMARK    7  A    between atoms: C_24  and  O_29
REMARK    8  A    between atoms: C_25  and  O_31
REMARK    9  A    between atoms: O_33  and  C_35
REMARK   10  A    between atoms: C_37  and  O_38
REMARK                            x       y       z     vdW  Elec       q    Type
REMARK                         _______ _______ _______ _____ _____    ______ ____
ROOT
ATOM      1  C   UNL     1      -0.258   0.838  -1.255  0.00  0.00    +0.033 C 
ATOM      2  C   UNL     1      -1.909   2.925   0.239  0.00  0.00    +0.015 C 
ATOM      3  C   UNL     1      -1.244   0.436  -0.095  0.00  0.00    +0.024 C 
ATOM      4  C   UNL     1      -2.357   1.481   0.048  0.00  0.00    -0.053 C 
ATOM      5  C   UNL     1       0.231   2.306  -1.002  0.00  0.00    +0.003 C 
ATOM      6  C   UNL     1      -0.893   3.328  -0.841  0.00  0.00    +0.004 C 
ATOM      7  C   UNL     1      -3.216   3.722   0.059  0.00  0.00    +0.008 C 
ATOM      8  C   UNL     1      -3.704   1.402   0.076  0.00  0.00    -0.052 C 
ATOM      9  C   UNL     1       1.034  -0.050  -1.314  0.00  0.00    +0.140 C 
ATOM     10  C   UNL     1      -1.751  -1.024  -0.120  0.00  0.00    +0.052 C 
ATOM     11  C   UNL     1      -4.337   2.738   0.349  0.00  0.00    +0.022 C 
ATOM     12  C   UNL     1      -0.968   0.782  -2.633  0.00  0.00    +0.003 C 
ATOM     13  C   UNL     1      -1.349   3.152   1.654  0.00  0.00    +0.004 C 
ATOM     14  C   UNL     1      -0.684  -2.108   0.082  0.00  0.00    +0.190 C 
ATOM     15  C   UNL     1       0.857  -1.468  -1.771  0.00  0.00    +0.000 C 
ATOM     16  C   UNL     1       0.100  -2.405  -1.175  0.00  0.00    +0.022 C 
ENDROOT
BRANCH   8  17
ATOM     17  C   UNL     1      -4.625   0.241  -0.084  0.00  0.00    +0.018 C 
ATOM     18  C   UNL     1      -5.533   0.423  -1.300  0.00  0.00    +0.004 C 
ATOM     19  C   UNL     1      -5.455   0.036   1.182  0.00  0.00    +0.004 C 
ENDBRANCH   8  17
BRANCH   9  20
ATOM     20  O   UNL     1       1.717  -0.076  -0.060  0.00  0.00    -0.327 OA
BRANCH  20  22
ATOM     21  O   UNL     1       3.787  -0.231  -1.127  0.00  0.00    -0.326 OA
ATOM     22  C   UNL     1       3.020   0.494  -0.168  0.00  0.00    +0.266 C 
ATOM     23  C   UNL     1       3.680   0.421   1.210  0.00  0.00    +0.196 C 
ATOM     24  C   UNL     1       5.139   0.874   1.158  0.00  0.00    +0.172 C 
ATOM     25  C   UNL     1       5.885   0.190   0.013  0.00  0.00    +0.169 C 
ATOM     26  C   UNL     1       5.097   0.305  -1.284  0.00  0.00    +0.176 C 
BRANCH  23  27
ATOM     27  O   UNL     1       2.978   1.269   2.118  0.00  0.00    -0.378 OA
ATOM     28  H   UNL     1       2.048   0.995   2.163  0.00  0.00    +0.211 HD
ENDBRANCH  23  27
BRANCH  24  29
ATOM     29  O   UNL     1       5.755   0.531   2.400  0.00  0.00    -0.379 OA
ATOM     30  H   UNL     1       5.281   0.965   3.127  0.00  0.00    +0.211 HD
ENDBRANCH  24  29
BRANCH  25  31
ATOM     31  O   UNL     1       7.156   0.800  -0.180  0.00  0.00    -0.379 OA
ATOM     32  H   UNL     1       7.673   0.736   0.638  0.00  0.00    +0.211 HD
ENDBRANCH  25  31
ENDBRANCH  20  22
ENDBRANCH   9  20
BRANCH  14  33
ATOM     33  O   UNL     1      -1.372  -3.280   0.534  0.00  0.00    -0.448 OA
BRANCH  33  35
ATOM     34  O   UNL     1      -1.884  -2.345   2.583  0.00  0.00    -0.250 OA
ATOM     35  C   UNL     1      -2.112  -3.123   1.667  0.00  0.00    +0.318 C 
ATOM     36  C   UNL     1      -3.280  -4.062   1.635  0.00  0.00    +0.121 C 
ENDBRANCH  33  35
ENDBRANCH  14  33
BRANCH  16  37
ATOM     37  C   UNL     1       0.015  -3.786  -1.768  0.00  0.00    +0.163 C 
BRANCH  37  38
ATOM     38  O   UNL     1       0.476  -4.734  -0.826  0.00  0.00    -0.377 OA
ATOM     39  H   UNL     1       0.422  -5.623  -1.208  0.00  0.00    +0.211 HD
ENDBRANCH  37  38
ENDBRANCH  16  37
TORSDOF 10
