102066236
  -OEChem-03292013293D

 56 57  0     1  0  0  0  0  0999 V2000
    7.4413    2.8241   -0.0808 O   0  0  0  0  0  0  0  0  0  0  0  0
   -7.7965    0.7199   -2.0915 O   0  0  0  0  0  0  0  0  0  0  0  0
    8.5954    1.0078    0.6324 O   0  0  0  0  0  0  0  0  0  0  0  0
   -8.6643    0.3484   -0.0303 O   0  0  0  0  0  0  0  0  0  0  0  0
    1.4858   -0.5981    1.2516 N   0  0  0  0  0  0  0  0  0  0  0  0
   -1.6915   -1.6946    0.2122 N   0  3  0  0  0  0  0  0  0  0  0  0
    7.7032   -0.5443   -1.4077 N   0  0  0  0  0  0  0  0  0  0  0  0
   -7.0772    2.2158    1.1366 N   0  0  0  0  0  0  0  0  0  0  0  0
   -0.6478   -1.0344    0.8350 C   0  0  0  0  0  0  0  0  0  0  0  0
    2.9923   -0.6321    1.2233 C   0  0  0  0  0  0  0  0  0  0  0  0
    0.6528   -1.3950    0.5019 C   0  0  0  0  0  0  0  0  0  0  0  0
   -3.0766   -1.3544    0.5274 C   0  0  0  0  0  0  0  0  0  0  0  0
    3.5504    0.0732   -0.0149 C   0  0  0  0  0  0  0  0  0  0  0  0
   -3.5103   -0.0571   -0.1589 C   0  0  0  0  0  0  0  0  0  0  0  0
    5.0813    0.0710   -0.0124 C   0  0  0  0  0  0  0  0  0  0  0  0
   -4.9756    0.2675    0.1427 C   0  0  0  0  0  0  0  0  0  0  0  0
    0.7446    0.2459    2.0397 C   0  0  0  0  0  0  0  0  0  0  0  0
   -0.5885   -0.0039    1.8009 C   0  0  0  0  0  0  0  0  0  0  0  0
    5.6371    0.8143   -1.2351 C   0  0  0  0  0  0  0  0  0  0  0  0
   -5.4182    1.5475   -0.5797 C   0  0  0  0  0  0  0  0  0  0  0  0
    0.9287   -2.3934   -0.4326 C   0  0  0  0  0  0  0  0  0  0  0  0
   -1.4573   -2.6551   -0.6869 C   0  0  0  0  0  0  0  0  0  0  0  0
    7.1691    0.8154   -1.3401 C   0  0  1  0  0  0  0  0  0  0  0  0
   -6.8638    1.9771   -0.2905 C   0  0  1  0  0  0  0  0  0  0  0  0
   -0.1644   -3.0239   -1.0273 C   0  0  0  0  0  0  0  0  0  0  0  0
    7.8195    1.5209   -0.1635 C   0  0  0  0  0  0  0  0  0  0  0  0
   -7.8695    0.9374   -0.7515 C   0  0  0  0  0  0  0  0  0  0  0  0
    3.2708   -1.6908    1.2594 H   0  0  0  0  0  0  0  0  0  0  0  0
    3.3252   -0.1494    2.1487 H   0  0  0  0  0  0  0  0  0  0  0  0
   -3.1539   -1.2705    1.6179 H   0  0  0  0  0  0  0  0  0  0  0  0
   -3.7244   -2.1872    0.2296 H   0  0  0  0  0  0  0  0  0  0  0  0
    3.1830   -0.4137   -0.9258 H   0  0  0  0  0  0  0  0  0  0  0  0
    3.1821    1.1064   -0.0425 H   0  0  0  0  0  0  0  0  0  0  0  0
   -2.8754    0.7760    0.1619 H   0  0  0  0  0  0  0  0  0  0  0  0
   -3.3688   -0.1581   -1.2420 H   0  0  0  0  0  0  0  0  0  0  0  0
    5.4437    0.5449    0.9073 H   0  0  0  0  0  0  0  0  0  0  0  0
    5.4349   -0.9664   -0.0049 H   0  0  0  0  0  0  0  0  0  0  0  0
   -5.6063   -0.5728   -0.1705 H   0  0  0  0  0  0  0  0  0  0  0  0
   -5.0988    0.3806    1.2259 H   0  0  0  0  0  0  0  0  0  0  0  0
    1.2231    0.9538    2.7029 H   0  0  0  0  0  0  0  0  0  0  0  0
   -1.4150    0.5049    2.2766 H   0  0  0  0  0  0  0  0  0  0  0  0
    5.2223    0.3615   -2.1455 H   0  0  0  0  0  0  0  0  0  0  0  0
    5.2730    1.8495   -1.2149 H   0  0  0  0  0  0  0  0  0  0  0  0
   -5.2901    1.4056   -1.6604 H   0  0  0  0  0  0  0  0  0  0  0  0
   -4.7442    2.3669   -0.2965 H   0  0  0  0  0  0  0  0  0  0  0  0
    1.9428   -2.6764   -0.6917 H   0  0  0  0  0  0  0  0  0  0  0  0
   -2.3171   -3.1311   -1.1449 H   0  0  0  0  0  0  0  0  0  0  0  0
    7.4726    1.3464   -2.2500 H   0  0  0  0  0  0  0  0  0  0  0  0
   -7.0831    2.9072   -0.8280 H   0  0  0  0  0  0  0  0  0  0  0  0
   -0.0005   -3.8070   -1.7620 H   0  0  0  0  0  0  0  0  0  0  0  0
    8.7056   -0.5099   -1.5902 H   0  0  0  0  0  0  0  0  0  0  0  0
    7.2872   -1.0355   -2.1980 H   0  0  0  0  0  0  0  0  0  0  0  0
   -6.4180    2.9194    1.4673 H   0  0  0  0  0  0  0  0  0  0  0  0
   -8.0073    2.6066    1.2832 H   0  0  0  0  0  0  0  0  0  0  0  0
    7.8614    3.2786    0.6802 H   0  0  0  0  0  0  0  0  0  0  0  0
   -8.4460    0.0474   -2.3882 H   0  0  0  0  0  0  0  0  0  0  0  0
  1 26  1  0  0  0  0
  1 55  1  0  0  0  0
  2 27  1  0  0  0  0
  2 56  1  0  0  0  0
  3 26  2  0  0  0  0
  4 27  2  0  0  0  0
  5 10  1  0  0  0  0
  5 11  1  0  0  0  0
  5 17  1  0  0  0  0
  6  9  1  0  0  0  0
  6 12  1  0  0  0  0
  6 22  2  0  0  0  0
  7 23  1  0  0  0  0
  7 51  1  0  0  0  0
  7 52  1  0  0  0  0
  8 24  1  0  0  0  0
  8 53  1  0  0  0  0
  8 54  1  0  0  0  0
  9 11  2  0  0  0  0
  9 18  1  0  0  0  0
 10 13  1  0  0  0  0
 10 28  1  0  0  0  0
 10 29  1  0  0  0  0
 11 21  1  0  0  0  0
 12 14  1  0  0  0  0
 12 30  1  0  0  0  0
 12 31  1  0  0  0  0
 13 15  1  0  0  0  0
 13 32  1  0  0  0  0
 13 33  1  0  0  0  0
 14 16  1  0  0  0  0
 14 34  1  0  0  0  0
 14 35  1  0  0  0  0
 15 19  1  0  0  0  0
 15 36  1  0  0  0  0
 15 37  1  0  0  0  0
 16 20  1  0  0  0  0
 16 38  1  0  0  0  0
 16 39  1  0  0  0  0
 17 18  2  0  0  0  0
 17 40  1  0  0  0  0
 18 41  1  0  0  0  0
 19 23  1  0  0  0  0
 19 42  1  0  0  0  0
 19 43  1  0  0  0  0
 20 24  1  0  0  0  0
 20 44  1  0  0  0  0
 20 45  1  0  0  0  0
 21 25  2  0  0  0  0
 21 46  1  0  0  0  0
 22 25  1  0  0  0  0
 22 47  1  0  0  0  0
 23 26  1  0  0  0  0
 23 48  1  0  0  0  0
 24 27  1  0  0  0  0
 24 49  1  0  0  0  0
 25 50  1  0  0  0  0
M  CHG  1   6   1
M  END
> <PUBCHEM_COMPOUND_CID>
102066236

> <PUBCHEM_CONFORMER_RMSD>
1.2

> <PUBCHEM_CONFORMER_DIVERSEORDER>
1
46
179
236
36
79
9
233
146
73
144
145
234
106
153
170
22
222
93
62
150
172
213
127
4
118
102
224
97
165
148
94
101
58
183
72
230
162
114
6
161
203
225
67
152
49
32
111
156
78
143
122
120
132
157
237
34
134
33
209
147
65
96
235
130
201
221
202
56
175
136
218
100
194
104
129
42
226
99
180
139
115
142
77
48
197
2
38
167
211
140
196
189
16
181
186
60
70
85
166
210
71
174
158
54
117
216
30
232
195
168
206
92
86
193
192
188
43
12
208
126
231
95
229
18
223
177
88
108
81
124
182
154
155
59
199
128
37
24
151
160
74
105
164
20
163
69
219
61
119
220
204
21
169
44
68
215
5
41
116
75
51
11
187
26
31
14
103
110
10
47
191
84
138
90
98
64
125
25
228
23
83
137
123
205
185
133
80
198
27
112
55
82
13
149
87
8
171
217
141
28
121
76
66
109
50
63
178
212
200
17
89
214
53
35
159
113
40
107
39
176
15
190
7
227
52
91
207
135
57
173
3
29
184
45
19
131

> <PUBCHEM_MMFF94_PARTIAL_CHARGES>
32
1 -0.65
10 0.26
11 -0.15
12 0.49
17 -0.3
18 -0.15
2 -0.65
21 -0.15
22 0.21
23 0.33
24 0.33
25 -0.15
26 0.66
27 0.66
3 -0.57
4 -0.57
40 0.15
41 0.15
46 0.15
47 0.15
5 0.05
50 0.15
51 0.36
52 0.36
53 0.36
54 0.36
55 0.5
56 0.5
6 -0.16
7 -0.99
8 -0.99
9 0.31

> <PUBCHEM_EFFECTIVE_ROTOR_COUNT>
12

> <PUBCHEM_PHARMACOPHORE_FEATURES>
13
1 1 acceptor
1 2 acceptor
1 3 acceptor
1 4 acceptor
1 5 cation
1 7 cation
1 7 donor
1 8 cation
1 8 donor
3 1 3 26 anion
3 2 4 27 anion
5 5 9 11 17 18 rings
6 6 9 11 21 22 25 rings

> <PUBCHEM_HEAVY_ATOM_COUNT>
27

> <PUBCHEM_ATOM_DEF_STEREO_COUNT>
0

> <PUBCHEM_ATOM_UDEF_STEREO_COUNT>
2

> <PUBCHEM_BOND_DEF_STEREO_COUNT>
0

> <PUBCHEM_BOND_UDEF_STEREO_COUNT>
0

> <PUBCHEM_ISOTOPIC_ATOM_COUNT>
0

> <PUBCHEM_COMPONENT_COUNT>
1

> <PUBCHEM_CACTVS_TAUTO_COUNT>
1

> <PUBCHEM_CONFORMER_ID>
0615683C00000001

> <PUBCHEM_MMFF94_ENERGY>
29.8007

> <PUBCHEM_FEATURE_SELFOVERLAP>
66.188

> <PUBCHEM_SHAPE_FINGERPRINT>
10 15 16008747996485274961
10369192 42 18408602548608992101
10483366 6 18273498961549691416
10669705 176 18412266138169178911
10693767 8 16630243589421341791
10835480 77 17846501495938217736
12218070 45 14852184986745049545
12895836 83 18410291436633590934
13540713 4 17272275014605945490
13673619 4 11959728257120719067
14251757 52 18333731312741963082
14931854 50 17489310754401529355
15183329 4 17632580422304218970
15188451 53 10807937067868348418
15301273 46 13768207151471477003
15510800 12 11959452352627323549
15840311 113 17968096382978373262
15961568 22 18114463362768707445
1818759 1 12031790292075819989
18335252 114 18408602544097915508
20105231 36 16988841701451163647
21637258 2 12175619555541191762
21792934 111 11674876701955866319
21792961 116 18202572760803168227
22224240 67 14779267505768181105
23389318 12 13830129521230534040
23559900 14 17346037900603875298
23576562 1 18199461250476174045
24771293 8 18114182996104516845
3633792 109 18272940384679819086
5385378 56 16443057293323411066
5718773 13 9655282731955759393
636775 8 9079122181039774912
9689198 14 18041003929252415876
9896288 288 10882215666757191094
9953998 17 14490194925306027897

> <PUBCHEM_SHAPE_MULTIPOLES>
512.25
27.01
2.65
1.53
3.13
0.87
-0.18
-25.86
10.32
-0.41
0.61
0.05
-0.05
-0.01

> <PUBCHEM_SHAPE_SELFOVERLAP>
1048.86

> <PUBCHEM_SHAPE_VOLUME>
295.8

> <PUBCHEM_COORDINATE_TYPE>
2
5
10

$$$$
