REMARK  Name = 102066236
REMARK  16 active torsions:
REMARK  status: ('A' for Active; 'I' for Inactive)
REMARK    1  A    between atoms: N_1  and  C_10
REMARK    2  A    between atoms: N_2  and  C_23
REMARK    3  A    between atoms: C_10  and  C_11
REMARK    4  A    between atoms: C_11  and  C_12
REMARK    5  A    between atoms: C_12  and  C_13
REMARK    6  A    between atoms: C_13  and  C_14
REMARK    7  A    between atoms: C_14  and  N_15
REMARK    8  A    between atoms: C_14  and  C_20
REMARK    9  A    between atoms: C_20  and  O_21
REMARK   10  A    between atoms: C_23  and  C_24
REMARK   11  A    between atoms: C_24  and  C_25
REMARK   12  A    between atoms: C_25  and  C_26
REMARK   13  A    between atoms: C_26  and  C_27
REMARK   14  A    between atoms: C_27  and  N_28
REMARK   15  A    between atoms: C_27  and  C_33
REMARK   16  A    between atoms: C_33  and  O_34
REMARK                            x       y       z     vdW  Elec       q    Type
REMARK                         _______ _______ _______ _____ _____    ______ ____
ROOT
ATOM      1  N   UNK     1       1.486  -0.598   1.252  0.00  0.00    -0.303 N 
ATOM      2  N   UNK     1      -1.692  -1.695   0.212  0.00  0.00    -0.285 N 
ATOM      3  C   UNK     1      -0.648  -1.034   0.835  0.00  0.00    +0.062 C 
ATOM      4  C   UNK     1       0.653  -1.395   0.502  0.00  0.00    +0.062 C 
ATOM      5  C   UNK     1       0.745   0.246   2.040  0.00  0.00    +0.119 C 
ATOM      6  C   UNK     1      -0.589  -0.004   1.801  0.00  0.00    +0.011 C 
ATOM      7  C   UNK     1       0.929  -2.393  -0.433  0.00  0.00    +0.017 C 
ATOM      8  C   UNK     1      -1.457  -2.655  -0.687  0.00  0.00    +0.065 C 
ATOM      9  C   UNK     1      -0.164  -3.024  -1.027  0.00  0.00    +0.017 C 
ENDROOT
BRANCH   1  10
ATOM     10  C   UNK     1       2.992  -0.632   1.223  0.00  0.00    +0.091 C 
BRANCH  10  11
ATOM     11  C   UNK     1       3.550   0.073  -0.015  0.00  0.00    +0.021 C 
BRANCH  11  12
ATOM     12  C   UNK     1       5.081   0.071  -0.012  0.00  0.00    +0.000 C 
BRANCH  12  13
ATOM     13  C   UNK     1       5.637   0.814  -1.235  0.00  0.00    -0.011 C 
BRANCH  13  14
ATOM     14  C   UNK     1       7.169   0.815  -1.340  0.00  0.00    +0.036 C 
BRANCH  14  15
ATOM     15  N   UNK     1       7.703  -0.544  -1.408  0.00  0.00    +0.389 N 
ATOM     16  H   UNK     1       7.279  -1.038  -2.193  0.00  0.00    -0.088 HD
ATOM     17  H   UNK     1       7.489  -1.037  -0.541  0.00  0.00    -0.088 HD
ATOM     18  H   UNK     1       8.714  -0.506  -1.536  0.00  0.00    -0.088 HD
ENDBRANCH  14  15
BRANCH  14  20
ATOM     19  O   UNK     1       8.595   1.008   0.632  0.00  0.00    -0.253 OA
ATOM     20  C   UNK     1       7.819   1.521  -0.164  0.00  0.00    +0.293 C 
BRANCH  20  21
ATOM     21  O   UNK     1       7.441   2.824  -0.081  0.00  0.00    -0.482 OA
ATOM     22  H   UNK     1       6.845   3.180  -0.710  0.00  0.00    +0.295 HD
ENDBRANCH  20  21
ENDBRANCH  14  20
ENDBRANCH  13  14
ENDBRANCH  12  13
ENDBRANCH  11  12
ENDBRANCH  10  11
ENDBRANCH   1  10
BRANCH   2  23
ATOM     23  C   UNK     1      -3.077  -1.354   0.527  0.00  0.00    +0.096 C 
BRANCH  23  24
ATOM     24  C   UNK     1      -3.510  -0.057  -0.159  0.00  0.00    +0.022 C 
BRANCH  24  25
ATOM     25  C   UNK     1      -4.976   0.268   0.143  0.00  0.00    +0.000 C 
BRANCH  25  26
ATOM     26  C   UNK     1      -5.418   1.548  -0.580  0.00  0.00    -0.011 C 
BRANCH  26  27
ATOM     27  C   UNK     1      -6.864   1.977  -0.290  0.00  0.00    +0.036 C 
BRANCH  27  28
ATOM     28  N   UNK     1      -7.077   2.216   1.137  0.00  0.00    +0.389 N 
ATOM     29  H   UNK     1      -6.410   2.913   1.468  0.00  0.00    -0.088 HD
ATOM     30  H   UNK     1      -6.943   1.345   1.651  0.00  0.00    -0.088 HD
ATOM     31  H   UNK     1      -8.027   2.556   1.286  0.00  0.00    -0.088 HD
ENDBRANCH  27  28
BRANCH  27  33
ATOM     32  O   UNK     1      -8.664   0.348  -0.030  0.00  0.00    -0.253 OA
ATOM     33  C   UNK     1      -7.870   0.937  -0.751  0.00  0.00    +0.293 C 
BRANCH  33  34
ATOM     34  O   UNK     1      -7.796   0.720  -2.091  0.00  0.00    -0.482 OA
ATOM     35  H   UNK     1      -7.174   1.191  -2.609  0.00  0.00    +0.295 HD
ENDBRANCH  33  34
ENDBRANCH  27  33
ENDBRANCH  26  27
ENDBRANCH  25  26
ENDBRANCH  24  25
ENDBRANCH  23  24
ENDBRANCH   2  23
TORSDOF 16
