REMARK  Name = 102061314
REMARK  12 active torsions:
REMARK  status: ('A' for Active; 'I' for Inactive)
REMARK    1  A    between atoms: C_3  and  C_10
REMARK    2  A    between atoms: C_4  and  C_22
REMARK    3  A    between atoms: C_5  and  C_8
REMARK    4  A    between atoms: C_6  and  C_26
REMARK    5  A    between atoms: C_8  and  O_19
REMARK    6  A    between atoms: C_13  and  N_18
REMARK    7  A    between atoms: C_22  and  O_23
REMARK    8  A    between atoms: O_23  and  C_24
REMARK    9  A    between atoms: C_26  and  S_27
REMARK   10  A    between atoms: S_27  and  C_28
REMARK   11  A    between atoms: C_28  and  C_29
REMARK   12  A    between atoms: C_29  and  N_30
REMARK                            x       y       z     vdW  Elec       q    Type
REMARK                         _______ _______ _______ _____ _____    ______ ____
ROOT
ATOM      1  N   UNL     1      -0.218   2.180   1.251  0.00  0.00    -0.417 NA
ATOM      2  C   UNL     1      -0.996   0.577  -1.061  0.00  0.00    +0.056 C 
ATOM      3  C   UNL     1       0.417   1.030  -0.761  0.00  0.00    +0.153 C 
ATOM      4  C   UNL     1      -2.007   1.351  -0.244  0.00  0.00    +0.152 C 
ATOM      5  C   UNL     1       0.719   1.775   0.323  0.00  0.00    +0.107 C 
ATOM      6  C   UNL     1      -1.479   1.999   1.000  0.00  0.00    +0.097 C 
ATOM      7  C   UNL     1      -2.455   2.494   2.046  0.00  0.00    +0.062 C 
ENDROOT
BRANCH   2   8
ATOM      8  C   UNL     1      -1.137  -0.894  -0.801  0.00  0.00    -0.019 C 
ATOM      9  C   UNL     1      -0.932  -1.399   0.483  0.00  0.00    +0.020 C 
ATOM     10  C   UNL     1      -1.473  -1.757  -1.844  0.00  0.00    -0.004 C 
ATOM     11  C   UNL     1      -1.063  -2.767   0.724  0.00  0.00    +0.143 C 
ATOM     12  C   UNL     1      -1.604  -3.125  -1.603  0.00  0.00    +0.001 C 
ATOM     13  C   UNL     1      -1.399  -3.630  -0.319  0.00  0.00    +0.024 C 
BRANCH  11  16
ATOM     14  O   UNL     1      -0.977  -4.514   2.227  0.00  0.00    -0.126 OA
ATOM     15  O   UNL     1      -0.552  -2.487   2.955  0.00  0.00    -0.126 OA
ATOM     16  N   UNL     1      -0.854  -3.280   2.031  0.00  0.00    +0.058 N 
ENDBRANCH  11  16
ENDBRANCH   2   8
BRANCH   4  18
ATOM     17  O   UNL     1      -3.794   0.995  -1.670  0.00  0.00    -0.250 OA
ATOM     18  C   UNL     1      -3.282   1.515  -0.628  0.00  0.00    +0.323 C 
BRANCH  18  19
ATOM     19  O   UNL     1      -3.967   2.351   0.298  0.00  0.00    -0.444 OA
ATOM     20  C   UNL     1      -5.341   2.613   0.014  0.00  0.00    +0.256 C 
ENDBRANCH  18  19
ENDBRANCH   4  18
BRANCH   3  22
ATOM     21  O   UNL     1       1.720   1.334  -2.717  0.00  0.00    -0.250 OA
ATOM     22  C   UNL     1       1.449   0.657  -1.744  0.00  0.00    +0.323 C 
BRANCH  22  23
ATOM     23  O   UNL     1       1.995  -0.522  -1.361  0.00  0.00    -0.448 OA
BRANCH  23  24
ATOM     24  C   UNL     1       3.023  -1.021  -2.223  0.00  0.00    +0.209 C 
ATOM     25  C   UNL     1       3.535  -2.335  -1.671  0.00  0.00    +0.051 C 
ENDBRANCH  23  24
ENDBRANCH  22  23
ENDBRANCH   3  22
BRANCH   5  26
ATOM     26  C   UNL     1       2.117   2.231   0.649  0.00  0.00    +0.112 C 
BRANCH  26  27
ATOM     27  S   UNL     1       2.927   0.992   1.676  0.00  0.00    -0.135 S 
BRANCH  27  28
ATOM     28  C   UNL     1       4.528   1.810   1.885  0.00  0.00    +0.034 C 
BRANCH  28  29
ATOM     29  C   UNL     1       5.425   1.634   0.671  0.00  0.00    -0.074 C 
BRANCH  29  30
ATOM     30  N   UNL     1       5.676   0.194   0.418  0.00  0.00    +0.381 N 
ATOM     31  H   UNL     1       6.278   0.092  -0.399  0.00  0.00    -0.089 HD
ATOM     32  H   UNL     1       4.789  -0.281   0.249  0.00  0.00    -0.089 HD
ATOM     33  H   UNL     1       6.132  -0.219   1.231  0.00  0.00    -0.089 HD
ENDBRANCH  29  30
ENDBRANCH  28  29
ENDBRANCH  27  28
ENDBRANCH  26  27
ENDBRANCH   5  26
TORSDOF 12
