102095578
  -OEChem-03292013293D

 55 58  0     1  0  0  0  0  0999 V2000
   -3.2812    2.5285    0.0213 O   0  0  0  0  0  0  0  0  0  0  0  0
   -0.2280   -1.9564    0.5409 O   0  0  0  0  0  0  0  0  0  0  0  0
   -1.8430    0.4910    1.7945 O   0  0  0  0  0  0  0  0  0  0  0  0
   -0.9109   -1.3339   -2.9103 O   0  0  0  0  0  0  0  0  0  0  0  0
   -1.4456    3.8754    0.0433 O   0  0  0  0  0  0  0  0  0  0  0  0
   -0.1793   -4.2399    0.7336 O   0  0  0  0  0  0  0  0  0  0  0  0
    5.0229    1.5557   -0.3879 O   0  0  0  0  0  0  0  0  0  0  0  0
    4.5162   -0.6964   -0.4341 O   0  0  0  0  0  0  0  0  0  0  0  0
   -2.0524   -0.6242   -0.3831 C   0  0  1  0  0  0  0  0  0  0  0  0
   -2.4260    0.6520   -1.1761 C   0  0  1  0  0  0  0  0  0  0  0  0
   -0.5419   -0.9953   -0.4899 C   0  0  1  0  0  0  0  0  0  0  0  0
   -2.6625   -0.3817    1.0240 C   0  0  2  0  0  0  0  0  0  0  0  0
   -3.6480    1.2434   -0.4837 C   0  0  1  0  0  0  0  0  0  0  0  0
   -1.4039    1.7779   -1.1907 C   0  0  2  0  0  0  0  0  0  0  0  0
   -3.9884    0.3166    0.6794 C   0  0  0  0  0  0  0  0  0  0  0  0
    0.3722    0.2107   -0.3505 C   0  0  0  0  0  0  0  0  0  0  0  0
   -0.1888   -1.7689   -1.7755 C   0  0  1  0  0  0  0  0  0  0  0  0
   -0.0366    1.4440   -0.6919 C   0  0  0  0  0  0  0  0  0  0  0  0
   -2.0013    2.8452   -0.3097 C   0  0  0  0  0  0  0  0  0  0  0  0
   -2.9222   -1.6450    1.8424 C   0  0  0  0  0  0  0  0  0  0  0  0
    1.7746   -0.0119    0.1526 C   0  0  1  0  0  0  0  0  0  0  0  0
   -0.5234   -3.2039   -1.4239 C   0  0  0  0  0  0  0  0  0  0  0  0
   -0.2870   -3.2320    0.0527 C   0  0  0  0  0  0  0  0  0  0  0  0
    2.7507    0.9493   -0.5446 C   0  0  0  0  0  0  0  0  0  0  0  0
    1.8385    0.0763    1.6714 C   0  0  0  0  0  0  0  0  0  0  0  0
    1.5163    1.3906    2.3308 C   0  0  0  0  0  0  0  0  0  0  0  0
    4.1846    0.4819   -0.4502 C   0  0  0  0  0  0  0  0  0  0  0  0
    2.1781   -0.9930    2.4106 C   0  0  0  0  0  0  0  0  0  0  0  0
    6.4164    1.2440   -0.2954 C   0  0  0  0  0  0  0  0  0  0  0  0
   -2.6373   -1.4502   -0.8158 H   0  0  0  0  0  0  0  0  0  0  0  0
   -2.6803    0.3670   -2.2040 H   0  0  0  0  0  0  0  0  0  0  0  0
   -4.4998    1.3737   -1.1587 H   0  0  0  0  0  0  0  0  0  0  0  0
   -1.3383    2.1979   -2.2016 H   0  0  0  0  0  0  0  0  0  0  0  0
   -4.3949    0.8700    1.5326 H   0  0  0  0  0  0  0  0  0  0  0  0
   -4.7272   -0.4222    0.3454 H   0  0  0  0  0  0  0  0  0  0  0  0
    0.8810   -1.7001   -2.0091 H   0  0  0  0  0  0  0  0  0  0  0  0
    0.6285    2.2976   -0.6031 H   0  0  0  0  0  0  0  0  0  0  0  0
   -1.9979   -2.0638    2.2499 H   0  0  0  0  0  0  0  0  0  0  0  0
   -3.4317   -2.4147    1.2543 H   0  0  0  0  0  0  0  0  0  0  0  0
   -3.5490   -1.4134    2.7118 H   0  0  0  0  0  0  0  0  0  0  0  0
    2.0724   -1.0245   -0.1515 H   0  0  0  0  0  0  0  0  0  0  0  0
    0.1472   -3.8985   -1.9365 H   0  0  0  0  0  0  0  0  0  0  0  0
   -1.5629   -3.4625   -1.6444 H   0  0  0  0  0  0  0  0  0  0  0  0
   -2.3082    0.6850    2.6259 H   0  0  0  0  0  0  0  0  0  0  0  0
   -0.6953   -1.9351   -3.6434 H   0  0  0  0  0  0  0  0  0  0  0  0
    2.5401    1.0204   -1.6201 H   0  0  0  0  0  0  0  0  0  0  0  0
    2.6996    1.9609   -0.1263 H   0  0  0  0  0  0  0  0  0  0  0  0
    1.5544    1.3132    3.4234 H   0  0  0  0  0  0  0  0  0  0  0  0
    0.5125    1.7367    2.0748 H   0  0  0  0  0  0  0  0  0  0  0  0
    2.2371    2.1610    2.0426 H   0  0  0  0  0  0  0  0  0  0  0  0
    2.4169   -1.9467    1.9519 H   0  0  0  0  0  0  0  0  0  0  0  0
    2.2272   -0.9401    3.4931 H   0  0  0  0  0  0  0  0  0  0  0  0
    6.9730    2.1840   -0.2523 H   0  0  0  0  0  0  0  0  0  0  0  0
    6.7390    0.6851   -1.1790 H   0  0  0  0  0  0  0  0  0  0  0  0
    6.6173    0.6748    0.6172 H   0  0  0  0  0  0  0  0  0  0  0  0
  1 13  1  0  0  0  0
  1 19  1  0  0  0  0
  2 11  1  0  0  0  0
  2 23  1  0  0  0  0
  3 12  1  0  0  0  0
  3 44  1  0  0  0  0
  4 17  1  0  0  0  0
  4 45  1  0  0  0  0
  5 19  2  0  0  0  0
  6 23  2  0  0  0  0
  7 27  1  0  0  0  0
  7 29  1  0  0  0  0
  8 27  2  0  0  0  0
  9 10  1  0  0  0  0
  9 11  1  0  0  0  0
  9 12  1  0  0  0  0
  9 30  1  0  0  0  0
 10 13  1  0  0  0  0
 10 14  1  0  0  0  0
 10 31  1  0  0  0  0
 11 16  1  0  0  0  0
 11 17  1  0  0  0  0
 12 15  1  0  0  0  0
 12 20  1  0  0  0  0
 13 15  1  0  0  0  0
 13 32  1  0  0  0  0
 14 18  1  0  0  0  0
 14 19  1  0  0  0  0
 14 33  1  0  0  0  0
 15 34  1  0  0  0  0
 15 35  1  0  0  0  0
 16 18  2  0  0  0  0
 16 21  1  0  0  0  0
 17 22  1  0  0  0  0
 17 36  1  0  0  0  0
 18 37  1  0  0  0  0
 20 38  1  0  0  0  0
 20 39  1  0  0  0  0
 20 40  1  0  0  0  0
 21 24  1  0  0  0  0
 21 25  1  0  0  0  0
 21 41  1  0  0  0  0
 22 23  1  0  0  0  0
 22 42  1  0  0  0  0
 22 43  1  0  0  0  0
 24 27  1  0  0  0  0
 24 46  1  0  0  0  0
 24 47  1  0  0  0  0
 25 26  1  0  0  0  0
 25 28  2  0  0  0  0
 26 48  1  0  0  0  0
 26 49  1  0  0  0  0
 26 50  1  0  0  0  0
 28 51  1  0  0  0  0
 28 52  1  0  0  0  0
 29 53  1  0  0  0  0
 29 54  1  0  0  0  0
 29 55  1  0  0  0  0
M  END
> <PUBCHEM_COMPOUND_CID>
102095578

> <PUBCHEM_CONFORMER_RMSD>
0.8

> <PUBCHEM_CONFORMER_DIVERSEORDER>
1
6
12
16
8
9
4
10
14
11
15
7
3
13
5
2

> <PUBCHEM_MMFF94_PARTIAL_CHARGES>
30
1 -0.43
11 0.42
12 0.28
13 0.28
14 0.2
16 -0.28
17 0.28
18 -0.29
19 0.66
2 -0.43
21 0.28
22 0.06
23 0.66
24 0.06
25 -0.28
26 0.14
27 0.66
28 -0.3
29 0.28
3 -0.68
37 0.15
4 -0.68
44 0.4
45 0.4
5 -0.57
51 0.15
52 0.15
6 -0.57
7 -0.43
8 -0.57

> <PUBCHEM_EFFECTIVE_ROTOR_COUNT>
6.2

> <PUBCHEM_PHARMACOPHORE_FEATURES>
11
1 3 acceptor
1 3 donor
1 4 acceptor
1 4 donor
1 5 acceptor
1 6 acceptor
1 8 acceptor
5 1 10 13 14 19 rings
5 2 11 17 22 23 rings
5 9 10 12 13 15 rings
6 9 10 11 14 16 18 rings

> <PUBCHEM_HEAVY_ATOM_COUNT>
29

> <PUBCHEM_ATOM_DEF_STEREO_COUNT>
7

> <PUBCHEM_ATOM_UDEF_STEREO_COUNT>
1

> <PUBCHEM_BOND_DEF_STEREO_COUNT>
0

> <PUBCHEM_BOND_UDEF_STEREO_COUNT>
0

> <PUBCHEM_ISOTOPIC_ATOM_COUNT>
0

> <PUBCHEM_COMPONENT_COUNT>
1

> <PUBCHEM_CACTVS_TAUTO_COUNT>
8

> <PUBCHEM_CONFORMER_ID>
0615DADA00000001

> <PUBCHEM_MMFF94_ENERGY>
74.6695

> <PUBCHEM_FEATURE_SELFOVERLAP>
56.652

> <PUBCHEM_SHAPE_FINGERPRINT>
10165383 225 18131362907451835577
10366900 7 18270952445876236041
107951 10 18410582790468151886
10863032 1 17968098564478433003
10906281 52 18262248724937261165
10948715 1 18338237046561923885
1100329 8 17975419332504370055
11578080 2 17983038664822836113
12788726 201 18192975222435571903
13140716 1 17977112571662675804
133893 2 17768256704144834339
13681431 1 17265534643308043119
14251751 93 18335140886548720442
14251757 17 17914068494892517318
15309172 13 18412265021355914157
15463212 79 18335973260074894274
16945 1 18267847416459517741
17980427 23 17240495727460128581
20905425 154 17838608964485780149
21033648 29 18272080608925096808
21756936 100 18335977640883604516
23419403 2 17553527662371174303
23558518 356 17474375886678954637
23559900 14 17757828935983245911
35225 105 18130497643261690811
3729539 64 17984722030041596214
5265222 85 18342188799749765710
57527452 28 14996570654591745235
5845 1 17832399248960726981
70251023 43 17476072909561347878
7226269 152 17917422083056749514
81228 2 17839997956745964631
9981440 41 18335138631548595505

> <PUBCHEM_SHAPE_MULTIPOLES>
549.85
7.57
3.72
2.01
12.55
1.54
-0.46
-4.48
0.03
-2.15
0.41
-0.12
0.75
0.11

> <PUBCHEM_SHAPE_SELFOVERLAP>
1193.849

> <PUBCHEM_SHAPE_VOLUME>
299.7

> <PUBCHEM_COORDINATE_TYPE>
2
5
10

$$$$
