REMARK  Name = 102004890
REMARK  10 active torsions:
REMARK  status: ('A' for Active; 'I' for Inactive)
REMARK    1  A    between atoms: C_4  and  O_17
REMARK    2  A    between atoms: C_9  and  C_30
REMARK    3  A    between atoms: C_12  and  O_26
REMARK    4  A    between atoms: O_17  and  C_19
REMARK    5  A    between atoms: C_19  and  C_20
REMARK    6  A    between atoms: C_22  and  C_23
REMARK    7  A    between atoms: C_23  and  O_24
REMARK    8  A    between atoms: O_26  and  C_28
REMARK    9  A    between atoms: C_30  and  O_31
REMARK   10  A    between atoms: O_31  and  C_33
REMARK                            x       y       z     vdW  Elec       q    Type
REMARK                         _______ _______ _______ _____ _____    ______ ____
ROOT
ATOM      1  O   UNL     1       2.195   3.249  -0.114  0.00  0.00    -0.449 OA
ATOM      2  O   UNL     1       1.147   5.066  -1.061  0.00  0.00    -0.245 OA
ATOM      3  C   UNL     1       0.391   1.708  -0.049  0.00  0.00    +0.109 C 
ATOM      4  C   UNL     1      -0.503   0.786   0.812  0.00  0.00    +0.181 C 
ATOM      5  C   UNL     1       1.729   2.095   0.596  0.00  0.00    +0.177 C 
ATOM      6  C   UNL     1       0.040  -0.644   1.096  0.00  0.00    +0.069 C 
ATOM      7  C   UNL     1      -0.080   3.104  -0.341  0.00  0.00    +0.060 C 
ATOM      8  C   UNL     1       2.747   1.001   0.612  0.00  0.00    +0.048 C 
ATOM      9  C   UNL     1       0.389  -1.529  -0.096  0.00  0.00    -0.001 C 
ATOM     10  C   UNL     1       3.297   0.345  -0.428  0.00  0.00    +0.044 C 
ATOM     11  C   UNL     1       1.115   3.957  -0.560  0.00  0.00    +0.337 C 
ATOM     12  C   UNL     1       3.895  -1.031  -0.188  0.00  0.00    +0.173 C 
ATOM     13  C   UNL     1       2.870  -1.995   0.456  0.00  0.00    +0.069 C 
ATOM     14  C   UNL     1       1.591  -2.099  -0.335  0.00  0.00    -0.027 C 
ATOM     15  C   UNL     1      -1.300   3.647  -0.378  0.00  0.00    +0.002 C 
ATOM     16  C   UNL     1       3.210   0.760  -1.869  0.00  0.00    +0.004 C 
ENDROOT
BRANCH   4  17
ATOM     17  O   UNL     1      -1.782   0.654   0.185  0.00  0.00    -0.449 OA
BRANCH  17  19
ATOM     18  O   UNL     1      -2.787   0.496   2.251  0.00  0.00    -0.245 OA
ATOM     19  C   UNL     1      -2.842   0.516   1.029  0.00  0.00    +0.337 C 
BRANCH  19  20
ATOM     20  C   UNL     1      -4.099   0.383   0.232  0.00  0.00    +0.052 C 
ATOM     21  C   UNL     1      -4.004   0.460  -1.263  0.00  0.00    +0.038 C 
ATOM     22  C   UNL     1      -5.232   0.233   0.943  0.00  0.00    +0.007 C 
BRANCH  22  23
ATOM     23  C   UNL     1      -6.620   0.069   0.407  0.00  0.00    +0.163 C 
BRANCH  23  24
ATOM     24  O   UNL     1      -7.132  -1.181   0.856  0.00  0.00    -0.377 OA
ATOM     25  H   UNL     1      -8.033  -1.302   0.516  0.00  0.00    +0.211 HD
ENDBRANCH  23  24
ENDBRANCH  22  23
ENDBRANCH  19  20
ENDBRANCH  17  19
ENDBRANCH   4  17
BRANCH  12  26
ATOM     26  O   UNL     1       5.039  -0.908   0.652  0.00  0.00    -0.452 OA
BRANCH  26  28
ATOM     27  O   UNL     1       6.012  -2.730  -0.382  0.00  0.00    -0.250 OA
ATOM     28  C   UNL     1       6.027  -1.829   0.445  0.00  0.00    +0.317 C 
ATOM     29  C   UNL     1       7.159  -1.579   1.394  0.00  0.00    +0.121 C 
ENDBRANCH  26  28
ENDBRANCH  12  26
BRANCH   9  30
ATOM     30  C   UNL     1      -0.745  -1.829  -1.046  0.00  0.00    +0.231 C 
BRANCH  30  31
ATOM     31  O   UNL     1      -1.805  -2.433  -0.334  0.00  0.00    -0.444 OA
BRANCH  31  33
ATOM     32  O   UNL     1      -3.056  -2.584  -2.269  0.00  0.00    -0.250 OA
ATOM     33  C   UNL     1      -2.914  -2.765  -1.068  0.00  0.00    +0.318 C 
ATOM     34  C   UNL     1      -3.951  -3.393  -0.186  0.00  0.00    +0.121 C 
ENDBRANCH  31  33
ENDBRANCH  30  31
ENDBRANCH   9  30
TORSDOF 10
