REMARK  Name = 102059902
REMARK  17 active torsions:
REMARK  status: ('A' for Active; 'I' for Inactive)
REMARK    1  A    between atoms: C_2  and  C_9
REMARK    2  A    between atoms: C_3  and  C_22
REMARK    3  A    between atoms: C_4  and  O_7
REMARK    4  A    between atoms: C_10  and  C_11
REMARK    5  A    between atoms: C_11  and  O_12
REMARK    6  A    between atoms: C_11  and  C_14
REMARK    7  A    between atoms: C_14  and  C_16
REMARK    8  A    between atoms: C_16  and  C_17
REMARK    9  A    between atoms: C_17  and  C_18
REMARK   10  A    between atoms: C_18  and  C_19
REMARK   11  A    between atoms: C_19  and  O_20
REMARK   12  A    between atoms: C_22  and  C_23
REMARK   13  A    between atoms: C_24  and  C_25
REMARK   14  A    between atoms: C_25  and  C_26
REMARK   15  A    between atoms: C_26  and  C_27
REMARK   16  A    between atoms: C_27  and  C_29
REMARK   17  A    between atoms: C_29  and  O_30
REMARK                            x       y       z     vdW  Elec       q    Type
REMARK                         _______ _______ _______ _____ _____    ______ ____
ROOT
ATOM      1  O   UNL     1       1.524   3.943   0.660  0.00  0.00    -0.296 OA
ATOM      2  C   UNL     1       0.467   1.027  -1.035  0.00  0.00    +0.056 C 
ATOM      3  C   UNL     1       0.136   2.040   0.072  0.00  0.00    +0.068 C 
ATOM      4  C   UNL     1       0.980   1.898  -2.189  0.00  0.00    +0.122 C 
ATOM      5  C   UNL     1       1.852   2.954  -1.513  0.00  0.00    +0.094 C 
ATOM      6  C   UNL     1       1.211   3.083  -0.155  0.00  0.00    +0.153 C 
ENDROOT
BRANCH   4   7
ATOM      7  O   UNL     1       1.753   1.116  -3.085  0.00  0.00    -0.384 OA
ATOM      8  H   UNL     1       1.185   0.451  -3.506  0.00  0.00    +0.210 HD
ENDBRANCH   4   7
BRANCH   2   9
ATOM      9  C   UNL     1      -0.711   0.189  -1.418  0.00  0.00    -0.026 C 
ATOM     10  C   UNL     1      -0.726  -1.151  -1.354  0.00  0.00    -0.002 C 
BRANCH  10  11
ATOM     11  C   UNL     1      -1.911  -1.993  -1.744  0.00  0.00    +0.132 C 
BRANCH  11  12
ATOM     12  O   UNL     1      -1.547  -2.787  -2.877  0.00  0.00    -0.380 OA
ATOM     13  H   UNL     1      -2.300  -3.337  -3.142  0.00  0.00    +0.211 HD
ENDBRANCH  11  12
BRANCH  11  14
ATOM     14  C   UNL     1      -2.425  -2.936  -0.628  0.00  0.00    +0.031 C 
ATOM     15  C   UNL     1      -1.397  -4.014  -0.248  0.00  0.00    +0.003 C 
BRANCH  14  16
ATOM     16  C   UNL     1      -2.885  -2.201   0.649  0.00  0.00    +0.003 C 
BRANCH  16  17
ATOM     17  C   UNL     1      -3.883  -1.054   0.444  0.00  0.00    +0.003 C 
BRANCH  17  18
ATOM     18  C   UNL     1      -4.256  -0.331   1.741  0.00  0.00    +0.032 C 
BRANCH  18  19
ATOM     19  C   UNL     1      -5.274   0.780   1.504  0.00  0.00    +0.142 C 
BRANCH  19  20
ATOM     20  O   UNL     1      -4.763   1.751   0.602  0.00  0.00    -0.351 OA
ATOM     21  C   UNL     1      -5.716   2.772   0.337  0.00  0.00    +0.174 C 
ENDBRANCH  19  20
ENDBRANCH  18  19
ENDBRANCH  17  18
ENDBRANCH  16  17
ENDBRANCH  14  16
ENDBRANCH  11  14
ENDBRANCH  10  11
ENDBRANCH   2   9
BRANCH   3  22
ATOM     22  C   UNL     1       0.188   1.445   1.468  0.00  0.00    +0.033 C 
BRANCH  22  23
ATOM     23  C   UNL     1       1.479   0.791   1.884  0.00  0.00    -0.030 C 
ATOM     24  C   UNL     1       1.647  -0.473   2.301  0.00  0.00    -0.031 C 
BRANCH  24  25
ATOM     25  C   UNL     1       2.978  -1.051   2.688  0.00  0.00    +0.026 C 
BRANCH  25  26
ATOM     26  C   UNL     1       3.398  -2.255   1.835  0.00  0.00    +0.016 C 
BRANCH  26  27
ATOM     27  C   UNL     1       3.547  -1.939   0.344  0.00  0.00    +0.110 C 
BRANCH  27  29
ATOM     28  O   UNL     1       5.557  -0.616   0.717  0.00  0.00    -0.250 OA
ATOM     29  C   UNL     1       4.561  -0.856   0.048  0.00  0.00    +0.314 C 
BRANCH  29  30
ATOM     30  O   UNL     1       4.215  -0.131  -1.048  0.00  0.00    -0.480 OA
ATOM     31  H   UNL     1       3.443  -0.350  -1.530  0.00  0.00    +0.295 HD
ENDBRANCH  29  30
ENDBRANCH  27  29
ENDBRANCH  26  27
ENDBRANCH  25  26
ENDBRANCH  24  25
ENDBRANCH  22  23
ENDBRANCH   3  22
TORSDOF 17
