REMARK  Name = 102057059
REMARK  4 active torsions:
REMARK  status: ('A' for Active; 'I' for Inactive)
REMARK    1  A    between atoms: N_4  and  C_32
REMARK    2  A    between atoms: C_8  and  O_28
REMARK    3  A    between atoms: C_22  and  O_30
REMARK    4  A    between atoms: C_32  and  C_33
REMARK                            x       y       z     vdW  Elec       q    Type
REMARK                         _______ _______ _______ _____ _____    ______ ____
ROOT
ATOM      1  O   UNL     1       1.730  -0.574   1.517  0.00  0.00    -0.474 OA
ATOM      2  O   UNL     1       3.043   3.072   0.780  0.00  0.00    -0.273 OA
ATOM      3  O   UNL     1       4.826  -0.485  -1.484  0.00  0.00    -0.252 OA
ATOM      4  N   UNL     1      -3.398   0.922   0.529  0.00  0.00    -0.371 NA
ATOM      5  N   UNL     1       2.625   0.107  -0.973  0.00  0.00    -0.281 N 
ATOM      6  N   UNL     1       4.274   1.422  -0.278  0.00  0.00    -0.238 N 
ATOM      7  C   UNL     1      -0.358   0.413   0.813  0.00  0.00    +0.104 C 
ATOM      8  C   UNL     1      -1.101   1.112  -0.304  0.00  0.00    +0.114 C 
ATOM      9  C   UNL     1       1.146   0.685   1.012  0.00  0.00    +0.200 C 
ATOM     10  C   UNL     1      -2.411   0.230  -0.299  0.00  0.00    +0.086 C 
ATOM     11  C   UNL     1       1.913   1.165  -0.270  0.00  0.00    +0.165 C 
ATOM     12  C   UNL     1      -1.240   0.603   2.127  0.00  0.00    -0.003 C 
ATOM     13  C   UNL     1      -0.273   1.247  -1.589  0.00  0.00    +0.032 C 
ATOM     14  C   UNL     1      -0.196  -1.039   0.376  0.00  0.00    +0.020 C 
ATOM     15  C   UNL     1       1.056   1.957  -1.272  0.00  0.00    +0.033 C 
ATOM     16  C   UNL     1      -2.240  -1.050  -1.154  0.00  0.00    +0.047 C 
ATOM     17  C   UNL     1      -2.798   1.026   1.924  0.00  0.00    +0.040 C 
ATOM     18  C   UNL     1      -1.005  -1.757  -0.538  0.00  0.00    -0.021 C 
ATOM     19  C   UNL     1       0.979  -1.543   0.888  0.00  0.00    +0.168 C 
ATOM     20  C   UNL     1       3.118   2.022   0.155  0.00  0.00    +0.249 C 
ATOM     21  C   UNL     1      -0.626  -3.064  -0.826  0.00  0.00    -0.001 C 
ATOM     22  C   UNL     1       1.354  -2.843   0.626  0.00  0.00    +0.167 C 
ATOM     23  C   UNL     1       4.009   0.264  -0.967  0.00  0.00    +0.307 C 
ATOM     24  C   UNL     1       0.536  -3.604  -0.229  0.00  0.00    +0.039 C 
ATOM     25  H   UNL     1      -3.583   1.847   0.141  0.00  0.00    +0.128 HD
ATOM     26  H   UNL     1       2.171  -0.649  -1.411  0.00  0.00    +0.151 HD
ATOM     27  H   UNL     1       5.178   1.777  -0.116  0.00  0.00    +0.159 HD
ENDROOT
BRANCH   8  28
ATOM     28  O   UNL     1      -1.371   2.472   0.083  0.00  0.00    -0.384 OA
ATOM     29  H   UNL     1      -1.897   2.478   0.898  0.00  0.00    +0.210 HD
ENDBRANCH   8  28
BRANCH  22  30
ATOM     30  O   UNL     1       2.506  -3.360   1.120  0.00  0.00    -0.503 OA
ATOM     31  H   UNL     1       3.045  -2.846   1.689  0.00  0.00    +0.292 HD
ENDBRANCH  22  30
BRANCH   4  32
ATOM     32  C   UNL     1      -4.709   0.289   0.532  0.00  0.00    +0.100 C 
BRANCH  32  33
ATOM     33  C   UNL     1      -5.481   0.614  -0.710  0.00  0.00    -0.006 C 
ATOM     34  C   UNL     1      -5.906  -0.302  -1.588  0.00  0.00    -0.003 C 
ENDBRANCH  32  33
ENDBRANCH   4  32
TORSDOF 4
