REMARK  Name = 102090455
REMARK  4 active torsions:
REMARK  status: ('A' for Active; 'I' for Inactive)
REMARK    1  A    between atoms: C_7  and  O_20
REMARK    2  A    between atoms: C_11  and  O_22
REMARK    3  A    between atoms: C_13  and  C_17
REMARK    4  A    between atoms: C_13  and  O_24
REMARK                            x       y       z     vdW  Elec       q    Type
REMARK                         _______ _______ _______ _____ _____    ______ ____
ROOT
ATOM      1  O   UNL     1       2.511  -2.139   0.058  0.00  0.00    -0.349 OA
ATOM      2  O   UNL     1       3.133   0.916  -0.978  0.00  0.00    -0.351 OA
ATOM      3  O   UNL     1      -0.344   1.694   1.197  0.00  0.00    -0.447 OA
ATOM      4  O   UNL     1       0.430   0.394   2.933  0.00  0.00    -0.250 OA
ATOM      5  C   UNL     1       0.799  -0.038  -0.911  0.00  0.00    +0.081 C 
ATOM      6  C   UNL     1       2.107   0.332  -0.159  0.00  0.00    +0.152 C 
ATOM      7  C   UNL     1       0.177  -1.178   0.061  0.00  0.00    +0.133 C 
ATOM      8  C   UNL     1       2.520  -0.852   0.696  0.00  0.00    +0.172 C 
ATOM      9  C   UNL     1       1.353  -1.786   0.816  0.00  0.00    +0.170 C 
ATOM     10  C   UNL     1      -0.845  -0.596   1.088  0.00  0.00    +0.158 C 
ATOM     11  C   UNL     1      -0.240   1.097  -1.165  0.00  0.00    +0.158 C 
ATOM     12  C   UNL     1       2.649   1.730   0.091  0.00  0.00    +0.172 C 
ATOM     13  C   UNL     1      -1.973   0.220   0.454  0.00  0.00    +0.155 C 
ATOM     14  C   UNL     1      -1.150   1.433   0.029  0.00  0.00    +0.224 C 
ATOM     15  C   UNL     1       1.176  -0.628  -2.301  0.00  0.00    +0.008 C 
ATOM     16  C   UNL     1      -0.182   0.515   1.885  0.00  0.00    +0.322 C 
ENDROOT
BRANCH  13  17
ATOM     17  C   UNL     1      -2.768  -0.450  -0.616  0.00  0.00    -0.016 C 
ATOM     18  C   UNL     1      -3.342   0.445  -1.673  0.00  0.00    +0.029 C 
ATOM     19  C   UNL     1      -2.959  -1.778  -0.631  0.00  0.00    -0.007 C 
ENDBRANCH  13  17
BRANCH   7  20
ATOM     20  O   UNL     1      -0.464  -2.219  -0.669  0.00  0.00    -0.383 OA
ATOM     21  H   UNL     1       0.158  -2.593  -1.313  0.00  0.00    +0.210 HD
ENDBRANCH   7  20
BRANCH  11  22
ATOM     22  O   UNL     1       0.346   2.296  -1.659  0.00  0.00    -0.381 OA
ATOM     23  H   UNL     1       0.921   2.088  -2.412  0.00  0.00    +0.210 HD
ENDBRANCH  11  22
BRANCH  13  24
ATOM     24  O   UNL     1      -2.931   0.592   1.453  0.00  0.00    -0.379 OA
ATOM     25  H   UNL     1      -2.478   1.037   2.186  0.00  0.00    +0.211 HD
ENDBRANCH  13  24
TORSDOF 4
