REMARK  Name = 10200273
REMARK  2 active torsions:
REMARK  status: ('A' for Active; 'I' for Inactive)
REMARK    1  A    between atoms: C_19  and  O_27
REMARK    2  A    between atoms: C_20  and  O_29
REMARK                            x       y       z     vdW  Elec       q    Type
REMARK                         _______ _______ _______ _____ _____    ______ ____
ROOT
ATOM      1  O   UNL     1      -0.049   0.317   2.308  0.00  0.00    -0.354 OA
ATOM      2  O   UNL     1      -3.305  -1.302   1.512  0.00  0.00    -0.343 OA
ATOM      3  O   UNL     1       3.041  -1.793  -1.620  0.00  0.00    -0.343 OA
ATOM      4  O   UNL     1      -1.027   1.408  -2.646  0.00  0.00    -0.477 OA
ATOM      5  O   UNL     1      -2.482   1.959   1.458  0.00  0.00    -0.293 OA
ATOM      6  O   UNL     1       3.808   1.266  -0.586  0.00  0.00    -0.289 OA
ATOM      7  C   UNL     1      -1.129   0.411   0.111  0.00  0.00    +0.106 C 
ATOM      8  C   UNL     1      -0.228   1.649  -0.305  0.00  0.00    +0.059 C 
ATOM      9  C   UNL     1       1.083   1.621   0.559  0.00  0.00    +0.056 C 
ATOM     10  C   UNL     1      -0.283  -0.462   1.102  0.00  0.00    +0.146 C 
ATOM     11  C   UNL     1       1.079  -0.778   0.520  0.00  0.00    +0.011 C 
ATOM     12  C   UNL     1       1.800   0.323   0.253  0.00  0.00    +0.014 C 
ATOM     13  C   UNL     1      -1.680  -0.329  -1.103  0.00  0.00    +0.030 C 
ATOM     14  C   UNL     1      -2.405   0.888   0.865  0.00  0.00    +0.186 C 
ATOM     15  C   UNL     1       0.663   1.550   2.047  0.00  0.00    +0.120 C 
ATOM     16  C   UNL     1      -3.582  -0.027   0.920  0.00  0.00    +0.202 C 
ATOM     17  C   UNL     1      -3.621  -1.298   0.113  0.00  0.00    +0.181 C 
ATOM     18  C   UNL     1       0.106   1.683  -1.821  0.00  0.00    +0.167 C 
ATOM     19  C   UNL     1      -2.473  -1.593  -0.805  0.00  0.00    +0.162 C 
ATOM     20  C   UNL     1       1.534  -2.189   0.301  0.00  0.00    +0.161 C 
ATOM     21  C   UNL     1       2.903  -2.321  -0.293  0.00  0.00    +0.181 C 
ATOM     22  C   UNL     1       3.717  -1.085  -0.568  0.00  0.00    +0.206 C 
ATOM     23  C   UNL     1       3.161   0.263  -0.319  0.00  0.00    +0.198 C 
ATOM     24  C   UNL     1      -1.631   0.227  -2.325  0.00  0.00    +0.166 C 
ATOM     25  C   UNL     1       1.837   1.633   3.018  0.00  0.00    +0.032 C 
ATOM     26  C   UNL     1       0.643   3.046  -2.256  0.00  0.00    +0.047 C 
ENDROOT
BRANCH  19  27
ATOM     27  O   UNL     1      -2.993  -2.191  -1.993  0.00  0.00    -0.378 OA
ATOM     28  H   UNL     1      -2.264  -2.389  -2.601  0.00  0.00    +0.211 HD
ENDBRANCH  19  27
BRANCH  20  29
ATOM     29  O   UNL     1       1.511  -2.876   1.553  0.00  0.00    -0.378 OA
ATOM     30  H   UNL     1       0.629  -2.798   1.949  0.00  0.00    +0.211 HD
ENDBRANCH  20  29
TORSDOF 2
