102067835
  -OEChem-03292013293D

 66 71  0     1  0  0  0  0  0999 V2000
   -1.0715   -1.4627   -1.6279 O   0  0  0  0  0  0  0  0  0  0  0  0
    0.3879    2.9428   -1.4556 O   0  0  0  0  0  0  0  0  0  0  0  0
   -3.4492    0.7780   -1.5931 O   0  0  0  0  0  0  0  0  0  0  0  0
   -3.3362   -2.0697   -1.4255 O   0  0  0  0  0  0  0  0  0  0  0  0
   -6.2855   -0.9597    1.8218 O   0  0  0  0  0  0  0  0  0  0  0  0
    6.0411   -0.2851    0.4304 O   0  0  0  0  0  0  0  0  0  0  0  0
    7.0296   -2.3318    0.3919 O   0  0  0  0  0  0  0  0  0  0  0  0
   -0.9136    0.1487    0.0644 C   0  0  2  0  0  0  0  0  0  0  0  0
   -2.3281   -0.4392    0.2118 C   0  0  1  0  0  0  0  0  0  0  0  0
   -0.6396    1.6254    0.3723 C   0  0  1  0  0  0  0  0  0  0  0  0
    0.6944    2.1354   -0.3177 C   0  0  1  0  0  0  0  0  0  0  0  0
    1.7000    1.0144   -0.7601 C   0  0  2  0  0  0  0  0  0  0  0  0
   -0.5064   -0.1842   -1.3479 C   0  0  1  0  0  0  0  0  0  0  0  0
   -3.4491    0.5780   -0.1731 C   0  0  1  0  0  0  0  0  0  0  0  0
    1.0152   -0.1980   -1.4596 C   0  0  0  0  0  0  0  0  0  0  0  0
   -1.8413    2.5308    0.0450 C   0  0  0  0  0  0  0  0  0  0  0  0
   -2.1698   -1.6869   -0.7193 C   0  0  2  0  0  0  0  0  0  0  0  0
    2.3549    0.6511    0.6083 C   0  0  2  0  0  0  0  0  0  0  0  0
   -3.1770    1.9467    0.4895 C   0  0  0  0  0  0  0  0  0  0  0  0
    1.5256    2.9695    0.6771 C   0  0  0  0  0  0  0  0  0  0  0  0
   -2.5307   -0.9008    1.6850 C   0  0  0  0  0  0  0  0  0  0  0  0
    2.4961    1.9938    1.3484 C   0  0  0  0  0  0  0  0  0  0  0  0
   -4.8654    0.0900    0.2060 C   0  0  0  0  0  0  0  0  0  0  0  0
    2.7717    1.5606   -1.7463 C   0  0  0  0  0  0  0  0  0  0  0  0
   -3.9295   -1.4361    1.9621 C   0  0  0  0  0  0  0  0  0  0  0  0
   -4.9907   -0.3928    1.6449 C   0  0  2  0  0  0  0  0  0  0  0  0
    3.6332   -0.1236    0.5485 C   0  0  0  0  0  0  0  0  0  0  0  0
    3.5670   -1.5618    0.5576 C   0  0  0  0  0  0  0  0  0  0  0  0
    4.8432    0.4416    0.4863 C   0  0  0  0  0  0  0  0  0  0  0  0
   -3.2636   -3.4195   -1.8699 C   0  0  0  0  0  0  0  0  0  0  0  0
    4.6798   -2.3004    0.5061 C   0  0  0  0  0  0  0  0  0  0  0  0
    6.0076   -1.6549    0.4386 C   0  0  0  0  0  0  0  0  0  0  0  0
   -0.2779   -0.4488    0.7321 H   0  0  0  0  0  0  0  0  0  0  0  0
   -0.5080    1.6679    1.4632 H   0  0  0  0  0  0  0  0  0  0  0  0
   -0.9302    0.5144   -2.0764 H   0  0  0  0  0  0  0  0  0  0  0  0
    1.2578   -0.2230   -2.5305 H   0  0  0  0  0  0  0  0  0  0  0  0
    1.3999   -1.1487   -1.0794 H   0  0  0  0  0  0  0  0  0  0  0  0
   -1.9080    2.7251   -1.0311 H   0  0  0  0  0  0  0  0  0  0  0  0
   -1.6969    3.5071    0.5239 H   0  0  0  0  0  0  0  0  0  0  0  0
   -1.8477   -2.5348   -0.1000 H   0  0  0  0  0  0  0  0  0  0  0  0
    1.6517    0.0640    1.2108 H   0  0  0  0  0  0  0  0  0  0  0  0
   -3.2001    1.8801    1.5822 H   0  0  0  0  0  0  0  0  0  0  0  0
   -3.9612    2.6586    0.2007 H   0  0  0  0  0  0  0  0  0  0  0  0
    0.9040    3.4918    1.4128 H   0  0  0  0  0  0  0  0  0  0  0  0
    2.0875    3.7520    0.1515 H   0  0  0  0  0  0  0  0  0  0  0  0
   -2.3280   -0.0677    2.3698 H   0  0  0  0  0  0  0  0  0  0  0  0
   -1.8020   -1.6779    1.9498 H   0  0  0  0  0  0  0  0  0  0  0  0
    3.4906    2.4442    1.3529 H   0  0  0  0  0  0  0  0  0  0  0  0
    2.2212    1.8605    2.4025 H   0  0  0  0  0  0  0  0  0  0  0  0
   -5.1869   -0.7077   -0.4761 H   0  0  0  0  0  0  0  0  0  0  0  0
   -5.6002    0.8861    0.0208 H   0  0  0  0  0  0  0  0  0  0  0  0
    3.3474    2.3915   -1.3273 H   0  0  0  0  0  0  0  0  0  0  0  0
    2.3101    1.9218   -2.6725 H   0  0  0  0  0  0  0  0  0  0  0  0
    3.4784    0.7776   -2.0435 H   0  0  0  0  0  0  0  0  0  0  0  0
   -4.1130   -2.3500    1.3835 H   0  0  0  0  0  0  0  0  0  0  0  0
   -4.0135   -1.7344    3.0142 H   0  0  0  0  0  0  0  0  0  0  0  0
   -4.9032    0.4477    2.3423 H   0  0  0  0  0  0  0  0  0  0  0  0
    0.0326    2.3711   -2.1551 H   0  0  0  0  0  0  0  0  0  0  0  0
   -4.1413    1.4269   -1.8065 H   0  0  0  0  0  0  0  0  0  0  0  0
   -6.9388   -0.2665    1.6260 H   0  0  0  0  0  0  0  0  0  0  0  0
    2.6019   -2.0511    0.6290 H   0  0  0  0  0  0  0  0  0  0  0  0
    5.0789    1.4940    0.4455 H   0  0  0  0  0  0  0  0  0  0  0  0
   -4.1727   -3.6408   -2.4357 H   0  0  0  0  0  0  0  0  0  0  0  0
   -3.2141   -4.1028   -1.0164 H   0  0  0  0  0  0  0  0  0  0  0  0
   -2.4014   -3.5685   -2.5267 H   0  0  0  0  0  0  0  0  0  0  0  0
    4.6389   -3.3833    0.5212 H   0  0  0  0  0  0  0  0  0  0  0  0
  1 13  1  0  0  0  0
  1 17  1  0  0  0  0
  2 11  1  0  0  0  0
  2 58  1  0  0  0  0
  3 14  1  0  0  0  0
  3 59  1  0  0  0  0
  4 17  1  0  0  0  0
  4 30  1  0  0  0  0
  5 26  1  0  0  0  0
  5 60  1  0  0  0  0
  6 29  1  0  0  0  0
  6 32  1  0  0  0  0
  7 32  2  0  0  0  0
  8  9  1  0  0  0  0
  8 10  1  0  0  0  0
  8 13  1  0  0  0  0
  8 33  1  0  0  0  0
  9 14  1  0  0  0  0
  9 17  1  0  0  0  0
  9 21  1  0  0  0  0
 10 11  1  0  0  0  0
 10 16  1  0  0  0  0
 10 34  1  0  0  0  0
 11 12  1  0  0  0  0
 11 20  1  0  0  0  0
 12 15  1  0  0  0  0
 12 18  1  0  0  0  0
 12 24  1  0  0  0  0
 13 15  1  0  0  0  0
 13 35  1  0  0  0  0
 14 19  1  0  0  0  0
 14 23  1  0  0  0  0
 15 36  1  0  0  0  0
 15 37  1  0  0  0  0
 16 19  1  0  0  0  0
 16 38  1  0  0  0  0
 16 39  1  0  0  0  0
 17 40  1  0  0  0  0
 18 22  1  0  0  0  0
 18 27  1  0  0  0  0
 18 41  1  0  0  0  0
 19 42  1  0  0  0  0
 19 43  1  0  0  0  0
 20 22  1  0  0  0  0
 20 44  1  0  0  0  0
 20 45  1  0  0  0  0
 21 25  1  0  0  0  0
 21 46  1  0  0  0  0
 21 47  1  0  0  0  0
 22 48  1  0  0  0  0
 22 49  1  0  0  0  0
 23 26  1  0  0  0  0
 23 50  1  0  0  0  0
 23 51  1  0  0  0  0
 24 52  1  0  0  0  0
 24 53  1  0  0  0  0
 24 54  1  0  0  0  0
 25 26  1  0  0  0  0
 25 55  1  0  0  0  0
 25 56  1  0  0  0  0
 26 57  1  0  0  0  0
 27 28  1  0  0  0  0
 27 29  2  0  0  0  0
 28 31  2  0  0  0  0
 28 61  1  0  0  0  0
 29 62  1  0  0  0  0
 30 63  1  0  0  0  0
 30 64  1  0  0  0  0
 30 65  1  0  0  0  0
 31 32  1  0  0  0  0
 31 66  1  0  0  0  0
M  END
> <PUBCHEM_COMPOUND_CID>
102067835

> <PUBCHEM_CONFORMER_RMSD>
0.8

> <PUBCHEM_CONFORMER_DIVERSEORDER>
2
3
5
4
1

> <PUBCHEM_MMFF94_PARTIAL_CHARGES>
25
1 -0.56
11 0.28
13 0.28
14 0.28
17 0.56
18 0.14
2 -0.68
26 0.28
27 -0.14
28 -0.15
29 -0.07
3 -0.68
30 0.28
31 -0.14
32 0.71
4 -0.56
5 -0.68
58 0.4
59 0.4
6 -0.23
60 0.4
61 0.15
62 0.15
66 0.15
7 -0.57

> <PUBCHEM_EFFECTIVE_ROTOR_COUNT>
4.4

> <PUBCHEM_PHARMACOPHORE_FEATURES>
15
1 1 acceptor
1 2 acceptor
1 2 donor
1 3 acceptor
1 3 donor
1 4 acceptor
1 5 acceptor
1 5 donor
1 7 acceptor
5 1 8 9 13 17 rings
5 11 12 18 20 22 rings
6 6 27 28 29 31 32 rings
6 8 10 11 12 13 15 rings
6 8 9 10 14 16 19 rings
6 9 14 21 23 25 26 rings

> <PUBCHEM_HEAVY_ATOM_COUNT>
32

> <PUBCHEM_ATOM_DEF_STEREO_COUNT>
8

> <PUBCHEM_ATOM_UDEF_STEREO_COUNT>
2

> <PUBCHEM_BOND_DEF_STEREO_COUNT>
0

> <PUBCHEM_BOND_UDEF_STEREO_COUNT>
0

> <PUBCHEM_ISOTOPIC_ATOM_COUNT>
0

> <PUBCHEM_COMPONENT_COUNT>
1

> <PUBCHEM_CACTVS_TAUTO_COUNT>
1

> <PUBCHEM_CONFORMER_ID>
06156E7B00000002

> <PUBCHEM_MMFF94_ENERGY>
147.9129

> <PUBCHEM_FEATURE_SELFOVERLAP>
76.621

> <PUBCHEM_SHAPE_FINGERPRINT>
10622 236 17699548544912021319
11135609 12 18113338643413303544
11135926 11 17898292960035092188
11456790 92 18060150834357006737
12107183 9 18202004304563951899
12422481 6 18131358470740075455
12633257 1 17489591181511766888
13009979 54 18261967262418333828
13103583 49 17988926686659050058
13140716 1 17987799760165261821
13224815 77 17845097453184433869
13402501 40 18186525388722332986
13540713 5 17986112048713853389
13544653 18 18408036304468388576
13583140 156 18260823826333406177
14251764 30 17894351055929921114
14341114 176 18333737930890992568
14955137 171 18335990817389425888
15537594 2 18412550937814183470
16110190 28 18272930531723837042
16728300 4 18189894210771943883
17349148 13 17560796654180638597
17492 89 18197485444839209407
17980427 23 15913319217346743280
1813 80 17603867763563002012
20775530 9 18260820484870124650
21033648 29 17916571051554689881
21267235 1 18336272258438973242
23559900 14 17895197752707841585
25147074 1 17985831655942281341
2838139 119 11023528178625211122
3383291 50 18333732411985475819
3737641 26 18265613187537161618
4258327 124 12606532538318245594
4409770 3 18048021987640849652
46194498 28 16153997970628650358
463206 1 18411136986951059042
5104073 3 17703225255564433915
56633871 153 18272370853998048687
6009941 240 17895472505939180868
6703917 75 17192055871132540792
70251023 43 18120361318959176903
7097593 13 18268988855004220764
9896288 288 17981046310976897792

> <PUBCHEM_SHAPE_MULTIPOLES>
617.46
12.55
3.22
1.75
9.67
0
-0.19
-8.87
5.39
0.62
-0.71
-1.69
-0.51
-0.89

> <PUBCHEM_SHAPE_SELFOVERLAP>
1356.1

> <PUBCHEM_SHAPE_VOLUME>
327.6

> <PUBCHEM_COORDINATE_TYPE>
2
5
10

$$$$
