REMARK  Name = 102004952
REMARK  7 active torsions:
REMARK  status: ('A' for Active; 'I' for Inactive)
REMARK    1  A    between atoms: C_1  and  C_13
REMARK    2  A    between atoms: C_1  and  C_19
REMARK    3  A    between atoms: C_7  and  C_16
REMARK    4  A    between atoms: C_16  and  O_17
REMARK    5  A    between atoms: C_20  and  C_22
REMARK    6  A    between atoms: C_23  and  C_27
REMARK    7  A    between atoms: C_27  and  O_33
REMARK                            x       y       z     vdW  Elec       q    Type
REMARK                         _______ _______ _______ _____ _____    ______ ____
ROOT
ATOM      1  C   UNL     1       1.369  -1.651  -0.501  0.00  0.00    +0.049 C 
ATOM      2  C   UNL     1       1.607  -2.223  -1.901  0.00  0.00    +0.007 C 
ENDROOT
BRANCH   1  13
ATOM      3  O   UNL     1       6.129   1.284   0.009  0.00  0.00    -0.341 OA
ATOM      4  O   UNL     1       3.485   1.810   0.559  0.00  0.00    -0.327 OA
ATOM      5  O   UNL     1       2.733   0.217  -1.038  0.00  0.00    -0.334 OA
ATOM      6  O   UNL     1       5.287   0.028   2.957  0.00  0.00    -0.291 OA
ATOM      7  C   UNL     1       5.125   0.537  -0.699  0.00  0.00    +0.198 C 
ATOM      8  C   UNL     1       5.662   0.081   0.638  0.00  0.00    +0.206 C 
ATOM      9  C   UNL     1       3.750   1.174  -0.704  0.00  0.00    +0.215 C 
ATOM     10  C   UNL     1       3.449   0.869   1.626  0.00  0.00    +0.179 C 
ATOM     11  C   UNL     1       2.372  -0.193   1.343  0.00  0.00    +0.062 C 
ATOM     12  C   UNL     1       4.848   0.312   1.849  0.00  0.00    +0.207 C 
ATOM     13  C   UNL     1       2.564  -0.814  -0.055  0.00  0.00    +0.124 C 
ATOM     14  C   UNL     1       3.662   2.285  -1.751  0.00  0.00    +0.064 C 
ATOM     15  C   UNL     1       2.289  -1.238   2.454  0.00  0.00    +0.005 C 
BRANCH   7  16
ATOM     16  C   UNL     1       5.633  -0.115  -1.946  0.00  0.00    +0.172 C 
BRANCH  16  17
ATOM     17  O   UNL     1       4.974  -1.359  -2.125  0.00  0.00    -0.379 OA
ATOM     18  H   UNL     1       5.301  -1.785  -2.933  0.00  0.00    +0.211 HD
ENDBRANCH  16  17
ENDBRANCH   7  16
ENDBRANCH   1  13
BRANCH   1  19
ATOM     19  C   UNL     1       0.113  -0.807  -0.499  0.00  0.00    -0.028 C 
ATOM     20  C   UNL     1      -1.162  -1.188  -0.267  0.00  0.00    -0.026 C 
ATOM     21  C   UNL     1      -1.576  -2.598   0.062  0.00  0.00    +0.031 C 
BRANCH  20  22
ATOM     22  C   UNL     1      -2.217  -0.170  -0.333  0.00  0.00    -0.001 C 
ATOM     23  C   UNL     1      -3.533  -0.363  -0.132  0.00  0.00    +0.037 C 
BRANCH  23  27
ATOM     24  O   UNL     1      -6.826   2.579  -0.295  0.00  0.00    -0.289 OA
ATOM     25  O   UNL     1      -5.810  -1.959   0.462  0.00  0.00    -0.270 OA
ATOM     26  N   UNL     1      -7.787  -0.676   0.457  0.00  0.00    -0.294 N 
ATOM     27  C   UNL     1      -4.555   0.666  -0.205  0.00  0.00    +0.141 C 
ATOM     28  C   UNL     1      -5.853   0.405   0.007  0.00  0.00    +0.123 C 
ATOM     29  C   UNL     1      -6.951   1.392  -0.049  0.00  0.00    +0.200 C 
ATOM     30  C   UNL     1      -6.420  -0.914   0.334  0.00  0.00    +0.252 C 
ATOM     31  C   UNL     1      -8.248   0.690   0.249  0.00  0.00    +0.160 C 
ATOM     32  H   UNL     1      -8.415  -1.402   0.675  0.00  0.00    +0.150 HD
BRANCH  27  33
ATOM     33  O   UNL     1      -4.110   1.939  -0.507  0.00  0.00    -0.505 OA
ATOM     34  H   UNL     1      -3.197   2.094  -0.651  0.00  0.00    +0.292 HD
ENDBRANCH  27  33
ENDBRANCH  23  27
ENDBRANCH  20  22
ENDBRANCH   1  19
TORSDOF 7
