REMARK  Name = 102038063
REMARK  8 active torsions:
REMARK  status: ('A' for Active; 'I' for Inactive)
REMARK    1  A    between atoms: C_1  and  C_2
REMARK    2  A    between atoms: C_1  and  C_10
REMARK    3  A    between atoms: C_1  and  C_13
REMARK    4  A    between atoms: C_2  and  O_5
REMARK    5  A    between atoms: O_5  and  C_7
REMARK    6  A    between atoms: C_10  and  O_11
REMARK    7  A    between atoms: C_13  and  C_15
REMARK    8  A    between atoms: C_15  and  O_16
REMARK                            x       y       z     vdW  Elec       q    Type
REMARK                         _______ _______ _______ _____ _____    ______ ____
ROOT
ATOM      1  C   UNL     1      -0.334  -0.127   0.070  0.00  0.00    +0.146 C 
ENDROOT
BRANCH   1   2
ATOM      2  C   UNL     1       0.835  -1.103   0.394  0.00  0.00    +0.147 C 
ATOM      3  C   UNL     1       0.662  -1.744   1.778  0.00  0.00    +0.044 C 
ATOM      4  C   UNL     1       0.950  -2.216  -0.658  0.00  0.00    +0.044 C 
BRANCH   2   5
ATOM      5  O   UNL     1       2.069  -0.380   0.411  0.00  0.00    -0.455 OA
BRANCH   5   7
ATOM      6  O   UNL     1       1.728   0.272  -1.779  0.00  0.00    -0.250 OA
ATOM      7  C   UNL     1       2.389   0.261  -0.750  0.00  0.00    +0.317 C 
ATOM      8  C   UNL     1       3.699   0.971  -0.586  0.00  0.00    +0.121 C 
ENDBRANCH   5   7
ENDBRANCH   2   5
ENDBRANCH   1   2
BRANCH   1  10
ATOM      9  O   UNL     1      -0.994   1.155   2.028  0.00  0.00    -0.250 OA
ATOM     10  C   UNL     1      -0.339   1.081   0.996  0.00  0.00    +0.317 C 
BRANCH  10  11
ATOM     11  O   UNL     1       0.457   2.080   0.542  0.00  0.00    -0.480 OA
ATOM     12  H   UNL     1       0.937   1.970  -0.255  0.00  0.00    +0.295 HD
ENDBRANCH  10  11
ENDBRANCH   1  10
BRANCH   1  13
ATOM     13  C   UNL     1      -1.738  -0.774   0.084  0.00  0.00    +0.124 C 
BRANCH  13  15
ATOM     14  O   UNL     1      -2.603   1.093  -1.232  0.00  0.00    -0.250 OA
ATOM     15  C   UNL     1      -2.785   0.024  -0.667  0.00  0.00    +0.314 C 
BRANCH  15  16
ATOM     16  O   UNL     1      -3.997  -0.592  -0.629  0.00  0.00    -0.480 OA
ATOM     17  H   UNL     1      -4.092  -1.412  -0.185  0.00  0.00    +0.295 HD
ENDBRANCH  15  16
ENDBRANCH  13  15
ENDBRANCH   1  13
TORSDOF 8
