REMARK  Name = 10202564
REMARK  6 active torsions:
REMARK  status: ('A' for Active; 'I' for Inactive)
REMARK    1  A    between atoms: C_2  and  C_25
REMARK    2  A    between atoms: C_7  and  N_11
REMARK    3  A    between atoms: N_11  and  S_13
REMARK    4  A    between atoms: S_13  and  C_20
REMARK    5  A    between atoms: C_25  and  C_26
REMARK    6  A    between atoms: C_26  and  N_27
REMARK                            x       y       z     vdW  Elec       q    Type
REMARK                         _______ _______ _______ _____ _____    ______ ____
ROOT
ATOM      1  N   UNL     1       4.286   1.513  -0.230  0.00  0.00    -0.312 N 
ATOM      2  C   UNL     1       3.159  -0.297   0.388  0.00  0.00    -0.008 C 
ATOM      3  C   UNL     1       2.275   0.817   0.443  0.00  0.00    +0.012 C 
ATOM      4  C   UNL     1       3.007   1.940   0.051  0.00  0.00    +0.048 C 
ATOM      5  C   UNL     1       0.919   0.979   0.789  0.00  0.00    +0.017 C 
ATOM      6  C   UNL     1       4.387   0.162  -0.029  0.00  0.00    +0.057 C 
ATOM      7  C   UNL     1       0.347   2.255   0.732  0.00  0.00    +0.065 C 
ATOM      8  C   UNL     1       2.449   3.222  -0.011  0.00  0.00    +0.016 C 
ATOM      9  C   UNL     1       1.102   3.358   0.337  0.00  0.00    +0.017 C 
ATOM     10  H   UNL     1       5.021   2.095  -0.531  0.00  0.00    +0.152 HD
ENDROOT
BRANCH   7  11
ATOM     11  N   UNL     1      -1.027   2.427   1.081  0.00  0.00    -0.217 N 
ATOM     12  H   UNL     1      -1.305   2.624   2.005  0.00  0.00    +0.173 HD
BRANCH  11  13
ATOM     13  S   UNL     1      -2.180   2.272  -0.201  0.00  0.00    +0.078 S 
ATOM     14  O   UNL     1      -3.495   2.678   0.253  0.00  0.00    -0.152 OA
ATOM     15  O   UNL     1      -1.613   2.825  -1.416  0.00  0.00    -0.152 OA
BRANCH  13  20
ATOM     16 CL   UNL     1      -1.534   0.372  -3.184  0.00  0.00    -0.049 Cl
ATOM     17  S   UNL     1      -3.163  -2.833   0.901  0.00  0.00    -0.038 S 
ATOM     18  N   UNL     1      -2.695  -0.364   0.392  0.00  0.00    -0.230 N 
ATOM     19  N   UNL     1      -2.297  -1.558  -1.453  0.00  0.00    -0.370 NA
ATOM     20  C   UNL     1      -2.302   0.513  -0.546  0.00  0.00    +0.293 C 
ATOM     21  C   UNL     1      -2.673  -1.587  -0.205  0.00  0.00    +0.221 C 
ATOM     22  C   UNL     1      -2.059  -0.214  -1.672  0.00  0.00    +0.211 C 
ATOM     23  C   UNL     1      -3.087  -0.352   1.710  0.00  0.00    +0.077 C 
ATOM     24  C   UNL     1      -3.376  -1.590   2.147  0.00  0.00    +0.055 C 
ENDBRANCH  13  20
ENDBRANCH  11  13
ENDBRANCH   7  11
BRANCH   2  25
ATOM     25  C   UNL     1       2.828  -1.698   0.717  0.00  0.00    +0.005 C 
BRANCH  25  26
ATOM     26  C   UNL     1       2.321  -2.497  -0.497  0.00  0.00    -0.073 C 
BRANCH  26  27
ATOM     27  N   UNL     1       1.974  -3.869  -0.140  0.00  0.00    +0.384 N 
ATOM     28  C   UNL     1       1.454  -4.588  -1.304  0.00  0.00    -0.101 C 
ATOM     29  C   UNL     1       0.994  -3.885   0.947  0.00  0.00    -0.101 C 
ATOM     30  H   UNL     1       2.821  -4.339   0.180  0.00  0.00    -0.080 HD
ENDBRANCH  26  27
ENDBRANCH  25  26
ENDBRANCH   2  25
TORSDOF 6
