102061314
  -OEChem-03292013293D

 55 56  0     1  0  0  0  0  0999 V2000
    2.9270    0.9921    1.6762 S   0  0  0  0  0  0  0  0  0  0  0  0
    1.9954   -0.5221   -1.3615 O   0  0  0  0  0  0  0  0  0  0  0  0
   -3.9675    2.3507    0.2978 O   0  0  0  0  0  0  0  0  0  0  0  0
    1.7203    1.3343   -2.7171 O   0  0  0  0  0  0  0  0  0  0  0  0
   -3.7942    0.9948   -1.6704 O   0  5  0  0  0  0  0  0  0  0  0  0
   -0.9766   -4.5137    2.2265 O   0  5  0  0  0  0  0  0  0  0  0  0
   -0.5519   -2.4870    2.9551 O   0  0  0  0  0  0  0  0  0  0  0  0
   -0.2179    2.1798    1.2511 N   0  0  0  0  0  0  0  0  0  0  0  0
   -0.8537   -3.2804    2.0310 N   0  3  0  0  0  0  0  0  0  0  0  0
    5.6755    0.1938    0.4183 N   0  3  0  0  0  0  0  0  0  0  0  0
   -0.9963    0.5766   -1.0606 C   0  0  2  0  0  0  0  0  0  0  0  0
    0.4166    1.0298   -0.7613 C   0  0  0  0  0  0  0  0  0  0  0  0
   -2.0073    1.3512   -0.2444 C   0  0  0  0  0  0  0  0  0  0  0  0
   -1.1372   -0.8943   -0.8012 C   0  0  0  0  0  0  0  0  0  0  0  0
    0.7186    1.7754    0.3227 C   0  0  0  0  0  0  0  0  0  0  0  0
   -1.4789    1.9994    0.9999 C   0  0  0  0  0  0  0  0  0  0  0  0
    2.1171    2.2309    0.6494 C   0  0  0  0  0  0  0  0  0  0  0  0
   -0.9317   -1.3990    0.4828 C   0  0  0  0  0  0  0  0  0  0  0  0
   -1.4734   -1.7572   -1.8444 C   0  0  0  0  0  0  0  0  0  0  0  0
    1.4487    0.6567   -1.7440 C   0  0  0  0  0  0  0  0  0  0  0  0
   -3.2816    1.5150   -0.6280 C   0  0  0  0  0  0  0  0  0  0  0  0
   -2.4553    2.4944    2.0456 C   0  0  0  0  0  0  0  0  0  0  0  0
   -1.0626   -2.7667    0.7239 C   0  0  0  0  0  0  0  0  0  0  0  0
   -1.6040   -3.1249   -1.6034 C   0  0  0  0  0  0  0  0  0  0  0  0
   -1.3989   -3.6296   -0.3193 C   0  0  0  0  0  0  0  0  0  0  0  0
    4.5279    1.8095    1.8852 C   0  0  0  0  0  0  0  0  0  0  0  0
    5.4245    1.6337    0.6706 C   0  0  0  0  0  0  0  0  0  0  0  0
    3.0234   -1.0214   -2.2234 C   0  0  0  0  0  0  0  0  0  0  0  0
   -5.3408    2.6129    0.0141 C   0  0  0  0  0  0  0  0  0  0  0  0
    3.5348   -2.3349   -1.6713 C   0  0  0  0  0  0  0  0  0  0  0  0
   -1.1637    0.7914   -2.1262 H   0  0  0  0  0  0  0  0  0  0  0  0
    2.0825    3.1867    1.1852 H   0  0  0  0  0  0  0  0  0  0  0  0
    2.6974    2.4039   -0.2615 H   0  0  0  0  0  0  0  0  0  0  0  0
   -0.6682   -0.7248    1.2926 H   0  0  0  0  0  0  0  0  0  0  0  0
   -1.6339   -1.3805   -2.8510 H   0  0  0  0  0  0  0  0  0  0  0  0
   -3.2310    1.7608    2.2842 H   0  0  0  0  0  0  0  0  0  0  0  0
   -2.8288    3.4961    1.8136 H   0  0  0  0  0  0  0  0  0  0  0  0
   -1.8994    2.6128    2.9863 H   0  0  0  0  0  0  0  0  0  0  0  0
   -1.8648   -3.7966   -2.4161 H   0  0  0  0  0  0  0  0  0  0  0  0
   -1.5091   -4.7005   -0.1688 H   0  0  0  0  0  0  0  0  0  0  0  0
    5.0102    1.3706    2.7656 H   0  0  0  0  0  0  0  0  0  0  0  0
    4.3777    2.8722    2.1016 H   0  0  0  0  0  0  0  0  0  0  0  0
    6.4025    2.0946    0.8392 H   0  0  0  0  0  0  0  0  0  0  0  0
    4.9934    2.0497   -0.2444 H   0  0  0  0  0  0  0  0  0  0  0  0
    2.6157   -1.1751   -3.2288 H   0  0  0  0  0  0  0  0  0  0  0  0
    3.8431   -0.2957   -2.2701 H   0  0  0  0  0  0  0  0  0  0  0  0
    4.7970   -0.3128    0.2502 H   0  0  0  0  0  0  0  0  0  0  0  0
    6.1457   -0.2549    1.2156 H   0  0  0  0  0  0  0  0  0  0  0  0
    6.2728    0.0584   -0.4080 H   0  0  0  0  0  0  0  0  0  0  0  0
   -5.7276    3.2619    0.8054 H   0  0  0  0  0  0  0  0  0  0  0  0
   -5.4500    3.1400   -0.9392 H   0  0  0  0  0  0  0  0  0  0  0  0
   -5.9253    1.6871    0.0202 H   0  0  0  0  0  0  0  0  0  0  0  0
    3.9029   -2.2127   -0.6481 H   0  0  0  0  0  0  0  0  0  0  0  0
    2.7255   -3.0717   -1.6278 H   0  0  0  0  0  0  0  0  0  0  0  0
    4.3407   -2.7336   -2.2935 H   0  0  0  0  0  0  0  0  0  0  0  0
  1 17  1  0  0  0  0
  1 26  1  0  0  0  0
  2 20  1  0  0  0  0
  2 28  1  0  0  0  0
  3 21  1  0  0  0  0
  3 29  1  0  0  0  0
  4 20  2  0  0  0  0
  5 21  1  0  0  0  0
  6  9  1  0  0  0  0
  7  9  2  0  0  0  0
  8 15  1  0  0  0  0
  8 16  2  0  0  0  0
  9 23  1  0  0  0  0
 10 27  1  0  0  0  0
 10 47  1  0  0  0  0
 10 48  1  0  0  0  0
 10 49  1  0  0  0  0
 11 12  1  0  0  0  0
 11 13  1  0  0  0  0
 11 14  1  0  0  0  0
 11 31  1  0  0  0  0
 12 15  2  0  0  0  0
 12 20  1  0  0  0  0
 13 16  1  0  0  0  0
 13 21  2  3  0  0  0
 14 18  2  0  0  0  0
 14 19  1  0  0  0  0
 15 17  1  0  0  0  0
 16 22  1  0  0  0  0
 17 32  1  0  0  0  0
 17 33  1  0  0  0  0
 18 23  1  0  0  0  0
 18 34  1  0  0  0  0
 19 24  2  0  0  0  0
 19 35  1  0  0  0  0
 22 36  1  0  0  0  0
 22 37  1  0  0  0  0
 22 38  1  0  0  0  0
 23 25  2  0  0  0  0
 24 25  1  0  0  0  0
 24 39  1  0  0  0  0
 25 40  1  0  0  0  0
 26 27  1  0  0  0  0
 26 41  1  0  0  0  0
 26 42  1  0  0  0  0
 27 43  1  0  0  0  0
 27 44  1  0  0  0  0
 28 30  1  0  0  0  0
 28 45  1  0  0  0  0
 28 46  1  0  0  0  0
 29 50  1  0  0  0  0
 29 51  1  0  0  0  0
 29 52  1  0  0  0  0
 30 53  1  0  0  0  0
 30 54  1  0  0  0  0
 30 55  1  0  0  0  0
M  CHG  4   5  -1   6  -1   9   1  10   1
M  END
> <PUBCHEM_COMPOUND_CID>
102061314

> <PUBCHEM_CONFORMER_RMSD>
1

> <PUBCHEM_CONFORMER_DIVERSEORDER>
22
11
43
19
6
17
29
1
27
33
8
37
9
18
15
39
16
28
26
41
5
40
24
14
36
21
20
38
23
3
34
4
42
7
2
25
35
13
30
32
10
12
31

> <PUBCHEM_MMFF94_PARTIAL_CHARGES>
36
1 -0.46
10 -0.85
11 0.42
12 -0.12
13 -0.12
14 -0.14
15 0.03
16 0.37
17 0.37
18 -0.15
19 -0.15
2 -0.43
20 0.71
21 -0.07
22 0.06
23 0.13
24 -0.15
25 -0.15
26 0.23
27 0.5
28 0.28
29 0.28
3 -0.36
34 0.15
35 0.15
39 0.15
4 -0.57
40 0.15
47 0.45
48 0.45
49 0.45
5 -0.85
6 -0.52
7 -0.52
8 -0.62
9 0.91

> <PUBCHEM_EFFECTIVE_ROTOR_COUNT>
10.2

> <PUBCHEM_PHARMACOPHORE_FEATURES>
10
1 10 cation
1 10 donor
1 3 acceptor
1 4 acceptor
1 6 acceptor
1 6 anion
1 7 acceptor
1 8 acceptor
6 14 18 19 23 24 25 rings
6 8 11 12 13 15 16 rings

> <PUBCHEM_HEAVY_ATOM_COUNT>
30

> <PUBCHEM_ATOM_DEF_STEREO_COUNT>
0

> <PUBCHEM_ATOM_UDEF_STEREO_COUNT>
1

> <PUBCHEM_BOND_DEF_STEREO_COUNT>
0

> <PUBCHEM_BOND_UDEF_STEREO_COUNT>
1

> <PUBCHEM_ISOTOPIC_ATOM_COUNT>
0

> <PUBCHEM_COMPONENT_COUNT>
1

> <PUBCHEM_CACTVS_TAUTO_COUNT>
16

> <PUBCHEM_CONFORMER_ID>
0615550200000016

> <PUBCHEM_MMFF94_ENERGY>
104.6096

> <PUBCHEM_FEATURE_SELFOVERLAP>
50.829

> <PUBCHEM_SHAPE_FINGERPRINT>
107951 10 18409719669180662112
10906281 52 17846225478868629040
11578080 2 17630628883796621922
12156800 1 17241919564384167522
12160290 23 18195546980601983405
12539773 59 15465970731174779866
12592029 89 17679599839207943093
12788726 201 18046351005102252471
13140716 1 17630061359803978385
133893 2 17539985974537846101
20197701 30 18337677395444202829
20600515 1 16813725958263777973
20691752 17 18197793110764030080
22956985 138 17607243156823165571
23559900 14 18272374153329056332
3380486 145 17771066291514322751
3493558 16 13610870160225803994
35225 105 18191329236612081915
56638632 33 18124593090660219742
5845 1 17481169098837257361
59554788 281 18411422782517195889
6669772 16 18272363131572406247
81228 2 18119814870364734493
9981440 41 17774142639239229968

> <PUBCHEM_SHAPE_MULTIPOLES>
571.08
7.94
4.87
2.59
6.91
4.18
-0.71
-6.7
-0.07
-3.32
-2.38
0.57
1.73
1.76

> <PUBCHEM_SHAPE_SELFOVERLAP>
1184.143

> <PUBCHEM_SHAPE_VOLUME>
328.6

> <PUBCHEM_COORDINATE_TYPE>
2
5
10

$$$$
