REMARK  Name = 10200390
REMARK  4 active torsions:
REMARK  status: ('A' for Active; 'I' for Inactive)
REMARK    1  A    between atoms: C_6  and  C_23
REMARK    2  A    between atoms: C_14  and  C_20
REMARK    3  A    between atoms: C_26  and  O_29
REMARK    4  A    between atoms: C_27  and  O_31
REMARK                            x       y       z     vdW  Elec       q    Type
REMARK                         _______ _______ _______ _____ _____    ______ ____
ROOT
ATOM      1  N   UNL     1      -1.498   2.381  -0.336  0.00  0.00    -0.214 N 
ATOM      2  N   UNL     1      -0.143   0.496  -0.052  0.00  0.00    -0.376 NA
ATOM      3  N   UNL     1      -2.461   0.205  -0.333  0.00  0.00    -0.261 N 
ATOM      4  N   UNL     1      -0.843   4.515  -0.381  0.00  0.00    -0.231 NA
ATOM      5  C   UNL     1      -0.443   3.267  -0.256  0.00  0.00    +0.126 C 
ATOM      6  C   UNL     1       0.935   1.359   0.038  0.00  0.00    +0.119 C 
ATOM      7  C   UNL     1      -1.340   0.990  -0.234  0.00  0.00    +0.251 C 
ATOM      8  C   UNL     1       0.836   2.700  -0.062  0.00  0.00    +0.121 C 
ATOM      9  C   UNL     1      -2.632   3.132  -0.523  0.00  0.00    +0.095 C 
ATOM     10  C   UNL     1      -2.200   4.438  -0.548  0.00  0.00    +0.116 C 
ATOM     11  H   UNL     1      -3.310   0.684  -0.469  0.00  0.00    +0.157 HD
ATOM     12  N   UNL     1      -1.487  -1.927  -0.688  0.00  0.00    -0.229 NA
ATOM     13  C   UNL     1      -2.548  -1.186  -0.263  0.00  0.00    +0.139 C 
ATOM     14  C   UNL     1      -3.714  -1.767   0.238  0.00  0.00    +0.085 C 
ATOM     15  C   UNL     1      -3.794  -3.154   0.305  0.00  0.00    +0.009 C 
ATOM     16  C   UNL     1      -2.722  -3.928  -0.125  0.00  0.00    +0.021 C 
ATOM     17  C   UNL     1      -1.601  -3.272  -0.609  0.00  0.00    +0.100 C 
ENDROOT
BRANCH   6  18
ATOM     18  C   UNL     1       2.269   0.746   0.229  0.00  0.00    +0.029 C 
ATOM     19  C   UNL     1       2.526  -0.533  -0.266  0.00  0.00    +0.042 C 
ATOM     20  C   UNL     1       3.268   1.446   0.905  0.00  0.00    +0.006 C 
ATOM     21  C   UNL     1       3.782  -1.111  -0.085  0.00  0.00    +0.172 C 
ATOM     22  C   UNL     1       4.781  -0.411   0.591  0.00  0.00    +0.172 C 
ATOM     23  C   UNL     1       4.524   0.868   1.086  0.00  0.00    +0.040 C 
BRANCH  21  24
ATOM     24  O   UNL     1       4.022  -2.360  -0.573  0.00  0.00    -0.468 OA
ATOM     25  C   UNL     1       2.947  -3.008  -1.251  0.00  0.00    +0.253 C 
ENDBRANCH  21  24
BRANCH  22  26
ATOM     26  O   UNL     1       6.013  -0.965   0.773  0.00  0.00    -0.468 OA
ATOM     27  C   UNL     1       6.988  -0.723  -0.239  0.00  0.00    +0.253 C 
ENDBRANCH  22  26
ENDBRANCH   6  18
BRANCH  14  30
ATOM     28  O   UNL     1      -5.771  -0.639  -0.060  0.00  0.00    -0.270 OA
ATOM     29  N   UNL     1      -4.852  -0.593   2.026  0.00  0.00    -0.325 N 
ATOM     30  C   UNL     1      -4.843  -0.965   0.690  0.00  0.00    +0.245 C 
ATOM     31  H   UNL     1      -5.593  -0.051   2.381  0.00  0.00    +0.145 HD
ATOM     32  H   UNL     1      -4.117  -0.872   2.619  0.00  0.00    +0.145 HD
ENDBRANCH  14  30
TORSDOF 4
