102067332
  -OEChem-03292013293D

 65 69  0     1  0  0  0  0  0999 V2000
   -0.9319   -1.0835    1.4352 O   0  0  0  0  0  0  0  0  0  0  0  0
   -2.8746    2.1514    0.5324 O   0  0  0  0  0  0  0  0  0  0  0  0
    5.0267   -2.3292   -0.5696 O   0  0  0  0  0  0  0  0  0  0  0  0
    7.5061    0.9754    0.6946 O   0  0  0  0  0  0  0  0  0  0  0  0
   -4.8389   -1.0541    1.4168 O   0  0  0  0  0  0  0  0  0  0  0  0
   -3.4173    3.4420   -1.3053 O   0  0  0  0  0  0  0  0  0  0  0  0
   -6.6631   -2.3400    0.9850 O   0  0  0  0  0  0  0  0  0  0  0  0
   -0.2601   -0.2592    0.4670 C   0  0  2  0  0  0  0  0  0  0  0  0
   -0.8415   -0.5263   -0.9530 C   0  0  1  0  0  0  0  0  0  0  0  0
    1.2478   -0.6048    0.6004 C   0  0  1  0  0  0  0  0  0  0  0  0
    2.1269   -0.0072   -0.5303 C   0  0  1  0  0  0  0  0  0  0  0  0
   -2.1725    0.2972   -0.9511 C   0  0  2  0  0  0  0  0  0  0  0  0
    0.0986    0.0483   -2.0499 C   0  0  0  0  0  0  0  0  0  0  0  0
   -0.6235    1.2137    0.7626 C   0  0  0  0  0  0  0  0  0  0  0  0
    3.6516   -0.3495   -0.3836 C   0  0  2  0  0  0  0  0  0  0  0  0
    1.5538   -0.3892   -1.9070 C   0  0  0  0  0  0  0  0  0  0  0  0
   -1.7883    1.5770   -0.1746 C   0  0  2  0  0  0  0  0  0  0  0  0
    1.8068   -0.2113    1.9833 C   0  0  0  0  0  0  0  0  0  0  0  0
   -1.0700   -2.0251   -1.2380 C   0  0  0  0  0  0  0  0  0  0  0  0
    4.1222   -0.0962    1.0435 C   0  0  0  0  0  0  0  0  0  0  0  0
    3.2574   -0.6507    2.1477 C   0  0  0  0  0  0  0  0  0  0  0  0
    4.4737    0.4606   -1.4259 C   0  0  0  0  0  0  0  0  0  0  0  0
   -3.3787   -0.4053   -0.3956 C   0  0  0  0  0  0  0  0  0  0  0  0
    3.9124   -1.8205   -0.6311 C   0  0  0  0  0  0  0  0  0  0  0  0
    5.9547    0.5680   -1.0711 C   0  0  0  0  0  0  0  0  0  0  0  0
    5.2302    0.6096    1.3358 C   0  0  0  0  0  0  0  0  0  0  0  0
    6.1512    1.1904    0.3066 C   0  0  1  0  0  0  0  0  0  0  0  0
   -4.2299   -1.1314   -1.3016 C   0  0  0  0  0  0  0  0  0  0  0  0
   -3.7131   -0.3983    0.8989 C   0  0  0  0  0  0  0  0  0  0  0  0
   -3.6140    3.0773   -0.1539 C   0  0  0  0  0  0  0  0  0  0  0  0
   -5.3152   -1.7733   -0.8583 C   0  0  0  0  0  0  0  0  0  0  0  0
   -5.6668   -1.7518    0.5771 C   0  0  0  0  0  0  0  0  0  0  0  0
   -4.7208    3.5959    0.7132 C   0  0  0  0  0  0  0  0  0  0  0  0
    1.3229   -1.7006    0.5440 H   0  0  0  0  0  0  0  0  0  0  0  0
    2.0504    1.0871   -0.4483 H   0  0  0  0  0  0  0  0  0  0  0  0
   -2.4203    0.6059   -1.9772 H   0  0  0  0  0  0  0  0  0  0  0  0
   -0.2679   -0.2466   -3.0418 H   0  0  0  0  0  0  0  0  0  0  0  0
    0.0840    1.1444   -2.0487 H   0  0  0  0  0  0  0  0  0  0  0  0
    0.2128    1.8847    0.5391 H   0  0  0  0  0  0  0  0  0  0  0  0
   -0.8950    1.3752    1.8119 H   0  0  0  0  0  0  0  0  0  0  0  0
    1.6266   -1.4645   -2.0917 H   0  0  0  0  0  0  0  0  0  0  0  0
    2.1260    0.0982   -2.7041 H   0  0  0  0  0  0  0  0  0  0  0  0
   -1.3863    2.3161   -0.8812 H   0  0  0  0  0  0  0  0  0  0  0  0
    1.2239   -0.6753    2.7860 H   0  0  0  0  0  0  0  0  0  0  0  0
    1.7405    0.8741    2.1278 H   0  0  0  0  0  0  0  0  0  0  0  0
   -1.7203   -2.5048   -0.5001 H   0  0  0  0  0  0  0  0  0  0  0  0
   -0.1290   -2.5842   -1.2223 H   0  0  0  0  0  0  0  0  0  0  0  0
   -1.5194   -2.1718   -2.2264 H   0  0  0  0  0  0  0  0  0  0  0  0
    3.3168   -1.7460    2.1384 H   0  0  0  0  0  0  0  0  0  0  0  0
    3.6145   -0.3307    3.1341 H   0  0  0  0  0  0  0  0  0  0  0  0
    4.0699    1.4784   -1.5113 H   0  0  0  0  0  0  0  0  0  0  0  0
    4.3924    0.0047   -2.4206 H   0  0  0  0  0  0  0  0  0  0  0  0
   -0.8017   -0.7026    2.3190 H   0  0  0  0  0  0  0  0  0  0  0  0
    3.0424   -2.4623   -0.8388 H   0  0  0  0  0  0  0  0  0  0  0  0
    6.4487   -0.4088   -1.1279 H   0  0  0  0  0  0  0  0  0  0  0  0
    6.4670    1.1847   -1.8209 H   0  0  0  0  0  0  0  0  0  0  0  0
    5.4912    0.7905    2.3759 H   0  0  0  0  0  0  0  0  0  0  0  0
    5.9858    2.2732    0.2658 H   0  0  0  0  0  0  0  0  0  0  0  0
   -3.9817   -1.1531   -2.3574 H   0  0  0  0  0  0  0  0  0  0  0  0
   -3.1925    0.0741    1.7181 H   0  0  0  0  0  0  0  0  0  0  0  0
    8.0730    1.3986    0.0273 H   0  0  0  0  0  0  0  0  0  0  0  0
   -5.9611   -2.3218   -1.5340 H   0  0  0  0  0  0  0  0  0  0  0  0
   -5.3854    2.7751    0.9944 H   0  0  0  0  0  0  0  0  0  0  0  0
   -5.2996    4.3391    0.1574 H   0  0  0  0  0  0  0  0  0  0  0  0
   -4.3017    4.0741    1.6020 H   0  0  0  0  0  0  0  0  0  0  0  0
  1  8  1  0  0  0  0
  1 53  1  0  0  0  0
  2 17  1  0  0  0  0
  2 30  1  0  0  0  0
  3 24  2  0  0  0  0
  4 27  1  0  0  0  0
  4 61  1  0  0  0  0
  5 29  1  0  0  0  0
  5 32  1  0  0  0  0
  6 30  2  0  0  0  0
  7 32  2  0  0  0  0
  8  9  1  0  0  0  0
  8 10  1  0  0  0  0
  8 14  1  0  0  0  0
  9 12  1  0  0  0  0
  9 13  1  0  0  0  0
  9 19  1  0  0  0  0
 10 11  1  0  0  0  0
 10 18  1  0  0  0  0
 10 34  1  0  0  0  0
 11 15  1  0  0  0  0
 11 16  1  0  0  0  0
 11 35  1  0  0  0  0
 12 17  1  0  0  0  0
 12 23  1  0  0  0  0
 12 36  1  0  0  0  0
 13 16  1  0  0  0  0
 13 37  1  0  0  0  0
 13 38  1  0  0  0  0
 14 17  1  0  0  0  0
 14 39  1  0  0  0  0
 14 40  1  0  0  0  0
 15 20  1  0  0  0  0
 15 22  1  0  0  0  0
 15 24  1  0  0  0  0
 16 41  1  0  0  0  0
 16 42  1  0  0  0  0
 17 43  1  0  0  0  0
 18 21  1  0  0  0  0
 18 44  1  0  0  0  0
 18 45  1  0  0  0  0
 19 46  1  0  0  0  0
 19 47  1  0  0  0  0
 19 48  1  0  0  0  0
 20 21  1  0  0  0  0
 20 26  2  0  0  0  0
 21 49  1  0  0  0  0
 21 50  1  0  0  0  0
 22 25  1  0  0  0  0
 22 51  1  0  0  0  0
 22 52  1  0  0  0  0
 23 28  1  0  0  0  0
 23 29  2  0  0  0  0
 24 54  1  0  0  0  0
 25 27  1  0  0  0  0
 25 55  1  0  0  0  0
 25 56  1  0  0  0  0
 26 27  1  0  0  0  0
 26 57  1  0  0  0  0
 27 58  1  0  0  0  0
 28 31  2  0  0  0  0
 28 59  1  0  0  0  0
 29 60  1  0  0  0  0
 30 33  1  0  0  0  0
 31 32  1  0  0  0  0
 31 62  1  0  0  0  0
 33 63  1  0  0  0  0
 33 64  1  0  0  0  0
 33 65  1  0  0  0  0
M  END
> <PUBCHEM_COMPOUND_CID>
102067332

> <PUBCHEM_CONFORMER_RMSD>
0.8

> <PUBCHEM_CONFORMER_DIVERSEORDER>
1
2
5
4
3

> <PUBCHEM_MMFF94_PARTIAL_CHARGES>
30
1 -0.68
12 0.14
15 0.2
17 0.28
2 -0.43
20 -0.28
21 0.14
23 -0.14
24 0.45
26 -0.29
27 0.42
28 -0.15
29 -0.07
3 -0.57
30 0.66
31 -0.14
32 0.71
33 0.06
4 -0.68
5 -0.23
53 0.4
54 0.06
57 0.15
59 0.15
6 -0.57
60 0.15
61 0.4
62 0.15
7 -0.57
8 0.28

> <PUBCHEM_EFFECTIVE_ROTOR_COUNT>
6

> <PUBCHEM_PHARMACOPHORE_FEATURES>
12
1 1 acceptor
1 1 donor
1 3 acceptor
1 4 acceptor
1 4 donor
1 6 acceptor
1 7 acceptor
5 8 9 12 14 17 rings
6 10 11 15 18 20 21 rings
6 15 20 22 25 26 27 rings
6 5 23 28 29 31 32 rings
6 8 9 10 11 13 16 rings

> <PUBCHEM_HEAVY_ATOM_COUNT>
33

> <PUBCHEM_ATOM_DEF_STEREO_COUNT>
8

> <PUBCHEM_ATOM_UDEF_STEREO_COUNT>
0

> <PUBCHEM_BOND_DEF_STEREO_COUNT>
0

> <PUBCHEM_BOND_UDEF_STEREO_COUNT>
0

> <PUBCHEM_ISOTOPIC_ATOM_COUNT>
0

> <PUBCHEM_COMPONENT_COUNT>
1

> <PUBCHEM_CACTVS_TAUTO_COUNT>
2

> <PUBCHEM_CONFORMER_ID>
06156C8400000001

> <PUBCHEM_MMFF94_ENERGY>
110.8207

> <PUBCHEM_FEATURE_SELFOVERLAP>
61.105

> <PUBCHEM_SHAPE_FINGERPRINT>
10290309 65 17703795786478323270
10674148 151 14261084203354167450
11545043 162 18271525282416773406
11578080 2 17844822390999889609
12107698 1 18339078293390888776
12236239 1 17894624859762490798
12403259 415 17561359578306149240
12596602 18 18040992951511231848
12788726 201 18334853935504564531
13073987 5 18411135814640836086
13224815 77 15068628149914106326
13540713 4 17986406503187279983
13583140 156 17774429474018472111
13782708 43 18059582355900616286
14068700 675 17749953396703112031
14118638 360 18409164403229909070
14856354 85 18269557298479777271
15131766 46 16054606573585893481
15183329 4 15482671282018685984
15301273 46 17989212568747057579
1577012 14 18040436560717007584
17349148 13 17458351831531963471
17844677 252 18343302556956023024
17980427 23 18040724649236492453
1813 80 18341609365068406673
18608769 82 18129941307763730950
19377110 9 17822013094594747641
21033648 29 17774707697821036312
21792961 116 17418097577489632870
23522609 53 17058954318493959272
23569914 2 17691635166844324072
23569943 247 17098880661781742410
2747138 104 18338243785460804003
3418910 222 18261684778087684588
350125 39 15554175843235732322
3633792 109 16878208806228897107
4015057 19 13262399990188442399
4098825 35 18341334397267758482
4340502 62 18342738555310984638
46194498 28 17916864750773442768
469060 322 18337688463928456681
5104073 3 18338515231931419498
57724786 102 15697709432731168992
58260988 393 18335420179297117737
6004065 56 15936974179210017918
9849439 229 17762055442018291957

> <PUBCHEM_SHAPE_MULTIPOLES>
638.04
15.41
2.77
1.81
7.16
2.31
0.12
-0.49
2.33
-5.24
-0.26
0.62
-0.25
0.81

> <PUBCHEM_SHAPE_SELFOVERLAP>
1388.079

> <PUBCHEM_SHAPE_VOLUME>
341.7

> <PUBCHEM_COORDINATE_TYPE>
2
5
10

$$$$
