REMARK  Name = 102004900
REMARK  10 active torsions:
REMARK  status: ('A' for Active; 'I' for Inactive)
REMARK    1  A    between atoms: C_9  and  C_29
REMARK    2  A    between atoms: C_10  and  O_23
REMARK    3  A    between atoms: C_12  and  O_25
REMARK    4  A    between atoms: C_19  and  O_27
REMARK    5  A    between atoms: C_29  and  O_31
REMARK    6  A    between atoms: C_29  and  C_33
REMARK    7  A    between atoms: C_33  and  C_34
REMARK    8  A    between atoms: C_34  and  C_35
REMARK    9  A    between atoms: C_35  and  C_36
REMARK   10  A    between atoms: C_36  and  O_39
REMARK                            x       y       z     vdW  Elec       q    Type
REMARK                         _______ _______ _______ _____ _____    ______ ____
ROOT
ATOM      1  C   UNL     1       1.147   0.513   0.801  0.00  0.00    +0.002 C 
ATOM      2  C   UNL     1       0.009   1.621   0.575  0.00  0.00    +0.002 C 
ATOM      3  C   UNL     1       1.819   0.218  -0.602  0.00  0.00    +0.003 C 
ATOM      4  C   UNL     1       3.148  -0.660  -0.595  0.00  0.00    +0.002 C 
ATOM      5  C   UNL     1      -1.028   1.086  -0.451  0.00  0.00    +0.029 C 
ATOM      6  C   UNL     1       4.156  -0.049   0.456  0.00  0.00    +0.029 C 
ATOM      7  C   UNL     1       2.239   1.017   1.771  0.00  0.00    +0.029 C 
ATOM      8  C   UNL     1       0.762  -0.204  -1.661  0.00  0.00    +0.029 C 
ATOM      9  C   UNL     1      -2.197   2.085  -0.376  0.00  0.00    +0.027 C 
ATOM     10  C   UNL     1      -0.391   0.807  -1.810  0.00  0.00    +0.111 C 
ATOM     11  C   UNL     1      -0.941   1.924   1.755  0.00  0.00    +0.000 C 
ATOM     12  C   UNL     1       3.488   0.125   1.850  0.00  0.00    +0.111 C 
ATOM     13  C   UNL     1       5.606  -0.717   0.460  0.00  0.00    +0.027 C 
ATOM     14  C   UNL     1      -2.205   2.523   1.107  0.00  0.00    +0.002 C 
ATOM     15  C   UNL     1       3.790  -0.566  -2.025  0.00  0.00    +0.003 C 
ATOM     16  C   UNL     1       0.532  -0.767   1.434  0.00  0.00    +0.000 C 
ATOM     17  C   UNL     1       0.611   2.999   0.137  0.00  0.00    +0.000 C 
ATOM     18  C   UNL     1       2.839  -2.151  -0.318  0.00  0.00    +0.000 C 
ATOM     19  C   UNL     1       6.037  -1.168  -0.978  0.00  0.00    +0.110 C 
ATOM     20  C   UNL     1       5.309  -0.388  -2.062  0.00  0.00    +0.029 C 
ATOM     21  C   UNL     1       6.654   0.355   0.888  0.00  0.00    +0.002 C 
ATOM     22  C   UNL     1       5.732  -1.880   1.465  0.00  0.00    +0.002 C 
ENDROOT
BRANCH  10  23
ATOM     23  O   UNL     1      -1.350   0.271  -2.716  0.00  0.00    -0.384 OA
ATOM     24  H   UNL     1      -2.083   0.898  -2.820  0.00  0.00    +0.210 HD
ENDBRANCH  10  23
BRANCH  12  25
ATOM     25  O   UNL     1       4.378   0.766   2.763  0.00  0.00    -0.384 OA
ATOM     26  H   UNL     1       5.187   0.239   2.849  0.00  0.00    +0.210 HD
ENDBRANCH  12  25
BRANCH  19  27
ATOM     27  O   UNL     1       5.839  -2.557  -1.224  0.00  0.00    -0.384 OA
ATOM     28  H   UNL     1       6.296  -3.075  -0.543  0.00  0.00    +0.210 HD
ENDBRANCH  19  27
BRANCH   9  29
ATOM     29  C   UNL     1      -3.544   1.507  -0.797  0.00  0.00    +0.088 C 
ATOM     30  C   UNL     1      -4.650   2.551  -0.625  0.00  0.00    +0.029 C 
BRANCH  29  31
ATOM     31  O   UNL     1      -3.476   1.218  -2.202  0.00  0.00    -0.387 OA
ATOM     32  H   UNL     1      -2.784   0.557  -2.362  0.00  0.00    +0.210 HD
ENDBRANCH  29  31
BRANCH  29  33
ATOM     33  C   UNL     1      -3.875   0.184  -0.074  0.00  0.00    +0.027 C 
BRANCH  33  34
ATOM     34  C   UNL     1      -5.347  -0.243  -0.124  0.00  0.00    +0.005 C 
BRANCH  34  35
ATOM     35  C   UNL     1      -5.547  -1.601   0.564  0.00  0.00    +0.027 C 
BRANCH  35  36
ATOM     36  C   UNL     1      -7.014  -2.074   0.632  0.00  0.00    +0.088 C 
ATOM     37  C   UNL     1      -7.101  -3.395   1.403  0.00  0.00    +0.029 C 
ATOM     38  C   UNL     1      -7.637  -2.245  -0.754  0.00  0.00    +0.029 C 
BRANCH  36  39
ATOM     39  O   UNL     1      -7.794  -1.104   1.334  0.00  0.00    -0.387 OA
ATOM     40  H   UNL     1      -7.423  -0.972   2.221  0.00  0.00    +0.210 HD
ENDBRANCH  36  39
ENDBRANCH  35  36
ENDBRANCH  34  35
ENDBRANCH  33  34
ENDBRANCH  29  33
ENDBRANCH   9  29
TORSDOF 10
