102059858
  -OEChem-03292013293D

 57 60  0     1  0  0  0  0  0999 V2000
    6.3077   -1.1665   -0.0976 O   0  0  0  0  0  0  0  0  0  0  0  0
    3.6809   -1.5764   -0.8066 O   0  0  0  0  0  0  0  0  0  0  0  0
    2.8800   -0.3994    1.0979 O   0  0  0  0  0  0  0  0  0  0  0  0
    5.5010    0.7250   -2.6951 O   0  0  0  0  0  0  0  0  0  0  0  0
   -3.9286   -2.0163    0.0487 O   0  0  0  0  0  0  0  0  0  0  0  0
   -5.6465    1.9765   -0.0319 O   0  0  0  0  0  0  0  0  0  0  0  0
   -6.6514   -2.6153   -0.3608 O   0  0  0  0  0  0  0  0  0  0  0  0
   -7.9110   -0.6264   -0.4596 N   0  0  0  0  0  0  0  0  0  0  0  0
    5.2819   -0.6114    0.7420 C   0  0  1  0  0  0  0  0  0  0  0  0
    5.8359    0.1443   -0.4433 C   0  0  2  0  0  0  0  0  0  0  0  0
    3.9154   -1.2452    0.5731 C   0  0  2  0  0  0  0  0  0  0  0  0
    3.6507   -0.4159   -1.6302 C   0  0  1  0  0  0  0  0  0  0  0  0
    2.5550    0.5422   -1.1334 C   0  0  1  0  0  0  0  0  0  0  0  0
    5.0458    0.1896   -1.6913 C   0  0  0  0  0  0  0  0  0  0  0  0
    2.7142    0.8279    0.3742 C   0  0  1  0  0  0  0  0  0  0  0  0
    5.7589   -0.2577    2.1159 C   0  0  0  0  0  0  0  0  0  0  0  0
    3.8240   -2.5672    1.3360 C   0  0  0  0  0  0  0  0  0  0  0  0
    1.5000    1.5293    0.9756 C   0  0  2  0  0  0  0  0  0  0  0  0
    2.4773    1.8139   -1.9764 C   0  0  0  0  0  0  0  0  0  0  0  0
    1.7058    1.7665    2.4736 C   0  0  0  0  0  0  0  0  0  0  0  0
    0.2562    0.6967    0.7548 C   0  0  0  0  0  0  0  0  0  0  0  0
   -1.0194    1.1084    0.5906 C   0  0  0  0  0  0  0  0  0  0  0  0
   -1.4473    2.5529    0.5862 C   0  0  0  0  0  0  0  0  0  0  0  0
   -2.0614    0.0930    0.4003 C   0  0  0  0  0  0  0  0  0  0  0  0
   -3.3759    0.3152    0.2228 C   0  0  0  0  0  0  0  0  0  0  0  0
   -4.3853   -0.7126    0.0374 C   0  0  0  0  0  0  0  0  0  0  0  0
   -5.6828   -0.4220   -0.1349 C   0  0  0  0  0  0  0  0  0  0  0  0
   -6.2667    0.9350   -0.1623 C   0  0  0  0  0  0  0  0  0  0  0  0
   -6.7633   -1.4039   -0.3281 C   0  0  0  0  0  0  0  0  0  0  0  0
   -7.7512    0.8197   -0.3778 C   0  0  0  0  0  0  0  0  0  0  0  0
    6.4956    0.9830   -0.2566 H   0  0  0  0  0  0  0  0  0  0  0  0
    3.4100   -0.7592   -2.6434 H   0  0  0  0  0  0  0  0  0  0  0  0
    1.6209   -0.0142   -1.2866 H   0  0  0  0  0  0  0  0  0  0  0  0
    3.5946    1.4590    0.5475 H   0  0  0  0  0  0  0  0  0  0  0  0
    5.9057   -1.1570    2.7218 H   0  0  0  0  0  0  0  0  0  0  0  0
    5.0338    0.3862    2.6234 H   0  0  0  0  0  0  0  0  0  0  0  0
    6.7143    0.2774    2.0876 H   0  0  0  0  0  0  0  0  0  0  0  0
    2.8564   -3.0485    1.1507 H   0  0  0  0  0  0  0  0  0  0  0  0
    3.9041   -2.4193    2.4179 H   0  0  0  0  0  0  0  0  0  0  0  0
    4.6024   -3.2683    1.0159 H   0  0  0  0  0  0  0  0  0  0  0  0
    1.3916    2.5069    0.4951 H   0  0  0  0  0  0  0  0  0  0  0  0
    1.5614    2.3745   -1.7665 H   0  0  0  0  0  0  0  0  0  0  0  0
    2.4688    1.5718   -3.0446 H   0  0  0  0  0  0  0  0  0  0  0  0
    3.3281    2.4758   -1.7847 H   0  0  0  0  0  0  0  0  0  0  0  0
    1.7591    0.8305    3.0409 H   0  0  0  0  0  0  0  0  0  0  0  0
    2.6303    2.3255    2.6550 H   0  0  0  0  0  0  0  0  0  0  0  0
    0.8797    2.3540    2.8901 H   0  0  0  0  0  0  0  0  0  0  0  0
    0.4222   -0.3815    0.7811 H   0  0  0  0  0  0  0  0  0  0  0  0
   -2.1839    2.7421    1.3750 H   0  0  0  0  0  0  0  0  0  0  0  0
   -1.8826    2.8253   -0.3815 H   0  0  0  0  0  0  0  0  0  0  0  0
   -0.6186    3.2422    0.7676 H   0  0  0  0  0  0  0  0  0  0  0  0
   -1.7083   -0.9375    0.4080 H   0  0  0  0  0  0  0  0  0  0  0  0
   -3.6728    1.3496    0.2215 H   0  0  0  0  0  0  0  0  0  0  0  0
   -8.3150    1.1941    0.4778 H   0  0  0  0  0  0  0  0  0  0  0  0
   -8.0592    1.2678   -1.3235 H   0  0  0  0  0  0  0  0  0  0  0  0
   -4.6766   -2.6214   -0.0824 H   0  0  0  0  0  0  0  0  0  0  0  0
   -8.8221   -1.0496   -0.6061 H   0  0  0  0  0  0  0  0  0  0  0  0
  1  9  1  0  0  0  0
  1 10  1  0  0  0  0
  2 11  1  0  0  0  0
  2 12  1  0  0  0  0
  3 11  1  0  0  0  0
  3 15  1  0  0  0  0
  4 14  2  0  0  0  0
  5 26  1  0  0  0  0
  5 56  1  0  0  0  0
  6 28  2  0  0  0  0
  7 29  2  0  0  0  0
  8 29  1  0  0  0  0
  8 30  1  0  0  0  0
  8 57  1  0  0  0  0
  9 10  1  0  0  0  0
  9 11  1  0  0  0  0
  9 16  1  0  0  0  0
 10 14  1  0  0  0  0
 10 31  1  0  0  0  0
 11 17  1  0  0  0  0
 12 13  1  0  0  0  0
 12 14  1  0  0  0  0
 12 32  1  0  0  0  0
 13 15  1  0  0  0  0
 13 19  1  0  0  0  0
 13 33  1  0  0  0  0
 15 18  1  0  0  0  0
 15 34  1  0  0  0  0
 16 35  1  0  0  0  0
 16 36  1  0  0  0  0
 16 37  1  0  0  0  0
 17 38  1  0  0  0  0
 17 39  1  0  0  0  0
 17 40  1  0  0  0  0
 18 20  1  0  0  0  0
 18 21  1  0  0  0  0
 18 41  1  0  0  0  0
 19 42  1  0  0  0  0
 19 43  1  0  0  0  0
 19 44  1  0  0  0  0
 20 45  1  0  0  0  0
 20 46  1  0  0  0  0
 20 47  1  0  0  0  0
 21 22  2  0  0  0  0
 21 48  1  0  0  0  0
 22 23  1  0  0  0  0
 22 24  1  0  0  0  0
 23 49  1  0  0  0  0
 23 50  1  0  0  0  0
 23 51  1  0  0  0  0
 24 25  2  0  0  0  0
 24 52  1  0  0  0  0
 25 26  1  0  0  0  0
 25 53  1  0  0  0  0
 26 27  2  0  0  0  0
 27 28  1  0  0  0  0
 27 29  1  0  0  0  0
 28 30  1  0  0  0  0
 30 54  1  0  0  0  0
 30 55  1  0  0  0  0
M  END
> <PUBCHEM_COMPOUND_CID>
102059858

> <PUBCHEM_CONFORMER_RMSD>
0.8

> <PUBCHEM_CONFORMER_DIVERSEORDER>
1
24
9
5
15
13
7
8
6
19
21
2
20
3
17
10
23
14
22
12
11
18
25
4
16

> <PUBCHEM_MMFF94_PARTIAL_CHARGES>
32
1 -0.3
10 0.05
11 0.65
12 0.34
14 0.51
15 0.28
16 0.09
18 0.14
2 -0.56
21 -0.29
22 -0.14
23 0.14
24 -0.15
25 -0.15
26 0.08
27 0.03
28 0.49
29 0.62
3 -0.56
30 0.36
31 0.1
4 -0.57
48 0.15
5 -0.53
52 0.15
53 0.15
56 0.45
57 0.37
6 -0.57
7 -0.57
8 -0.73
9 -0.04

> <PUBCHEM_EFFECTIVE_ROTOR_COUNT>
5.4

> <PUBCHEM_PHARMACOPHORE_FEATURES>
14
1 1 acceptor
1 2 acceptor
1 20 hydrophobe
1 23 hydrophobe
1 27 anion
1 3 acceptor
1 4 acceptor
1 5 donor
1 6 acceptor
1 7 acceptor
1 8 donor
5 8 27 28 29 30 rings
6 2 3 11 12 13 15 rings
7 1 2 9 10 11 12 14 rings

> <PUBCHEM_HEAVY_ATOM_COUNT>
30

> <PUBCHEM_ATOM_DEF_STEREO_COUNT>
7

> <PUBCHEM_ATOM_UDEF_STEREO_COUNT>
0

> <PUBCHEM_BOND_DEF_STEREO_COUNT>
3

> <PUBCHEM_BOND_UDEF_STEREO_COUNT>
0

> <PUBCHEM_ISOTOPIC_ATOM_COUNT>
0

> <PUBCHEM_COMPONENT_COUNT>
1

> <PUBCHEM_CACTVS_TAUTO_COUNT>
26

> <PUBCHEM_CONFORMER_ID>
06154F5200000001

> <PUBCHEM_MMFF94_ENERGY>
76.4583

> <PUBCHEM_FEATURE_SELFOVERLAP>
71.809

> <PUBCHEM_SHAPE_FINGERPRINT>
10299344 5 18186520999671424395
11135609 127 17968943118669755516
11135609 149 16227711253406584170
11135609 99 18198615541921123522
11796584 16 18343023302303396143
12516196 113 17561081406133026185
12730499 353 13190336850883570017
13685833 64 18060418027987305881
13782708 43 17774153643689175767
14068700 675 18334857212291006221
14251752 14 18334011679759789429
14294032 229 18046068160037424925
14347332 77 18186796946772466077
14681490 219 16732700541078603661
15119646 104 17968095291787466114
15183329 4 18187086144179093349
15352257 5 18410571786877541695
15419008 91 17916848167651850169
17857418 61 18411699868316326707
20157964 124 16443348676489057290
21623969 137 16988842769884981573
22224240 67 14979665599101097358
23198884 109 16950284005880914841
23522609 53 18190485799583411149
23559900 14 18271238426168132513
25222932 49 17917418831397631014
3004659 81 18335421278834930873
3383291 50 17703791453494916935
3411729 13 17702370944400737496
394071 54 16056871468532979752
4073 2 18261109742211511995
4098825 35 17676485025840602101
437815 12 17703790319327774969
439807 62 18335138683394092963
44317340 157 15357705201068047019
59682541 35 17418084426437072314
59682541 52 17022900142465691658
86090 222 16271388351432690828

> <PUBCHEM_SHAPE_MULTIPOLES>
571.32
21.59
2.22
1.81
33.73
0.38
-0.23
7.38
-4.3
1.22
0.41
-4.12
-0.6
-1.24

> <PUBCHEM_SHAPE_SELFOVERLAP>
1222.335

> <PUBCHEM_SHAPE_VOLUME>
314.1

> <PUBCHEM_COORDINATE_TYPE>
2
5
10

$$$$
