10203245
  -OEChem-03292013303D

 56 58  0     0  0  0  0  0  0999 V2000
   -0.2115    2.6241    1.9974 S   0  0  0  0  0  0  0  0  0  0  0  0
    2.8779    1.9170    0.6267 O   0  0  0  0  0  0  0  0  0  0  0  0
    1.7084   -1.6108    1.8447 O   0  0  0  0  0  0  0  0  0  0  0  0
    1.4929   -3.9984    1.5994 O   0  0  0  0  0  0  0  0  0  0  0  0
   -5.0689   -1.3681    0.3582 O   0  5  0  0  0  0  0  0  0  0  0  0
   -6.4420   -0.0063   -0.6957 O   0  0  0  0  0  0  0  0  0  0  0  0
   -2.8581   -0.3993   -1.1069 N   0  0  0  0  0  0  0  0  0  0  0  0
    3.5946   -0.6788   -1.0687 N   0  0  0  0  0  0  0  0  0  0  0  0
   -2.2987    1.7774   -0.2243 N   0  0  0  0  0  0  0  0  0  0  0  0
   -5.3897   -0.2572   -0.0895 N   0  3  0  0  0  0  0  0  0  0  0  0
   -0.7794   -1.6158   -0.8522 C   0  0  0  0  0  0  0  0  0  0  0  0
   -1.5910   -0.7022   -1.7282 C   0  0  0  0  0  0  0  0  0  0  0  0
    4.3008    0.5514   -0.7460 C   0  0  0  0  0  0  0  0  0  0  0  0
    3.3809    1.6901   -0.6151 C   0  0  0  0  0  0  0  0  0  0  0  0
    2.0630    2.9995    0.5243 C   0  0  0  0  0  0  0  0  0  0  0  0
    0.8153   -1.9524    0.8763 C   0  0  0  0  0  0  0  0  0  0  0  0
   -2.5105    3.0193    0.4822 C   0  0  0  0  0  0  0  0  0  0  0  0
    0.0919   -1.0742    0.0959 C   0  0  0  0  0  0  0  0  0  0  0  0
    1.3855    3.4431    1.7886 C   0  0  0  0  0  0  0  0  0  0  0  0
    0.6923   -3.3159    0.7362 C   0  0  0  0  0  0  0  0  0  0  0  0
   -1.1888    3.6683    0.8733 C   0  0  0  0  0  0  0  0  0  0  0  0
   -0.9050   -3.0089   -0.9954 C   0  0  0  0  0  0  0  0  0  0  0  0
   -3.2262    0.7475   -0.3941 C   0  0  0  0  0  0  0  0  0  0  0  0
    2.8962    2.6159   -1.5095 C   0  0  0  0  0  0  0  0  0  0  0  0
    2.0403    3.4662   -0.7695 C   0  0  0  0  0  0  0  0  0  0  0  0
   -0.1608   -3.8762   -0.1922 C   0  0  0  0  0  0  0  0  0  0  0  0
    2.1333   -2.9120    2.2989 C   0  0  0  0  0  0  0  0  0  0  0  0
    3.2243   -0.7081   -2.4860 C   0  0  0  0  0  0  0  0  0  0  0  0
    4.4116   -1.8486   -0.7360 C   0  0  0  0  0  0  0  0  0  0  0  0
   -4.4788    0.8135    0.1071 C   0  0  0  0  0  0  0  0  0  0  0  0
   -1.7855   -1.2021   -2.6856 H   0  0  0  0  0  0  0  0  0  0  0  0
   -1.0180    0.1923   -1.9963 H   0  0  0  0  0  0  0  0  0  0  0  0
    4.8190    0.4434    0.2172 H   0  0  0  0  0  0  0  0  0  0  0  0
    5.0872    0.7732   -1.4796 H   0  0  0  0  0  0  0  0  0  0  0  0
   -3.1056    2.8598    1.3897 H   0  0  0  0  0  0  0  0  0  0  0  0
   -3.0741    3.7058   -0.1600 H   0  0  0  0  0  0  0  0  0  0  0  0
    0.2088   -0.0036    0.2116 H   0  0  0  0  0  0  0  0  0  0  0  0
    1.2607    4.5309    1.8005 H   0  0  0  0  0  0  0  0  0  0  0  0
    2.0158    3.1830    2.6459 H   0  0  0  0  0  0  0  0  0  0  0  0
   -1.3831    4.6227    1.3734 H   0  0  0  0  0  0  0  0  0  0  0  0
   -0.6220    3.8770   -0.0371 H   0  0  0  0  0  0  0  0  0  0  0  0
   -3.5618   -1.1249   -1.2011 H   0  0  0  0  0  0  0  0  0  0  0  0
   -1.5860   -3.4260   -1.7332 H   0  0  0  0  0  0  0  0  0  0  0  0
    3.1308    2.6758   -2.5626 H   0  0  0  0  0  0  0  0  0  0  0  0
   -1.3910    1.6343   -0.6506 H   0  0  0  0  0  0  0  0  0  0  0  0
    1.4849    4.3165   -1.1380 H   0  0  0  0  0  0  0  0  0  0  0  0
   -0.2549   -4.9509   -0.2992 H   0  0  0  0  0  0  0  0  0  0  0  0
    1.9063   -3.0011    3.3675 H   0  0  0  0  0  0  0  0  0  0  0  0
    3.2172   -2.9965    2.1624 H   0  0  0  0  0  0  0  0  0  0  0  0
    2.5186    0.0896   -2.7365 H   0  0  0  0  0  0  0  0  0  0  0  0
    2.7081   -1.6461   -2.7226 H   0  0  0  0  0  0  0  0  0  0  0  0
    4.0955   -0.6260   -3.1462 H   0  0  0  0  0  0  0  0  0  0  0  0
    4.6515   -1.8618    0.3328 H   0  0  0  0  0  0  0  0  0  0  0  0
    3.8614   -2.7733   -0.9429 H   0  0  0  0  0  0  0  0  0  0  0  0
    5.3502   -1.8699   -1.3015 H   0  0  0  0  0  0  0  0  0  0  0  0
   -4.9374    1.6427    0.6260 H   0  0  0  0  0  0  0  0  0  0  0  0
  1 19  1  0  0  0  0
  1 21  1  0  0  0  0
  2 14  1  0  0  0  0
  2 15  1  0  0  0  0
  3 16  1  0  0  0  0
  3 27  1  0  0  0  0
  4 20  1  0  0  0  0
  4 27  1  0  0  0  0
  5 10  1  0  0  0  0
  6 10  2  0  0  0  0
  7 12  1  0  0  0  0
  7 23  1  0  0  0  0
  7 42  1  0  0  0  0
  8 13  1  0  0  0  0
  8 28  1  0  0  0  0
  8 29  1  0  0  0  0
  9 17  1  0  0  0  0
  9 23  1  0  0  0  0
  9 45  1  0  0  0  0
 10 30  1  0  0  0  0
 11 12  1  0  0  0  0
 11 18  2  0  0  0  0
 11 22  1  0  0  0  0
 12 31  1  0  0  0  0
 12 32  1  0  0  0  0
 13 14  1  0  0  0  0
 13 33  1  0  0  0  0
 13 34  1  0  0  0  0
 14 24  2  0  0  0  0
 15 19  1  0  0  0  0
 15 25  2  0  0  0  0
 16 18  1  0  0  0  0
 16 20  2  0  0  0  0
 17 21  1  0  0  0  0
 17 35  1  0  0  0  0
 17 36  1  0  0  0  0
 18 37  1  0  0  0  0
 19 38  1  0  0  0  0
 19 39  1  0  0  0  0
 20 26  1  0  0  0  0
 21 40  1  0  0  0  0
 21 41  1  0  0  0  0
 22 26  2  0  0  0  0
 22 43  1  0  0  0  0
 23 30  2  0  0  0  0
 24 25  1  0  0  0  0
 24 44  1  0  0  0  0
 25 46  1  0  0  0  0
 26 47  1  0  0  0  0
 27 48  1  0  0  0  0
 27 49  1  0  0  0  0
 28 50  1  0  0  0  0
 28 51  1  0  0  0  0
 28 52  1  0  0  0  0
 29 53  1  0  0  0  0
 29 54  1  0  0  0  0
 29 55  1  0  0  0  0
 30 56  1  0  0  0  0
M  CHG  2   5  -1  10   1
M  END
> <PUBCHEM_COMPOUND_CID>
10203245

> <PUBCHEM_CONFORMER_RMSD>
1.4

> <PUBCHEM_CONFORMER_DIVERSEORDER>
1
44
81
65
100
22
12
107
82
102
75
7
67
29
111
84
2
57
73
93
112
15
128
14
85
103
24
11
122
71
8
60
72
23
39
143
118
91
117
90
9
74
59
36
51
96
56
18
137
50
119
92
78
133
33
52
124
5
69
27
45
62
105
130
61
58
132
46
20
55
49
4
3
53
70
25
127
37
86
109
16
89
83
116
21
120
101
47
95
10
76
38
54
108
121
131
6
106
28
13
94
79
134
34
113
31
110
19
35
97
135
77
126
125
139
64
99
48
26
17
129
145
87
30
141
80
32
63
114
68
66
138
41
115
88
43
142
40
136
104
144
42
140
123
98

> <PUBCHEM_MMFF94_PARTIAL_CHARGES>
38
1 -0.46
10 0.84
11 -0.14
12 0.51
13 0.45
14 -0.04
15 -0.04
16 0.08
17 0.37
18 -0.15
19 0.41
2 -0.28
20 0.08
21 0.23
22 -0.15
23 0.2
24 -0.15
25 -0.15
26 -0.15
27 0.56
28 0.27
29 0.27
3 -0.36
30 0.05
37 0.15
4 -0.36
42 0.4
43 0.15
44 0.15
45 0.4
46 0.15
47 0.15
5 -0.52
56 0.15
6 -0.52
7 -0.87
8 -0.81
9 -0.87

> <PUBCHEM_EFFECTIVE_ROTOR_COUNT>
12.6

> <PUBCHEM_PHARMACOPHORE_FEATURES>
14
1 2 acceptor
1 3 acceptor
1 4 acceptor
1 5 acceptor
1 5 anion
1 6 acceptor
1 7 cation
1 7 donor
1 8 cation
1 9 cation
1 9 donor
5 2 14 15 24 25 rings
5 3 4 16 20 27 rings
6 11 16 18 20 22 26 rings

> <PUBCHEM_HEAVY_ATOM_COUNT>
30

> <PUBCHEM_ATOM_DEF_STEREO_COUNT>
0

> <PUBCHEM_ATOM_UDEF_STEREO_COUNT>
0

> <PUBCHEM_BOND_DEF_STEREO_COUNT>
1

> <PUBCHEM_BOND_UDEF_STEREO_COUNT>
0

> <PUBCHEM_ISOTOPIC_ATOM_COUNT>
0

> <PUBCHEM_COMPONENT_COUNT>
1

> <PUBCHEM_CACTVS_TAUTO_COUNT>
2

> <PUBCHEM_CONFORMER_ID>
009BB06D00000001

> <PUBCHEM_MMFF94_ENERGY>
69.3749

> <PUBCHEM_FEATURE_SELFOVERLAP>
71.34

> <PUBCHEM_SHAPE_FINGERPRINT>
12788726 201 18130806537689316820
14117953 113 16393806537277149452
14931854 50 18340497702899400204
14955137 171 18189605052246674090
15297060 5 16984344487416554720
19591789 44 18340769351143599177
20465049 17 18409173220407501166
23558518 356 17474655626256216909
3298306 158 18337380652233541225
35225 105 17537759789666144288
392239 28 18337123357748536611
474144 1 18118966888764019720
57091435 65 17977104553006031410

> <PUBCHEM_SHAPE_MULTIPOLES>
571.96
8.72
6.01
1.96
10.65
0.13
-0.4
0.69
3.31
-2.67
-2.59
-1.55
-0.43
-1.31

> <PUBCHEM_SHAPE_SELFOVERLAP>
1184.741

> <PUBCHEM_SHAPE_VOLUME>
332.5

> <PUBCHEM_COORDINATE_TYPE>
2
5
10

$$$$
