REMARK  Name = 102073560
REMARK  9 active torsions:
REMARK  status: ('A' for Active; 'I' for Inactive)
REMARK    1  A    between atoms: C_2  and  O_15
REMARK    2  A    between atoms: C_3  and  O_7
REMARK    3  A    between atoms: C_4  and  O_9
REMARK    4  A    between atoms: C_6  and  C_12
REMARK    5  A    between atoms: C_12  and  O_13
REMARK    6  A    between atoms: O_15  and  C_17
REMARK    7  A    between atoms: C_18  and  O_24
REMARK    8  A    between atoms: C_19  and  O_22
REMARK    9  A    between atoms: C_20  and  O_26
REMARK                            x       y       z     vdW  Elec       q    Type
REMARK                         _______ _______ _______ _____ _____    ______ ____
ROOT
ATOM      1  O   UNL     1       1.425  -0.158   1.463  0.00  0.00    -0.444 OA
ATOM      2  C   UNL     1       0.786   1.081   1.119  0.00  0.00    +0.319 C 
ATOM      3  C   UNL     1       1.802   2.095   0.587  0.00  0.00    +0.212 C 
ATOM      4  C   UNL     1       2.496   1.550  -0.663  0.00  0.00    +0.169 C 
ATOM      5  C   UNL     1       2.826   0.098  -0.488  0.00  0.00    +0.049 C 
ATOM      6  C   UNL     1       2.318  -0.625   0.523  0.00  0.00    +0.214 C 
ENDROOT
BRANCH   3   7
ATOM      7  O   UNL     1       1.154   3.321   0.264  0.00  0.00    -0.376 OA
ATOM      8  H   UNL     1       0.712   3.671   1.054  0.00  0.00    +0.211 HD
ENDBRANCH   3   7
BRANCH   4   9
ATOM      9  O   UNL     1       3.696   2.295  -0.868  0.00  0.00    -0.377 OA
ATOM     10  H   UNL     1       3.478   3.233  -0.980  0.00  0.00    +0.211 HD
ENDBRANCH   4   9
BRANCH   6  12
ATOM     11  O   UNL     1       3.524  -2.574  -0.107  0.00  0.00    -0.242 OA
ATOM     12  C   UNL     1       2.741  -2.020   0.645  0.00  0.00    +0.372 C 
BRANCH  12  13
ATOM     13  O   UNL     1       2.135  -2.588   1.709  0.00  0.00    -0.475 OA
ATOM     14  H   UNL     1       1.544  -2.085   2.235  0.00  0.00    +0.296 HD
ENDBRANCH  12  13
ENDBRANCH   6  12
BRANCH   2  15
ATOM     15  O   UNL     1      -0.248   0.879   0.154  0.00  0.00    -0.313 OA
BRANCH  15  17
ATOM     16  O   UNL     1      -3.073   0.987  -0.598  0.00  0.00    -0.326 OA
ATOM     17  C   UNL     1      -1.227  -0.044   0.629  0.00  0.00    +0.204 C 
ATOM     18  C   UNL     1      -1.283  -1.261  -0.304  0.00  0.00    +0.172 C 
ATOM     19  C   UNL     1      -1.965  -0.926  -1.633  0.00  0.00    +0.174 C 
ATOM     20  C   UNL     1      -2.570   0.691   0.708  0.00  0.00    +0.266 C 
ATOM     21  C   UNL     1      -3.271  -0.168  -1.415  0.00  0.00    +0.177 C 
BRANCH  19  22
ATOM     22  O   UNL     1      -1.109  -0.115  -2.433  0.00  0.00    -0.348 OA
ATOM     23  C   UNL     1      -0.094  -0.888  -3.057  0.00  0.00    +0.174 C 
ENDBRANCH  19  22
BRANCH  18  24
ATOM     24  O   UNL     1      -2.017  -2.311   0.321  0.00  0.00    -0.379 OA
ATOM     25  H   UNL     1      -1.600  -2.538   1.167  0.00  0.00    +0.211 HD
ENDBRANCH  18  24
BRANCH  20  26
ATOM     26  O   UNL     1      -3.493  -0.066   1.483  0.00  0.00    -0.326 OA
ATOM     27  C   UNL     1      -4.554   0.746   1.960  0.00  0.00    +0.177 C 
ENDBRANCH  20  26
ENDBRANCH  15  17
ENDBRANCH   2  15
TORSDOF 9
