REMARK  Name = 102095578
REMARK  7 active torsions:
REMARK  status: ('A' for Active; 'I' for Inactive)
REMARK    1  A    between atoms: C_8  and  O_19
REMARK    2  A    between atoms: C_12  and  C_23
REMARK    3  A    between atoms: C_13  and  O_21
REMARK    4  A    between atoms: C_23  and  C_24
REMARK    5  A    between atoms: C_23  and  C_27
REMARK    6  A    between atoms: C_27  and  C_29
REMARK    7  A    between atoms: C_29  and  O_30
REMARK                            x       y       z     vdW  Elec       q    Type
REMARK                         _______ _______ _______ _____ _____    ______ ____
ROOT
ATOM      1  O   UNL     1      -3.281   2.529   0.021  0.00  0.00    -0.452 OA
ATOM      2  O   UNL     1      -0.228  -1.956   0.541  0.00  0.00    -0.449 OA
ATOM      3  O   UNL     1      -1.446   3.875   0.043  0.00  0.00    -0.250 OA
ATOM      4  O   UNL     1      -0.179  -4.240   0.734  0.00  0.00    -0.250 OA
ATOM      5  C   UNL     1      -2.052  -0.624  -0.383  0.00  0.00    +0.072 C 
ATOM      6  C   UNL     1      -2.426   0.652  -1.176  0.00  0.00    +0.061 C 
ATOM      7  C   UNL     1      -0.542  -0.995  -0.490  0.00  0.00    +0.178 C 
ATOM      8  C   UNL     1      -2.663  -0.382   1.024  0.00  0.00    +0.096 C 
ATOM      9  C   UNL     1      -3.648   1.243  -0.484  0.00  0.00    +0.172 C 
ATOM     10  C   UNL     1      -1.404   1.778  -1.191  0.00  0.00    +0.124 C 
ATOM     11  C   UNL     1      -3.988   0.317   0.679  0.00  0.00    +0.071 C 
ATOM     12  C   UNL     1       0.372   0.211  -0.350  0.00  0.00    -0.006 C 
ATOM     13  C   UNL     1      -0.189  -1.769  -1.776  0.00  0.00    +0.162 C 
ATOM     14  C   UNL     1      -0.037   1.444  -0.692  0.00  0.00    -0.020 C 
ATOM     15  C   UNL     1      -2.001   2.845  -0.310  0.00  0.00    +0.321 C 
ATOM     16  C   UNL     1      -2.922  -1.645   1.842  0.00  0.00    +0.030 C 
ATOM     17  C   UNL     1      -0.523  -3.204  -1.424  0.00  0.00    +0.143 C 
ATOM     18  C   UNL     1      -0.287  -3.232   0.053  0.00  0.00    +0.320 C 
ENDROOT
BRANCH   8  19
ATOM     19  O   UNL     1      -1.843   0.491   1.794  0.00  0.00    -0.386 OA
ATOM     20  H   UNL     1      -1.668   1.300   1.289  0.00  0.00    +0.210 HD
ENDBRANCH   8  19
BRANCH  13  21
ATOM     21  O   UNL     1      -0.911  -1.334  -2.910  0.00  0.00    -0.380 OA
ATOM     22  H   UNL     1      -0.676  -0.414  -3.110  0.00  0.00    +0.211 HD
ENDBRANCH  13  21
BRANCH  12  23
ATOM     23  C   UNL     1       1.775  -0.012   0.153  0.00  0.00    +0.051 C 
BRANCH  23  24
ATOM     24  C   UNL     1       1.839   0.076   1.671  0.00  0.00    -0.040 C 
ATOM     25  C   UNL     1       1.516   1.391   2.331  0.00  0.00    +0.027 C 
ATOM     26  C   UNL     1       2.178  -0.993   2.411  0.00  0.00    -0.009 C 
ENDBRANCH  23  24
BRANCH  23  27
ATOM     27  C   UNL     1       2.751   0.949  -0.545  0.00  0.00    +0.118 C 
BRANCH  27  29
ATOM     28  O   UNL     1       4.516  -0.696  -0.434  0.00  0.00    -0.250 OA
ATOM     29  C   UNL     1       4.185   0.482  -0.450  0.00  0.00    +0.318 C 
BRANCH  29  30
ATOM     30  O   UNL     1       5.023   1.556  -0.388  0.00  0.00    -0.444 OA
ATOM     31  C   UNL     1       6.416   1.244  -0.295  0.00  0.00    +0.256 C 
ENDBRANCH  29  30
ENDBRANCH  27  29
ENDBRANCH  23  27
ENDBRANCH  12  23
TORSDOF 7
