REMARK  Name = 102004627
REMARK  6 active torsions:
REMARK  status: ('A' for Active; 'I' for Inactive)
REMARK    1  A    between atoms: C_5  and  O_19
REMARK    2  A    between atoms: C_6  and  O_21
REMARK    3  A    between atoms: C_11  and  O_25
REMARK    4  A    between atoms: O_21  and  C_23
REMARK    5  A    between atoms: O_25  and  C_27
REMARK    6  A    between atoms: C_27  and  C_28
REMARK                            x       y       z     vdW  Elec       q    Type
REMARK                         _______ _______ _______ _____ _____    ______ ____
ROOT
ATOM      1  O   UNL     1      -1.337   1.406   0.932  0.00  0.00    -0.336 OA
ATOM      2  O   UNL     1       2.713   2.475  -0.692  0.00  0.00    -0.449 OA
ATOM      3  O   UNL     1       4.753   2.414   0.347  0.00  0.00    -0.245 OA
ATOM      4  C   UNL     1      -1.580  -0.001   1.006  0.00  0.00    +0.135 C 
ATOM      5  C   UNL     1      -2.018   1.953  -0.207  0.00  0.00    +0.187 C 
ATOM      6  C   UNL     1      -3.004  -0.127   0.457  0.00  0.00    +0.198 C 
ATOM      7  C   UNL     1      -0.997   2.285  -1.331  0.00  0.00    +0.055 C 
ATOM      8  C   UNL     1      -3.033   0.894  -0.666  0.00  0.00    +0.102 C 
ATOM      9  C   UNL     1      -0.514  -0.743   0.168  0.00  0.00    +0.075 C 
ATOM     10  C   UNL     1       1.462   0.948   0.661  0.00  0.00    +0.109 C 
ATOM     11  C   UNL     1       0.960  -0.516   0.562  0.00  0.00    +0.179 C 
ATOM     12  C   UNL     1       1.459   1.747  -0.653  0.00  0.00    +0.177 C 
ATOM     13  C   UNL     1       0.355   2.822  -0.809  0.00  0.00    +0.049 C 
ATOM     14  C   UNL     1      -1.517  -0.427   2.474  0.00  0.00    +0.034 C 
ATOM     15  C   UNL     1      -1.598   3.264  -2.352  0.00  0.00    +0.005 C 
ATOM     16  C   UNL     1       2.906   1.042   1.062  0.00  0.00    +0.060 C 
ATOM     17  C   UNL     1       3.602   2.034   0.232  0.00  0.00    +0.337 C 
ATOM     18  C   UNL     1       3.563   0.378   2.018  0.00  0.00    +0.002 C 
ENDROOT
BRANCH   5  19
ATOM     19  O   UNL     1      -2.687   3.145   0.201  0.00  0.00    -0.363 OA
ATOM     20  H   UNL     1      -2.032   3.801   0.487  0.00  0.00    +0.213 HD
ENDBRANCH   5  19
BRANCH   6  21
ATOM     21  O   UNL     1      -3.325  -1.421  -0.011  0.00  0.00    -0.450 OA
BRANCH  21  23
ATOM     22  O   UNL     1      -5.569  -1.036   0.379  0.00  0.00    -0.250 OA
ATOM     23  C   UNL     1      -4.654  -1.756   0.001  0.00  0.00    +0.318 C 
ATOM     24  C   UNL     1      -4.843  -3.149  -0.519  0.00  0.00    +0.121 C 
ENDBRANCH  21  23
ENDBRANCH   6  21
BRANCH  11  25
ATOM     25  O   UNL     1       1.766  -1.214  -0.398  0.00  0.00    -0.452 OA
BRANCH  25  27
ATOM     26  O   UNL     1       1.528  -3.157   0.821  0.00  0.00    -0.250 OA
ATOM     27  C   UNL     1       1.968  -2.538  -0.139  0.00  0.00    +0.316 C 
BRANCH  27  28
ATOM     28  C   UNL     1       2.843  -3.134  -1.228  0.00  0.00    +0.099 C 
ATOM     29  C   UNL     1       2.485  -4.598  -1.470  0.00  0.00    +0.012 C 
ATOM     30  C   UNL     1       4.311  -2.988  -0.847  0.00  0.00    +0.012 C 
ENDBRANCH  27  28
ENDBRANCH  25  27
ENDBRANCH  11  25
TORSDOF 6
