REMARK  Name = 102086406
REMARK  11 active torsions:
REMARK  status: ('A' for Active; 'I' for Inactive)
REMARK    1  A    between atoms: C_2  and  O_24
REMARK    2  A    between atoms: C_3  and  C_11
REMARK    3  A    between atoms: C_12  and  C_17
REMARK    4  A    between atoms: C_18  and  C_21
REMARK    5  A    between atoms: C_21  and  O_22
REMARK    6  A    between atoms: O_24  and  C_26
REMARK    7  A    between atoms: C_27  and  O_31
REMARK    8  A    between atoms: C_28  and  O_33
REMARK    9  A    between atoms: C_29  and  O_35
REMARK   10  A    between atoms: C_30  and  C_37
REMARK   11  A    between atoms: C_37  and  O_38
REMARK                            x       y       z     vdW  Elec       q    Type
REMARK                         _______ _______ _______ _____ _____    ______ ____
ROOT
ATOM      1  C   UNL     1       0.279   0.364  -0.646  0.00  0.00    +0.040 C 
ATOM      2  C   UNL     1      -0.993   0.734   0.175  0.00  0.00    +0.121 C 
ATOM      3  C   UNL     1       1.286  -0.450   0.199  0.00  0.00    -0.044 C 
ATOM      4  C   UNL     1      -0.639   1.256   1.562  0.00  0.00    +0.034 C 
ATOM      5  C   UNL     1       1.196  -0.527   1.550  0.00  0.00    -0.051 C 
ATOM      6  C   UNL     1       0.150   0.216   2.350  0.00  0.00    +0.024 C 
ATOM      7  C   UNL     1      -0.164  -0.424  -1.901  0.00  0.00    +0.006 C 
ATOM      8  C   UNL     1       0.965   1.669  -1.113  0.00  0.00    +0.006 C 
ATOM      9  C   UNL     1       2.099  -1.369   2.418  0.00  0.00    +0.026 C 
ENDROOT
BRANCH   3  11
ATOM     10  O   UNL     1       4.788  -1.485  -0.658  0.00  0.00    -0.347 OA
ATOM     11  C   UNL     1       2.383  -1.135  -0.566  0.00  0.00    +0.071 C 
ATOM     12  C   UNL     1       3.775  -0.623  -0.128  0.00  0.00    +0.145 C 
ATOM     13  C   UNL     1       2.292  -2.635  -0.407  0.00  0.00    -0.026 C 
ATOM     14  C   UNL     1       3.368  -3.401  -0.163  0.00  0.00    -0.018 C 
ATOM     15  C   UNL     1       4.742  -2.793  -0.082  0.00  0.00    +0.164 C 
ATOM     16  C   UNL     1       3.275  -4.883   0.031  0.00  0.00    +0.029 C 
BRANCH  12  17
ATOM     17  C   UNL     1       4.070   0.753  -0.635  0.00  0.00    +0.006 C 
ATOM     18  C   UNL     1       4.393   1.841   0.090  0.00  0.00    +0.052 C 
ATOM     19  C   UNL     1       4.565   1.884   1.580  0.00  0.00    +0.038 C 
BRANCH  18  21
ATOM     20  O   UNL     1       4.078   3.388  -1.741  0.00  0.00    -0.245 OA
ATOM     21  C   UNL     1       4.617   3.095  -0.685  0.00  0.00    +0.334 C 
BRANCH  21  22
ATOM     22  O   UNL     1       5.513   3.893  -0.055  0.00  0.00    -0.477 OA
ATOM     23  H   UNL     1       5.896   3.618   0.755  0.00  0.00    +0.295 HD
ENDBRANCH  21  22
ENDBRANCH  18  21
ENDBRANCH  12  17
ENDBRANCH   3  11
BRANCH   2  24
ATOM     24  O   UNL     1      -1.843  -0.408   0.316  0.00  0.00    -0.331 OA
BRANCH  24  26
ATOM     25  O   UNL     1      -3.747   0.939   0.370  0.00  0.00    -0.326 OA
ATOM     26  C   UNL     1      -3.124  -0.174  -0.268  0.00  0.00    +0.266 C 
ATOM     27  C   UNL     1      -3.964  -1.438  -0.082  0.00  0.00    +0.196 C 
ATOM     28  C   UNL     1      -5.404  -1.221  -0.546  0.00  0.00    +0.172 C 
ATOM     29  C   UNL     1      -5.985   0.069   0.034  0.00  0.00    +0.169 C 
ATOM     30  C   UNL     1      -5.028   1.242  -0.186  0.00  0.00    +0.176 C 
BRANCH  27  31
ATOM     31  O   UNL     1      -3.371  -2.485  -0.850  0.00  0.00    -0.378 OA
ATOM     32  H   UNL     1      -2.457  -2.623  -0.556  0.00  0.00    +0.211 HD
ENDBRANCH  27  31
BRANCH  28  33
ATOM     33  O   UNL     1      -6.216  -2.309  -0.102  0.00  0.00    -0.379 OA
ATOM     34  H   UNL     1      -5.865  -3.141  -0.459  0.00  0.00    +0.211 HD
ENDBRANCH  28  33
BRANCH  29  35
ATOM     35  O   UNL     1      -7.230   0.351  -0.598  0.00  0.00    -0.379 OA
ATOM     36  H   UNL     1      -7.839  -0.391  -0.460  0.00  0.00    +0.211 HD
ENDBRANCH  29  35
BRANCH  30  37
ATOM     37  C   UNL     1      -5.531   2.516   0.486  0.00  0.00    +0.169 C 
BRANCH  37  38
ATOM     38  O   UNL     1      -4.594   3.551   0.250  0.00  0.00    -0.379 OA
ATOM     39  H   UNL     1      -4.902   4.368   0.673  0.00  0.00    +0.211 HD
ENDBRANCH  37  38
ENDBRANCH  30  37
ENDBRANCH  24  26
ENDBRANCH   2  24
TORSDOF 11
