REMARK  Name = 102059858
REMARK  5 active torsions:
REMARK  status: ('A' for Active; 'I' for Inactive)
REMARK    1  A    between atoms: C_1  and  C_13
REMARK    2  A    between atoms: C_1  and  C_17
REMARK    3  A    between atoms: C_18  and  C_20
REMARK    4  A    between atoms: C_21  and  C_25
REMARK    5  A    between atoms: C_25  and  O_31
REMARK                            x       y       z     vdW  Elec       q    Type
REMARK                         _______ _______ _______ _____ _____    ______ ____
ROOT
ATOM      1  C   UNL     1       1.500   1.529   0.976  0.00  0.00    +0.049 C 
ATOM      2  C   UNL     1       1.706   1.766   2.474  0.00  0.00    +0.007 C 
ENDROOT
BRANCH   1  13
ATOM      3  O   UNL     1       6.308  -1.167  -0.098  0.00  0.00    -0.343 OA
ATOM      4  O   UNL     1       3.681  -1.576  -0.807  0.00  0.00    -0.327 OA
ATOM      5  O   UNL     1       2.880  -0.399   1.098  0.00  0.00    -0.334 OA
ATOM      6  O   UNL     1       5.501   0.725  -2.695  0.00  0.00    -0.291 OA
ATOM      7  C   UNL     1       5.282  -0.611   0.742  0.00  0.00    +0.171 C 
ATOM      8  C   UNL     1       5.836   0.144  -0.443  0.00  0.00    +0.204 C 
ATOM      9  C   UNL     1       3.915  -1.245   0.573  0.00  0.00    +0.213 C 
ATOM     10  C   UNL     1       3.651  -0.416  -1.630  0.00  0.00    +0.179 C 
ATOM     11  C   UNL     1       2.555   0.542  -1.133  0.00  0.00    +0.062 C 
ATOM     12  C   UNL     1       5.046   0.190  -1.691  0.00  0.00    +0.207 C 
ATOM     13  C   UNL     1       2.714   0.828   0.374  0.00  0.00    +0.124 C 
ATOM     14  C   UNL     1       5.759  -0.258   2.116  0.00  0.00    +0.038 C 
ATOM     15  C   UNL     1       3.824  -2.567   1.336  0.00  0.00    +0.064 C 
ATOM     16  C   UNL     1       2.477   1.814  -1.976  0.00  0.00    +0.005 C 
ENDBRANCH   1  13
BRANCH   1  17
ATOM     17  C   UNL     1       0.256   0.697   0.755  0.00  0.00    -0.028 C 
ATOM     18  C   UNL     1      -1.019   1.108   0.591  0.00  0.00    -0.026 C 
ATOM     19  C   UNL     1      -1.447   2.553   0.586  0.00  0.00    +0.031 C 
BRANCH  18  20
ATOM     20  C   UNL     1      -2.061   0.093   0.400  0.00  0.00    -0.001 C 
ATOM     21  C   UNL     1      -3.376   0.315   0.223  0.00  0.00    +0.037 C 
BRANCH  21  25
ATOM     22  O   UNL     1      -5.646   1.976  -0.032  0.00  0.00    -0.289 OA
ATOM     23  O   UNL     1      -6.651  -2.615  -0.361  0.00  0.00    -0.270 OA
ATOM     24  N   UNL     1      -7.911  -0.626  -0.460  0.00  0.00    -0.294 N 
ATOM     25  C   UNL     1      -4.385  -0.713   0.037  0.00  0.00    +0.141 C 
ATOM     26  C   UNL     1      -5.683  -0.422  -0.135  0.00  0.00    +0.123 C 
ATOM     27  C   UNL     1      -6.267   0.935  -0.162  0.00  0.00    +0.200 C 
ATOM     28  C   UNL     1      -6.763  -1.404  -0.328  0.00  0.00    +0.252 C 
ATOM     29  C   UNL     1      -7.751   0.820  -0.378  0.00  0.00    +0.160 C 
ATOM     30  H   UNL     1      -8.794  -1.037  -0.602  0.00  0.00    +0.150 HD
BRANCH  25  31
ATOM     31  O   UNL     1      -3.929  -2.016   0.049  0.00  0.00    -0.505 OA
ATOM     32  H   UNL     1      -3.016  -2.192   0.171  0.00  0.00    +0.292 HD
ENDBRANCH  25  31
ENDBRANCH  21  25
ENDBRANCH  18  20
ENDBRANCH   1  17
TORSDOF 5
