REMARK  Name = 102004933
REMARK  4 active torsions:
REMARK  status: ('A' for Active; 'I' for Inactive)
REMARK    1  A    between atoms: C_7  and  C_26
REMARK    2  A    between atoms: C_10  and  O_21
REMARK    3  A    between atoms: C_16  and  O_23
REMARK    4  A    between atoms: C_26  and  O_27
REMARK                            x       y       z     vdW  Elec       q    Type
REMARK                         _______ _______ _______ _____ _____    ______ ____
ROOT
ATOM      1  O   UNL     1      -0.809  -1.624   0.563  0.00  0.00    -0.451 OA
ATOM      2  O   UNL     1      -2.201  -1.582   2.397  0.00  0.00    -0.250 OA
ATOM      3  C   UNL     1       1.154   0.487  -0.014  0.00  0.00    +0.020 C 
ATOM      4  C   UNL     1       0.685  -0.542  -1.093  0.00  0.00    +0.042 C 
ATOM      5  C   UNL     1      -1.303   0.497  -0.284  0.00  0.00    +0.064 C 
ATOM      6  C   UNL     1      -0.744  -0.877  -0.666  0.00  0.00    +0.155 C 
ATOM      7  C   UNL     1      -0.132   1.250   0.393  0.00  0.00    +0.104 C 
ATOM      8  C   UNL     1       1.800  -0.192   1.208  0.00  0.00    +0.032 C 
ATOM      9  C   UNL     1      -2.490   0.028   0.562  0.00  0.00    +0.122 C 
ATOM     10  C   UNL     1       3.048  -0.801   0.582  0.00  0.00    +0.103 C 
ATOM     11  C   UNL     1       2.365   1.294  -0.532  0.00  0.00    +0.025 C 
ATOM     12  C   UNL     1       1.625  -1.736  -1.332  0.00  0.00    +0.007 C 
ATOM     13  C   UNL     1       2.624  -2.041  -0.212  0.00  0.00    +0.031 C 
ATOM     14  C   UNL     1       3.516   0.338  -0.300  0.00  0.00    -0.020 C 
ATOM     15  C   UNL     1      -1.656  -1.559  -1.652  0.00  0.00    +0.011 C 
ATOM     16  C   UNL     1      -3.576  -0.574  -0.392  0.00  0.00    +0.142 C 
ATOM     17  C   UNL     1      -1.851  -1.130   1.320  0.00  0.00    +0.319 C 
ATOM     18  C   UNL     1      -3.047   1.092   1.499  0.00  0.00    +0.014 C 
ATOM     19  C   UNL     1      -2.985  -1.405  -1.519  0.00  0.00    +0.002 C 
ATOM     20  C   UNL     1       4.748   0.501  -0.796  0.00  0.00    -0.007 C 
ENDROOT
BRANCH  10  21
ATOM     21  O   UNL     1       4.000  -1.137   1.573  0.00  0.00    -0.383 OA
ATOM     22  H   UNL     1       3.661  -1.867   2.113  0.00  0.00    +0.211 HD
ENDBRANCH  10  21
BRANCH  16  23
ATOM     23  O   UNL     1      -4.345   0.481  -0.967  0.00  0.00    -0.380 OA
ATOM     24  H   UNL     1      -4.731   1.023  -0.260  0.00  0.00    +0.211 HD
ENDBRANCH  16  23
BRANCH   7  26
ATOM     25  O   UNL     1      -0.030   3.033  -1.238  0.00  0.00    -0.250 OA
ATOM     26  C   UNL     1      -0.133   2.675  -0.074  0.00  0.00    +0.313 C 
BRANCH  26  27
ATOM     27  O   UNL     1      -0.262   3.523   0.976  0.00  0.00    -0.480 OA
ATOM     28  H   UNL     1      -0.336   3.183   1.846  0.00  0.00    +0.295 HD
ENDBRANCH  26  27
ENDBRANCH   7  26
TORSDOF 4
