REMARK  Name = 102067835
REMARK  5 active torsions:
REMARK  status: ('A' for Active; 'I' for Inactive)
REMARK    1  A    between atoms: C_5  and  O_28
REMARK    2  A    between atoms: C_8  and  O_30
REMARK    3  A    between atoms: C_11  and  O_32
REMARK    4  A    between atoms: C_12  and  C_23
REMARK    5  A    between atoms: C_20  and  O_34
REMARK                            x       y       z     vdW  Elec       q    Type
REMARK                         _______ _______ _______ _____ _____    ______ ____
ROOT
ATOM      1  O   UNL     1      -1.071  -1.463  -1.628  0.00  0.00    -0.333 OA
ATOM      2  C   UNL     1      -0.914   0.149   0.064  0.00  0.00    +0.036 C 
ATOM      3  C   UNL     1      -2.328  -0.439   0.212  0.00  0.00    +0.077 C 
ATOM      4  C   UNL     1      -0.640   1.625   0.372  0.00  0.00    +0.027 C 
ATOM      5  C   UNL     1       0.694   2.135  -0.318  0.00  0.00    +0.089 C 
ATOM      6  C   UNL     1       1.700   1.014  -0.760  0.00  0.00    +0.029 C 
ATOM      7  C   UNL     1      -0.506  -0.184  -1.348  0.00  0.00    +0.118 C 
ATOM      8  C   UNL     1      -3.449   0.578  -0.173  0.00  0.00    +0.095 C 
ATOM      9  C   UNL     1       1.015  -0.198  -1.460  0.00  0.00    +0.032 C 
ATOM     10  C   UNL     1      -1.841   2.531   0.045  0.00  0.00    +0.005 C 
ATOM     11  C   UNL     1      -2.170  -1.687  -0.719  0.00  0.00    +0.237 C 
ATOM     12  C   UNL     1       2.355   0.651   0.608  0.00  0.00    +0.028 C 
ATOM     13  C   UNL     1      -3.177   1.947   0.489  0.00  0.00    +0.027 C 
ATOM     14  C   UNL     1       1.526   2.970   0.677  0.00  0.00    +0.027 C 
ATOM     15  C   UNL     1      -2.531  -0.901   1.685  0.00  0.00    +0.010 C 
ATOM     16  C   UNL     1       2.496   1.994   1.348  0.00  0.00    +0.007 C 
ATOM     17  C   UNL     1      -4.865   0.090   0.206  0.00  0.00    +0.056 C 
ATOM     18  C   UNL     1       2.772   1.561  -1.746  0.00  0.00    +0.003 C 
ATOM     19  C   UNL     1      -3.929  -1.436   1.962  0.00  0.00    +0.030 C 
ATOM     20  C   UNL     1      -4.991  -0.393   1.645  0.00  0.00    +0.113 C 
ENDROOT
BRANCH  12  23
ATOM     21  O   UNL     1       6.041  -0.285   0.430  0.00  0.00    -0.418 OA
ATOM     22  O   UNL     1       7.030  -2.332   0.392  0.00  0.00    -0.244 OA
ATOM     23  C   UNL     1       3.633  -0.124   0.548  0.00  0.00    +0.015 C 
ATOM     24  C   UNL     1       3.567  -1.562   0.558  0.00  0.00    +0.006 C 
ATOM     25  C   UNL     1       4.843   0.442   0.486  0.00  0.00    +0.179 C 
ATOM     26  C   UNL     1       4.680  -2.300   0.506  0.00  0.00    +0.082 C 
ATOM     27  C   UNL     1       6.008  -1.655   0.439  0.00  0.00    +0.346 C 
ENDBRANCH  12  23
BRANCH   5  28
ATOM     28  O   UNL     1       0.388   2.943  -1.456  0.00  0.00    -0.387 OA
ATOM     29  H   UNL     1      -0.136   2.426  -2.088  0.00  0.00    +0.210 HD
ENDBRANCH   5  28
BRANCH   8  30
ATOM     30  O   UNL     1      -3.449   0.778  -1.593  0.00  0.00    -0.386 OA
ATOM     31  H   UNL     1      -2.574   1.086  -1.876  0.00  0.00    +0.210 HD
ENDBRANCH   8  30
BRANCH  11  32
ATOM     32  O   UNL     1      -3.336  -2.070  -1.425  0.00  0.00    -0.328 OA
ATOM     33  C   UNL     1      -3.264  -3.420  -1.870  0.00  0.00    +0.177 C 
ENDBRANCH  11  32
BRANCH  20  34
ATOM     34  O   UNL     1      -6.285  -0.960   1.822  0.00  0.00    -0.384 OA
ATOM     35  H   UNL     1      -6.961  -0.293   1.619  0.00  0.00    +0.210 HD
ENDBRANCH  20  34
TORSDOF 5
