102004390
  -OEChem-03292013293D

 54 59  0     1  0  0  0  0  0999 V2000
   -0.3341   -0.5663    1.7247 O   0  0  0  0  0  0  0  0  0  0  0  0
    0.4302   -2.7024   -0.7818 O   0  0  0  0  0  0  0  0  0  0  0  0
    0.1486    1.7558    1.7101 O   0  0  0  0  0  0  0  0  0  0  0  0
   -3.3199    0.5487   -1.4654 O   0  0  0  0  0  0  0  0  0  0  0  0
   -2.9572   -2.0131    0.1125 O   0  0  0  0  0  0  0  0  0  0  0  0
   -0.5141    0.7183   -2.7655 O   0  0  0  0  0  0  0  0  0  0  0  0
    1.6649    2.1149   -1.4546 O   0  0  0  0  0  0  0  0  0  0  0  0
   -0.5627   -3.3602    1.1656 O   0  0  0  0  0  0  0  0  0  0  0  0
    0.2570    3.7021    0.5017 O   0  0  0  0  0  0  0  0  0  0  0  0
   -4.8087    1.5642   -0.0533 O   0  0  0  0  0  0  0  0  0  0  0  0
    0.1322   -0.3309   -0.6228 C   0  0  2  0  0  0  0  0  0  0  0  0
    1.2720    0.3384    0.1860 C   0  0  2  0  0  0  0  0  0  0  0  0
   -0.7080   -1.0439    0.4407 C   0  0  2  0  0  0  0  0  0  0  0  0
    0.7638   -1.4683   -1.4339 C   0  0  1  0  0  0  0  0  0  0  0  0
    2.4429   -0.6756    0.0729 C   0  0  1  0  0  0  0  0  0  0  0  0
   -2.1934   -0.8125    0.0936 C   0  0  1  0  0  0  0  0  0  0  0  0
   -0.8745    0.5265   -1.4076 C   0  0  2  0  0  0  0  0  0  0  0  0
    0.6892    0.4289    1.5894 C   0  0  2  0  0  0  0  0  0  0  0  0
   -2.1658   -0.2853   -1.3308 C   0  0  2  0  0  0  0  0  0  0  0  0
    2.2674   -1.2505   -1.3336 C   0  0  0  0  0  0  0  0  0  0  0  0
    1.6381    1.7901   -0.0930 C   0  0  2  0  0  0  0  0  0  0  0  0
   -0.2917   -2.4903    0.3511 C   0  0  0  0  0  0  0  0  0  0  0  0
    3.8550   -0.1516    0.2966 C   0  0  0  0  0  0  0  0  0  0  0  0
   -2.9280    0.3004    0.8463 C   0  0  1  0  0  0  0  0  0  0  0  0
    0.6130    2.5516    0.7013 C   0  0  0  0  0  0  0  0  0  0  0  0
   -3.8173    0.8736   -0.2326 C   0  0  0  0  0  0  0  0  0  0  0  0
    4.8755   -1.2832    0.0765 C   0  0  0  0  0  0  0  0  0  0  0  0
    3.9958    0.3785    1.7352 C   0  0  0  0  0  0  0  0  0  0  0  0
    4.1525    0.9916   -0.6908 C   0  0  0  0  0  0  0  0  0  0  0  0
   -3.7227   -0.1495    2.0614 C   0  0  0  0  0  0  0  0  0  0  0  0
    0.4355   -1.5434   -2.4741 H   0  0  0  0  0  0  0  0  0  0  0  0
    2.2729   -1.4897    0.7937 H   0  0  0  0  0  0  0  0  0  0  0  0
   -1.0327    1.5158   -0.9719 H   0  0  0  0  0  0  0  0  0  0  0  0
    1.4018    0.2866    2.4039 H   0  0  0  0  0  0  0  0  0  0  0  0
   -2.2202   -1.0715   -2.0926 H   0  0  0  0  0  0  0  0  0  0  0  0
    2.5704   -0.5791   -2.1383 H   0  0  0  0  0  0  0  0  0  0  0  0
    2.8020   -2.1983   -1.4539 H   0  0  0  0  0  0  0  0  0  0  0  0
    2.5216    2.1631    0.4073 H   0  0  0  0  0  0  0  0  0  0  0  0
   -2.2494    1.1093    1.1327 H   0  0  0  0  0  0  0  0  0  0  0  0
   -3.8261   -1.8327   -0.2850 H   0  0  0  0  0  0  0  0  0  0  0  0
    0.3562    1.1513   -2.7772 H   0  0  0  0  0  0  0  0  0  0  0  0
    3.6152    0.9950   -1.6346 H   0  0  0  0  0  0  0  0  0  0  0  0
    4.2189    1.9914   -0.2532 H   0  0  0  0  0  0  0  0  0  0  0  0
    3.7637   -0.4089    2.4620 H   0  0  0  0  0  0  0  0  0  0  0  0
    3.3765    1.2423    1.9759 H   0  0  0  0  0  0  0  0  0  0  0  0
    5.1935    0.8657   -1.0312 H   0  0  0  0  0  0  0  0  0  0  0  0
    4.6308   -2.1611    0.6850 H   0  0  0  0  0  0  0  0  0  0  0  0
    4.9278   -1.5989   -0.9707 H   0  0  0  0  0  0  0  0  0  0  0  0
    5.8849   -0.9624    0.3610 H   0  0  0  0  0  0  0  0  0  0  0  0
    5.0317    0.6871    1.9239 H   0  0  0  0  0  0  0  0  0  0  0  0
   -4.5519   -0.8110    1.7887 H   0  0  0  0  0  0  0  0  0  0  0  0
   -4.1613    0.7153    2.5715 H   0  0  0  0  0  0  0  0  0  0  0  0
   -3.0805   -0.6724    2.7769 H   0  0  0  0  0  0  0  0  0  0  0  0
    1.8997    3.0552   -1.5313 H   0  0  0  0  0  0  0  0  0  0  0  0
  1 13  1  0  0  0  0
  1 18  1  0  0  0  0
  2 14  1  0  0  0  0
  2 22  1  0  0  0  0
  3 18  1  0  0  0  0
  3 25  1  0  0  0  0
  4 19  1  0  0  0  0
  4 26  1  0  0  0  0
  5 16  1  0  0  0  0
  5 40  1  0  0  0  0
  6 17  1  0  0  0  0
  6 41  1  0  0  0  0
  7 21  1  0  0  0  0
  7 54  1  0  0  0  0
  8 22  2  0  0  0  0
  9 25  2  0  0  0  0
 10 26  2  0  0  0  0
 11 12  1  0  0  0  0
 11 13  1  0  0  0  0
 11 14  1  0  0  0  0
 11 17  1  0  0  0  0
 12 15  1  0  0  0  0
 12 18  1  0  0  0  0
 12 21  1  0  0  0  0
 13 16  1  0  0  0  0
 13 22  1  0  0  0  0
 14 20  1  0  0  0  0
 14 31  1  0  0  0  0
 15 20  1  0  0  0  0
 15 23  1  0  0  0  0
 15 32  1  0  0  0  0
 16 19  1  0  0  0  0
 16 24  1  0  0  0  0
 17 19  1  0  0  0  0
 17 33  1  0  0  0  0
 18 34  1  0  0  0  0
 19 35  1  0  0  0  0
 20 36  1  0  0  0  0
 20 37  1  0  0  0  0
 21 25  1  0  0  0  0
 21 38  1  0  0  0  0
 23 27  1  0  0  0  0
 23 28  1  0  0  0  0
 23 29  1  0  0  0  0
 24 26  1  0  0  0  0
 24 30  1  0  0  0  0
 24 39  1  0  0  0  0
 27 47  1  0  0  0  0
 27 48  1  0  0  0  0
 27 49  1  0  0  0  0
 28 44  1  0  0  0  0
 28 45  1  0  0  0  0
 28 50  1  0  0  0  0
 29 42  1  0  0  0  0
 29 43  1  0  0  0  0
 29 46  1  0  0  0  0
 30 51  1  0  0  0  0
 30 52  1  0  0  0  0
 30 53  1  0  0  0  0
M  END
> <PUBCHEM_COMPOUND_CID>
102004390

> <PUBCHEM_CONFORMER_RMSD>
0.8

> <PUBCHEM_CONFORMER_DIVERSEORDER>
1
2

> <PUBCHEM_MMFF94_PARTIAL_CHARGES>
24
1 -0.56
10 -0.57
13 0.34
14 0.28
16 0.28
17 0.28
18 0.56
19 0.28
2 -0.43
21 0.34
22 0.66
24 0.06
25 0.66
26 0.66
3 -0.43
4 -0.43
40 0.4
41 0.4
5 -0.68
54 0.4
6 -0.68
7 -0.68
8 -0.57
9 -0.57

> <PUBCHEM_EFFECTIVE_ROTOR_COUNT>
2.8

> <PUBCHEM_PHARMACOPHORE_FEATURES>
17
1 1 acceptor
1 10 acceptor
1 5 acceptor
1 5 donor
1 6 acceptor
1 6 donor
1 7 acceptor
1 7 donor
1 8 acceptor
1 9 acceptor
4 23 27 28 29 hydrophobe
5 1 11 12 13 18 rings
5 11 12 14 15 20 rings
5 11 13 16 17 19 rings
5 2 11 13 14 22 rings
5 3 12 18 21 25 rings
5 4 16 19 24 26 rings

> <PUBCHEM_HEAVY_ATOM_COUNT>
30

> <PUBCHEM_ATOM_DEF_STEREO_COUNT>
10

> <PUBCHEM_ATOM_UDEF_STEREO_COUNT>
1

> <PUBCHEM_BOND_DEF_STEREO_COUNT>
0

> <PUBCHEM_BOND_UDEF_STEREO_COUNT>
0

> <PUBCHEM_ISOTOPIC_ATOM_COUNT>
0

> <PUBCHEM_COMPONENT_COUNT>
1

> <PUBCHEM_CACTVS_TAUTO_COUNT>
4

> <PUBCHEM_CONFORMER_ID>
061476A600000001

> <PUBCHEM_MMFF94_ENERGY>
138.3461

> <PUBCHEM_FEATURE_SELFOVERLAP>
89.638

> <PUBCHEM_SHAPE_FINGERPRINT>
10165383 225 18187929435179902061
104564 63 18127125273590127008
10863032 1 18189899888591504284
10906281 52 18272384070197630072
10948715 1 18412260631751631559
11578080 2 18053382386220489504
12035758 1 18410287051334637488
12236239 1 17060331894830978807
12293681 4 18411423873786749945
12403814 3 17676477384972222638
12422481 6 17628929927978615482
12633257 1 18338529645667708635
12788726 201 18200043850163781496
13132413 78 18130794421095847345
13140716 1 18410858797634359601
13965767 371 13988859168163640957
14713325 29 17543068339206226936
15238133 3 18338808801589393709
16945 1 18186518821590352910
17349148 13 17988649617996940970
17980427 23 17203337731604280392
18981168 100 17909535500097658641
20600515 1 18334022700582438086
20691752 17 18053974794900484480
20905425 154 17769655304331041516
21330990 113 18042689399121117740
21421861 104 17905329520228941563
23175994 123 18411983533483875484
23402539 116 18271800194978789806
23559900 14 18412262814486892638
238 59 18197192932339302101
296302 2 17489866046623343042
3286 77 18268141140271578039
34934 24 17774154596317009209
3493558 16 14548724145033748282
350125 39 18267027339620060339
4340502 62 18340209596788361995
474 4 18273216395814226265
70251023 43 17551508173555810830
9981440 41 16550263193634269329

> <PUBCHEM_SHAPE_MULTIPOLES>
558.69
6.83
2.8
1.84
0.59
0.24
-0.19
0.67
0.89
0.16
0.35
-0.41
0.16
0.36

> <PUBCHEM_SHAPE_SELFOVERLAP>
1280.133

> <PUBCHEM_SHAPE_VOLUME>
291.8

> <PUBCHEM_COORDINATE_TYPE>
2
5
10

$$$$
