102038063
  -OEChem-03292013293D

 29 28  0     1  0  0  0  0  0999 V2000
    2.0694   -0.3798    0.4106 O   0  0  0  0  0  0  0  0  0  0  0  0
    0.4566    2.0798    0.5418 O   0  0  0  0  0  0  0  0  0  0  0  0
   -0.9937    1.1548    2.0278 O   0  0  0  0  0  0  0  0  0  0  0  0
   -3.9967   -0.5923   -0.6292 O   0  0  0  0  0  0  0  0  0  0  0  0
   -2.6025    1.0927   -1.2321 O   0  0  0  0  0  0  0  0  0  0  0  0
    1.7282    0.2717   -1.7794 O   0  0  0  0  0  0  0  0  0  0  0  0
    0.8353   -1.1028    0.3939 C   0  0  0  0  0  0  0  0  0  0  0  0
   -0.3344   -0.1274    0.0695 C   0  0  1  0  0  0  0  0  0  0  0  0
   -1.7381   -0.7741    0.0843 C   0  0  0  0  0  0  0  0  0  0  0  0
    0.6620   -1.7443    1.7776 C   0  0  0  0  0  0  0  0  0  0  0  0
    0.9502   -2.2158   -0.6580 C   0  0  0  0  0  0  0  0  0  0  0  0
   -0.3392    1.0811    0.9961 C   0  0  0  0  0  0  0  0  0  0  0  0
   -2.7852    0.0239   -0.6672 C   0  0  0  0  0  0  0  0  0  0  0  0
    2.3892    0.2613   -0.7497 C   0  0  0  0  0  0  0  0  0  0  0  0
    3.6989    0.9714   -0.5861 C   0  0  0  0  0  0  0  0  0  0  0  0
   -0.2412    0.2841   -0.9381 H   0  0  0  0  0  0  0  0  0  0  0  0
   -2.0973   -0.9167    1.1097 H   0  0  0  0  0  0  0  0  0  0  0  0
   -1.7016   -1.7526   -0.4059 H   0  0  0  0  0  0  0  0  0  0  0  0
    0.6590   -0.9887    2.5703 H   0  0  0  0  0  0  0  0  0  0  0  0
   -0.2556   -2.3355    1.8524 H   0  0  0  0  0  0  0  0  0  0  0  0
    1.5087   -2.4053    1.9991 H   0  0  0  0  0  0  0  0  0  0  0  0
    0.7982   -1.8634   -1.6822 H   0  0  0  0  0  0  0  0  0  0  0  0
    0.2054   -3.0019   -0.4905 H   0  0  0  0  0  0  0  0  0  0  0  0
    1.9397   -2.6868   -0.6229 H   0  0  0  0  0  0  0  0  0  0  0  0
    0.4464    2.8574    1.1396 H   0  0  0  0  0  0  0  0  0  0  0  0
    3.6233    1.7082    0.2175 H   0  0  0  0  0  0  0  0  0  0  0  0
    3.9463    1.4938   -1.5147 H   0  0  0  0  0  0  0  0  0  0  0  0
    4.4887    0.2471   -0.3722 H   0  0  0  0  0  0  0  0  0  0  0  0
   -4.6825   -0.0789   -1.1070 H   0  0  0  0  0  0  0  0  0  0  0  0
  1  7  1  0  0  0  0
  1 14  1  0  0  0  0
  2 12  1  0  0  0  0
  2 25  1  0  0  0  0
  3 12  2  0  0  0  0
  4 13  1  0  0  0  0
  4 29  1  0  0  0  0
  5 13  2  0  0  0  0
  6 14  2  0  0  0  0
  7  8  1  0  0  0  0
  7 10  1  0  0  0  0
  7 11  1  0  0  0  0
  8  9  1  0  0  0  0
  8 12  1  0  0  0  0
  8 16  1  0  0  0  0
  9 13  1  0  0  0  0
  9 17  1  0  0  0  0
  9 18  1  0  0  0  0
 10 19  1  0  0  0  0
 10 20  1  0  0  0  0
 10 21  1  0  0  0  0
 11 22  1  0  0  0  0
 11 23  1  0  0  0  0
 11 24  1  0  0  0  0
 14 15  1  0  0  0  0
 15 26  1  0  0  0  0
 15 27  1  0  0  0  0
 15 28  1  0  0  0  0
M  END
> <PUBCHEM_COMPOUND_CID>
102038063

> <PUBCHEM_CONFORMER_RMSD>
0.8

> <PUBCHEM_CONFORMER_DIVERSEORDER>
1
92
70
74
22
59
95
5
21
81
34
90
13
100
56
80
23
39
25
108
8
12
36
97
69
86
16
72
88
62
85
35
75
10
33
67
102
19
61
20
99
89
15
111
41
117
38
112
105
91
4
9
55
116
44
11
114
30
6
26
94
43
42
45
29
52
31
115
107
58
65
7
103
106
66
73
109
68
87
47
50
57
101
37
49
28
53
78
110
51
17
27
64
32
96
113
76
46
48
2
3
93
40
54
14
84
82
18
77
98
71
24
79
104
83
60
63

> <PUBCHEM_MMFF94_PARTIAL_CHARGES>
15
1 -0.43
12 0.66
13 0.66
14 0.66
15 0.06
2 -0.65
25 0.5
29 0.5
3 -0.57
4 -0.65
5 -0.57
6 -0.57
7 0.28
8 0.06
9 0.06

> <PUBCHEM_EFFECTIVE_ROTOR_COUNT>
6

> <PUBCHEM_PHARMACOPHORE_FEATURES>
8
1 2 acceptor
1 3 acceptor
1 4 acceptor
1 5 acceptor
1 6 acceptor
3 2 3 12 anion
3 4 5 13 anion
3 7 10 11 hydrophobe

> <PUBCHEM_HEAVY_ATOM_COUNT>
15

> <PUBCHEM_ATOM_DEF_STEREO_COUNT>
0

> <PUBCHEM_ATOM_UDEF_STEREO_COUNT>
1

> <PUBCHEM_BOND_DEF_STEREO_COUNT>
0

> <PUBCHEM_BOND_UDEF_STEREO_COUNT>
0

> <PUBCHEM_ISOTOPIC_ATOM_COUNT>
0

> <PUBCHEM_COMPONENT_COUNT>
1

> <PUBCHEM_CACTVS_TAUTO_COUNT>
8

> <PUBCHEM_CONFORMER_ID>
0614FA2F00000001

> <PUBCHEM_MMFF94_ENERGY>
34.1058

> <PUBCHEM_FEATURE_SELFOVERLAP>
40.715

> <PUBCHEM_SHAPE_FINGERPRINT>
10353120 184 17989492926467515377
12119455 92 16443613697013728814
12423570 1 17243542387975569594
13571099 52 17458344139160939150
15775835 57 18260547865614610550
15852999 172 18187374263391323322
16945 1 18343024418889164283
17775402 16 18412543210514033076
187816 3 18270969041486936292
19765921 60 18261109690228707882
20711985 344 16844453713361882105
20820808 20 18113332007551291137
21524375 3 18114180882268092918
21947302 44 16443631198699348886
22112679 90 18057608650802235208
228727 97 18131641070903116352
23402539 116 17918280844250228540
23419403 2 17694518334679404603
23552423 10 18052822451112323063
2748010 2 17910956073341554370
305870 269 16950553355378971874
3250762 1 17405986739697085050
353137 74 18201726132432928580
4369600 1 18131345327897400786
5084963 1 18114198448763519542
528886 8 17531240707604490823
59915604 170 18201164363869872336
68419 9 17911530795773921306

> <PUBCHEM_SHAPE_MULTIPOLES>
273.48
4.69
1.87
1.55
1.43
0.49
0.46
-1.22
-2.26
-0.53
0.34
0.09
-0.11
-0.23

> <PUBCHEM_SHAPE_SELFOVERLAP>
540.953

> <PUBCHEM_SHAPE_VOLUME>
161.5

> <PUBCHEM_COORDINATE_TYPE>
2
5
10

$$$$
