102061528
  -OEChem-03292013293D

 56 57  0     1  0  0  0  0  0999 V2000
   -0.7855   -0.8232   -0.1683 O   0  0  0  0  0  0  0  0  0  0  0  0
   -2.5878    0.5819    0.3020 O   0  0  0  0  0  0  0  0  0  0  0  0
   -2.5974   -2.9237   -0.7272 O   0  0  0  0  0  0  0  0  0  0  0  0
   -5.1300   -2.6129    0.7458 O   0  0  0  0  0  0  0  0  0  0  0  0
   -6.2096    0.0399    0.3543 O   0  0  0  0  0  0  0  0  0  0  0  0
   -3.4045    3.2056    0.2296 O   0  0  0  0  0  0  0  0  0  0  0  0
    5.2291   -2.0103    1.7146 O   0  0  0  0  0  0  0  0  0  0  0  0
    1.9982    1.6954    0.1706 C   0  0  0  0  0  0  0  0  0  0  0  0
    0.7641    0.8627    0.5865 C   0  0  0  0  0  0  0  0  0  0  0  0
    2.9598    0.7971   -0.6853 C   0  0  2  0  0  0  0  0  0  0  0  0
    0.0080    0.2750   -0.6111 C   0  0  1  0  0  0  0  0  0  0  0  0
    2.2221    0.0352   -1.7799 C   0  0  0  0  0  0  0  0  0  0  0  0
    2.6906    2.2365    1.4402 C   0  0  0  0  0  0  0  0  0  0  0  0
    1.5570    2.9280   -0.6566 C   0  0  0  0  0  0  0  0  0  0  0  0
    0.8976   -0.1959   -1.7233 C   0  0  0  0  0  0  0  0  0  0  0  0
   -2.1742   -0.5883   -0.3994 C   0  0  2  0  0  0  0  0  0  0  0  0
   -2.9471   -1.8108    0.0952 C   0  0  1  0  0  0  0  0  0  0  0  0
   -4.4568   -1.5810    0.0231 C   0  0  2  0  0  0  0  0  0  0  0  0
   -4.8426   -0.2390    0.6453 C   0  0  1  0  0  0  0  0  0  0  0  0
   -3.9674    0.8881    0.0916 C   0  0  1  0  0  0  0  0  0  0  0  0
    3.7548   -0.1759    0.1463 C   0  0  0  0  0  0  0  0  0  0  0  0
    3.0457   -0.4376   -2.9462 C   0  0  0  0  0  0  0  0  0  0  0  0
   -4.2542    2.2173    0.7828 C   0  0  0  0  0  0  0  0  0  0  0  0
    5.0919   -0.1588    0.2220 C   0  0  0  0  0  0  0  0  0  0  0  0
    5.8176   -1.1510    1.0619 C   0  0  0  0  0  0  0  0  0  0  0  0
    7.3207   -1.0543    1.0854 C   0  0  0  0  0  0  0  0  0  0  0  0
    0.0689    1.4744    1.1775 H   0  0  0  0  0  0  0  0  0  0  0  0
    1.0642    0.0507    1.2630 H   0  0  0  0  0  0  0  0  0  0  0  0
    3.6606    1.4826   -1.1849 H   0  0  0  0  0  0  0  0  0  0  0  0
   -0.6172    1.0683   -1.0441 H   0  0  0  0  0  0  0  0  0  0  0  0
    2.4157    3.5704   -0.8844 H   0  0  0  0  0  0  0  0  0  0  0  0
    3.6144    2.7695    1.1888 H   0  0  0  0  0  0  0  0  0  0  0  0
    2.9409    1.4366    2.1452 H   0  0  0  0  0  0  0  0  0  0  0  0
    2.0378    2.9373    1.9739 H   0  0  0  0  0  0  0  0  0  0  0  0
    0.8308    3.5327   -0.1012 H   0  0  0  0  0  0  0  0  0  0  0  0
    1.0964    2.6583   -1.6115 H   0  0  0  0  0  0  0  0  0  0  0  0
   -2.3232   -0.4520   -1.4797 H   0  0  0  0  0  0  0  0  0  0  0  0
    0.4128   -0.7283   -2.5384 H   0  0  0  0  0  0  0  0  0  0  0  0
   -2.6458   -2.0666    1.1180 H   0  0  0  0  0  0  0  0  0  0  0  0
   -4.8145   -1.6494   -1.0110 H   0  0  0  0  0  0  0  0  0  0  0  0
   -4.7457   -0.2972    1.7364 H   0  0  0  0  0  0  0  0  0  0  0  0
   -4.1334    1.0234   -0.9859 H   0  0  0  0  0  0  0  0  0  0  0  0
    3.1915   -0.9245    0.6989 H   0  0  0  0  0  0  0  0  0  0  0  0
    2.4347   -0.9336   -3.7078 H   0  0  0  0  0  0  0  0  0  0  0  0
    3.8077   -1.1515   -2.6186 H   0  0  0  0  0  0  0  0  0  0  0  0
    3.5454    0.4105   -3.4255 H   0  0  0  0  0  0  0  0  0  0  0  0
   -4.0380    2.1541    1.8546 H   0  0  0  0  0  0  0  0  0  0  0  0
   -5.2937    2.5281    0.6409 H   0  0  0  0  0  0  0  0  0  0  0  0
    5.6785    0.5745   -0.3198 H   0  0  0  0  0  0  0  0  0  0  0  0
   -2.8551   -2.7158   -1.6415 H   0  0  0  0  0  0  0  0  0  0  0  0
   -4.8194   -2.5892    1.6669 H   0  0  0  0  0  0  0  0  0  0  0  0
   -6.3034    0.1073   -0.6113 H   0  0  0  0  0  0  0  0  0  0  0  0
   -3.5997    4.0410    0.6872 H   0  0  0  0  0  0  0  0  0  0  0  0
    7.6439   -0.7213    2.0750 H   0  0  0  0  0  0  0  0  0  0  0  0
    7.6892   -0.3477    0.3370 H   0  0  0  0  0  0  0  0  0  0  0  0
    7.7459   -2.0369    0.8629 H   0  0  0  0  0  0  0  0  0  0  0  0
  1 11  1  0  0  0  0
  1 16  1  0  0  0  0
  2 16  1  0  0  0  0
  2 20  1  0  0  0  0
  3 17  1  0  0  0  0
  3 50  1  0  0  0  0
  4 18  1  0  0  0  0
  4 51  1  0  0  0  0
  5 19  1  0  0  0  0
  5 52  1  0  0  0  0
  6 23  1  0  0  0  0
  6 53  1  0  0  0  0
  7 25  2  0  0  0  0
  8  9  1  0  0  0  0
  8 10  1  0  0  0  0
  8 13  1  0  0  0  0
  8 14  1  0  0  0  0
  9 11  1  0  0  0  0
  9 27  1  0  0  0  0
  9 28  1  0  0  0  0
 10 12  1  0  0  0  0
 10 21  1  0  0  0  0
 10 29  1  0  0  0  0
 11 15  1  0  0  0  0
 11 30  1  0  0  0  0
 12 15  2  0  0  0  0
 12 22  1  0  0  0  0
 13 32  1  0  0  0  0
 13 33  1  0  0  0  0
 13 34  1  0  0  0  0
 14 31  1  0  0  0  0
 14 35  1  0  0  0  0
 14 36  1  0  0  0  0
 15 38  1  0  0  0  0
 16 17  1  0  0  0  0
 16 37  1  0  0  0  0
 17 18  1  0  0  0  0
 17 39  1  0  0  0  0
 18 19  1  0  0  0  0
 18 40  1  0  0  0  0
 19 20  1  0  0  0  0
 19 41  1  0  0  0  0
 20 23  1  0  0  0  0
 20 42  1  0  0  0  0
 21 24  2  0  0  0  0
 21 43  1  0  0  0  0
 22 44  1  0  0  0  0
 22 45  1  0  0  0  0
 22 46  1  0  0  0  0
 23 47  1  0  0  0  0
 23 48  1  0  0  0  0
 24 25  1  0  0  0  0
 24 49  1  0  0  0  0
 25 26  1  0  0  0  0
 26 54  1  0  0  0  0
 26 55  1  0  0  0  0
 26 56  1  0  0  0  0
M  END
> <PUBCHEM_COMPOUND_CID>
102061528

> <PUBCHEM_CONFORMER_RMSD>
0.8

> <PUBCHEM_CONFORMER_DIVERSEORDER>
1
234
84
192
136
218
141
247
246
36
122
199
147
72
170
68
189
21
55
115
124
139
236
111
162
250
276
210
284
259
258
99
88
24
201
190
110
185
34
188
14
240
211
41
150
56
153
243
261
167
205
220
226
163
63
114
283
40
54
249
225
129
37
31
202
50
171
181
22
125
117
222
270
46
47
123
156
43
35
74
280
158
235
101
239
194
241
152
29
219
5
244
172
103
44
212
245
213
264
95
177
106
184
144
39
140
25
26
161
16
191
86
271
108
227
274
112
127
193
93
256
70
135
272
73
102
233
242
64
11
148
230
53
166
286
237
60
94
285
176
255
92
231
254
126
179
59
204
28
138
252
208
157
143
89
4
206
155
281
98
151
91
228
57
278
217
216
182
20
48
49
282
17
164
3
195
260
77
268
266
248
33
128
215
142
105
75
61
107
265
137
253
119
42
109
131
178
275
66
277
69
30
224
203
58
82
133
175
45
9
223
132
160
251
65
78
168
232
113
32
104
197
134
12
187
8
154
180
273
183
279
149
96
118
221
15
19
263
130
79
13
121
198
169
83
207
173
120
97
62
145
196
116
267
71
214
165
159
174
18
209
51
76
200
238
38
186
67
7
257
262
6
80
2
100
52
23
90
229
27
87
146
269
85
10
81

> <PUBCHEM_MMFF94_PARTIAL_CHARGES>
29
1 -0.56
10 0.28
11 0.42
12 -0.28
15 -0.29
16 0.56
17 0.28
18 0.28
19 0.28
2 -0.56
20 0.28
21 -0.29
22 0.14
23 0.28
24 -0.14
25 0.49
26 0.06
3 -0.68
38 0.15
4 -0.68
43 0.15
49 0.15
5 -0.68
50 0.4
51 0.4
52 0.4
53 0.4
6 -0.68
7 -0.57

> <PUBCHEM_EFFECTIVE_ROTOR_COUNT>
7

> <PUBCHEM_PHARMACOPHORE_FEATURES>
14
1 1 acceptor
1 2 acceptor
1 3 acceptor
1 3 donor
1 4 acceptor
1 4 donor
1 5 acceptor
1 5 donor
1 6 acceptor
1 6 donor
1 7 acceptor
3 8 13 14 hydrophobe
6 2 16 17 18 19 20 rings
6 8 9 10 11 12 15 rings

> <PUBCHEM_HEAVY_ATOM_COUNT>
26

> <PUBCHEM_ATOM_DEF_STEREO_COUNT>
6

> <PUBCHEM_ATOM_UDEF_STEREO_COUNT>
1

> <PUBCHEM_BOND_DEF_STEREO_COUNT>
1

> <PUBCHEM_BOND_UDEF_STEREO_COUNT>
0

> <PUBCHEM_ISOTOPIC_ATOM_COUNT>
0

> <PUBCHEM_COMPONENT_COUNT>
1

> <PUBCHEM_CACTVS_TAUTO_COUNT>
12

> <PUBCHEM_CONFORMER_ID>
061555D800000001

> <PUBCHEM_MMFF94_ENERGY>
64.4687

> <PUBCHEM_FEATURE_SELFOVERLAP>
71.11

> <PUBCHEM_SHAPE_FINGERPRINT>
10 15 17846775239403842856
10319926 262 18343014510547331818
11405975 8 18340488975309024051
11456790 92 18059585685296089705
11578080 2 14835576717083122146
12107183 9 18336547097116699073
12236239 1 17749113309315305197
12403260 363 18411699928477595261
12633257 1 18272654570878479340
13073987 5 18335985367155321304
13103583 49 18411415090636352922
13533116 47 18043249235139230123
14341114 176 18338517546475790680
14420673 8 18337390435720908810
14466204 15 18341613672577680944
14739800 52 18194970866579861060
15021287 119 17095530552239760228
15238133 3 18336558109607953260
17492 89 18046065119067840251
17980427 23 16987983016607291764
1813 80 17168430342504817918
19784866 140 14851599952106798532
20567600 247 17240477005682302682
21033648 29 17275110491847772429
21637258 2 17458334231330692330
21792934 111 18413390965225065611
21859007 373 18336537206408611005
22182313 1 17417542298015915516
22950370 63 18187361009311729906
23522609 53 17824006475565585108
23559900 14 18129400317835059253
2838139 119 11815604312308276978
3411729 13 18057320798759932688
345986 75 17969202466264568392
3737641 26 17751347396995741794
4325135 7 10303809891031542578
4409770 3 17825655664896302797
465052 167 18343584058314252862
5104073 3 18199760300638148587
559249 180 18334852792900845291
7226269 152 17917143893023651944
9709674 26 18059587939731906711

> <PUBCHEM_SHAPE_MULTIPOLES>
493.98
14.73
2.86
1.64
3.78
0.9
-1.03
-6.52
7.04
-2.31
0.6
2.52
-0.31
-0.97

> <PUBCHEM_SHAPE_SELFOVERLAP>
1007.371

> <PUBCHEM_SHAPE_VOLUME>
284.5

> <PUBCHEM_COORDINATE_TYPE>
2
5
10

$$$$
