102008613
  -OEChem-03292013293D

 58 61  0     1  0  0  0  0  0999 V2000
    2.4219    0.4614    2.1280 O   0  0  0  0  0  0  0  0  0  0  0  0
    0.9900    2.1101   -1.4896 O   0  0  0  0  0  0  0  0  0  0  0  0
   -1.4149   -0.1475    0.9000 O   0  0  0  0  0  0  0  0  0  0  0  0
    0.3266   -3.0812   -0.3166 O   0  0  0  0  0  0  0  0  0  0  0  0
    4.2135    2.6548   -0.1665 O   0  0  0  0  0  0  0  0  0  0  0  0
   -0.4945    3.1451   -2.9054 O   0  0  0  0  0  0  0  0  0  0  0  0
   -3.3883   -1.2984    1.2201 O   0  0  0  0  0  0  0  0  0  0  0  0
   -1.8252   -3.8786   -0.0506 O   0  0  0  0  0  0  0  0  0  0  0  0
    2.3622    0.4295   -0.4052 C   0  0  2  0  0  0  0  0  0  0  0  0
    2.4101   -1.0874   -0.2205 C   0  0  1  0  0  0  0  0  0  0  0  0
    3.1234    0.8186    0.9044 C   0  0  2  0  0  0  0  0  0  0  0  0
    0.9283    1.0026   -0.5650 C   0  0  2  0  0  0  0  0  0  0  0  0
    3.8668   -1.3711    0.1913 C   0  0  0  0  0  0  0  0  0  0  0  0
    4.3748   -0.0726    0.8331 C   0  0  0  0  0  0  0  0  0  0  0  0
   -0.1047    0.0243   -1.1662 C   0  0  1  0  0  0  0  0  0  0  0  0
    1.4307   -1.3407    0.9002 C   0  0  0  0  0  0  0  0  0  0  0  0
   -0.8084   -0.9197   -0.1422 C   0  0  1  0  0  0  0  0  0  0  0  0
    0.1109   -1.9696    0.5463 C   0  0  1  0  0  0  0  0  0  0  0  0
    3.4664    2.2987    0.9839 C   0  0  0  0  0  0  0  0  0  0  0  0
    1.5603   -0.6096    2.0209 C   0  0  0  0  0  0  0  0  0  0  0  0
   -0.9739    1.0070   -1.8866 C   0  0  0  0  0  0  0  0  0  0  0  0
   -0.1829    2.2218   -2.1752 C   0  0  0  0  0  0  0  0  0  0  0  0
   -2.2559    0.9181   -2.2505 C   0  0  0  0  0  0  0  0  0  0  0  0
   -2.7711   -0.2635    1.0035 C   0  0  0  0  0  0  0  0  0  0  0  0
   -0.7953   -3.7605   -0.7007 C   0  0  0  0  0  0  0  0  0  0  0  0
   -3.4157    1.0936    0.7778 C   0  0  2  0  0  0  0  0  0  0  0  0
   -0.5879   -4.3566   -2.0600 C   0  0  0  0  0  0  0  0  0  0  0  0
   -3.5836    1.8617    2.0967 C   0  0  0  0  0  0  0  0  0  0  0  0
   -4.7641    0.8777    0.0964 C   0  0  0  0  0  0  0  0  0  0  0  0
   -4.2197    3.2317    1.8985 C   0  0  0  0  0  0  0  0  0  0  0  0
    2.9634    0.7056   -1.2832 H   0  0  0  0  0  0  0  0  0  0  0  0
    2.1659   -1.6379   -1.1330 H   0  0  0  0  0  0  0  0  0  0  0  0
    0.5731    1.4294    0.3815 H   0  0  0  0  0  0  0  0  0  0  0  0
    4.4732   -1.6001   -0.6931 H   0  0  0  0  0  0  0  0  0  0  0  0
    3.9497   -2.2233    0.8748 H   0  0  0  0  0  0  0  0  0  0  0  0
    4.8044   -0.2707    1.8211 H   0  0  0  0  0  0  0  0  0  0  0  0
    5.1595    0.3547    0.1991 H   0  0  0  0  0  0  0  0  0  0  0  0
    0.3645   -0.5871   -1.9489 H   0  0  0  0  0  0  0  0  0  0  0  0
   -1.5969   -1.4369   -0.7006 H   0  0  0  0  0  0  0  0  0  0  0  0
   -0.3603   -2.3403    1.4673 H   0  0  0  0  0  0  0  0  0  0  0  0
    4.0606    2.5149    1.8787 H   0  0  0  0  0  0  0  0  0  0  0  0
    2.5612    2.9131    1.0322 H   0  0  0  0  0  0  0  0  0  0  0  0
    0.8799   -0.6309    2.8601 H   0  0  0  0  0  0  0  0  0  0  0  0
    4.4196    3.6020   -0.0918 H   0  0  0  0  0  0  0  0  0  0  0  0
   -2.8243    0.0132   -2.0732 H   0  0  0  0  0  0  0  0  0  0  0  0
   -2.7623    1.7271   -2.7662 H   0  0  0  0  0  0  0  0  0  0  0  0
   -2.7816    1.6904    0.1200 H   0  0  0  0  0  0  0  0  0  0  0  0
    0.2456   -5.0627   -2.0318 H   0  0  0  0  0  0  0  0  0  0  0  0
   -1.4913   -4.8940   -2.3623 H   0  0  0  0  0  0  0  0  0  0  0  0
   -0.3959   -3.5623   -2.7859 H   0  0  0  0  0  0  0  0  0  0  0  0
   -4.1844    1.2783    2.8053 H   0  0  0  0  0  0  0  0  0  0  0  0
   -2.5990    1.9909    2.5632 H   0  0  0  0  0  0  0  0  0  0  0  0
   -5.5100    0.4917    0.8008 H   0  0  0  0  0  0  0  0  0  0  0  0
   -5.1489    1.8120   -0.3249 H   0  0  0  0  0  0  0  0  0  0  0  0
   -4.6971    0.1555   -0.7234 H   0  0  0  0  0  0  0  0  0  0  0  0
   -3.6722    3.8172    1.1532 H   0  0  0  0  0  0  0  0  0  0  0  0
   -4.2054    3.7882    2.8413 H   0  0  0  0  0  0  0  0  0  0  0  0
   -5.2639    3.1516    1.5827 H   0  0  0  0  0  0  0  0  0  0  0  0
  1 11  1  0  0  0  0
  1 20  1  0  0  0  0
  2 12  1  0  0  0  0
  2 22  1  0  0  0  0
  3 17  1  0  0  0  0
  3 24  1  0  0  0  0
  4 18  1  0  0  0  0
  4 25  1  0  0  0  0
  5 19  1  0  0  0  0
  5 44  1  0  0  0  0
  6 22  2  0  0  0  0
  7 24  2  0  0  0  0
  8 25  2  0  0  0  0
  9 10  1  0  0  0  0
  9 11  1  0  0  0  0
  9 12  1  0  0  0  0
  9 31  1  0  0  0  0
 10 13  1  0  0  0  0
 10 16  1  0  0  0  0
 10 32  1  0  0  0  0
 11 14  1  0  0  0  0
 11 19  1  0  0  0  0
 12 15  1  0  0  0  0
 12 33  1  0  0  0  0
 13 14  1  0  0  0  0
 13 34  1  0  0  0  0
 13 35  1  0  0  0  0
 14 36  1  0  0  0  0
 14 37  1  0  0  0  0
 15 17  1  0  0  0  0
 15 21  1  0  0  0  0
 15 38  1  0  0  0  0
 16 18  1  0  0  0  0
 16 20  2  0  0  0  0
 17 18  1  0  0  0  0
 17 39  1  0  0  0  0
 18 40  1  0  0  0  0
 19 41  1  0  0  0  0
 19 42  1  0  0  0  0
 20 43  1  0  0  0  0
 21 22  1  0  0  0  0
 21 23  2  0  0  0  0
 23 45  1  0  0  0  0
 23 46  1  0  0  0  0
 24 26  1  0  0  0  0
 25 27  1  0  0  0  0
 26 28  1  0  0  0  0
 26 29  1  0  0  0  0
 26 47  1  0  0  0  0
 27 48  1  0  0  0  0
 27 49  1  0  0  0  0
 27 50  1  0  0  0  0
 28 30  1  0  0  0  0
 28 51  1  0  0  0  0
 28 52  1  0  0  0  0
 29 53  1  0  0  0  0
 29 54  1  0  0  0  0
 29 55  1  0  0  0  0
 30 56  1  0  0  0  0
 30 57  1  0  0  0  0
 30 58  1  0  0  0  0
M  END
> <PUBCHEM_COMPOUND_CID>
102008613

> <PUBCHEM_CONFORMER_RMSD>
1

> <PUBCHEM_CONFORMER_DIVERSEORDER>
1
8
9
2
10
3
7
4
5
6

> <PUBCHEM_MMFF94_PARTIAL_CHARGES>
28
1 -0.36
10 0.14
11 0.28
12 0.28
15 0.14
16 -0.28
17 0.28
18 0.42
19 0.28
2 -0.43
20 -0.07
21 -0.12
22 0.71
23 -0.3
24 0.66
25 0.66
26 0.06
27 0.06
3 -0.43
4 -0.43
43 0.15
44 0.4
45 0.15
46 0.15
5 -0.68
6 -0.57
7 -0.57
8 -0.57

> <PUBCHEM_EFFECTIVE_ROTOR_COUNT>
8.2

> <PUBCHEM_PHARMACOPHORE_FEATURES>
11
1 1 acceptor
1 29 hydrophobe
1 30 hydrophobe
1 5 acceptor
1 5 donor
1 6 acceptor
1 7 acceptor
1 8 acceptor
5 2 12 15 21 22 rings
7 9 10 12 15 16 17 18 rings
8 1 9 10 11 13 14 16 20 rings

> <PUBCHEM_HEAVY_ATOM_COUNT>
30

> <PUBCHEM_ATOM_DEF_STEREO_COUNT>
5

> <PUBCHEM_ATOM_UDEF_STEREO_COUNT>
3

> <PUBCHEM_BOND_DEF_STEREO_COUNT>
0

> <PUBCHEM_BOND_UDEF_STEREO_COUNT>
0

> <PUBCHEM_ISOTOPIC_ATOM_COUNT>
0

> <PUBCHEM_COMPONENT_COUNT>
1

> <PUBCHEM_CACTVS_TAUTO_COUNT>
4

> <PUBCHEM_CONFORMER_ID>
0614872500000001

> <PUBCHEM_MMFF94_ENERGY>
110.7989

> <PUBCHEM_FEATURE_SELFOVERLAP>
56.022

> <PUBCHEM_SHAPE_FINGERPRINT>
10064457 181 18343866601946815466
10165383 225 18340211795558163090
10863032 1 17987241221417449986
11115154 58 17407944948949465543
11370993 70 18343585109985492555
11387372 6 15437304139904465088
11421498 54 17701791394572205791
11552529 35 18126276678315140342
11578080 2 17330805416525155269
12160290 23 18051658265614231707
12173636 292 18130781299939025299
12293681 160 16318963446973772805
12422481 6 17973437698791490146
12553582 1 16877953736610928225
12633257 1 18190177888834405473
12788726 201 17617960457056126623
13009979 54 17761213619394645106
13140716 1 18040703758636701480
13583140 156 16917061191873014114
13965767 371 18189907404874242281
15420108 30 18262813967975840373
15775530 1 17395855367286603551
17349148 13 18334021592797295585
17980427 23 18187933932316414427
17980427 26 17271981208999303610
20600515 1 16590027860850260399
21033648 29 18272367564195070841
21330990 113 17977687324049089422
21756936 100 18059572550938451224
23419403 2 17258223969199010967
238 59 17758357865252497574
2748010 2 18042388171848256324
35225 105 17631732797950739415
5845 1 17678998616827522478
81228 2 18046325686001601762

> <PUBCHEM_SHAPE_MULTIPOLES>
570.43
7.21
4.44
2.38
2.09
4.46
-1.07
-5.33
4.25
0.84
-1.64
1.3
-1.49
-0.63

> <PUBCHEM_SHAPE_SELFOVERLAP>
1226.953

> <PUBCHEM_SHAPE_VOLUME>
313.1

> <PUBCHEM_COORDINATE_TYPE>
2
5
10

$$$$
