REMARK  Name = 102008614
REMARK  7 active torsions:
REMARK  status: ('A' for Active; 'I' for Inactive)
REMARK    1  A    between atoms: C_6  and  C_29
REMARK    2  A    between atoms: C_12  and  O_18
REMARK    3  A    between atoms: C_13  and  O_25
REMARK    4  A    between atoms: O_18  and  C_20
REMARK    5  A    between atoms: C_20  and  C_21
REMARK    6  A    between atoms: O_25  and  C_27
REMARK    7  A    between atoms: C_29  and  O_30
REMARK                            x       y       z     vdW  Elec       q    Type
REMARK                         _______ _______ _______ _____ _____    ______ ____
ROOT
ATOM      1  O   UNL     1      -2.260  -0.379  -2.107  0.00  0.00    -0.356 OA
ATOM      2  O   UNL     1      -1.623   2.151   1.217  0.00  0.00    -0.449 OA
ATOM      3  O   UNL     1      -0.608   3.786   2.472  0.00  0.00    -0.245 OA
ATOM      4  C   UNL     1      -2.365  -0.008   0.398  0.00  0.00    +0.068 C 
ATOM      5  C   UNL     1      -1.952  -1.479   0.464  0.00  0.00    +0.012 C 
ATOM      6  C   UNL     1      -3.116  -0.069  -0.973  0.00  0.00    +0.123 C 
ATOM      7  C   UNL     1      -1.177   0.987   0.488  0.00  0.00    +0.179 C 
ATOM      8  C   UNL     1      -3.230  -2.247   0.076  0.00  0.00    +0.003 C 
ATOM      9  C   UNL     1      -4.053  -1.274  -0.780  0.00  0.00    +0.030 C 
ATOM     10  C   UNL     1       0.055   0.468   1.262  0.00  0.00    +0.113 C 
ATOM     11  C   UNL     1      -0.868  -1.592  -0.581  0.00  0.00    +0.074 C 
ATOM     12  C   UNL     1       1.073  -0.364   0.421  0.00  0.00    +0.216 C 
ATOM     13  C   UNL     1       0.551  -1.734  -0.104  0.00  0.00    +0.211 C 
ATOM     14  C   UNL     1      -1.131  -1.112  -1.809  0.00  0.00    +0.146 C 
ATOM     15  C   UNL     1       0.546   1.763   1.828  0.00  0.00    +0.060 C 
ATOM     16  C   UNL     1      -0.585   2.712   1.897  0.00  0.00    +0.337 C 
ATOM     17  C   UNL     1       1.770   2.120   2.226  0.00  0.00    +0.002 C 
ENDROOT
BRANCH  12  18
ATOM     18  O   UNL     1       1.494   0.388  -0.723  0.00  0.00    -0.445 OA
BRANCH  18  20
ATOM     19  O   UNL     1       3.212  -0.922  -1.519  0.00  0.00    -0.245 OA
ATOM     20  C   UNL     1       2.767   0.154  -1.145  0.00  0.00    +0.337 C 
BRANCH  20  21
ATOM     21  C   UNL     1       3.553   1.423  -1.079  0.00  0.00    +0.049 C 
ATOM     22  C   UNL     1       4.747   1.474  -0.173  0.00  0.00    +0.037 C 
ATOM     23  C   UNL     1       3.092   2.439  -1.831  0.00  0.00    -0.024 C 
ATOM     24  C   UNL     1       1.889   2.435  -2.719  0.00  0.00    +0.031 C 
ENDBRANCH  20  21
ENDBRANCH  18  20
ENDBRANCH  12  18
BRANCH  13  25
ATOM     25  O   UNL     1       0.614  -2.715   0.926  0.00  0.00    -0.448 OA
BRANCH  25  27
ATOM     26  O   UNL     1       2.758  -3.280   0.278  0.00  0.00    -0.250 OA
ATOM     27  C   UNL     1       1.782  -3.419   1.004  0.00  0.00    +0.318 C 
ATOM     28  C   UNL     1       1.705  -4.410   2.125  0.00  0.00    +0.121 C 
ENDBRANCH  25  27
ENDBRANCH  13  25
BRANCH   6  29
ATOM     29  C   UNL     1      -3.873   1.210  -1.301  0.00  0.00    +0.164 C 
BRANCH  29  30
ATOM     30  O   UNL     1      -4.768   1.494  -0.239  0.00  0.00    -0.380 OA
ATOM     31  H   UNL     1      -5.257   2.308  -0.437  0.00  0.00    +0.211 HD
ENDBRANCH  29  30
ENDBRANCH   6  29
TORSDOF 7
