REMARK  Name = 102061528
REMARK  9 active torsions:
REMARK  status: ('A' for Active; 'I' for Inactive)
REMARK    1  A    between atoms: O_1  and  C_5
REMARK    2  A    between atoms: O_1  and  C_17
REMARK    3  A    between atoms: C_4  and  C_11
REMARK    4  A    between atoms: C_12  and  C_14
REMARK    5  A    between atoms: C_18  and  O_22
REMARK    6  A    between atoms: C_19  and  O_24
REMARK    7  A    between atoms: C_20  and  O_26
REMARK    8  A    between atoms: C_21  and  C_28
REMARK    9  A    between atoms: C_28  and  O_29
REMARK                            x       y       z     vdW  Elec       q    Type
REMARK                         _______ _______ _______ _____ _____    ______ ____
ROOT
ATOM      1  O   UNL     1      -0.785  -0.823  -0.168  0.00  0.00    -0.327 OA
ENDROOT
BRANCH   1   5
ATOM      2  C   UNL     1       1.998   1.695   0.171  0.00  0.00    +0.010 C 
ATOM      3  C   UNL     1       0.764   0.863   0.587  0.00  0.00    +0.035 C 
ATOM      4  C   UNL     1       2.960   0.797  -0.685  0.00  0.00    +0.040 C 
ATOM      5  C   UNL     1       0.008   0.275  -0.611  0.00  0.00    +0.139 C 
ATOM      6  C   UNL     1       2.222   0.035  -1.780  0.00  0.00    -0.042 C 
ATOM      7  C   UNL     1       2.691   2.236   1.440  0.00  0.00    +0.001 C 
ATOM      8  C   UNL     1       1.557   2.928  -0.657  0.00  0.00    +0.001 C 
ATOM      9  C   UNL     1       0.898  -0.196  -1.723  0.00  0.00    -0.005 C 
ATOM     10  C   UNL     1       3.046  -0.438  -2.946  0.00  0.00    +0.026 C 
BRANCH   4  11
ATOM     11  C   UNL     1       3.755  -0.176   0.146  0.00  0.00    -0.019 C 
ATOM     12  C   UNL     1       5.092  -0.159   0.222  0.00  0.00    +0.033 C 
BRANCH  12  14
ATOM     13  O   UNL     1       5.229  -2.010   1.715  0.00  0.00    -0.291 OA
ATOM     14  C   UNL     1       5.818  -1.151   1.062  0.00  0.00    +0.173 C 
ATOM     15  C   UNL     1       7.321  -1.054   1.085  0.00  0.00    +0.077 C 
ENDBRANCH  12  14
ENDBRANCH   4  11
ENDBRANCH   1   5
BRANCH   1  17
ATOM     16  O   UNL     1      -2.588   0.582   0.302  0.00  0.00    -0.326 OA
ATOM     17  C   UNL     1      -2.174  -0.588  -0.399  0.00  0.00    +0.266 C 
ATOM     18  C   UNL     1      -2.947  -1.811   0.095  0.00  0.00    +0.196 C 
ATOM     19  C   UNL     1      -4.457  -1.581   0.023  0.00  0.00    +0.172 C 
ATOM     20  C   UNL     1      -4.843  -0.239   0.645  0.00  0.00    +0.169 C 
ATOM     21  C   UNL     1      -3.967   0.888   0.092  0.00  0.00    +0.176 C 
BRANCH  18  22
ATOM     22  O   UNL     1      -2.597  -2.924  -0.727  0.00  0.00    -0.378 OA
ATOM     23  H   UNL     1      -1.640  -3.071  -0.682  0.00  0.00    +0.211 HD
ENDBRANCH  18  22
BRANCH  19  24
ATOM     24  O   UNL     1      -5.130  -2.613   0.746  0.00  0.00    -0.379 OA
ATOM     25  H   UNL     1      -4.899  -3.476   0.367  0.00  0.00    +0.211 HD
ENDBRANCH  19  24
BRANCH  20  26
ATOM     26  O   UNL     1      -6.210   0.040   0.354  0.00  0.00    -0.379 OA
ATOM     27  H   UNL     1      -6.767  -0.673   0.704  0.00  0.00    +0.211 HD
ENDBRANCH  20  26
BRANCH  21  28
ATOM     28  C   UNL     1      -4.254   2.217   0.783  0.00  0.00    +0.169 C 
BRANCH  28  29
ATOM     29  O   UNL     1      -3.405   3.206   0.230  0.00  0.00    -0.379 OA
ATOM     30  H   UNL     1      -3.576   4.058   0.660  0.00  0.00    +0.211 HD
ENDBRANCH  28  29
ENDBRANCH  21  28
ENDBRANCH   1  17
TORSDOF 9
