REMARK  Name = 10204153
REMARK  5 active torsions:
REMARK  status: ('A' for Active; 'I' for Inactive)
REMARK    1  A    between atoms: C_3  and  C_21
REMARK    2  A    between atoms: C_7  and  C_10
REMARK    3  A    between atoms: C_11  and  C_15
REMARK    4  A    between atoms: C_21  and  C_25
REMARK    5  A    between atoms: C_26  and  C_27
REMARK                            x       y       z     vdW  Elec       q    Type
REMARK                         _______ _______ _______ _____ _____    ______ ____
ROOT
ATOM      1  O   UNL     1      -1.821   1.363  -1.044  0.00  0.00    -0.267 OA
ATOM      2  N   UNL     1      -0.260   2.080   0.504  0.00  0.00    -0.275 N 
ATOM      3  C   UNL     1       0.215   3.247  -0.251  0.00  0.00    +0.085 C 
ATOM      4  C   UNL     1       1.028   4.056   0.768  0.00  0.00    +0.022 C 
ATOM      5  C   UNL     1       0.403   3.674   2.101  0.00  0.00    +0.023 C 
ATOM      6  C   UNL     1       0.108   2.194   1.915  0.00  0.00    +0.094 C 
ATOM      7  C   UNL     1      -1.135   1.141  -0.046  0.00  0.00    +0.276 C 
ENDROOT
BRANCH   7  10
ATOM      8  S   UNL     1      -2.047  -2.370   1.541  0.00  0.00    -0.076 S 
ATOM      9  N   UNL     1      -0.131  -0.651   1.300  0.00  0.00    -0.399 NA
ATOM     10  C   UNL     1      -1.228  -0.153   0.627  0.00  0.00    +0.176 C 
ATOM     11  C   UNL     1      -2.358  -0.940   0.645  0.00  0.00    +0.135 C 
ATOM     12  C   UNL     1      -0.447  -1.816   1.821  0.00  0.00    +0.135 C 
ATOM     13  C   UNL     1       0.475  -2.655   2.617  0.00  0.00    +0.074 C 
BRANCH  11  15
ATOM     14  F   UNL     1      -2.984  -1.819  -1.946  0.00  0.00    -0.204 F 
ATOM     15  C   UNL     1      -3.662  -0.740   0.061  0.00  0.00    +0.022 C 
ATOM     16  C   UNL     1      -3.930  -1.193  -1.231  0.00  0.00    +0.137 C 
ATOM     17  C   UNL     1      -4.657  -0.091   0.792  0.00  0.00    -0.001 C 
ATOM     18  C   UNL     1      -5.192  -0.998  -1.791  0.00  0.00    +0.029 C 
ATOM     19  C   UNL     1      -5.920   0.105   0.232  0.00  0.00    -0.000 C 
ATOM     20  C   UNL     1      -6.187  -0.348  -1.060  0.00  0.00    +0.002 C 
ENDBRANCH  11  15
ENDBRANCH   7  10
BRANCH   3  21
ATOM     21  C   UNL     1       1.062   2.879  -1.463  0.00  0.00    +0.107 C 
BRANCH  21  25
ATOM     22  O   UNL     1       2.142   0.768  -1.029  0.00  0.00    -0.419 OA
ATOM     23  N   UNL     1       3.457   2.558  -0.756  0.00  0.00    -0.111 NA
ATOM     24  N   UNL     1       4.206   1.430  -0.475  0.00  0.00    -0.107 NA
ATOM     25  C   UNL     1       2.289   2.105  -1.065  0.00  0.00    +0.228 A 
ATOM     26  C   UNL     1       3.399   0.410  -0.647  0.00  0.00    +0.250 A 
BRANCH  26  27
ATOM     27  C   UNL     1       3.633  -0.997  -0.499  0.00  0.00    +0.055 C 
ATOM     28  C   UNL     1       2.604  -1.914  -0.742  0.00  0.00    +0.005 C 
ATOM     29  C   UNL     1       4.892  -1.465  -0.109  0.00  0.00    +0.005 C 
ATOM     30  C   UNL     1       2.833  -3.283  -0.597  0.00  0.00    +0.000 C 
ATOM     31  C   UNL     1       5.121  -2.833   0.036  0.00  0.00    +0.000 C 
ATOM     32  C   UNL     1       4.091  -3.742  -0.207  0.00  0.00    +0.000 C 
ENDBRANCH  26  27
ENDBRANCH  21  25
ENDBRANCH   3  21
TORSDOF 5
