REMARK  Name = 102004753
REMARK  6 active torsions:
REMARK  status: ('A' for Active; 'I' for Inactive)
REMARK    1  A    between atoms: C_7  and  O_23
REMARK    2  A    between atoms: C_8  and  O_25
REMARK    3  A    between atoms: C_11  and  O_27
REMARK    4  A    between atoms: C_12  and  O_31
REMARK    5  A    between atoms: O_27  and  C_29
REMARK    6  A    between atoms: O_31  and  C_33
REMARK                            x       y       z     vdW  Elec       q    Type
REMARK                         _______ _______ _______ _____ _____    ______ ____
ROOT
ATOM      1  O   UNL     1       0.487   0.591   2.261  0.00  0.00    -0.332 OA
ATOM      2  O   UNL     1       3.287   1.562  -1.045  0.00  0.00    -0.292 OA
ATOM      3  C   UNL     1      -0.638   0.418   0.046  0.00  0.00    +0.071 C 
ATOM      4  C   UNL     1       0.664  -0.334  -0.475  0.00  0.00    +0.057 C 
ATOM      5  C   UNL     1       1.883   0.137   0.398  0.00  0.00    +0.108 C 
ATOM      6  C   UNL     1      -0.335   1.943  -0.250  0.00  0.00    +0.038 C 
ATOM      7  C   UNL     1       1.443   1.231   1.392  0.00  0.00    +0.215 C 
ATOM      8  C   UNL     1       0.721   2.443   0.762  0.00  0.00    +0.162 C 
ATOM      9  C   UNL     1      -1.579   2.869  -0.473  0.00  0.00    +0.003 C 
ATOM     10  C   UNL     1       2.562  -1.066   1.111  0.00  0.00    +0.017 C 
ATOM     11  C   UNL     1      -1.925  -0.052  -0.686  0.00  0.00    +0.171 C 
ATOM     12  C   UNL     1       0.601  -1.878  -0.644  0.00  0.00    +0.170 C 
ATOM     13  C   UNL     1      -0.724   0.231   1.585  0.00  0.00    +0.148 C 
ATOM     14  C   UNL     1       3.123  -1.877  -0.057  0.00  0.00    +0.029 C 
ATOM     15  C   UNL     1       1.985  -2.528  -0.864  0.00  0.00    +0.048 C 
ATOM     16  C   UNL     1       3.030   0.478  -0.552  0.00  0.00    +0.173 C 
ATOM     17  C   UNL     1      -2.494   2.262  -1.581  0.00  0.00    +0.004 C 
ATOM     18  C   UNL     1      -2.215   0.794  -1.922  0.00  0.00    +0.044 C 
ATOM     19  C   UNL     1       3.786  -0.777  -0.845  0.00  0.00    +0.012 C 
ATOM     20  C   UNL     1      -1.114   4.265  -0.958  0.00  0.00    +0.000 C 
ATOM     21  C   UNL     1      -2.420   3.119   0.796  0.00  0.00    +0.000 C 
ATOM     22  C   UNL     1       4.873  -0.831  -1.614  0.00  0.00    -0.002 C 
ENDROOT
BRANCH   7  23
ATOM     23  O   UNL     1       2.557   1.666   2.167  0.00  0.00    -0.362 OA
ATOM     24  H   UNL     1       3.001   0.896   2.556  0.00  0.00    +0.213 HD
ENDBRANCH   7  23
BRANCH   8  25
ATOM     25  O   UNL     1       1.629   3.317   0.103  0.00  0.00    -0.380 OA
ATOM     26  H   UNL     1       1.140   4.063  -0.279  0.00  0.00    +0.211 HD
ENDBRANCH   8  25
BRANCH  11  27
ATOM     27  O   UNL     1      -3.062  -0.008   0.176  0.00  0.00    -0.452 OA
BRANCH  27  29
ATOM     28  O   UNL     1      -4.001  -1.796  -0.945  0.00  0.00    -0.250 OA
ATOM     29  C   UNL     1      -4.027  -0.942  -0.069  0.00  0.00    +0.317 C 
ATOM     30  C   UNL     1      -5.153  -0.776   0.907  0.00  0.00    +0.121 C 
ENDBRANCH  27  29
ENDBRANCH  11  27
BRANCH  12  31
ATOM     31  O   UNL     1      -0.025  -2.495   0.478  0.00  0.00    -0.452 OA
BRANCH  31  33
ATOM     32  O   UNL     1      -0.863  -4.160  -0.887  0.00  0.00    -0.250 OA
ATOM     33  C   UNL     1      -0.728  -3.635   0.210  0.00  0.00    +0.317 C 
ATOM     34  C   UNL     1      -1.327  -4.170   1.476  0.00  0.00    +0.121 C 
ENDBRANCH  31  33
ENDBRANCH  12  31
TORSDOF 6
