REMARK  Name = 102004437
REMARK  4 active torsions:
REMARK  status: ('A' for Active; 'I' for Inactive)
REMARK    1  A    between atoms: C_7  and  O_23
REMARK    2  A    between atoms: C_8  and  O_25
REMARK    3  A    between atoms: C_9  and  O_27
REMARK    4  A    between atoms: C_11  and  O_29
REMARK                            x       y       z     vdW  Elec       q    Type
REMARK                         _______ _______ _______ _____ _____    ______ ____
ROOT
ATOM      1  O   UNL     1      -0.259  -0.142  -2.146  0.00  0.00    -0.332 OA
ATOM      2  O   UNL     1       1.766  -2.124   1.303  0.00  0.00    -0.291 OA
ATOM      3  C   UNL     1      -1.032   0.818   0.005  0.00  0.00    +0.055 C 
ATOM      4  C   UNL     1       1.266  -0.303  -0.293  0.00  0.00    +0.129 C 
ATOM      5  C   UNL     1       0.478   0.787   0.508  0.00  0.00    +0.019 C 
ATOM      6  C   UNL     1      -1.636  -0.590   0.383  0.00  0.00    +0.036 C 
ATOM      7  C   UNL     1       0.285  -1.083  -1.192  0.00  0.00    +0.217 C 
ATOM      8  C   UNL     1      -0.934  -1.680  -0.463  0.00  0.00    +0.162 C 
ATOM      9  C   UNL     1       2.483   0.285  -1.080  0.00  0.00    +0.126 C 
ATOM     10  C   UNL     1      -3.205  -0.718   0.422  0.00  0.00    +0.003 C 
ATOM     11  C   UNL     1      -1.818   1.970   0.682  0.00  0.00    +0.113 C 
ATOM     12  C   UNL     1      -0.968   0.946  -1.534  0.00  0.00    +0.147 C 
ATOM     13  C   UNL     1       1.214   2.146   0.547  0.00  0.00    +0.001 C 
ATOM     14  C   UNL     1       3.375   0.816   0.048  0.00  0.00    +0.053 C 
ATOM     15  C   UNL     1       2.086  -1.100   0.726  0.00  0.00    +0.175 C 
ATOM     16  C   UNL     1       2.737   2.036   0.736  0.00  0.00    +0.007 C 
ATOM     17  C   UNL     1      -3.791   0.491   1.184  0.00  0.00    +0.003 C 
ATOM     18  C   UNL     1      -3.334   1.821   0.606  0.00  0.00    +0.029 C 
ATOM     19  C   UNL     1       3.376  -0.382   0.960  0.00  0.00    +0.015 C 
ATOM     20  C   UNL     1      -3.595  -1.996   1.206  0.00  0.00    +0.000 C 
ATOM     21  C   UNL     1      -3.900  -0.824  -0.954  0.00  0.00    +0.000 C 
ATOM     22  C   UNL     1       4.333  -0.812   1.782  0.00  0.00    -0.002 C 
ENDROOT
BRANCH   7  23
ATOM     23  O   UNL     1       0.989  -2.105  -1.894  0.00  0.00    -0.361 OA
ATOM     24  H   UNL     1       1.753  -1.718  -2.349  0.00  0.00    +0.213 HD
ENDBRANCH   7  23
BRANCH   8  25
ATOM     25  O   UNL     1      -0.590  -2.774   0.375  0.00  0.00    -0.380 OA
ATOM     26  H   UNL     1      -1.389  -3.113   0.810  0.00  0.00    +0.211 HD
ENDBRANCH   8  25
BRANCH   9  27
ATOM     27  O   UNL     1       2.151   1.286  -2.022  0.00  0.00    -0.384 OA
ATOM     28  H   UNL     1       1.588   0.905  -2.714  0.00  0.00    +0.210 HD
ENDBRANCH   9  27
BRANCH  11  29
ATOM     29  O   UNL     1      -1.478   3.229   0.103  0.00  0.00    -0.384 OA
ATOM     30  H   UNL     1      -0.517   3.351   0.137  0.00  0.00    +0.210 HD
ENDBRANCH  11  29
TORSDOF 4
