REMARK  Name = 102004390
REMARK  4 active torsions:
REMARK  status: ('A' for Active; 'I' for Inactive)
REMARK    1  A    between atoms: C_12  and  C_24
REMARK    2  A    between atoms: C_13  and  O_28
REMARK    3  A    between atoms: C_14  and  O_30
REMARK    4  A    between atoms: C_18  and  O_32
REMARK                            x       y       z     vdW  Elec       q    Type
REMARK                         _______ _______ _______ _____ _____    ______ ____
ROOT
ATOM      1  O   UNL     1      -0.334  -0.566   1.725  0.00  0.00    -0.312 OA
ATOM      2  O   UNL     1       0.430  -2.702  -0.782  0.00  0.00    -0.450 OA
ATOM      3  O   UNL     1       0.149   1.756   1.710  0.00  0.00    -0.423 OA
ATOM      4  O   UNL     1      -3.320   0.549  -1.465  0.00  0.00    -0.447 OA
ATOM      5  O   UNL     1      -0.563  -3.360   1.166  0.00  0.00    -0.247 OA
ATOM      6  O   UNL     1       0.257   3.702   0.502  0.00  0.00    -0.247 OA
ATOM      7  O   UNL     1      -4.809   1.564  -0.053  0.00  0.00    -0.250 OA
ATOM      8  C   UNL     1       0.132  -0.331  -0.623  0.00  0.00    +0.109 C 
ATOM      9  C   UNL     1       1.272   0.338   0.186  0.00  0.00    +0.108 C 
ATOM     10  C   UNL     1      -0.708  -1.044   0.441  0.00  0.00    +0.216 C 
ATOM     11  C   UNL     1       0.764  -1.468  -1.434  0.00  0.00    +0.174 C 
ATOM     12  C   UNL     1       2.443  -0.676   0.073  0.00  0.00    +0.013 C 
ATOM     13  C   UNL     1      -2.193  -0.813   0.094  0.00  0.00    +0.170 C 
ATOM     14  C   UNL     1      -0.875   0.526  -1.408  0.00  0.00    +0.159 C 
ATOM     15  C   UNL     1       0.689   0.429   1.589  0.00  0.00    +0.294 C 
ATOM     16  C   UNL     1      -2.166  -0.285  -1.331  0.00  0.00    +0.223 C 
ATOM     17  C   UNL     1       2.267  -1.250  -1.334  0.00  0.00    +0.044 C 
ATOM     18  C   UNL     1       1.638   1.790  -0.093  0.00  0.00    +0.216 C 
ATOM     19  C   UNL     1      -0.292  -2.490   0.351  0.00  0.00    +0.344 C 
ATOM     20  C   UNL     1      -2.928   0.300   0.846  0.00  0.00    +0.130 C 
ATOM     21  C   UNL     1       0.613   2.552   0.701  0.00  0.00    +0.346 C 
ATOM     22  C   UNL     1      -3.817   0.874  -0.233  0.00  0.00    +0.319 C 
ATOM     23  C   UNL     1      -3.723  -0.149   2.061  0.00  0.00    +0.014 C 
ENDROOT
BRANCH  12  24
ATOM     24  C   UNL     1       3.855  -0.152   0.297  0.00  0.00    +0.000 C 
ATOM     25  C   UNL     1       4.875  -1.283   0.076  0.00  0.00    +0.000 C 
ATOM     26  C   UNL     1       3.996   0.379   1.735  0.00  0.00    +0.000 C 
ATOM     27  C   UNL     1       4.152   0.992  -0.691  0.00  0.00    +0.000 C 
ENDBRANCH  12  24
BRANCH  13  28
ATOM     28  O   UNL     1      -2.957  -2.013   0.113  0.00  0.00    -0.380 OA
ATOM     29  H   UNL     1      -2.480  -2.708  -0.367  0.00  0.00    +0.211 HD
ENDBRANCH  13  28
BRANCH  14  30
ATOM     30  O   UNL     1      -0.514   0.718  -2.765  0.00  0.00    -0.380 OA
ATOM     31  H   UNL     1       0.306   1.234  -2.813  0.00  0.00    +0.210 HD
ENDBRANCH  14  30
BRANCH  18  32
ATOM     32  O   UNL     1       1.665   2.115  -1.455  0.00  0.00    -0.374 OA
ATOM     33  H   UNL     1       2.346   1.587  -1.900  0.00  0.00    +0.211 HD
ENDBRANCH  18  32
TORSDOF 4
