REMARK  Name = 102008613
REMARK  8 active torsions:
REMARK  status: ('A' for Active; 'I' for Inactive)
REMARK    1  A    between atoms: C_6  and  C_29
REMARK    2  A    between atoms: C_12  and  O_18
REMARK    3  A    between atoms: C_13  and  O_25
REMARK    4  A    between atoms: O_18  and  C_20
REMARK    5  A    between atoms: C_20  and  C_21
REMARK    6  A    between atoms: C_21  and  C_23
REMARK    7  A    between atoms: O_25  and  C_27
REMARK    8  A    between atoms: C_29  and  O_30
REMARK                            x       y       z     vdW  Elec       q    Type
REMARK                         _______ _______ _______ _____ _____    ______ ____
ROOT
ATOM      1  O   UNL     1       2.422   0.461   2.128  0.00  0.00    -0.356 OA
ATOM      2  O   UNL     1       0.990   2.110  -1.490  0.00  0.00    -0.449 OA
ATOM      3  O   UNL     1      -0.494   3.145  -2.905  0.00  0.00    -0.245 OA
ATOM      4  C   UNL     1       2.362   0.429  -0.405  0.00  0.00    +0.068 C 
ATOM      5  C   UNL     1       2.410  -1.087  -0.221  0.00  0.00    +0.012 C 
ATOM      6  C   UNL     1       3.123   0.819   0.904  0.00  0.00    +0.123 C 
ATOM      7  C   UNL     1       0.928   1.003  -0.565  0.00  0.00    +0.179 C 
ATOM      8  C   UNL     1       3.867  -1.371   0.191  0.00  0.00    +0.003 C 
ATOM      9  C   UNL     1       4.375  -0.073   0.833  0.00  0.00    +0.030 C 
ATOM     10  C   UNL     1      -0.105   0.024  -1.166  0.00  0.00    +0.113 C 
ATOM     11  C   UNL     1       1.431  -1.341   0.900  0.00  0.00    +0.074 C 
ATOM     12  C   UNL     1      -0.808  -0.920  -0.142  0.00  0.00    +0.216 C 
ATOM     13  C   UNL     1       0.111  -1.970   0.546  0.00  0.00    +0.211 C 
ATOM     14  C   UNL     1       1.560  -0.610   2.021  0.00  0.00    +0.146 C 
ATOM     15  C   UNL     1      -0.974   1.007  -1.887  0.00  0.00    +0.060 C 
ATOM     16  C   UNL     1      -0.183   2.222  -2.175  0.00  0.00    +0.337 C 
ATOM     17  C   UNL     1      -2.256   0.918  -2.251  0.00  0.00    +0.002 C 
ENDROOT
BRANCH  12  18
ATOM     18  O   UNL     1      -1.415  -0.147   0.900  0.00  0.00    -0.448 OA
BRANCH  18  20
ATOM     19  O   UNL     1      -3.388  -1.298   1.220  0.00  0.00    -0.250 OA
ATOM     20  C   UNL     1      -2.771  -0.264   1.004  0.00  0.00    +0.316 C 
BRANCH  20  21
ATOM     21  C   UNL     1      -3.416   1.094   0.778  0.00  0.00    +0.099 C 
ATOM     22  C   UNL     1      -4.764   0.878   0.096  0.00  0.00    +0.012 C 
BRANCH  21  23
ATOM     23  C   UNL     1      -3.584   1.862   2.097  0.00  0.00    +0.011 C 
ATOM     24  C   UNL     1      -4.220   3.232   1.899  0.00  0.00    +0.001 C 
ENDBRANCH  21  23
ENDBRANCH  20  21
ENDBRANCH  18  20
ENDBRANCH  12  18
BRANCH  13  25
ATOM     25  O   UNL     1       0.327  -3.081  -0.317  0.00  0.00    -0.448 OA
BRANCH  25  27
ATOM     26  O   UNL     1      -1.825  -3.879  -0.051  0.00  0.00    -0.250 OA
ATOM     27  C   UNL     1      -0.795  -3.760  -0.701  0.00  0.00    +0.318 C 
ATOM     28  C   UNL     1      -0.588  -4.357  -2.060  0.00  0.00    +0.121 C 
ENDBRANCH  25  27
ENDBRANCH  13  25
BRANCH   6  29
ATOM     29  C   UNL     1       3.466   2.299   0.984  0.00  0.00    +0.164 C 
BRANCH  29  30
ATOM     30  O   UNL     1       4.213   2.655  -0.167  0.00  0.00    -0.380 OA
ATOM     31  H   UNL     1       4.438   3.598  -0.127  0.00  0.00    +0.211 HD
ENDBRANCH  29  30
ENDBRANCH   6  29
TORSDOF 8
