REMARK  Name = 102034018
REMARK  2 active torsions:
REMARK  status: ('A' for Active; 'I' for Inactive)
REMARK    1  A    between atoms: C_10  and  O_24
REMARK    2  A    between atoms: C_12  and  O_26
REMARK                            x       y       z     vdW  Elec       q    Type
REMARK                         _______ _______ _______ _____ _____    ______ ____
ROOT
ATOM      1 BR   UNL     1      -3.800  -2.123   0.943  0.00  0.00    -0.047 Br
ATOM      2 BR   UNL     1      -5.172   0.987  -0.447  0.00  0.00    -0.030 Br
ATOM      3  O   UNL     1      -0.687  -2.715   0.815  0.00  0.00    -0.270 OA
ATOM      4  N   UNL     1       0.895  -1.164   0.130  0.00  0.00    -0.258 N 
ATOM      5  N   UNL     1       1.565   0.969   0.989  0.00  0.00    -0.292 N 
ATOM      6  N   UNL     1       0.372   2.464  -0.237  0.00  0.00    -0.236 NA
ATOM      7  N   UNL     1      -2.311   1.234  -0.785  0.00  0.00    -0.349 N 
ATOM      8  N   UNL     1       1.474   3.159   1.772  0.00  0.00    -0.331 N 
ATOM      9  C   UNL     1       1.305   0.203  -0.212  0.00  0.00    +0.174 C 
ATOM     10  C   UNL     1       2.622  -0.002  -0.981  0.00  0.00    +0.175 C 
ATOM     11  C   UNL     1       0.222   1.109  -0.870  0.00  0.00    +0.180 C 
ATOM     12  C   UNL     1       3.229  -1.240  -0.307  0.00  0.00    +0.160 C 
ATOM     13  C   UNL     1       2.020  -2.091   0.077  0.00  0.00    +0.127 C 
ATOM     14  C   UNL     1      -1.134   0.578  -0.543  0.00  0.00    +0.065 A 
ATOM     15  C   UNL     1      -0.401  -1.596   0.396  0.00  0.00    +0.252 C 
ATOM     16  C   UNL     1      -1.425  -0.629   0.055  0.00  0.00    +0.075 A 
ATOM     17  C   UNL     1       1.105   2.245   0.831  0.00  0.00    +0.176 C 
ATOM     18  C   UNL     1      -2.835  -0.697   0.189  0.00  0.00    +0.062 A 
ATOM     19  C   UNL     1      -3.355   0.468  -0.333  0.00  0.00    +0.098 A 
ATOM     20  H   UNL     1       2.006   0.622   1.797  0.00  0.00    +0.151 HD
ATOM     21  H   UNL     1      -2.395   2.116  -1.215  0.00  0.00    +0.166 HD
ATOM     22  H   UNL     1       2.029   2.882   2.536  0.00  0.00    +0.145 HD
ATOM     23  H   UNL     1       1.185   4.096   1.687  0.00  0.00    +0.145 HD
ENDROOT
BRANCH  10  24
ATOM     24  O   UNL     1       2.376  -0.311  -2.347  0.00  0.00    -0.379 OA
ATOM     25  H   UNL     1       1.991   0.462  -2.789  0.00  0.00    +0.211 HD
ENDBRANCH  10  24
BRANCH  12  26
ATOM     26  O   UNL     1       3.935  -0.848   0.865  0.00  0.00    -0.380 OA
ATOM     27  H   UNL     1       4.701  -0.307   0.616  0.00  0.00    +0.211 HD
ENDBRANCH  12  26
TORSDOF 2
