REMARK  Name = 102059896
REMARK  5 active torsions:
REMARK  status: ('A' for Active; 'I' for Inactive)
REMARK    1  A    between atoms: C_14  and  O_34
REMARK    2  A    between atoms: C_20  and  C_22
REMARK    3  A    between atoms: C_23  and  O_28
REMARK    4  A    between atoms: C_25  and  O_30
REMARK    5  A    between atoms: C_27  and  O_32
REMARK                            x       y       z     vdW  Elec       q    Type
REMARK                         _______ _______ _______ _____ _____    ______ ____
ROOT
ATOM      1  S   UNL     1       1.009   1.713   2.296  0.00  0.00    -0.053 S 
ATOM      2  S   UNL     1      -0.715   0.609   2.301  0.00  0.00    -0.074 S 
ATOM      3  O   UNL     1       5.778   0.356   0.861  0.00  0.00    -0.349 OA
ATOM      4  O   UNL     1       2.633  -1.391   1.148  0.00  0.00    -0.259 OA
ATOM      5  O   UNL     1       2.344   2.789  -0.600  0.00  0.00    -0.272 OA
ATOM      6  O   UNL     1       0.305  -2.079  -0.095  0.00  0.00    -0.271 OA
ATOM      7  N   UNL     1       1.750  -0.426   0.627  0.00  0.00    -0.151 N 
ATOM      8  N   UNL     1       0.624   1.280  -1.025  0.00  0.00    -0.268 N 
ATOM      9  C   UNL     1       4.374   0.203   0.583  0.00  0.00    +0.154 C 
ATOM     10  C   UNL     1       5.350   0.728  -0.454  0.00  0.00    +0.164 C 
ATOM     11  C   UNL     1       3.929  -1.240   0.524  0.00  0.00    +0.200 C 
ATOM     12  C   UNL     1       3.514   1.131   1.392  0.00  0.00    +0.073 C 
ATOM     13  C   UNL     1       2.042   0.968   0.970  0.00  0.00    +0.204 C 
ATOM     14  C   UNL     1       3.909  -1.837  -0.903  0.00  0.00    +0.164 C 
ATOM     15  C   UNL     1       5.578  -0.122  -1.622  0.00  0.00    +0.003 C 
ATOM     16  C   UNL     1       4.939  -1.279  -1.847  0.00  0.00    +0.003 C 
ATOM     17  C   UNL     1       1.729   1.762  -0.307  0.00  0.00    +0.255 C 
ATOM     18  C   UNL     1      -0.274   0.234  -0.489  0.00  0.00    +0.169 C 
ATOM     19  C   UNL     1       0.624  -0.896  -0.001  0.00  0.00    +0.268 C 
ATOM     20  C   UNL     1      -1.276   0.789   0.558  0.00  0.00    +0.110 C 
ATOM     21  C   UNL     1       0.200   1.952  -2.246  0.00  0.00    +0.115 C 
ENDROOT
BRANCH  20  22
ATOM     22  C   UNL     1      -2.661   0.179   0.385  0.00  0.00    +0.027 C 
ATOM     23  C   UNL     1      -3.757   0.979   0.061  0.00  0.00    +0.168 C 
ATOM     24  C   UNL     1      -2.826  -1.196   0.553  0.00  0.00    +0.003 C 
ATOM     25  C   UNL     1      -5.018   0.404  -0.094  0.00  0.00    +0.205 C 
ATOM     26  C   UNL     1      -4.087  -1.771   0.398  0.00  0.00    +0.040 C 
ATOM     27  C   UNL     1      -5.184  -0.971   0.074  0.00  0.00    +0.175 C 
BRANCH  23  28
ATOM     28  O   UNL     1      -3.599   2.323  -0.105  0.00  0.00    -0.503 OA
ATOM     29  H   UNL     1      -2.752   2.712  -0.001  0.00  0.00    +0.292 HD
ENDBRANCH  23  28
BRANCH  25  30
ATOM     30  O   UNL     1      -6.091   1.184  -0.410  0.00  0.00    -0.465 OA
ATOM     31  C   UNL     1      -6.366   1.375  -1.796  0.00  0.00    +0.253 C 
ENDBRANCH  25  30
BRANCH  27  32
ATOM     32  O   UNL     1      -6.410  -1.546  -0.075  0.00  0.00    -0.468 OA
ATOM     33  C   UNL     1      -6.491  -2.957   0.114  0.00  0.00    +0.253 C 
ENDBRANCH  27  32
ENDBRANCH  20  22
BRANCH  14  34
ATOM     34  O   UNL     1       4.121  -3.247  -0.772  0.00  0.00    -0.377 OA
ATOM     35  H   UNL     1       3.462  -3.618  -0.165  0.00  0.00    +0.211 HD
ENDBRANCH  14  34
TORSDOF 5
