REMARK  Name = 102005084
REMARK  11 active torsions:
REMARK  status: ('A' for Active; 'I' for Inactive)
REMARK    1  A    between atoms: C_5  and  O_31
REMARK    2  A    between atoms: C_6  and  C_33
REMARK    3  A    between atoms: C_9  and  N_14
REMARK    4  A    between atoms: C_15  and  C_17
REMARK    5  A    between atoms: C_17  and  C_19
REMARK    6  A    between atoms: C_17  and  O_29
REMARK    7  A    between atoms: C_19  and  O_27
REMARK    8  A    between atoms: C_33  and  C_34
REMARK    9  A    between atoms: C_34  and  O_35
REMARK   10  A    between atoms: C_34  and  C_37
REMARK   11  A    between atoms: C_37  and  O_38
REMARK                            x       y       z     vdW  Elec       q    Type
REMARK                         _______ _______ _______ _____ _____    ______ ____
ROOT
ATOM      1  O   UNL     1      -2.991  -0.180   0.792  0.00  0.00    -0.352 OA
ATOM      2  O   UNL     1      -1.310   2.171   1.407  0.00  0.00    -0.324 OA
ATOM      3  O   UNL     1      -0.419   0.132   2.228  0.00  0.00    -0.308 OA
ATOM      4  C   UNL     1      -4.114   1.868   0.012  0.00  0.00    +0.052 C 
ATOM      5  C   UNL     1      -2.739   2.369  -0.524  0.00  0.00    +0.142 C 
ATOM      6  C   UNL     1      -4.153   0.316   0.114  0.00  0.00    +0.120 C 
ATOM      7  C   UNL     1      -1.532   1.648   0.095  0.00  0.00    +0.176 C 
ATOM      8  C   UNL     1      -1.741   0.128   0.162  0.00  0.00    +0.191 C 
ATOM      9  C   UNL     1      -0.649  -0.556   0.996  0.00  0.00    +0.224 C 
ATOM     10  C   UNL     1      -5.264   2.404  -0.866  0.00  0.00    +0.005 C 
ATOM     11  C   UNL     1      -4.339   2.437   1.438  0.00  0.00    +0.005 C 
ATOM     12  C   UNL     1      -0.210   1.528   2.040  0.00  0.00    +0.295 C 
ENDROOT
BRANCH   9  14
ATOM     13  O   UNL     1       1.357  -2.586   1.395  0.00  0.00    -0.272 OA
ATOM     14  N   UNL     1       0.592  -0.700   0.278  0.00  0.00    -0.279 N 
ATOM     15  C   UNL     1       1.502  -1.714   0.540  0.00  0.00    +0.256 C 
ATOM     16  H   UNL     1       0.803  -0.049  -0.431  0.00  0.00    +0.152 HD
BRANCH  15  17
ATOM     17  C   UNL     1       2.720  -1.659  -0.372  0.00  0.00    +0.239 C 
BRANCH  17  19
ATOM     18  O   UNL     1       3.322   0.440   0.568  0.00  0.00    -0.334 OA
ATOM     19  C   UNL     1       3.854  -0.861   0.272  0.00  0.00    +0.224 C 
ATOM     20  C   UNL     1       5.106  -0.838  -0.630  0.00  0.00    +0.081 C 
ATOM     21  C   UNL     1       4.426   1.536  -1.306  0.00  0.00    +0.046 C 
ATOM     22  C   UNL     1       4.185   1.527   0.225  0.00  0.00    +0.121 C 
ATOM     23  C   UNL     1       4.999   0.191  -1.725  0.00  0.00    -0.037 C 
ATOM     24  C   UNL     1       3.155   1.866  -2.102  0.00  0.00    +0.007 C 
ATOM     25  C   UNL     1       3.546   2.808   0.750  0.00  0.00    +0.032 C 
ATOM     26  C   UNL     1       5.414  -0.072  -2.974  0.00  0.00    -0.009 C 
BRANCH  19  27
ATOM     27  O   UNL     1       4.177  -1.535   1.492  0.00  0.00    -0.329 OA
ATOM     28  C   UNL     1       4.868  -0.677   2.384  0.00  0.00    +0.177 C 
ENDBRANCH  19  27
ENDBRANCH  17  19
BRANCH  17  29
ATOM     29  O   UNL     1       3.185  -2.977  -0.611  0.00  0.00    -0.372 OA
ATOM     30  H   UNL     1       3.961  -2.946  -1.192  0.00  0.00    +0.211 HD
ENDBRANCH  17  29
ENDBRANCH  15  17
ENDBRANCH   9  14
BRANCH   5  31
ATOM     31  O   UNL     1      -2.671   2.250  -1.947  0.00  0.00    -0.382 OA
ATOM     32  H   UNL     1      -3.429   2.704  -2.346  0.00  0.00    +0.210 HD
ENDBRANCH   5  31
BRANCH   6  33
ATOM     33  C   UNL     1      -4.396  -0.463  -1.180  0.00  0.00    +0.061 C 
BRANCH  33  34
ATOM     34  C   UNL     1      -4.377  -1.973  -0.952  0.00  0.00    +0.142 C 
BRANCH  34  35
ATOM     35  O   UNL     1      -4.556  -2.634  -2.204  0.00  0.00    -0.382 OA
ATOM     36  H   UNL     1      -3.846  -2.373  -2.811  0.00  0.00    +0.210 HD
ENDBRANCH  34  35
BRANCH  34  37
ATOM     37  C   UNL     1      -5.503  -2.395  -0.011  0.00  0.00    +0.166 C 
BRANCH  37  38
ATOM     38  O   UNL     1      -5.444  -3.800   0.214  0.00  0.00    -0.379 OA
ATOM     39  H   UNL     1      -6.161  -4.062   0.812  0.00  0.00    +0.211 HD
ENDBRANCH  37  38
ENDBRANCH  34  37
ENDBRANCH  33  34
ENDBRANCH   6  33
TORSDOF 11
