REMARK  Name = 102004920
REMARK  11 active torsions:
REMARK  status: ('A' for Active; 'I' for Inactive)
REMARK    1  A    between atoms: N_1  and  C_37
REMARK    2  A    between atoms: C_8  and  O_21
REMARK    3  A    between atoms: C_9  and  O_23
REMARK    4  A    between atoms: C_10  and  C_39
REMARK    5  A    between atoms: C_11  and  O_25
REMARK    6  A    between atoms: C_13  and  O_27
REMARK    7  A    between atoms: C_14  and  O_29
REMARK    8  A    between atoms: C_15  and  O_31
REMARK    9  A    between atoms: C_17  and  O_35
REMARK   10  A    between atoms: C_18  and  O_33
REMARK   11  A    between atoms: C_39  and  O_40
REMARK                            x       y       z     vdW  Elec       q    Type
REMARK                         _______ _______ _______ _____ _____    ______ ____
ROOT
ATOM      1  N   UNL     1      -1.237   0.481  -1.852  0.00  0.00    +0.389 N 
ATOM      2  C   UNL     1      -0.499   0.626   0.576  0.00  0.00    +0.011 C 
ATOM      3  C   UNL     1      -1.581  -0.508   0.758  0.00  0.00    +0.030 C 
ATOM      4  C   UNL     1       0.792   0.404   1.480  0.00  0.00    +0.008 C 
ATOM      5  C   UNL     1      -0.138   0.325  -0.894  0.00  0.00    -0.051 C 
ATOM      6  C   UNL     1       0.217  -1.187  -0.783  0.00  0.00    +0.036 C 
ATOM      7  C   UNL     1       1.549  -0.942   1.366  0.00  0.00    +0.056 C 
ATOM      8  C   UNL     1       1.591  -1.433  -0.102  0.00  0.00    +0.118 C 
ATOM      9  C   UNL     1      -0.901  -1.764   0.129  0.00  0.00    +0.116 C 
ATOM     10  C   UNL     1      -2.900  -0.085   0.035  0.00  0.00    +0.036 C 
ATOM     11  C   UNL     1      -1.046   2.058   0.892  0.00  0.00    +0.116 C 
ATOM     12  C   UNL     1       1.927   1.443   1.285  0.00  0.00    +0.032 C 
ATOM     13  C   UNL     1       3.239   0.651   1.127  0.00  0.00    +0.140 C 
ATOM     14  C   UNL     1       2.936  -0.605   1.928  0.00  0.00    +0.140 C 
ATOM     15  C   UNL     1       2.836  -0.931  -0.885  0.00  0.00    +0.164 C 
ATOM     16  C   UNL     1      -2.603   0.092  -1.490  0.00  0.00    -0.072 C 
ATOM     17  C   UNL     1      -3.412   1.237   0.673  0.00  0.00    +0.113 C 
ATOM     18  C   UNL     1       3.515   0.351  -0.363  0.00  0.00    +0.171 C 
ATOM     19  C   UNL     1      -2.460   2.385   0.457  0.00  0.00    +0.059 C 
ATOM     20  H   UNL     1      -1.035  -0.357  -2.397  0.00  0.00    -0.080 HD
ENDROOT
BRANCH   8  21
ATOM     21  O   UNL     1       1.749  -2.871  -0.037  0.00  0.00    -0.384 OA
ATOM     22  H   UNL     1       1.000  -3.257   0.443  0.00  0.00    +0.210 HD
ENDBRANCH   8  21
BRANCH   9  23
ATOM     23  O   UNL     1      -1.734  -2.618  -0.633  0.00  0.00    -0.354 OA
ATOM     24  C   UNL     1      -1.153  -3.906  -0.808  0.00  0.00    +0.174 C 
ENDBRANCH   9  23
BRANCH  11  25
ATOM     25  O   UNL     1      -0.216   3.074   0.332  0.00  0.00    -0.354 OA
ATOM     26  C   UNL     1      -0.261   4.263   1.105  0.00  0.00    +0.174 C 
ENDBRANCH  11  25
BRANCH  13  27
ATOM     27  O   UNL     1       4.303   1.390   1.705  0.00  0.00    -0.382 OA
ATOM     28  H   UNL     1       4.106   1.566   2.638  0.00  0.00    +0.210 HD
ENDBRANCH  13  27
BRANCH  14  29
ATOM     29  O   UNL     1       3.892  -1.629   1.743  0.00  0.00    -0.382 OA
ATOM     30  H   UNL     1       3.646  -2.401   2.276  0.00  0.00    +0.210 HD
ENDBRANCH  14  29
BRANCH  15  31
ATOM     31  O   UNL     1       2.538  -0.779  -2.275  0.00  0.00    -0.380 OA
ATOM     32  H   UNL     1       2.111  -1.586  -2.603  0.00  0.00    +0.211 HD
ENDBRANCH  15  31
BRANCH  18  33
ATOM     33  O   UNL     1       4.925   0.163  -0.564  0.00  0.00    -0.349 OA
ATOM     34  C   UNL     1       5.284   0.423  -1.909  0.00  0.00    +0.174 C 
ENDBRANCH  18  33
BRANCH  17  35
ATOM     35  O   UNL     1      -4.676   1.615   0.125  0.00  0.00    -0.384 OA
ATOM     36  H   UNL     1      -5.311   0.892   0.250  0.00  0.00    +0.210 HD
ENDBRANCH  17  35
BRANCH   1  37
ATOM     37  C   UNL     1      -1.105   1.570  -2.797  0.00  0.00    -0.077 C 
ATOM     38  C   UNL     1      -1.778   1.234  -4.118  0.00  0.00    -0.025 C 
ENDBRANCH   1  37
BRANCH  10  39
ATOM     39  C   UNL     1      -4.042  -1.115   0.242  0.00  0.00    +0.142 C 
BRANCH  39  40
ATOM     40  O   UNL     1      -4.257  -1.241   1.628  0.00  0.00    -0.351 OA
ATOM     41  C   UNL     1      -5.295  -2.171   1.926  0.00  0.00    +0.174 C 
ENDBRANCH  39  40
ENDBRANCH  10  39
TORSDOF 11
