REMARK  Name = 102004628
REMARK  5 active torsions:
REMARK  status: ('A' for Active; 'I' for Inactive)
REMARK    1  A    between atoms: C_5  and  O_19
REMARK    2  A    between atoms: C_6  and  O_21
REMARK    3  A    between atoms: C_11  and  O_23
REMARK    4  A    between atoms: O_23  and  C_25
REMARK    5  A    between atoms: C_25  and  C_26
REMARK                            x       y       z     vdW  Elec       q    Type
REMARK                         _______ _______ _______ _____ _____    ______ ____
ROOT
ATOM      1  O   UNL     1      -2.248  -0.021   0.930  0.00  0.00    -0.337 OA
ATOM      2  O   UNL     1       0.634   3.045  -0.642  0.00  0.00    -0.449 OA
ATOM      3  O   UNL     1       2.405   4.045   0.413  0.00  0.00    -0.245 OA
ATOM      4  C   UNL     1      -1.715  -1.348   0.979  0.00  0.00    +0.123 C 
ATOM      5  C   UNL     1      -3.116   0.107  -0.204  0.00  0.00    +0.186 C 
ATOM      6  C   UNL     1      -2.862  -2.193   0.416  0.00  0.00    +0.140 C 
ATOM      7  C   UNL     1      -2.424   0.947  -1.315  0.00  0.00    +0.055 C 
ATOM      8  C   UNL     1      -3.425  -1.319  -0.689  0.00  0.00    +0.088 C 
ATOM      9  C   UNL     1      -0.420  -1.404   0.138  0.00  0.00    +0.074 C 
ATOM     10  C   UNL     1       0.375   1.064   0.675  0.00  0.00    +0.109 C 
ATOM     11  C   UNL     1       0.716  -0.444   0.547  0.00  0.00    +0.179 C 
ATOM     12  C   UNL     1      -0.050   1.766  -0.626  0.00  0.00    +0.177 C 
ATOM     13  C   UNL     1      -1.554   2.104  -0.773  0.00  0.00    +0.049 C 
ATOM     14  C   UNL     1      -1.436  -1.704   2.440  0.00  0.00    +0.032 C 
ATOM     15  C   UNL     1      -3.451   1.483  -2.324  0.00  0.00    +0.005 C 
ATOM     16  C   UNL     1       1.555   1.894   1.089  0.00  0.00    +0.060 C 
ATOM     17  C   UNL     1       1.624   3.119   0.281  0.00  0.00    +0.337 C 
ATOM     18  C   UNL     1       2.464   1.656   2.039  0.00  0.00    +0.002 C 
ENDROOT
BRANCH   5  19
ATOM     19  O   UNL     1      -4.311   0.762   0.218  0.00  0.00    -0.363 OA
ATOM     20  H   UNL     1      -4.098   1.659   0.520  0.00  0.00    +0.213 HD
ENDBRANCH   5  19
BRANCH   6  21
ATOM     21  O   UNL     1      -2.456  -3.453  -0.076  0.00  0.00    -0.382 OA
ATOM     22  H   UNL     1      -2.102  -3.986   0.653  0.00  0.00    +0.210 HD
ENDBRANCH   6  21
BRANCH  11  23
ATOM     23  O   UNL     1       1.766  -0.597  -0.418  0.00  0.00    -0.452 OA
BRANCH  23  25
ATOM     24  O   UNL     1       2.587  -2.397   0.767  0.00  0.00    -0.250 OA
ATOM     25  C   UNL     1       2.635  -1.622  -0.179  0.00  0.00    +0.316 C 
BRANCH  25  26
ATOM     26  C   UNL     1       3.690  -1.650  -1.271  0.00  0.00    +0.099 C 
ATOM     27  C   UNL     1       4.863  -0.761  -0.875  0.00  0.00    +0.012 C 
ATOM     28  C   UNL     1       4.154  -3.079  -1.540  0.00  0.00    +0.012 C 
ENDBRANCH  25  26
ENDBRANCH  23  25
ENDBRANCH  11  23
TORSDOF 5
