REMARK  Name = 102111764
REMARK  9 active torsions:
REMARK  status: ('A' for Active; 'I' for Inactive)
REMARK    1  A    between atoms: C_4  and  C_11
REMARK    2  A    between atoms: C_5  and  O_19
REMARK    3  A    between atoms: C_9  and  O_21
REMARK    4  A    between atoms: C_9  and  C_23
REMARK    5  A    between atoms: C_16  and  O_17
REMARK    6  A    between atoms: C_24  and  C_25
REMARK    7  A    between atoms: C_26  and  C_28
REMARK    8  A    between atoms: C_27  and  C_29
REMARK    9  A    between atoms: C_29  and  C_31
REMARK                            x       y       z     vdW  Elec       q    Type
REMARK                         _______ _______ _______ _____ _____    ______ ____
ROOT
ATOM      1  O   UNL     1      -2.386  -1.350  -0.784  0.00  0.00    -0.291 OA
ATOM      2  O   UNL     1       0.176   2.556   0.083  0.00  0.00    -0.270 OA
ATOM      3  N   UNL     1      -2.101   2.580   0.340  0.00  0.00    -0.279 N 
ATOM      4  C   UNL     1      -3.549   0.747  -0.472  0.00  0.00    +0.131 C 
ATOM      5  C   UNL     1      -3.360   1.884   0.541  0.00  0.00    +0.199 C 
ATOM      6  C   UNL     1      -2.320  -0.157  -0.493  0.00  0.00    +0.188 C 
ATOM      7  C   UNL     1      -1.009   0.504  -0.212  0.00  0.00    +0.122 C 
ATOM      8  C   UNL     1      -0.898   1.960   0.086  0.00  0.00    +0.253 C 
ATOM      9  C   UNL     1       0.112  -0.230  -0.250  0.00  0.00    +0.141 C 
ATOM     10  H   UNL     1      -2.109   3.563   0.389  0.00  0.00    +0.152 HD
ENDROOT
BRANCH   4  11
ATOM     11  C   UNL     1      -4.820  -0.046  -0.213  0.00  0.00    -0.011 C 
ATOM     12  C   UNL     1      -4.987  -0.720   0.997  0.00  0.00    -0.001 C 
ATOM     13  C   UNL     1      -5.819  -0.101  -1.185  0.00  0.00    -0.001 C 
ATOM     14  C   UNL     1      -6.153  -1.447   1.235  0.00  0.00    +0.036 C 
ATOM     15  C   UNL     1      -6.985  -0.829  -0.947  0.00  0.00    +0.036 C 
ATOM     16  C   UNL     1      -7.152  -1.502   0.263  0.00  0.00    +0.134 C 
BRANCH  16  17
ATOM     17  O   UNL     1      -8.289  -2.213   0.495  0.00  0.00    -0.506 OA
ATOM     18  H   UNL     1      -8.402  -2.665   1.308  0.00  0.00    +0.292 HD
ENDBRANCH  16  17
ENDBRANCH   4  11
BRANCH   5  19
ATOM     19  O   UNL     1      -4.394   2.852   0.404  0.00  0.00    -0.367 OA
ATOM     20  H   UNL     1      -4.260   3.563   1.050  0.00  0.00    +0.212 HD
ENDBRANCH   5  19
BRANCH   9  21
ATOM     21  O   UNL     1       0.096  -1.563  -0.613  0.00  0.00    -0.505 OA
ATOM     22  H   UNL     1      -0.718  -1.988  -0.798  0.00  0.00    +0.292 HD
ENDBRANCH   9  21
BRANCH   9  23
ATOM     23  C   UNL     1       1.446   0.276   0.000  0.00  0.00    +0.037 C 
ATOM     24  C   UNL     1       2.573  -0.452  -0.036  0.00  0.00    +0.003 C 
BRANCH  24  25
ATOM     25  C   UNL     1       3.883   0.114   0.211  0.00  0.00    +0.000 C 
ATOM     26  C   UNL     1       5.010  -0.613   0.175  0.00  0.00    -0.000 C 
BRANCH  26  28
ATOM     27  C   UNL     1       7.472  -0.816   0.350  0.00  0.00    -0.026 C 
ATOM     28  C   UNL     1       6.343  -0.091   0.385  0.00  0.00    -0.005 C 
BRANCH  27  29
ATOM     29  C   UNL     1       8.850  -0.225   0.547  0.00  0.00    +0.022 C 
ATOM     30  C   UNL     1       9.493  -0.844   1.789  0.00  0.00    +0.005 C 
BRANCH  29  31
ATOM     31  C   UNL     1       9.690  -0.450  -0.723  0.00  0.00    +0.004 C 
ATOM     32  C   UNL     1       9.082   0.176  -1.971  0.00  0.00    +0.000 C 
ENDBRANCH  29  31
ENDBRANCH  27  29
ENDBRANCH  26  28
ENDBRANCH  24  25
ENDBRANCH   9  23
TORSDOF 9
