REMARK  Name = 102175
REMARK  5 active torsions:
REMARK  status: ('A' for Active; 'I' for Inactive)
REMARK    1  A    between atoms: N_1  and  C1*_12
REMARK    2  A    between atoms: C2*_11  and  O2*_15
REMARK    3  A    between atoms: C3*_13  and  O3*_17
REMARK    4  A    between atoms: C4*_14  and  C5*_19
REMARK    5  A    between atoms: C5*_19  and  O5*_20
REMARK                            x       y       z     vdW  Elec       q    Type
REMARK                         _______ _______ _______ _____ _____    ______ ____
ROOT
ATOM      1  N   UNL     1       0.082  -0.203  -0.161  0.00  0.00    -0.247 N 
ATOM      2  N   UNL     1      -1.427  -1.772   0.328  0.00  0.00    -0.242 NA
ATOM      3  N   UNL     1      -1.397   1.680  -0.574  0.00  0.00    -0.228 NA
ATOM      4  N   UNL     1      -3.737   1.051  -0.285  0.00  0.00    -0.228 NA
ATOM      5  C   UNL     1      -1.140   0.403  -0.254  0.00  0.00    +0.152 C 
ATOM      6  C   UNL     1      -0.144  -1.508   0.191  0.00  0.00    +0.223 C 
ATOM      7  C   UNL     1      -2.061  -0.586   0.053  0.00  0.00    +0.140 C 
ATOM      8  C   UNL     1      -3.404  -0.224   0.030  0.00  0.00    +0.146 C 
ATOM      9  C   UNL     1      -2.728   1.911  -0.564  0.00  0.00    +0.253 C 
ATOM     10  N   UNL     1      -4.406  -1.163   0.330  0.00  0.00    -0.316 N 
ATOM     11  C   UNL     1      -5.803  -0.845   0.323  0.00  0.00    +0.110 C 
ATOM     12  H   UNL     1      -4.135  -2.083   0.555  0.00  0.00    +0.148 HD
ENDROOT
BRANCH   1  15
ATOM     13  O4* UNL     1       2.292  -0.559  -0.948  0.00  0.00    -0.333 OA
ATOM     14  C2* UNL     1       2.054   0.940   0.871  0.00  0.00    +0.187 C 
ATOM     15  C1* UNL     1       1.387   0.414  -0.391  0.00  0.00    +0.225 C 
ATOM     16  C3* UNL     1       3.517   0.906   0.474  0.00  0.00    +0.171 C 
ATOM     17  C4* UNL     1       3.599  -0.371  -0.357  0.00  0.00    +0.175 C 
BRANCH  14  18
ATOM     18  O2* UNL     1       1.602   2.236   1.204  0.00  0.00    -0.378 OA
ATOM     19  H2* UNL     1       0.664   2.198   1.449  0.00  0.00    +0.211 HD
ENDBRANCH  14  18
BRANCH  16  20
ATOM     20  O3* UNL     1       3.809   2.022  -0.366  0.00  0.00    -0.379 OA
ATOM     21  H3* UNL     1       3.760   2.840   0.153  0.00  0.00    +0.211 HD
ENDBRANCH  16  20
BRANCH  17  22
ATOM     22  C5* UNL     1       3.931  -1.601   0.476  0.00  0.00    +0.169 C 
BRANCH  22  23
ATOM     23  O5* UNL     1       3.973  -2.730  -0.380  0.00  0.00    -0.379 OA
ATOM     24  H5* UNL     1       4.184  -3.522   0.140  0.00  0.00    +0.211 HD
ENDBRANCH  22  23
ENDBRANCH  17  22
ENDBRANCH   1  15
TORSDOF 5
