REMARK  Name = 102100765
REMARK  8 active torsions:
REMARK  status: ('A' for Active; 'I' for Inactive)
REMARK    1  A    between atoms: C_1  and  C_2
REMARK    2  A    between atoms: C_1  and  C_6
REMARK    3  A    between atoms: C_1  and  O_14
REMARK    4  A    between atoms: N_5  and  O_12
REMARK    5  A    between atoms: C_6  and  C_9
REMARK    6  A    between atoms: O_14  and  C_16
REMARK    7  A    between atoms: C_16  and  C_17
REMARK    8  A    between atoms: C_17  and  C_18
REMARK                            x       y       z     vdW  Elec       q    Type
REMARK                         _______ _______ _______ _____ _____    ______ ____
ROOT
ATOM      1  C   UNL     1      -1.090   0.638   0.214  0.00  0.00    +0.216 C 
ENDROOT
BRANCH   1   2
ATOM      2  C   UNL     1      -2.172   1.383  -0.588  0.00  0.00    +0.046 C 
ATOM      3  C   UNL     1      -1.805   2.860  -0.764  0.00  0.00    +0.004 C 
ATOM      4  C   UNL     1      -3.544   1.271   0.083  0.00  0.00    +0.004 C 
ENDBRANCH   1   2
BRANCH   1   6
ATOM      5  N   UNL     1      -1.476  -1.400   1.527  0.00  0.00    -0.083 NA
ATOM      6  C   UNL     1      -1.394  -0.839   0.361  0.00  0.00    +0.189 C 
BRANCH   6   9
ATOM      7  O   UNL     1      -2.720  -1.685  -1.382  0.00  0.00    -0.269 OA
ATOM      8  N   UNL     1      -0.434  -2.134  -1.409  0.00  0.00    -0.324 N 
ATOM      9  C   UNL     1      -1.597  -1.604  -0.915  0.00  0.00    +0.263 C 
ATOM     10  H   UNL     1      -0.447  -2.657  -2.243  0.00  0.00    +0.145 HD
ATOM     11  H   UNL     1       0.414  -1.992  -0.930  0.00  0.00    +0.145 HD
ENDBRANCH   6   9
BRANCH   5  12
ATOM     12  O   UNL     1      -1.248  -0.478   2.551  0.00  0.00    -0.409 OA
ATOM     13  H   UNL     1      -1.278  -0.754   3.445  0.00  0.00    +0.328 HD
ENDBRANCH   5  12
ENDBRANCH   1   6
BRANCH   1  14
ATOM     14  O   UNL     1       0.153   0.707  -0.476  0.00  0.00    -0.446 OA
BRANCH  14  16
ATOM     15  O   UNL     1       1.284   0.602   1.532  0.00  0.00    -0.250 OA
ATOM     16  C   UNL     1       1.274   0.680   0.311  0.00  0.00    +0.317 C 
BRANCH  16  17
ATOM     17  C   UNL     1       2.503   0.800  -0.565  0.00  0.00    +0.110 C 
BRANCH  17  18
ATOM     18  C   UNL     1       3.754   0.163   0.060  0.00  0.00    +0.011 C 
ATOM     19  C   UNL     1       4.961   0.368  -0.859  0.00  0.00    +0.001 C 
ATOM     20  C   UNL     1       3.550  -1.331   0.320  0.00  0.00    +0.001 C 
ENDBRANCH  17  18
ENDBRANCH  16  17
ENDBRANCH  14  16
ENDBRANCH   1  14
TORSDOF 8
