REMARK  Name = 10213
REMARK  14 active torsions:
REMARK  status: ('A' for Active; 'I' for Inactive)
REMARK    1  A    between atoms: C_1  and  N_7
REMARK    2  A    between atoms: C_2  and  N_19
REMARK    3  A    between atoms: N_7  and  C_9
REMARK    4  A    between atoms: N_7  and  C_14
REMARK    5  A    between atoms: C_9  and  C_11
REMARK    6  A    between atoms: C_11  and  O_12
REMARK    7  A    between atoms: C_14  and  C_16
REMARK    8  A    between atoms: C_16  and  O_17
REMARK    9  A    between atoms: N_19  and  C_21
REMARK   10  A    between atoms: N_19  and  C_26
REMARK   11  A    between atoms: C_21  and  C_23
REMARK   12  A    between atoms: C_23  and  O_24
REMARK   13  A    between atoms: C_26  and  C_28
REMARK   14  A    between atoms: C_28  and  O_29
REMARK                            x       y       z     vdW  Elec       q    Type
REMARK                         _______ _______ _______ _____ _____    ______ ____
ROOT
ATOM      1  C   UNL     1      -0.506   0.613  -1.218  0.00  0.00    -0.076 C 
ATOM      2  C   UNL     1       0.503  -0.556  -1.234  0.00  0.00    -0.076 C 
ATOM      3  C   UNL     1      -1.364   0.612  -2.492  0.00  0.00    -0.023 C 
ATOM      4  C   UNL     1       1.363  -0.519  -2.506  0.00  0.00    -0.023 C 
ATOM      5  C   UNL     1      -0.502   0.637  -3.751  0.00  0.00    -0.002 C 
ATOM      6  C   UNL     1       0.502  -0.511  -3.767  0.00  0.00    -0.002 C 
ENDROOT
BRANCH   1   7
ATOM      7  N   UNL     1      -1.391   0.533  -0.053  0.00  0.00    +0.402 N 
ATOM      8  H   UNL     1      -0.854   0.183   0.740  0.00  0.00    -0.078 HD
BRANCH   7   9
ATOM      9  C   UNL     1      -2.491  -0.393  -0.312  0.00  0.00    +0.035 C 
BRANCH   9  11
ATOM     10  O   UNL     1      -2.662  -0.444   2.092  0.00  0.00    -0.253 OA
ATOM     11  C   UNL     1      -3.074  -0.827   1.004  0.00  0.00    +0.293 C 
BRANCH  11  12
ATOM     12  O   UNL     1      -4.084  -1.723   0.866  0.00  0.00    -0.482 OA
ATOM     13  H   UNL     1      -4.364  -1.985   0.011  0.00  0.00    +0.295 HD
ENDBRANCH  11  12
ENDBRANCH   9  11
ENDBRANCH   7   9
BRANCH   7  14
ATOM     14  C   UNL     1      -1.905   1.859   0.285  0.00  0.00    +0.035 C 
BRANCH  14  16
ATOM     15  O   UNL     1      -0.025   2.058   1.780  0.00  0.00    -0.253 OA
ATOM     16  C   UNL     1      -0.850   2.602   1.056  0.00  0.00    +0.293 C 
BRANCH  16  17
ATOM     17  O   UNL     1      -0.929   3.948   0.900  0.00  0.00    -0.482 OA
ATOM     18  H   UNL     1      -1.579   4.316   0.334  0.00  0.00    +0.295 HD
ENDBRANCH  16  17
ENDBRANCH  14  16
ENDBRANCH   7  14
ENDBRANCH   1   7
BRANCH   2  19
ATOM     19  N   UNL     1       1.392  -0.527  -0.070  0.00  0.00    +0.402 N 
ATOM     20  H   UNL     1       0.862  -0.199   0.737  0.00  0.00    -0.078 HD
BRANCH  19  21
ATOM     21  C   UNL     1       2.502   0.396  -0.300  0.00  0.00    +0.035 C 
BRANCH  21  23
ATOM     22  O   UNL     1       2.680   0.361   2.104  0.00  0.00    -0.253 OA
ATOM     23  C   UNL     1       3.094   0.777   1.029  0.00  0.00    +0.293 C 
BRANCH  23  24
ATOM     24  O   UNL     1       4.113   1.667   0.918  0.00  0.00    -0.482 OA
ATOM     25  H   UNL     1       4.394   1.955   0.072  0.00  0.00    +0.295 HD
ENDBRANCH  23  24
ENDBRANCH  21  23
ENDBRANCH  19  21
BRANCH  19  26
ATOM     26  C   UNL     1       1.893  -1.869   0.221  0.00  0.00    +0.035 C 
BRANCH  26  28
ATOM     27  O   UNL     1       0.015  -2.100   1.714  0.00  0.00    -0.253 OA
ATOM     28  C   UNL     1       0.831  -2.627   0.969  0.00  0.00    +0.293 C 
BRANCH  28  29
ATOM     29  O   UNL     1       0.895  -3.967   0.766  0.00  0.00    -0.482 OA
ATOM     30  H   UNL     1       1.539  -4.323   0.185  0.00  0.00    +0.295 HD
ENDBRANCH  28  29
ENDBRANCH  26  28
ENDBRANCH  19  26
ENDBRANCH   2  19
TORSDOF 14
