102198
  -OEChem-03292013323D

 32 34  0     1  0  0  0  0  0999 V2000
    1.9183   -0.7864    0.6448 O   0  0  0  0  0  0  0  0  0  0  0  0
    1.1957    2.5776   -0.3433 O   0  0  0  0  0  0  0  0  0  0  0  0
    3.8220    1.3895   -1.4805 O   0  0  0  0  0  0  0  0  0  0  0  0
    4.2825   -2.2774    0.9772 O   0  0  0  0  0  0  0  0  0  0  0  0
   -0.3066   -0.2850    0.0121 N   0  0  0  0  0  0  0  0  0  0  0  0
   -1.7482   -1.6694   -0.9777 N   0  0  0  0  0  0  0  0  0  0  0  0
   -1.8633    1.2774    1.0304 N   0  0  0  0  0  0  0  0  0  0  0  0
   -4.1763    0.6691    0.5444 N   0  0  0  0  0  0  0  0  0  0  0  0
   -4.7520   -1.2424   -0.7754 N   0  0  0  0  0  0  0  0  0  0  0  0
    1.5875    1.2363   -0.5779 C   0  0  2  0  0  0  0  0  0  0  0  0
    0.9722    0.2804    0.4378 C   0  0  2  0  0  0  0  0  0  0  0  0
    3.0681    1.0309   -0.3381 C   0  0  1  0  0  0  0  0  0  0  0  0
    3.1276   -0.4632   -0.0631 C   0  0  1  0  0  0  0  0  0  0  0  0
    4.3277   -0.8750    0.7706 C   0  0  0  0  0  0  0  0  0  0  0  0
   -1.5529    0.1950    0.3014 C   0  0  0  0  0  0  0  0  0  0  0  0
   -0.4770   -1.4051   -0.7588 C   0  0  0  0  0  0  0  0  0  0  0  0
   -2.4319   -0.6772   -0.3207 C   0  0  0  0  0  0  0  0  0  0  0  0
   -3.7897   -0.4092   -0.1792 C   0  0  0  0  0  0  0  0  0  0  0  0
   -3.2035    1.4340    1.0961 C   0  0  0  0  0  0  0  0  0  0  0  0
    1.3166    0.9827   -1.6103 H   0  0  0  0  0  0  0  0  0  0  0  0
    0.8024    0.7635    1.4076 H   0  0  0  0  0  0  0  0  0  0  0  0
    3.4156    1.6296    0.5117 H   0  0  0  0  0  0  0  0  0  0  0  0
    3.1178   -1.0450   -0.9938 H   0  0  0  0  0  0  0  0  0  0  0  0
    4.3043   -0.3942    1.7541 H   0  0  0  0  0  0  0  0  0  0  0  0
    5.2644   -0.6219    0.2648 H   0  0  0  0  0  0  0  0  0  0  0  0
    0.2277    2.6178   -0.4258 H   0  0  0  0  0  0  0  0  0  0  0  0
    3.5190    0.8499   -2.2303 H   0  0  0  0  0  0  0  0  0  0  0  0
    0.3537   -1.9851   -1.1374 H   0  0  0  0  0  0  0  0  0  0  0  0
    5.0596   -2.5132    1.5122 H   0  0  0  0  0  0  0  0  0  0  0  0
   -3.5490    2.2885    1.6682 H   0  0  0  0  0  0  0  0  0  0  0  0
   -4.4661   -2.0475   -1.3159 H   0  0  0  0  0  0  0  0  0  0  0  0
   -5.7326   -1.0265   -0.6582 H   0  0  0  0  0  0  0  0  0  0  0  0
  1 11  1  0  0  0  0
  1 13  1  0  0  0  0
  2 10  1  0  0  0  0
  2 26  1  0  0  0  0
  3 12  1  0  0  0  0
  3 27  1  0  0  0  0
  4 14  1  0  0  0  0
  4 29  1  0  0  0  0
  5 11  1  0  0  0  0
  5 15  1  0  0  0  0
  5 16  1  0  0  0  0
  6 16  2  0  0  0  0
  6 17  1  0  0  0  0
  7 15  2  0  0  0  0
  7 19  1  0  0  0  0
  8 18  1  0  0  0  0
  8 19  2  0  0  0  0
  9 18  1  0  0  0  0
  9 31  1  0  0  0  0
  9 32  1  0  0  0  0
 10 11  1  0  0  0  0
 10 12  1  0  0  0  0
 10 20  1  0  0  0  0
 11 21  1  0  0  0  0
 12 13  1  0  0  0  0
 12 22  1  0  0  0  0
 13 14  1  0  0  0  0
 13 23  1  0  0  0  0
 14 24  1  0  0  0  0
 14 25  1  0  0  0  0
 15 17  1  0  0  0  0
 16 28  1  0  0  0  0
 17 18  2  0  0  0  0
 19 30  1  0  0  0  0
M  END
> <PUBCHEM_COMPOUND_CID>
102198

> <PUBCHEM_CONFORMER_RMSD>
0.6

> <PUBCHEM_CONFORMER_DIVERSEORDER>
1
13
10
20
14
23
9
25
3
19
12
6
21
17
2
24
22
26
7
16
5
18
11
8
4
15

> <PUBCHEM_MMFF94_PARTIAL_CHARGES>
26
1 -0.56
10 0.28
11 0.54
12 0.28
13 0.28
14 0.28
15 0.11
16 0.04
17 0.23
18 0.41
19 0.47
2 -0.68
26 0.4
27 0.4
28 0.15
29 0.4
3 -0.68
30 0.15
31 0.4
32 0.4
4 -0.68
5 0.05
6 -0.57
7 -0.57
8 -0.62
9 -0.9

> <PUBCHEM_EFFECTIVE_ROTOR_COUNT>
3

> <PUBCHEM_PHARMACOPHORE_FEATURES>
15
1 1 acceptor
1 2 acceptor
1 2 donor
1 3 acceptor
1 3 donor
1 4 acceptor
1 4 donor
1 9 cation
1 9 donor
3 5 6 16 cation
3 5 7 15 cation
3 7 8 19 cation
5 1 10 11 12 13 rings
5 5 6 15 16 17 rings
6 7 8 15 17 18 19 rings

> <PUBCHEM_HEAVY_ATOM_COUNT>
19

> <PUBCHEM_ATOM_DEF_STEREO_COUNT>
3

> <PUBCHEM_ATOM_UDEF_STEREO_COUNT>
1

> <PUBCHEM_BOND_DEF_STEREO_COUNT>
0

> <PUBCHEM_BOND_UDEF_STEREO_COUNT>
0

> <PUBCHEM_ISOTOPIC_ATOM_COUNT>
0

> <PUBCHEM_COMPONENT_COUNT>
1

> <PUBCHEM_CACTVS_TAUTO_COUNT>
3

> <PUBCHEM_CONFORMER_ID>
00018F3600000001

> <PUBCHEM_MMFF94_ENERGY>
43.7693

> <PUBCHEM_FEATURE_SELFOVERLAP>
76.732

> <PUBCHEM_SHAPE_FINGERPRINT>
10062212 137 18272366464957774671
11578080 2 18123156139778025568
12236239 1 18411981360493979418
12553582 1 18043239159826689258
12670546 56 18342731927437403392
13538477 17 18269552904522101903
13581323 91 17775283871883491175
13760787 5 18187087251821700173
13862211 1 17916576670358629087
14144814 61 18342179981042579225
14739800 52 17916854855253351896
15375358 24 15626218013935174226
15442244 35 18411419488408700192
15669948 3 18059857332480355847
16752209 62 18060136557332020503
16945 1 17917716828833726759
17349148 13 18131063840241698711
17862501 102 18343297059434788019
1813 80 17969508100575055134
18186145 218 16805324392257677328
19422 9 18408324388756423530
19784866 34 17825122651655861436
200 152 18411410726918002943
20279233 1 15698000743040678878
20612939 158 17967536792095111116
20645476 183 18267591380094287551
20645477 70 17749102297019496034
21267235 1 18413114960934669070
2255824 54 18186804690840833794
23048698 100 18186237350697411503
23175994 123 16660651717368869373
23402539 116 17774709914445868189
23463225 33 18411419471244642238
23557571 272 16559041501265254489
23559900 14 17275113816906911508
23598291 2 18408606933248458688
2838139 119 17824250515723524941
474 4 17899700343171235868
5104073 3 18343022207229005419
573450 72 18201152174531120947
633830 44 17240201019335951617
6992083 37 18412549773245095440
74978 22 18340208621160606428
77492 1 18410858767332185568
9981440 41 17472972286823696408

> <PUBCHEM_SHAPE_MULTIPOLES>
342.63
8.81
1.99
1.06
0.06
0.24
0.03
-1.83
-0.63
-0.76
0.09
-0.32
0.06
-2.06

> <PUBCHEM_SHAPE_SELFOVERLAP>
744.996

> <PUBCHEM_SHAPE_VOLUME>
183.5

> <PUBCHEM_COORDINATE_TYPE>
2
5
10

$$$$
