REMARK  Name = 102122419
REMARK  4 active torsions:
REMARK  status: ('A' for Active; 'I' for Inactive)
REMARK    1  A    between atoms: C_4  and  O_22
REMARK    2  A    between atoms: C_6  and  O_24
REMARK    3  A    between atoms: C_19  and  O_26
REMARK    4  A    between atoms: C_20  and  O_28
REMARK                            x       y       z     vdW  Elec       q    Type
REMARK                         _______ _______ _______ _____ _____    ______ ____
ROOT
ATOM      1  O   UNL     1      -0.101  -1.431   0.456  0.00  0.00    -0.449 OA
ATOM      2  O   UNL     1       5.681   1.361   0.814  0.00  0.00    -0.289 OA
ATOM      3  O   UNL     1      -0.476  -1.685  -1.830  0.00  0.00    -0.245 OA
ATOM      4  C   UNL     1       2.167   0.612   0.582  0.00  0.00    +0.131 C 
ATOM      5  C   UNL     1       2.205  -0.763  -0.191  0.00  0.00    +0.090 C 
ATOM      6  C   UNL     1       3.365   1.512   0.194  0.00  0.00    +0.197 C 
ATOM      7  C   UNL     1       1.282  -1.859   0.448  0.00  0.00    +0.176 C 
ATOM      8  C   UNL     1       0.827   1.408   0.475  0.00  0.00    +0.056 C 
ATOM      9  C   UNL     1       3.627  -1.289  -0.313  0.00  0.00    -0.017 C 
ATOM     10  C   UNL     1       4.678   0.789   0.395  0.00  0.00    +0.202 C 
ATOM     11  C   UNL     1       4.749  -0.627  -0.013  0.00  0.00    +0.036 C 
ATOM     12  C   UNL     1       1.383  -3.269  -0.147  0.00  0.00    +0.048 C 
ATOM     13  C   UNL     1       0.306   1.751  -0.895  0.00  0.00    -0.024 C 
ATOM     14  C   UNL     1      -0.916   1.517  -1.402  0.00  0.00    -0.004 C 
ATOM     15  C   UNL     1      -0.784  -1.329  -0.708  0.00  0.00    +0.344 C 
ATOM     16  C   UNL     1      -2.026   0.818  -0.740  0.00  0.00    +0.012 C 
ATOM     17  C   UNL     1      -1.982  -0.544  -0.405  0.00  0.00    +0.109 C 
ATOM     18  C   UNL     1      -3.196   1.533  -0.455  0.00  0.00    +0.037 C 
ATOM     19  C   UNL     1      -3.061  -1.181   0.212  0.00  0.00    +0.143 C 
ATOM     20  C   UNL     1      -4.280   0.903   0.163  0.00  0.00    +0.142 C 
ATOM     21  C   UNL     1      -4.212  -0.450   0.497  0.00  0.00    +0.074 C 
ENDROOT
BRANCH   4  22
ATOM     22  O   UNL     1       2.321   0.323   1.990  0.00  0.00    -0.383 OA
ATOM     23  H   UNL     1       3.142  -0.175   2.130  0.00  0.00    +0.210 HD
ENDBRANCH   4  22
BRANCH   6  24
ATOM     24  O   UNL     1       3.342   1.875  -1.175  0.00  0.00    -0.375 OA
ATOM     25  H   UNL     1       2.517   2.347  -1.371  0.00  0.00    +0.211 HD
ENDBRANCH   6  24
BRANCH  19  26
ATOM     26  O   UNL     1      -3.017  -2.503   0.535  0.00  0.00    -0.505 OA
ATOM     27  H   UNL     1      -2.248  -3.006   0.348  0.00  0.00    +0.292 HD
ENDBRANCH  19  26
BRANCH  20  28
ATOM     28  O   UNL     1      -5.408   1.614   0.440  0.00  0.00    -0.471 OA
ATOM     29  C   UNL     1      -6.478   0.912   1.071  0.00  0.00    +0.252 C 
ENDBRANCH  20  28
TORSDOF 4
