REMARK  Name = 102172
REMARK  6 active torsions:
REMARK  status: ('A' for Active; 'I' for Inactive)
REMARK    1  A    between atoms: C_6  and  O_21
REMARK    2  A    between atoms: C_6  and  C_26
REMARK    3  A    between atoms: C_9  and  O_23
REMARK    4  A    between atoms: C_26  and  C_27
REMARK    5  A    between atoms: C_27  and  O_28
REMARK    6  A    between atoms: O_28  and  S_29
REMARK                            x       y       z     vdW  Elec       q    Type
REMARK                         _______ _______ _______ _____ _____    ______ ____
ROOT
ATOM      1  O   UNL     1      -6.981   1.647  -1.381  0.00  0.00    -0.291 OA
ATOM      2  C   UNL     1       0.927  -0.844   0.245  0.00  0.00    +0.031 C 
ATOM      3  C   UNL     1      -0.247  -1.700  -0.278  0.00  0.00    +0.003 C 
ATOM      4  C   UNL     1      -1.606  -1.314   0.326  0.00  0.00    +0.003 C 
ATOM      5  C   UNL     1      -1.908   0.179  -0.024  0.00  0.00    +0.030 C 
ATOM      6  C   UNL     1       2.100  -1.536  -0.501  0.00  0.00    +0.141 C 
ATOM      7  C   UNL     1       0.644   0.620  -0.150  0.00  0.00    +0.032 C 
ATOM      8  C   UNL     1      -3.341   0.649   0.462  0.00  0.00    +0.018 C 
ATOM      9  C   UNL     1      -0.727   1.129   0.349  0.00  0.00    +0.111 C 
ATOM     10  C   UNL     1       0.255  -3.131  -0.109  0.00  0.00    +0.003 C 
ATOM     11  C   UNL     1       1.763  -3.043  -0.423  0.00  0.00    +0.034 C 
ATOM     12  C   UNL     1      -2.714  -2.226  -0.225  0.00  0.00    +0.004 C 
ATOM     13  C   UNL     1       1.140  -0.968   1.779  0.00  0.00    +0.003 C 
ATOM     14  C   UNL     1      -4.389  -0.371  -0.003  0.00  0.00    -0.042 C 
ATOM     15  C   UNL     1      -4.088  -1.821   0.286  0.00  0.00    +0.022 C 
ATOM     16  C   UNL     1      -3.632   2.039  -0.173  0.00  0.00    +0.012 C 
ATOM     17  C   UNL     1      -3.466   0.762   1.998  0.00  0.00    +0.004 C 
ATOM     18  C   UNL     1      -5.100   2.434  -0.125  0.00  0.00    +0.069 C 
ATOM     19  C   UNL     1      -5.545  -0.042  -0.605  0.00  0.00    +0.029 C 
ATOM     20  C   UNL     1      -5.945   1.373  -0.779  0.00  0.00    +0.173 C 
ENDROOT
BRANCH   6  21
ATOM     21  O   UNL     1       2.151  -1.136  -1.867  0.00  0.00    -0.380 OA
ATOM     22  H   UNL     1       1.300  -1.328  -2.292  0.00  0.00    +0.211 HD
ENDBRANCH   6  21
BRANCH   9  23
ATOM     23  O   UNL     1      -0.665   1.353   1.750  0.00  0.00    -0.384 OA
ATOM     24  H   UNL     1      -1.525   1.673   2.065  0.00  0.00    +0.210 HD
ENDBRANCH   9  23
BRANCH   6  26
ATOM     25  O   UNL     1       4.192  -2.065   0.512  0.00  0.00    -0.291 OA
ATOM     26  C   UNL     1       3.453  -1.196   0.051  0.00  0.00    +0.207 C 
BRANCH  26  27
ATOM     27  C   UNL     1       3.848   0.265   0.006  0.00  0.00    +0.243 C 
BRANCH  27  28
ATOM     28  O   UNL     1       5.246   0.399  -0.133  0.00  0.00    -0.192 OA
BRANCH  28  29
ATOM     29  S   UNL     1       5.924   1.890  -0.206  0.00  0.00    +0.239 S 
ATOM     30  O   UNL     1       7.492   1.579  -0.535  0.00  0.00    -0.116 OA
ATOM     31  O   UNL     1       5.365   2.576  -1.356  0.00  0.00    -0.116 OA
ATOM     32  O   UNL     1       5.856   2.498   1.110  0.00  0.00    -0.022 OA
ENDBRANCH  28  29
ENDBRANCH  27  28
ENDBRANCH  26  27
ENDBRANCH   6  26
TORSDOF 6
