REMARK  Name = 102120567
REMARK  6 active torsions:
REMARK  status: ('A' for Active; 'I' for Inactive)
REMARK    1  A    between atoms: C_5  and  O_19
REMARK    2  A    between atoms: C_6  and  O_21
REMARK    3  A    between atoms: C_11  and  O_25
REMARK    4  A    between atoms: O_21  and  C_23
REMARK    5  A    between atoms: O_25  and  C_27
REMARK    6  A    between atoms: C_27  and  C_28
REMARK                            x       y       z     vdW  Elec       q    Type
REMARK                         _______ _______ _______ _____ _____    ______ ____
ROOT
ATOM      1  O   UNL     1      -1.510   0.941   0.664  0.00  0.00    -0.336 OA
ATOM      2  O   UNL     1       2.478   2.746  -0.348  0.00  0.00    -0.449 OA
ATOM      3  O   UNL     1       4.367   2.907   0.938  0.00  0.00    -0.245 OA
ATOM      4  C   UNL     1      -1.530  -0.489   0.645  0.00  0.00    +0.135 C 
ATOM      5  C   UNL     1      -2.124   1.454  -0.525  0.00  0.00    +0.187 C 
ATOM      6  C   UNL     1      -2.820  -0.814  -0.120  0.00  0.00    +0.198 C 
ATOM      7  C   UNL     1      -1.040   2.016  -1.489  0.00  0.00    +0.055 C 
ATOM      8  C   UNL     1      -2.901   0.287  -1.166  0.00  0.00    +0.102 C 
ATOM      9  C   UNL     1      -0.275  -0.992  -0.106  0.00  0.00    +0.075 C 
ATOM     10  C   UNL     1       1.347   0.929   0.721  0.00  0.00    +0.109 C 
ATOM     11  C   UNL     1       1.097  -0.580   0.467  0.00  0.00    +0.179 C 
ATOM     12  C   UNL     1       1.371   1.826  -0.528  0.00  0.00    +0.177 C 
ATOM     13  C   UNL     1       0.130   2.720  -0.766  0.00  0.00    +0.049 C 
ATOM     14  C   UNL     1      -1.541  -0.989   2.092  0.00  0.00    +0.034 C 
ATOM     15  C   UNL     1      -1.662   2.957  -2.534  0.00  0.00    +0.005 C 
ATOM     16  C   UNL     1       2.703   1.204   1.307  0.00  0.00    +0.060 C 
ATOM     17  C   UNL     1       3.316   2.365   0.647  0.00  0.00    +0.337 C 
ATOM     18  C   UNL     1       3.348   0.563   2.286  0.00  0.00    +0.002 C 
ENDROOT
BRANCH   5  19
ATOM     19  O   UNL     1      -3.015   2.505  -0.153  0.00  0.00    -0.363 OA
ATOM     20  H   UNL     1      -2.511   3.230   0.248  0.00  0.00    +0.213 HD
ENDBRANCH   5  19
BRANCH   6  21
ATOM     21  O   UNL     1      -3.972  -0.727   0.716  0.00  0.00    -0.450 OA
BRANCH  21  23
ATOM     22  O   UNL     1      -5.098  -2.203  -0.658  0.00  0.00    -0.250 OA
ATOM     23  C   UNL     1      -5.044  -1.478   0.326  0.00  0.00    +0.318 C 
ATOM     24  C   UNL     1      -6.173  -1.288   1.292  0.00  0.00    +0.121 C 
ENDBRANCH  21  23
ENDBRANCH   6  21
BRANCH  11  25
ATOM     25  O   UNL     1       2.098  -1.065  -0.440  0.00  0.00    -0.452 OA
BRANCH  25  27
ATOM     26  O   UNL     1       2.048  -3.118   0.610  0.00  0.00    -0.250 OA
ATOM     27  C   UNL     1       2.480  -2.361  -0.249  0.00  0.00    +0.316 C 
BRANCH  27  28
ATOM     28  C   UNL     1       3.546  -2.725  -1.268  0.00  0.00    +0.099 C 
ATOM     29  C   UNL     1       4.925  -2.392  -0.712  0.00  0.00    +0.012 C 
ATOM     30  C   UNL     1       3.451  -4.200  -1.648  0.00  0.00    +0.012 C 
ENDBRANCH  27  28
ENDBRANCH  25  27
ENDBRANCH  11  25
TORSDOF 6
