REMARK  Name = 102120572
REMARK  9 active torsions:
REMARK  status: ('A' for Active; 'I' for Inactive)
REMARK    1  A    between atoms: N_2  and  CA_22
REMARK    2  A    between atoms: C_3  and  CA_5
REMARK    3  A    between atoms: CA_5  and  C_11
REMARK    4  A    between atoms: CA_5  and  N_18
REMARK    5  A    between atoms: C_8  and  N_13
REMARK    6  A    between atoms: CA_22  and  C_29
REMARK    7  A    between atoms: CA_22  and  C_36
REMARK    8  A    between atoms: C_24  and  N_31
REMARK    9  A    between atoms: C_36  and  O_37
REMARK                            x       y       z     vdW  Elec       q    Type
REMARK                         _______ _______ _______ _____ _____    ______ ____
ROOT
ATOM      1  O   UNL     1      -1.142   0.966  -2.225  0.00  0.00    -0.273 OA
ATOM      2  N   UNL     1      -0.439  -0.134  -0.303  0.00  0.00    -0.292 N 
ATOM      3  C   UNL     1      -1.347   0.575  -1.077  0.00  0.00    +0.245 C 
ATOM      4  H   UNL     1      -0.706  -0.399   0.606  0.00  0.00    +0.150 HD
ENDROOT
BRANCH   3   5
ATOM      5  CA  UNL     1      -2.674   0.784  -0.362  0.00  0.00    +0.171 C 
BRANCH   5  11
ATOM      6  C   UNL     1      -6.383  -0.046   1.675  0.00  0.00    -0.013 C 
ATOM      7  C   UNL     1      -4.880  -0.119   1.397  0.00  0.00    +0.024 C 
ATOM      8  C   UNL     1      -7.037  -1.436   1.573  0.00  0.00    -0.042 C 
ATOM      9  C   UNL     1      -4.601  -0.751   0.055  0.00  0.00    -0.025 C 
ATOM     10  C   UNL     1      -6.573  -2.177   0.346  0.00  0.00    -0.049 C 
ATOM     11  C   UNL     1      -3.597  -0.333  -0.730  0.00  0.00    -0.002 C 
ATOM     12  C   UNL     1      -5.473  -1.841  -0.345  0.00  0.00    -0.011 C 
BRANCH   8  13
ATOM     13  N   UNL     1      -8.493  -1.277   1.586  0.00  0.00    +0.384 N 
ATOM     14  H   UNL     1      -8.772  -0.773   2.428  0.00  0.00    -0.089 HD
ATOM     15  H   UNL     1      -8.935  -2.196   1.578  0.00  0.00    -0.089 HD
ATOM     16  H   UNL     1      -8.785  -0.752   0.762  0.00  0.00    -0.089 HD
ENDBRANCH   8  13
ENDBRANCH   5  11
BRANCH   5  18
ATOM     17  O   UNL     1      -2.258   3.425   0.771  0.00  0.00    -0.275 OA
ATOM     18  N   UNL     1      -3.229   2.029  -0.821  0.00  0.00    -0.295 N 
ATOM     19  C   UNL     1      -2.973   3.250  -0.212  0.00  0.00    +0.223 C 
ATOM     20  C   UNL     1      -3.660   4.394  -0.908  0.00  0.00    +0.095 C 
ATOM     21  H   UNL     1      -3.822   2.014  -1.607  0.00  0.00    +0.150 HD
ENDBRANCH   5  18
ENDBRANCH   3   5
BRANCH   2  22
ATOM     22  CA  UNL     1       0.879  -0.502  -0.767  0.00  0.00    +0.194 C 
BRANCH  22  29
ATOM     23  C   UNL     1       5.065   0.684   1.577  0.00  0.00    +0.029 C 
ATOM     24  C   UNL     1       5.889   0.721   0.276  0.00  0.00    +0.094 C 
ATOM     25  C   UNL     1       4.008  -0.424   1.561  0.00  0.00    +0.028 C 
ATOM     26  C   UNL     1       3.113  -0.307   0.349  0.00  0.00    -0.025 C 
ATOM     27  C   UNL     1       5.004   0.580  -0.935  0.00  0.00    -0.007 C 
ATOM     28  C   UNL     1       3.738   0.139  -0.884  0.00  0.00    -0.007 C 
ATOM     29  C   UNL     1       1.806  -0.601   0.406  0.00  0.00    +0.000 C 
BRANCH  24  31
ATOM     30  O   UNL     1       8.615   0.881   1.300  0.00  0.00    -0.275 OA
ATOM     31  N   UNL     1       6.909  -0.330   0.278  0.00  0.00    -0.302 N 
ATOM     32  C   UNL     1       8.183  -0.151   0.792  0.00  0.00    +0.223 C 
ATOM     33  C   UNL     1       9.021  -1.397   0.691  0.00  0.00    +0.095 C 
ATOM     34  H   UNL     1       6.678  -1.207  -0.105  0.00  0.00    +0.150 HD
ENDBRANCH  24  31
ENDBRANCH  22  29
BRANCH  22  36
ATOM     35  OXT UNL     1       1.915  -2.297  -2.015  0.00  0.00    -0.248 OA
ATOM     36  C   UNL     1       0.903  -1.833  -1.501  0.00  0.00    +0.336 C 
BRANCH  36  37
ATOM     37  O   UNL     1      -0.290  -2.473  -1.548  0.00  0.00    -0.479 OA
ATOM     38  H   UNL     1      -1.044  -2.090  -1.145  0.00  0.00    +0.295 HD
ENDBRANCH  36  37
ENDBRANCH  22  36
ENDBRANCH   2  22
TORSDOF 9
