REMARK  Name = 102117121
REMARK  6 active torsions:
REMARK  status: ('A' for Active; 'I' for Inactive)
REMARK    1  A    between atoms: C_2  and  O_20
REMARK    2  A    between atoms: C_5  and  C_28
REMARK    3  A    between atoms: C_6  and  O_22
REMARK    4  A    between atoms: C_8  and  O_24
REMARK    5  A    between atoms: C_19  and  O_26
REMARK    6  A    between atoms: C_28  and  O_30
REMARK                            x       y       z     vdW  Elec       q    Type
REMARK                         _______ _______ _______ _____ _____    ______ ____
ROOT
ATOM      1  C   UNL     1      -2.240   0.318  -0.229  0.00  0.00    +0.052 C 
ATOM      2  C   UNL     1      -1.454  -1.002   0.004  0.00  0.00    +0.091 C 
ATOM      3  C   UNL     1       0.050  -0.921  -0.370  0.00  0.00    +0.032 C 
ATOM      4  C   UNL     1       0.800   0.302   0.222  0.00  0.00    +0.035 C 
ATOM      5  C   UNL     1      -3.574   0.080   0.568  0.00  0.00    +0.032 C 
ATOM      6  C   UNL     1      -1.475   1.509   0.422  0.00  0.00    +0.139 C 
ATOM      7  C   UNL     1       2.317   0.362  -0.295  0.00  0.00    +0.017 C 
ATOM      8  C   UNL     1      -0.006   1.606  -0.007  0.00  0.00    +0.138 C 
ATOM      9  C   UNL     1      -1.753  -1.316   1.478  0.00  0.00    +0.027 C 
ATOM     10  C   UNL     1      -3.226  -0.957   1.657  0.00  0.00    +0.005 C 
ATOM     11  C   UNL     1       0.781  -2.228  -0.001  0.00  0.00    +0.028 C 
ATOM     12  C   UNL     1      -2.480   0.600  -1.728  0.00  0.00    +0.005 C 
ATOM     13  C   UNL     1       2.963  -1.032  -0.311  0.00  0.00    -0.047 C 
ATOM     14  C   UNL     1       3.157   1.271   0.657  0.00  0.00    +0.006 C 
ATOM     15  C   UNL     1       2.260  -2.165  -0.162  0.00  0.00    -0.034 C 
ATOM     16  C   UNL     1       2.388   0.933  -1.733  0.00  0.00    +0.004 C 
ATOM     17  C   UNL     1       4.462  -1.109  -0.487  0.00  0.00    +0.051 C 
ATOM     18  C   UNL     1       4.670   1.210   0.441  0.00  0.00    +0.030 C 
ATOM     19  C   UNL     1       5.188  -0.220   0.514  0.00  0.00    +0.115 C 
ENDROOT
BRANCH   2  20
ATOM     20  O   UNL     1      -2.050  -2.041  -0.790  0.00  0.00    -0.387 OA
ATOM     21  H   UNL     1      -1.878  -1.868  -1.729  0.00  0.00    +0.210 HD
ENDBRANCH   2  20
BRANCH   6  22
ATOM     22  O   UNL     1      -2.093   2.754   0.069  0.00  0.00    -0.382 OA
ATOM     23  H   UNL     1      -3.028   2.735   0.324  0.00  0.00    +0.210 HD
ENDBRANCH   6  22
BRANCH   8  24
ATOM     24  O   UNL     1       0.576   2.664   0.758  0.00  0.00    -0.382 OA
ATOM     25  H   UNL     1       1.511   2.761   0.518  0.00  0.00    +0.210 HD
ENDBRANCH   8  24
BRANCH  19  26
ATOM     26  O   UNL     1       6.579  -0.239   0.213  0.00  0.00    -0.384 OA
ATOM     27  H   UNL     1       6.908  -1.150   0.260  0.00  0.00    +0.210 HD
ENDBRANCH  19  26
BRANCH   5  28
ATOM     28  C   UNL     1      -4.783  -0.391  -0.244  0.00  0.00    +0.111 C 
ATOM     29  C   UNL     1      -6.016  -0.541   0.628  0.00  0.00    +0.032 C 
BRANCH  28  30
ATOM     30  O   UNL     1      -5.040   0.553  -1.274  0.00  0.00    -0.384 OA
ATOM     31  H   UNL     1      -4.251   0.647  -1.831  0.00  0.00    +0.210 HD
ENDBRANCH  28  30
ENDBRANCH   5  28
TORSDOF 6
