REMARK  Name = 102132408
REMARK  10 active torsions:
REMARK  status: ('A' for Active; 'I' for Inactive)
REMARK    1  A    between atoms: C_1  and  N_2
REMARK    2  A    between atoms: C_1  and  C_13
REMARK    3  A    between atoms: C_1  and  C_16
REMARK    4  A    between atoms: C_3  and  C_9
REMARK    5  A    between atoms: C_4  and  C_8
REMARK    6  A    between atoms: C_9  and  O_10
REMARK    7  A    between atoms: C_13  and  O_14
REMARK    8  A    between atoms: C_16  and  C_17
REMARK    9  A    between atoms: C_17  and  C_20
REMARK   10  A    between atoms: C_17  and  O_23
REMARK                            x       y       z     vdW  Elec       q    Type
REMARK                         _______ _______ _______ _____ _____    ______ ____
ROOT
ATOM      1  C   UNL     1       0.022  -0.316  -1.004  0.00  0.00    +0.179 C 
ENDROOT
BRANCH   1   2
ATOM      2  N   UNL     1      -0.684  -0.553   0.321  0.00  0.00    -0.277 N 
ATOM      3  C   UNL     1      -1.043   0.424   1.212  0.00  0.00    +0.059 C 
ATOM      4  C   UNL     1      -1.058  -1.778   0.808  0.00  0.00    +0.095 C 
ATOM      5  C   UNL     1      -1.657  -0.187   2.284  0.00  0.00    +0.014 C 
ATOM      6  C   UNL     1      -1.667  -1.580   2.028  0.00  0.00    +0.019 C 
BRANCH   4   8
ATOM      7  O   UNL     1      -1.184  -4.131   0.591  0.00  0.00    -0.282 OA
ATOM      8  C   UNL     1      -0.838  -3.023   0.136  0.00  0.00    +0.249 C 
ENDBRANCH   4   8
BRANCH   3   9
ATOM      9  C   UNL     1      -0.771   1.855   0.967  0.00  0.00    +0.183 C 
BRANCH   9  10
ATOM     10  O   UNL     1      -1.773   2.655   1.594  0.00  0.00    -0.345 OA
ATOM     11  C   UNL     1      -1.540   4.038   1.376  0.00  0.00    +0.175 C 
ENDBRANCH   9  10
ENDBRANCH   3   9
ENDBRANCH   1   2
BRANCH   1  13
ATOM     12  O   UNL     1      -0.563   1.529  -2.505  0.00  0.00    -0.248 OA
ATOM     13  C   UNL     1      -0.865   0.472  -1.967  0.00  0.00    +0.336 C 
BRANCH  13  14
ATOM     14  O   UNL     1      -2.054  -0.185  -2.129  0.00  0.00    -0.443 OA
ATOM     15  C   UNL     1      -2.994   0.444  -3.006  0.00  0.00    +0.256 C 
ENDBRANCH  13  14
ENDBRANCH   1  13
BRANCH   1  16
ATOM     16  C   UNL     1       1.399   0.381  -0.874  0.00  0.00    +0.070 C 
BRANCH  16  17
ATOM     17  C   UNL     1       2.416  -0.320   0.043  0.00  0.00    +0.189 C 
BRANCH  17  20
ATOM     18  O   UNL     1       4.818  -0.140  -0.203  0.00  0.00    -0.273 OA
ATOM     19  N   UNL     1       3.667   1.682   0.592  0.00  0.00    -0.327 N 
ATOM     20  C   UNL     1       3.760   0.386   0.133  0.00  0.00    +0.246 C 
ATOM     21  H   UNL     1       4.480   2.229   0.689  0.00  0.00    +0.145 HD
ATOM     22  H   UNL     1       2.789   2.060   0.824  0.00  0.00    +0.145 HD
ENDBRANCH  17  20
BRANCH  17  23
ATOM     23  O   UNL     1       2.607  -1.654  -0.396  0.00  0.00    -0.376 OA
ATOM     24  H   UNL     1       1.749  -2.102  -0.453  0.00  0.00    +0.211 HD
ENDBRANCH  17  23
ENDBRANCH  16  17
ENDBRANCH   1  16
TORSDOF 10
