102109595
  -OEChem-03292013293D

 67 70  0     1  0  0  0  0  0999 V2000
   -4.2213    1.9802    0.6490 O   0  0  0  0  0  0  0  0  0  0  0  0
    1.3492    1.7249   -2.3667 O   0  0  0  0  0  0  0  0  0  0  0  0
   -3.3581    1.9396   -1.4646 O   0  0  0  0  0  0  0  0  0  0  0  0
   -0.8583   -3.9934    0.5431 O   0  0  0  0  0  0  0  0  0  0  0  0
   -3.1117    2.3336    2.7012 O   0  0  0  0  0  0  0  0  0  0  0  0
   -4.0018   -1.6807   -0.6814 O   0  0  0  0  0  0  0  0  0  0  0  0
    2.3729    2.2770    0.2138 O   0  0  0  0  0  0  0  0  0  0  0  0
   -3.0809   -1.0593   -2.6718 O   0  0  0  0  0  0  0  0  0  0  0  0
   -1.8581   -3.4865   -1.4647 O   0  0  0  0  0  0  0  0  0  0  0  0
    4.0880    2.2588    1.6968 O   0  0  0  0  0  0  0  0  0  0  0  0
   -2.3262    0.5892    0.3109 C   0  0  2  0  0  0  0  0  0  0  0  0
   -1.9173   -0.5906   -0.5997 C   0  0  1  0  0  0  0  0  0  0  0  0
   -0.0493    0.9707   -0.5652 C   0  0  1  0  0  0  0  0  0  0  0  0
   -1.0140    1.3596    0.5694 C   0  0  0  0  0  0  0  0  0  0  0  0
   -0.8342    0.0351   -1.4919 C   0  0  0  0  0  0  0  0  0  0  0  0
   -3.0661    0.1984    1.5909 C   0  0  0  0  0  0  0  0  0  0  0  0
    0.5170    2.1758   -1.3027 C   0  0  1  0  0  0  0  0  0  0  0  0
   -3.3362    1.5547   -0.3052 C   0  0  0  0  0  0  0  0  0  0  0  0
   -1.3820   -1.7822    0.1455 C   0  0  0  0  0  0  0  0  0  0  0  0
   -3.8798    1.4283    1.9222 C   0  0  2  0  0  0  0  0  0  0  0  0
   -3.0372   -1.1213   -1.4522 C   0  0  0  0  0  0  0  0  0  0  0  0
    1.3261    3.0760   -0.3799 C   0  0  2  0  0  0  0  0  0  0  0  0
   -0.8129   -1.8509    1.3463 C   0  0  0  0  0  0  0  0  0  0  0  0
   -1.4112   -3.1526   -0.3807 C   0  0  0  0  0  0  0  0  0  0  0  0
   -0.4387   -3.2397    1.6889 C   0  0  2  0  0  0  0  0  0  0  0  0
    1.9196    4.2583   -1.1339 C   0  0  0  0  0  0  0  0  0  0  0  0
    1.0555   -3.4233    1.8919 C   0  0  0  0  0  0  0  0  0  0  0  0
    2.8813    4.9661   -0.2414 C   0  0  0  0  0  0  0  0  0  0  0  0
    1.8906   -3.0590    0.6617 C   0  0  0  0  0  0  0  0  0  0  0  0
    3.3499    2.8815    0.9415 C   0  0  0  0  0  0  0  0  0  0  0  0
    3.5171    4.3342    0.7498 C   0  0  0  0  0  0  0  0  0  0  0  0
    3.3963   -3.2211    0.8819 C   0  0  0  0  0  0  0  0  0  0  0  0
    4.1823   -2.8680   -0.3831 C   0  0  0  0  0  0  0  0  0  0  0  0
    5.6840   -3.0656   -0.1777 C   0  0  0  0  0  0  0  0  0  0  0  0
    6.4656   -2.7477   -1.4424 C   0  0  0  0  0  0  0  0  0  0  0  0
    0.7746    0.3809   -0.1415 H   0  0  0  0  0  0  0  0  0  0  0  0
   -0.5626    1.1090    1.5352 H   0  0  0  0  0  0  0  0  0  0  0  0
   -1.2048    2.4384    0.5926 H   0  0  0  0  0  0  0  0  0  0  0  0
   -1.2784    0.6042   -2.3181 H   0  0  0  0  0  0  0  0  0  0  0  0
   -0.1753   -0.7141   -1.9485 H   0  0  0  0  0  0  0  0  0  0  0  0
   -2.4222   -0.0574    2.4348 H   0  0  0  0  0  0  0  0  0  0  0  0
   -3.7559   -0.6331    1.4233 H   0  0  0  0  0  0  0  0  0  0  0  0
   -0.2947    2.7636   -1.7501 H   0  0  0  0  0  0  0  0  0  0  0  0
   -4.7901    1.1653    2.4710 H   0  0  0  0  0  0  0  0  0  0  0  0
    0.7000    3.4480    0.4401 H   0  0  0  0  0  0  0  0  0  0  0  0
   -0.5923   -1.0333    2.0117 H   0  0  0  0  0  0  0  0  0  0  0  0
   -0.9960   -3.5917    2.5634 H   0  0  0  0  0  0  0  0  0  0  0  0
    0.7812    1.3232   -3.0451 H   0  0  0  0  0  0  0  0  0  0  0  0
    1.1197    4.9414   -1.4404 H   0  0  0  0  0  0  0  0  0  0  0  0
    2.4620    3.9516   -2.0353 H   0  0  0  0  0  0  0  0  0  0  0  0
   -3.7378    2.9242    3.1530 H   0  0  0  0  0  0  0  0  0  0  0  0
   -4.7427   -2.0323   -1.2194 H   0  0  0  0  0  0  0  0  0  0  0  0
    1.2499   -4.4763    2.1325 H   0  0  0  0  0  0  0  0  0  0  0  0
    1.3892   -2.8302    2.7523 H   0  0  0  0  0  0  0  0  0  0  0  0
    3.0647    6.0222   -0.4119 H   0  0  0  0  0  0  0  0  0  0  0  0
    1.5920   -3.6872   -0.1864 H   0  0  0  0  0  0  0  0  0  0  0  0
    1.6998   -2.0193    0.3716 H   0  0  0  0  0  0  0  0  0  0  0  0
    4.2231    4.8549    1.3861 H   0  0  0  0  0  0  0  0  0  0  0  0
    3.7182   -2.5770    1.7090 H   0  0  0  0  0  0  0  0  0  0  0  0
    3.6125   -4.2559    1.1735 H   0  0  0  0  0  0  0  0  0  0  0  0
    3.8410   -3.4970   -1.2143 H   0  0  0  0  0  0  0  0  0  0  0  0
    3.9820   -1.8265   -0.6627 H   0  0  0  0  0  0  0  0  0  0  0  0
    6.0361   -2.4210    0.6361 H   0  0  0  0  0  0  0  0  0  0  0  0
    5.8868   -4.1016    0.1178 H   0  0  0  0  0  0  0  0  0  0  0  0
    6.3090   -1.7086   -1.7493 H   0  0  0  0  0  0  0  0  0  0  0  0
    7.5369   -2.8941   -1.2727 H   0  0  0  0  0  0  0  0  0  0  0  0
    6.1601   -3.3997   -2.2670 H   0  0  0  0  0  0  0  0  0  0  0  0
  1 18  1  0  0  0  0
  1 20  1  0  0  0  0
  2 17  1  0  0  0  0
  2 48  1  0  0  0  0
  3 18  2  0  0  0  0
  4 24  1  0  0  0  0
  4 25  1  0  0  0  0
  5 20  1  0  0  0  0
  5 51  1  0  0  0  0
  6 21  1  0  0  0  0
  6 52  1  0  0  0  0
  7 22  1  0  0  0  0
  7 30  1  0  0  0  0
  8 21  2  0  0  0  0
  9 24  2  0  0  0  0
 10 30  2  0  0  0  0
 11 12  1  0  0  0  0
 11 14  1  0  0  0  0
 11 16  1  0  0  0  0
 11 18  1  0  0  0  0
 12 15  1  0  0  0  0
 12 19  1  0  0  0  0
 12 21  1  0  0  0  0
 13 14  1  0  0  0  0
 13 15  1  0  0  0  0
 13 17  1  0  0  0  0
 13 36  1  0  0  0  0
 14 37  1  0  0  0  0
 14 38  1  0  0  0  0
 15 39  1  0  0  0  0
 15 40  1  0  0  0  0
 16 20  1  0  0  0  0
 16 41  1  0  0  0  0
 16 42  1  0  0  0  0
 17 22  1  0  0  0  0
 17 43  1  0  0  0  0
 19 23  2  0  0  0  0
 19 24  1  0  0  0  0
 20 44  1  0  0  0  0
 22 26  1  0  0  0  0
 22 45  1  0  0  0  0
 23 25  1  0  0  0  0
 23 46  1  0  0  0  0
 25 27  1  0  0  0  0
 25 47  1  0  0  0  0
 26 28  1  0  0  0  0
 26 49  1  0  0  0  0
 26 50  1  0  0  0  0
 27 29  1  0  0  0  0
 27 53  1  0  0  0  0
 27 54  1  0  0  0  0
 28 31  2  0  0  0  0
 28 55  1  0  0  0  0
 29 32  1  0  0  0  0
 29 56  1  0  0  0  0
 29 57  1  0  0  0  0
 30 31  1  0  0  0  0
 31 58  1  0  0  0  0
 32 33  1  0  0  0  0
 32 59  1  0  0  0  0
 32 60  1  0  0  0  0
 33 34  1  0  0  0  0
 33 61  1  0  0  0  0
 33 62  1  0  0  0  0
 34 35  1  0  0  0  0
 34 63  1  0  0  0  0
 34 64  1  0  0  0  0
 35 65  1  0  0  0  0
 35 66  1  0  0  0  0
 35 67  1  0  0  0  0
M  END
> <PUBCHEM_COMPOUND_CID>
102109595

> <PUBCHEM_CONFORMER_RMSD>
1.2

> <PUBCHEM_CONFORMER_DIVERSEORDER>
1
72
68
102
49
91
87
36
81
116
54
88
10
84
31
103
16
100
96
55
118
48
106
28
27
43
37
25
73
47
86
107
115
111
94
99
98
58
46
5
51
8
117
76
113
93
42
45
105
39
71
110
75
11
38
50
97
60
35
40
104
66
32
53
89
112
85
6
78
22
80
9
62
33
63
65
77
17
69
29
74
24
34
92
109
90
70
20
101
41
26
83
61
57
95
30
14
23
15
79
82
52
7
59
67
64
3
56
4
44
12
19
114
21
18
108
2
13

> <PUBCHEM_MMFF94_PARTIAL_CHARGES>
31
1 -0.43
10 -0.57
11 0.06
12 0.2
17 0.28
18 0.66
19 -0.12
2 -0.68
20 0.56
21 0.66
22 0.28
23 -0.29
24 0.71
25 0.42
26 0.14
28 -0.29
3 -0.57
30 0.71
31 -0.14
4 -0.43
46 0.15
48 0.4
5 -0.68
51 0.4
52 0.5
55 0.15
58 0.15
6 -0.65
7 -0.43
8 -0.57
9 -0.57

> <PUBCHEM_EFFECTIVE_ROTOR_COUNT>
11.4

> <PUBCHEM_PHARMACOPHORE_FEATURES>
16
1 10 acceptor
1 2 acceptor
1 2 donor
1 3 acceptor
1 35 hydrophobe
1 5 acceptor
1 5 donor
1 6 acceptor
1 8 acceptor
1 9 acceptor
3 6 8 21 anion
5 1 11 16 18 20 rings
5 11 12 13 14 15 rings
5 27 29 32 33 34 hydrophobe
5 4 19 23 24 25 rings
6 7 22 26 28 30 31 rings

> <PUBCHEM_HEAVY_ATOM_COUNT>
35

> <PUBCHEM_ATOM_DEF_STEREO_COUNT>
7

> <PUBCHEM_ATOM_UDEF_STEREO_COUNT>
0

> <PUBCHEM_BOND_DEF_STEREO_COUNT>
0

> <PUBCHEM_BOND_UDEF_STEREO_COUNT>
0

> <PUBCHEM_ISOTOPIC_ATOM_COUNT>
0

> <PUBCHEM_COMPONENT_COUNT>
1

> <PUBCHEM_CACTVS_TAUTO_COUNT>
1

> <PUBCHEM_CONFORMER_ID>
0616119B00000001

> <PUBCHEM_MMFF94_ENERGY>
78.2704

> <PUBCHEM_FEATURE_SELFOVERLAP>
81.275

> <PUBCHEM_SHAPE_FINGERPRINT>
10032420 55 17240773839008474243
11513181 2 18125717049089091230
12160290 23 17834986404664600693
12788726 201 17620479442268886689
14394314 77 18265063440318002188
14840074 17 18049727312942451727
14955137 171 18122927334132458571
161222 619 15747548748557052336
17974551 9 16039514663987042506
20764821 26 17758648102711487314
20775438 99 14456104970914143262
3027735 51 17978227488963934003
3493558 16 16843326679557429810
463206 1 18336274466363529710
56638632 10 18194970642903490201
57527585 103 17460036412005442626

> <PUBCHEM_SHAPE_MULTIPOLES>
661.59
9.05
7.39
2.1
10.23
4.3
-0.02
-3.14
-0.46
8.68
0.86
-1.2
-0.07
-0.35

> <PUBCHEM_SHAPE_SELFOVERLAP>
1420.249

> <PUBCHEM_SHAPE_VOLUME>
364.2

> <PUBCHEM_COORDINATE_TYPE>
2
5
10

$$$$
