REMARK  Name = 102155281
REMARK  10 active torsions:
REMARK  status: ('A' for Active; 'I' for Inactive)
REMARK    1  A    between atoms: C_3  and  C_14
REMARK    2  A    between atoms: C_4  and  C_16
REMARK    3  A    between atoms: C_6  and  O_20
REMARK    4  A    between atoms: C_8  and  O_29
REMARK    5  A    between atoms: C_16  and  C_19
REMARK    6  A    between atoms: O_20  and  C_22
REMARK    7  A    between atoms: C_22  and  C_23
REMARK    8  A    between atoms: C_23  and  O_25
REMARK    9  A    between atoms: C_23  and  C_27
REMARK   10  A    between atoms: O_29  and  C_31
REMARK                            x       y       z     vdW  Elec       q    Type
REMARK                         _______ _______ _______ _____ _____    ______ ____
ROOT
ATOM      1  O   UNL     1      -2.516  -1.231  -1.098  0.00  0.00    -0.446 OA
ATOM      2  O   UNL     1      -1.873  -1.891  -3.153  0.00  0.00    -0.245 OA
ATOM      3  C   UNL     1      -2.154   0.774   0.365  0.00  0.00    +0.075 C 
ATOM      4  C   UNL     1      -0.662   1.220   0.597  0.00  0.00    +0.072 C 
ATOM      5  C   UNL     1      -2.264  -0.794   0.275  0.00  0.00    +0.212 C 
ATOM      6  C   UNL     1       0.343   0.398  -0.240  0.00  0.00    +0.181 C 
ATOM      7  C   UNL     1       0.132  -1.134  -0.123  0.00  0.00    +0.113 C 
ATOM      8  C   UNL     1      -1.019  -1.482   0.818  0.00  0.00    +0.216 C 
ATOM      9  C   UNL     1      -2.983   1.229   1.595  0.00  0.00    +0.007 C 
ATOM     10  C   UNL     1      -0.185  -1.690  -1.486  0.00  0.00    +0.060 C 
ATOM     11  C   UNL     1      -1.573  -1.613  -1.997  0.00  0.00    +0.337 C 
ATOM     12  C   UNL     1       0.736  -2.289  -2.256  0.00  0.00    +0.002 C 
ENDROOT
BRANCH   3  14
ATOM     13  O   UNL     1      -4.174   1.649  -0.798  0.00  0.00    -0.351 OA
ATOM     14  C   UNL     1      -2.761   1.434  -0.871  0.00  0.00    +0.149 C 
ATOM     15  C   UNL     1      -3.342   2.819  -0.808  0.00  0.00    +0.172 C 
ENDBRANCH   3  14
BRANCH   4  16
ATOM     16  C   UNL     1      -0.430   2.697   0.409  0.00  0.00    +0.023 C 
ATOM     17  C   UNL     1      -0.004   3.255  -0.731  0.00  0.00    -0.001 C 
BRANCH  16  19
ATOM     18  O   UNL     1      -1.079   3.206   2.644  0.00  0.00    -0.283 OA
ATOM     19  C   UNL     1      -0.687   3.604   1.553  0.00  0.00    +0.230 C 
ENDBRANCH  16  19
ENDBRANCH   4  16
BRANCH   6  20
ATOM     20  O   UNL     1       1.667   0.696   0.223  0.00  0.00    -0.450 OA
BRANCH  20  22
ATOM     21  O   UNL     1       2.488   0.324  -1.897  0.00  0.00    -0.248 OA
ATOM     22  C   UNL     1       2.652   0.620  -0.719  0.00  0.00    +0.341 C 
BRANCH  22  23
ATOM     23  C   UNL     1       4.006   0.958  -0.099  0.00  0.00    +0.177 C 
ATOM     24  C   UNL     1       3.978   2.375   0.470  0.00  0.00    +0.041 C 
BRANCH  23  25
ATOM     25  O   UNL     1       4.952   0.951  -1.166  0.00  0.00    -0.376 OA
ATOM     26  H   UNL     1       4.997   0.063  -1.553  0.00  0.00    +0.211 HD
ENDBRANCH  23  25
BRANCH  23  27
ATOM     27  C   UNL     1       4.396  -0.108   0.941  0.00  0.00    +0.038 C 
ATOM     28  C   UNL     1       4.516  -1.519   0.377  0.00  0.00    +0.003 C 
ENDBRANCH  23  27
ENDBRANCH  22  23
ENDBRANCH  20  22
ENDBRANCH   6  20
BRANCH   8  29
ATOM     29  O   UNL     1      -1.200  -2.894   0.883  0.00  0.00    -0.448 OA
BRANCH  29  31
ATOM     30  O   UNL     1       0.290  -3.017   2.645  0.00  0.00    -0.250 OA
ATOM     31  C   UNL     1      -0.480  -3.538   1.849  0.00  0.00    +0.318 C 
ATOM     32  C   UNL     1      -0.768  -5.007   1.799  0.00  0.00    +0.121 C 
ENDBRANCH  29  31
ENDBRANCH   8  29
TORSDOF 10
