REMARK  Name = 102155283
REMARK  9 active torsions:
REMARK  status: ('A' for Active; 'I' for Inactive)
REMARK    1  A    between atoms: C_3  and  C_13
REMARK    2  A    between atoms: C_4  and  C_15
REMARK    3  A    between atoms: C_7  and  O_19
REMARK    4  A    between atoms: C_8  and  O_27
REMARK    5  A    between atoms: C_15  and  C_18
REMARK    6  A    between atoms: O_19  and  C_21
REMARK    7  A    between atoms: C_21  and  C_22
REMARK    8  A    between atoms: C_22  and  O_25
REMARK    9  A    between atoms: O_27  and  C_29
REMARK                            x       y       z     vdW  Elec       q    Type
REMARK                         _______ _______ _______ _____ _____    ______ ____
ROOT
ATOM      1  O   UNL     1      -2.768  -0.009   1.132  0.00  0.00    -0.445 OA
ATOM      2  O   UNL     1      -2.482   0.934   3.157  0.00  0.00    -0.245 OA
ATOM      3  C   UNL     1      -1.519  -1.698  -0.230  0.00  0.00    +0.066 C 
ATOM      4  C   UNL     1       0.010  -1.438  -0.496  0.00  0.00    +0.073 C 
ATOM      5  C   UNL     1      -2.330  -0.353  -0.220  0.00  0.00    +0.213 C 
ATOM      6  C   UNL     1      -0.348   1.051   0.117  0.00  0.00    +0.113 C 
ATOM      7  C   UNL     1       0.550  -0.204   0.266  0.00  0.00    +0.181 C 
ATOM      8  C   UNL     1      -1.532   0.798  -0.815  0.00  0.00    +0.216 C 
ATOM      9  C   UNL     1      -2.060  -2.570  -1.392  0.00  0.00    +0.009 C 
ATOM     10  C   UNL     1      -0.880   1.445   1.471  0.00  0.00    +0.060 C 
ATOM     11  C   UNL     1      -2.090   0.779   2.005  0.00  0.00    +0.337 C 
ATOM     12  C   UNL     1      -0.319   2.414   2.211  0.00  0.00    +0.002 C 
ENDROOT
BRANCH   3  13
ATOM     13  C   UNL     1      -1.750  -2.473   1.050  0.00  0.00    -0.023 C 
ATOM     14  C   UNL     1      -2.354  -3.664   1.106  0.00  0.00    -0.005 C 
ENDBRANCH   3  13
BRANCH   4  15
ATOM     15  C   UNL     1       0.873  -2.651  -0.248  0.00  0.00    +0.024 C 
ATOM     16  C   UNL     1       1.511  -2.900   0.903  0.00  0.00    -0.001 C 
BRANCH  15  18
ATOM     17  O   UNL     1       0.497  -3.515  -2.435  0.00  0.00    -0.283 OA
ATOM     18  C   UNL     1       1.034  -3.640  -1.341  0.00  0.00    +0.230 C 
ENDBRANCH  15  18
ENDBRANCH   4  15
BRANCH   7  19
ATOM     19  O   UNL     1       1.839   0.149  -0.256  0.00  0.00    -0.450 OA
BRANCH  19  21
ATOM     20  O   UNL     1       2.439   0.987   1.803  0.00  0.00    -0.248 OA
ATOM     21  C   UNL     1       2.692   0.743   0.629  0.00  0.00    +0.341 C 
BRANCH  21  22
ATOM     22  C   UNL     1       4.037   1.030  -0.032  0.00  0.00    +0.177 C 
ATOM     23  C   UNL     1       4.689  -0.265  -0.514  0.00  0.00    +0.041 C 
ATOM     24  C   UNL     1       3.824   1.997  -1.192  0.00  0.00    +0.041 C 
BRANCH  22  25
ATOM     25  O   UNL     1       4.913   1.648   0.901  0.00  0.00    -0.376 OA
ATOM     26  H   UNL     1       5.064   1.049   1.649  0.00  0.00    +0.211 HD
ENDBRANCH  22  25
ENDBRANCH  21  22
ENDBRANCH  19  21
ENDBRANCH   7  19
BRANCH   8  27
ATOM     27  O   UNL     1      -2.355   1.955  -0.934  0.00  0.00    -0.448 OA
BRANCH  27  29
ATOM     28  O   UNL     1      -1.114   2.668  -2.747  0.00  0.00    -0.250 OA
ATOM     29  C   UNL     1      -2.030   2.809  -1.949  0.00  0.00    +0.318 C 
ATOM     30  C   UNL     1      -2.975   3.972  -1.952  0.00  0.00    +0.121 C 
ENDBRANCH  27  29
ENDBRANCH   8  27
TORSDOF 9
