REMARK  Name = 102198
REMARK  5 active torsions:
REMARK  status: ('A' for Active; 'I' for Inactive)
REMARK    1  A    between atoms: N9_1  and  C1*_12
REMARK    2  A    between atoms: C2*_11  and  O2*_15
REMARK    3  A    between atoms: C3*_13  and  O3*_17
REMARK    4  A    between atoms: C4*_14  and  C5*_19
REMARK    5  A    between atoms: C5*_19  and  O5*_20
REMARK                            x       y       z     vdW  Elec       q    Type
REMARK                         _______ _______ _______ _____ _____    ______ ____
ROOT
ATOM      1  N9  A   A   1      -0.307  -0.285   0.012  0.00  0.00    -0.247 N 
ATOM      2  N7  A   A   1      -1.748  -1.669  -0.978  0.00  0.00    -0.242 NA
ATOM      3  N3  A   A   1      -1.863   1.277   1.030  0.00  0.00    -0.228 NA
ATOM      4  N1  A   A   1      -4.176   0.669   0.544  0.00  0.00    -0.229 NA
ATOM      5  C4  A   A   1      -1.553   0.195   0.301  0.00  0.00    +0.152 C 
ATOM      6  C8  A   A   1      -0.477  -1.405  -0.759  0.00  0.00    +0.223 C 
ATOM      7  C5  A   A   1      -2.432  -0.677  -0.321  0.00  0.00    +0.140 C 
ATOM      8  C6  A   A   1      -3.790  -0.409  -0.179  0.00  0.00    +0.143 C 
ATOM      9  C2  A   A   1      -3.204   1.434   1.096  0.00  0.00    +0.253 C 
ATOM     10  N6  A   A   1      -4.752  -1.242  -0.775  0.00  0.00    -0.342 N 
ATOM     11  H61 A   A   1      -5.710  -1.043  -0.668  0.00  0.00    +0.144 HD
ATOM     12  H62 A   A   1      -4.468  -2.026  -1.300  0.00  0.00    +0.144 HD
ENDROOT
BRANCH   1  15
ATOM     13  O4* A   A   1       1.918  -0.786   0.645  0.00  0.00    -0.333 OA
ATOM     14  C2* A   A   1       1.587   1.236  -0.578  0.00  0.00    +0.187 C 
ATOM     15  C1* A   A   1       0.972   0.280   0.438  0.00  0.00    +0.225 C 
ATOM     16  C3* A   A   1       3.068   1.031  -0.338  0.00  0.00    +0.171 C 
ATOM     17  C4* A   A   1       3.128  -0.463  -0.063  0.00  0.00    +0.175 C 
BRANCH  14  18
ATOM     18  O2* A   A   1       1.196   2.578  -0.343  0.00  0.00    -0.378 OA
ATOM     19  H2* A   A   1       0.244   2.670  -0.507  0.00  0.00    +0.211 HD
ENDBRANCH  14  18
BRANCH  16  20
ATOM     20  O3* A   A   1       3.822   1.389  -1.480  0.00  0.00    -0.379 OA
ATOM     21  H3* A   A   1       3.759   2.347  -1.622  0.00  0.00    +0.211 HD
ENDBRANCH  16  20
BRANCH  17  22
ATOM     22  C5* A   A   1       4.328  -0.875   0.771  0.00  0.00    +0.169 C 
BRANCH  22  23
ATOM     23  O5* A   A   1       4.282  -2.277   0.977  0.00  0.00    -0.379 OA
ATOM     24  H5* A   A   1       5.046  -2.551   1.509  0.00  0.00    +0.211 HD
ENDBRANCH  22  23
ENDBRANCH  17  22
ENDBRANCH   1  15
TORSDOF 5
