REMARK  Name = 102120241
REMARK  10 active torsions:
REMARK  status: ('A' for Active; 'I' for Inactive)
REMARK    1  A    between atoms: C_1  and  C_3
REMARK    2  A    between atoms: C_1  and  O_16
REMARK    3  A    between atoms: C_1  and  C_18
REMARK    4  A    between atoms: C_4  and  O_9
REMARK    5  A    between atoms: CA_5  and  C_13
REMARK    6  A    between atoms: C_6  and  O_11
REMARK    7  A    between atoms: C_13  and  O_14
REMARK    8  A    between atoms: C_18  and  C_19
REMARK    9  A    between atoms: C_19  and  C_20
REMARK   10  A    between atoms: C_20  and  C_24
REMARK                            x       y       z     vdW  Elec       q    Type
REMARK                         _______ _______ _______ _____ _____    ______ ____
ROOT
ATOM      1  C   UNL     1      -1.867   0.318  -0.395  0.00  0.00    +0.094 C 
ENDROOT
BRANCH   1   3
ATOM      2  N   UNL     1      -3.876  -1.130  -0.283  0.00  0.00    +0.393 N 
ATOM      3  C   UNL     1      -3.285   0.068  -0.901  0.00  0.00    -0.004 C 
ATOM      4  C   UNL     1      -4.227   1.228  -0.566  0.00  0.00    +0.118 C 
ATOM      5  CA  UNL     1      -4.917  -0.682   0.645  0.00  0.00    -0.002 C 
ATOM      6  C   UNL     1      -5.484   0.545  -0.049  0.00  0.00    +0.118 C 
ATOM      7  H1  UNL     1      -3.160  -1.649   0.224  0.00  0.00    -0.084 HD
ATOM      8  H2  UNL     1      -4.272  -1.742  -0.996  0.00  0.00    -0.084 HD
BRANCH   4   9
ATOM      9  O   UNL     1      -4.516   1.986  -1.730  0.00  0.00    -0.384 OA
ATOM     10  H   UNL     1      -3.706   2.414  -2.047  0.00  0.00    +0.210 HD
ENDBRANCH   4   9
BRANCH   6  11
ATOM     11  O   UNL     1      -6.169   1.373   0.876  0.00  0.00    -0.384 OA
ATOM     12  H   UNL     1      -6.522   2.149   0.414  0.00  0.00    +0.210 HD
ENDBRANCH   6  11
BRANCH   5  13
ATOM     13  C   UNL     1      -5.955  -1.768   0.880  0.00  0.00    +0.118 C 
BRANCH  13  14
ATOM     14  O   UNL     1      -6.983  -1.246   1.705  0.00  0.00    -0.384 OA
ATOM     15  H   UNL     1      -7.651  -1.931   1.862  0.00  0.00    +0.210 HD
ENDBRANCH  13  14
ENDBRANCH   5  13
ENDBRANCH   1   3
BRANCH   1  16
ATOM     16  O   UNL     1      -1.405   1.553  -0.945  0.00  0.00    -0.386 OA
ATOM     17  H   UNL     1      -2.025   2.262  -0.712  0.00  0.00    +0.210 HD
ENDBRANCH   1  16
BRANCH   1  18
ATOM     18  C   UNL     1      -0.874  -0.784  -0.775  0.00  0.00    +0.027 C 
BRANCH  18  19
ATOM     19  C   UNL     1       0.534  -0.553  -0.225  0.00  0.00    +0.005 C 
BRANCH  19  20
ATOM     20  C   UNL     1       1.470  -1.700  -0.606  0.00  0.00    +0.030 C 
BRANCH  20  24
ATOM     21  O   UNL     1       3.347  -0.233  -0.518  0.00  0.00    -0.337 OA
ATOM     22  O   UNL     1       4.697   0.274   1.405  0.00  0.00    -0.334 OA
ATOM     23  C   UNL     1       4.648   0.128  -0.024  0.00  0.00    +0.187 C 
ATOM     24  C   UNL     1       2.866  -1.491  -0.035  0.00  0.00    +0.118 C 
ATOM     25  C   UNL     1       5.666  -0.955  -0.426  0.00  0.00    +0.056 C 
ATOM     26  C   UNL     1       3.804  -2.622  -0.452  0.00  0.00    +0.030 C 
ATOM     27  C   UNL     1       5.221  -2.341   0.031  0.00  0.00    +0.007 C 
ATOM     28  C   UNL     1       5.051   1.459  -0.686  0.00  0.00    +0.056 C 
ATOM     29  C   UNL     1       4.197   2.619  -0.181  0.00  0.00    +0.008 C 
ATOM     30  C   UNL     1       4.212   2.658   1.341  0.00  0.00    +0.032 C 
ATOM     31  C   UNL     1       3.843   1.298   1.913  0.00  0.00    +0.145 C 
ENDBRANCH  20  24
ENDBRANCH  19  20
ENDBRANCH  18  19
ENDBRANCH   1  18
TORSDOF 10
