REMARK  Name = 102134437
REMARK  6 active torsions:
REMARK  status: ('A' for Active; 'I' for Inactive)
REMARK    1  A    between atoms: N_1  and  C_19
REMARK    2  A    between atoms: C_20  and  O_24
REMARK    3  A    between atoms: C_21  and  O_26
REMARK    4  A    between atoms: C_22  and  O_28
REMARK    5  A    between atoms: C_23  and  C_30
REMARK    6  A    between atoms: C_30  and  O_31
REMARK                            x       y       z     vdW  Elec       q    Type
REMARK                         _______ _______ _______ _____ _____    ______ ____
ROOT
ATOM      1  N   UNL     1       0.657  -0.451  -0.208  0.00  0.00    +0.407 N 
ATOM      2  N   UNL     1      -5.010   0.451  -1.480  0.00  0.00    -0.241 NA
ATOM      3  N   UNL     1      -4.769   1.362   1.139  0.00  0.00    -0.241 NA
ATOM      4  C   UNL     1      -0.960  -2.329  -0.668  0.00  0.00    +0.002 C 
ATOM      5  C   UNL     1      -0.755  -1.552   1.568  0.00  0.00    +0.002 C 
ATOM      6  C   UNL     1      -0.729  -2.860   0.758  0.00  0.00    +0.004 C 
ATOM      7  C   UNL     1       0.528  -0.759   1.232  0.00  0.00    -0.069 C 
ATOM      8  C   UNL     1       0.314  -1.572  -1.106  0.00  0.00    -0.069 C 
ATOM      9  C   UNL     1      -1.971  -0.918   0.940  0.00  0.00    -0.027 C 
ATOM     10  C   UNL     1      -2.092  -1.376  -0.377  0.00  0.00    -0.027 C 
ATOM     11  C   UNL     1      -3.103  -0.918  -1.195  0.00  0.00    +0.016 C 
ATOM     12  C   UNL     1      -2.860   0.003   1.453  0.00  0.00    +0.016 C 
ATOM     13  C   UNL     1      -4.018   0.005  -0.691  0.00  0.00    +0.099 C 
ATOM     14  C   UNL     1      -3.896   0.469   0.645  0.00  0.00    +0.099 C 
ATOM     15  C   UNL     1      -5.872   1.343  -0.960  0.00  0.00    +0.119 C 
ATOM     16  C   UNL     1      -5.754   1.791   0.329  0.00  0.00    +0.119 C 
ATOM     17  H   UNL     1      -0.049   0.261  -0.391  0.00  0.00    -0.076 HD
ENDROOT
BRANCH   1  19
ATOM     18  O   UNL     1       3.002  -0.718   0.001  0.00  0.00    -0.371 OA
ATOM     19  C   UNL     1       1.965   0.112  -0.524  0.00  0.00    +0.093 C 
ATOM     20  C   UNL     1       2.084   1.531   0.046  0.00  0.00    +0.147 C 
ATOM     21  C   UNL     1       3.484   2.100  -0.198  0.00  0.00    +0.167 C 
ATOM     22  C   UNL     1       4.574   1.117   0.232  0.00  0.00    +0.169 C 
ATOM     23  C   UNL     1       4.310  -0.271  -0.363  0.00  0.00    +0.171 C 
BRANCH  20  24
ATOM     24  O   UNL     1       1.127   2.376  -0.591  0.00  0.00    -0.382 OA
ATOM     25  H   UNL     1       0.236   2.024  -0.443  0.00  0.00    +0.210 HD
ENDBRANCH  20  24
BRANCH  21  26
ATOM     26  O   UNL     1       3.630   3.319   0.534  0.00  0.00    -0.379 OA
ATOM     27  H   UNL     1       2.940   3.944   0.263  0.00  0.00    +0.211 HD
ENDBRANCH  21  26
BRANCH  22  28
ATOM     28  O   UNL     1       5.828   1.621  -0.218  0.00  0.00    -0.379 OA
ATOM     29  H   UNL     1       5.981   2.499   0.166  0.00  0.00    +0.211 HD
ENDBRANCH  22  28
BRANCH  23  30
ATOM     30  C   UNL     1       5.301  -1.314   0.145  0.00  0.00    +0.169 C 
BRANCH  30  31
ATOM     31  O   UNL     1       4.982  -2.562  -0.441  0.00  0.00    -0.379 OA
ATOM     32  H   UNL     1       5.604  -3.236  -0.126  0.00  0.00    +0.211 HD
ENDBRANCH  30  31
ENDBRANCH  23  30
ENDBRANCH   1  19
TORSDOF 6
