102142787
  -OEChem-03292013293D

 59 61  0     1  0  0  0  0  0999 V2000
    2.2381   -0.3721    1.5607 O   0  0  0  0  0  0  0  0  0  0  0  0
    3.6603    1.8515   -1.0491 O   0  0  0  0  0  0  0  0  0  0  0  0
   -0.9195    0.9423   -1.0378 O   0  0  0  0  0  0  0  0  0  0  0  0
   -2.5313   -0.7190   -0.7438 O   0  0  0  0  0  0  0  0  0  0  0  0
   -2.4602    2.6905    0.5677 O   0  0  0  0  0  0  0  0  0  0  0  0
   -5.3300    2.0302    0.4714 O   0  0  0  0  0  0  0  0  0  0  0  0
   -5.7411   -0.7783    1.0188 O   0  0  0  0  0  0  0  0  0  0  0  0
   -2.8774   -3.4419   -0.5967 O   0  0  0  0  0  0  0  0  0  0  0  0
    3.3222    0.5685   -0.4848 C   0  0  2  0  0  0  0  0  0  0  0  0
    2.6198   -0.2894   -1.6266 C   0  0  0  0  0  0  0  0  0  0  0  0
    2.4164    0.8245    0.7723 C   0  0  1  0  0  0  0  0  0  0  0  0
    1.1978    0.2609   -1.9107 C   0  0  0  0  0  0  0  0  0  0  0  0
    1.0000    1.2904    0.3694 C   0  0  0  0  0  0  0  0  0  0  0  0
    0.3369    0.3827   -0.6594 C   0  0  1  0  0  0  0  0  0  0  0  0
    4.6686   -0.0336   -0.0121 C   0  0  0  0  0  0  0  0  0  0  0  0
    2.5006   -1.7965   -1.3039 C   0  0  0  0  0  0  0  0  0  0  0  0
    3.4058   -0.1890   -2.9620 C   0  0  0  0  0  0  0  0  0  0  0  0
    2.9792    1.9202    1.7130 C   0  0  0  0  0  0  0  0  0  0  0  0
    4.5221   -0.9745    1.1415 C   0  0  0  0  0  0  0  0  0  0  0  0
    3.3750   -1.1095    1.8249 C   0  0  0  0  0  0  0  0  0  0  0  0
   -1.9720    0.4725   -0.1960 C   0  0  2  0  0  0  0  0  0  0  0  0
   -3.0313    1.5712   -0.1094 C   0  0  1  0  0  0  0  0  0  0  0  0
   -4.2671    1.0933    0.6533 C   0  0  2  0  0  0  0  0  0  0  0  0
    3.2103   -2.0879    2.9428 C   0  0  0  0  0  0  0  0  0  0  0  0
   -3.5775   -1.2565    0.0672 C   0  0  1  0  0  0  0  0  0  0  0  0
   -4.7423   -0.2664    0.1405 C   0  0  1  0  0  0  0  0  0  0  0  0
   -4.0031   -2.5842   -0.5515 C   0  0  0  0  0  0  0  0  0  0  0  0
    0.6779   -0.3750   -2.6407 H   0  0  0  0  0  0  0  0  0  0  0  0
    1.2578    1.2438   -2.3982 H   0  0  0  0  0  0  0  0  0  0  0  0
    1.0264    2.3150   -0.0256 H   0  0  0  0  0  0  0  0  0  0  0  0
    0.3622    1.3402    1.2617 H   0  0  0  0  0  0  0  0  0  0  0  0
    0.1825   -0.6200   -0.2425 H   0  0  0  0  0  0  0  0  0  0  0  0
    5.3567    0.7668    0.2910 H   0  0  0  0  0  0  0  0  0  0  0  0
    5.1801   -0.5481   -0.8314 H   0  0  0  0  0  0  0  0  0  0  0  0
    4.4194   -0.5906   -2.8719 H   0  0  0  0  0  0  0  0  0  0  0  0
    3.4842    0.8448   -3.3148 H   0  0  0  0  0  0  0  0  0  0  0  0
    3.4830   -2.2676   -1.1983 H   0  0  0  0  0  0  0  0  0  0  0  0
    1.9883   -2.3273   -2.1160 H   0  0  0  0  0  0  0  0  0  0  0  0
    1.9279   -1.9953   -0.3961 H   0  0  0  0  0  0  0  0  0  0  0  0
    2.9041   -0.7578   -3.7543 H   0  0  0  0  0  0  0  0  0  0  0  0
    3.9793    1.6764    2.0844 H   0  0  0  0  0  0  0  0  0  0  0  0
    2.3460    2.0226    2.6026 H   0  0  0  0  0  0  0  0  0  0  0  0
    3.0316    2.8962    1.2197 H   0  0  0  0  0  0  0  0  0  0  0  0
    2.8408    2.3008   -1.3119 H   0  0  0  0  0  0  0  0  0  0  0  0
    5.3890   -1.5733    1.4057 H   0  0  0  0  0  0  0  0  0  0  0  0
   -1.5877    0.2630    0.8119 H   0  0  0  0  0  0  0  0  0  0  0  0
   -3.3087    1.9163   -1.1125 H   0  0  0  0  0  0  0  0  0  0  0  0
   -4.0727    1.0581    1.7317 H   0  0  0  0  0  0  0  0  0  0  0  0
   -3.1722   -1.4636    1.0671 H   0  0  0  0  0  0  0  0  0  0  0  0
   -5.2051   -0.1467   -0.8467 H   0  0  0  0  0  0  0  0  0  0  0  0
    4.1228   -2.6641    3.1268 H   0  0  0  0  0  0  0  0  0  0  0  0
    2.4075   -2.7950    2.7101 H   0  0  0  0  0  0  0  0  0  0  0  0
    2.9512   -1.5635    3.8682 H   0  0  0  0  0  0  0  0  0  0  0  0
   -4.3543   -2.4410   -1.5789 H   0  0  0  0  0  0  0  0  0  0  0  0
   -4.7896   -3.0674    0.0358 H   0  0  0  0  0  0  0  0  0  0  0  0
   -2.2009    2.4035    1.4599 H   0  0  0  0  0  0  0  0  0  0  0  0
   -5.5147    2.0969   -0.4810 H   0  0  0  0  0  0  0  0  0  0  0  0
   -5.3368   -0.9010    1.8946 H   0  0  0  0  0  0  0  0  0  0  0  0
   -3.1696   -4.2783   -0.9972 H   0  0  0  0  0  0  0  0  0  0  0  0
  1 11  1  0  0  0  0
  1 20  1  0  0  0  0
  2  9  1  0  0  0  0
  2 44  1  0  0  0  0
  3 14  1  0  0  0  0
  3 21  1  0  0  0  0
  4 21  1  0  0  0  0
  4 25  1  0  0  0  0
  5 22  1  0  0  0  0
  5 56  1  0  0  0  0
  6 23  1  0  0  0  0
  6 57  1  0  0  0  0
  7 26  1  0  0  0  0
  7 58  1  0  0  0  0
  8 27  1  0  0  0  0
  8 59  1  0  0  0  0
  9 10  1  0  0  0  0
  9 11  1  0  0  0  0
  9 15  1  0  0  0  0
 10 12  1  0  0  0  0
 10 16  1  0  0  0  0
 10 17  1  0  0  0  0
 11 13  1  0  0  0  0
 11 18  1  0  0  0  0
 12 14  1  0  0  0  0
 12 28  1  0  0  0  0
 12 29  1  0  0  0  0
 13 14  1  0  0  0  0
 13 30  1  0  0  0  0
 13 31  1  0  0  0  0
 14 32  1  0  0  0  0
 15 19  1  0  0  0  0
 15 33  1  0  0  0  0
 15 34  1  0  0  0  0
 16 37  1  0  0  0  0
 16 38  1  0  0  0  0
 16 39  1  0  0  0  0
 17 35  1  0  0  0  0
 17 36  1  0  0  0  0
 17 40  1  0  0  0  0
 18 41  1  0  0  0  0
 18 42  1  0  0  0  0
 18 43  1  0  0  0  0
 19 20  2  0  0  0  0
 19 45  1  0  0  0  0
 20 24  1  0  0  0  0
 21 22  1  0  0  0  0
 21 46  1  0  0  0  0
 22 23  1  0  0  0  0
 22 47  1  0  0  0  0
 23 26  1  0  0  0  0
 23 48  1  0  0  0  0
 24 51  1  0  0  0  0
 24 52  1  0  0  0  0
 24 53  1  0  0  0  0
 25 26  1  0  0  0  0
 25 27  1  0  0  0  0
 25 49  1  0  0  0  0
 26 50  1  0  0  0  0
 27 54  1  0  0  0  0
 27 55  1  0  0  0  0
M  END
> <PUBCHEM_COMPOUND_CID>
102142787

> <PUBCHEM_CONFORMER_RMSD>
0.8

> <PUBCHEM_CONFORMER_DIVERSEORDER>
1
55
18
25
6
45
32
36
29
41
17
15
39
40
31
19
30
8
49
42
13
5
23
11
53
9
51
44
38
2
26
4
43
50
47
10
3
28
48
14
35
46
56
7
21
52
57
54
33
22
34
16
20
24
37
27
12

> <PUBCHEM_MMFF94_PARTIAL_CHARGES>
27
1 -0.36
11 0.28
14 0.28
15 0.14
19 -0.29
2 -0.68
20 -0.06
21 0.56
22 0.28
23 0.28
24 0.14
25 0.28
26 0.28
27 0.28
3 -0.56
4 -0.56
44 0.4
45 0.15
5 -0.68
56 0.4
57 0.4
58 0.4
59 0.4
6 -0.68
7 -0.68
8 -0.68
9 0.28

> <PUBCHEM_EFFECTIVE_ROTOR_COUNT>
5.4

> <PUBCHEM_PHARMACOPHORE_FEATURES>
17
1 1 acceptor
1 2 acceptor
1 2 donor
1 3 acceptor
1 4 acceptor
1 5 acceptor
1 5 donor
1 6 acceptor
1 6 donor
1 7 acceptor
1 7 donor
1 8 acceptor
1 8 donor
3 10 16 17 hydrophobe
6 1 9 11 15 19 20 rings
6 4 21 22 23 25 26 rings
6 9 10 11 12 13 14 rings

> <PUBCHEM_HEAVY_ATOM_COUNT>
27

> <PUBCHEM_ATOM_DEF_STEREO_COUNT>
8

> <PUBCHEM_ATOM_UDEF_STEREO_COUNT>
0

> <PUBCHEM_BOND_DEF_STEREO_COUNT>
0

> <PUBCHEM_BOND_UDEF_STEREO_COUNT>
0

> <PUBCHEM_ISOTOPIC_ATOM_COUNT>
0

> <PUBCHEM_COMPONENT_COUNT>
1

> <PUBCHEM_CACTVS_TAUTO_COUNT>
1

> <PUBCHEM_CONFORMER_ID>
0616934300000001

> <PUBCHEM_MMFF94_ENERGY>
92.3787

> <PUBCHEM_FEATURE_SELFOVERLAP>
86.407

> <PUBCHEM_SHAPE_FINGERPRINT>
10366900 7 17846776343015336981
11089746 13 13901903401748496576
11135609 201 15407774907898050488
11370993 144 17059514984015226303
11595378 159 18334294258258343093
11796584 16 18335700498932842078
12107183 9 17465651300134559673
12236239 1 17894635841914817021
12633257 1 18201432584572096681
12788726 201 18409741655392933849
13167823 11 18187363220687208841
13224815 77 17967814946539901127
13533116 47 17748547035131147537
13583140 156 18193527100221623980
13726171 33 18129400334878629224
13911987 19 15287931348732032654
14081887 123 18202001027889052511
14341114 176 18343019995252463952
14848178 96 13901320721000395018
14863182 85 16805326591855984650
15537594 2 17967251962026587050
15788980 27 16877941629140026509
17349148 13 16950277420836252784
17818456 19 17534050879190349973
1813 80 17096365017246201442
20511986 3 18040424499752332909
20554085 129 17914605074316628625
20645477 70 15647055988411637334
20775530 9 17027101235078833082
21033648 29 17060335185039827697
21065201 7 18201447960534014847
21421861 104 18189336766886922514
21503847 285 13254803447161289922
23366157 5 17902233648374627453
23557571 272 17989772206879403089
23559900 14 18201450146313867405
2838139 119 11166499960650327762
3737641 26 17606668129358482250
49207404 50 17489585705291223244
495365 180 16630239208517087461
508706 21 18202845457193513823
5104073 3 18202280346575870905
602551 16 18342176686839729487
6823239 73 17988373619472583558
9709674 26 17989210360695628077

> <PUBCHEM_SHAPE_MULTIPOLES>
508.69
11.57
2.58
2.22
11.19
0.99
-0.11
1.44
2.61
2.11
0.51
-3.62
0.74
-1.48

> <PUBCHEM_SHAPE_SELFOVERLAP>
1059.538

> <PUBCHEM_SHAPE_VOLUME>
286.6

> <PUBCHEM_COORDINATE_TYPE>
2
5
10

$$$$
