REMARK  Name = 102142787
REMARK  8 active torsions:
REMARK  status: ('A' for Active; 'I' for Inactive)
REMARK    1  A    between atoms: O_1  and  C_8
REMARK    2  A    between atoms: O_1  and  C_19
REMARK    3  A    between atoms: C_3  and  O_16
REMARK    4  A    between atoms: C_20  and  O_24
REMARK    5  A    between atoms: C_21  and  O_26
REMARK    6  A    between atoms: C_22  and  C_30
REMARK    7  A    between atoms: C_23  and  O_28
REMARK    8  A    between atoms: C_30  and  O_31
REMARK                            x       y       z     vdW  Elec       q    Type
REMARK                         _______ _______ _______ _____ _____    ______ ____
ROOT
ATOM      1  O   UNL     1      -0.919   0.942  -1.038  0.00  0.00    -0.331 OA
ENDROOT
BRANCH   1   8
ATOM      2  O   UNL     1       2.238  -0.372   1.561  0.00  0.00    -0.485 OA
ATOM      3  C   UNL     1       3.322   0.569  -0.485  0.00  0.00    +0.125 C 
ATOM      4  C   UNL     1       2.620  -0.289  -1.627  0.00  0.00    +0.028 C 
ATOM      5  C   UNL     1       2.416   0.825   0.772  0.00  0.00    +0.157 C 
ATOM      6  C   UNL     1       1.198   0.261  -1.911  0.00  0.00    +0.032 C 
ATOM      7  C   UNL     1       1.000   1.290   0.369  0.00  0.00    +0.072 C 
ATOM      8  C   UNL     1       0.337   0.383  -0.659  0.00  0.00    +0.121 C 
ATOM      9  C   UNL     1       4.669  -0.034  -0.012  0.00  0.00    +0.059 C 
ATOM     10  C   UNL     1       2.501  -1.796  -1.304  0.00  0.00    +0.003 C 
ATOM     11  C   UNL     1       3.406  -0.189  -2.962  0.00  0.00    +0.003 C 
ATOM     12  C   UNL     1       2.979   1.920   1.713  0.00  0.00    +0.046 C 
ATOM     13  C   UNL     1       4.522  -0.975   1.141  0.00  0.00    +0.009 C 
ATOM     14  C   UNL     1       3.375  -1.109   1.825  0.00  0.00    +0.112 C 
ATOM     15  C   UNL     1       3.210  -2.088   2.943  0.00  0.00    +0.071 C 
BRANCH   3  16
ATOM     16  O   UNL     1       3.660   1.851  -1.049  0.00  0.00    -0.383 OA
ATOM     17  H   UNL     1       2.854   2.287  -1.368  0.00  0.00    +0.210 HD
ENDBRANCH   3  16
ENDBRANCH   1   8
BRANCH   1  19
ATOM     18  O   UNL     1      -2.531  -0.719  -0.744  0.00  0.00    -0.326 OA
ATOM     19  C   UNL     1      -1.972   0.472  -0.196  0.00  0.00    +0.266 C 
ATOM     20  C   UNL     1      -3.031   1.571  -0.109  0.00  0.00    +0.196 C 
ATOM     21  C   UNL     1      -4.267   1.093   0.653  0.00  0.00    +0.172 C 
ATOM     22  C   UNL     1      -3.578  -1.256   0.067  0.00  0.00    +0.176 C 
ATOM     23  C   UNL     1      -4.742  -0.266   0.141  0.00  0.00    +0.169 C 
BRANCH  20  24
ATOM     24  O   UNL     1      -2.460   2.691   0.568  0.00  0.00    -0.378 OA
ATOM     25  H   UNL     1      -1.676   2.995   0.085  0.00  0.00    +0.211 HD
ENDBRANCH  20  24
BRANCH  21  26
ATOM     26  O   UNL     1      -5.330   2.030   0.471  0.00  0.00    -0.379 OA
ATOM     27  H   UNL     1      -5.050   2.902   0.791  0.00  0.00    +0.211 HD
ENDBRANCH  21  26
BRANCH  23  28
ATOM     28  O   UNL     1      -5.741  -0.778   1.019  0.00  0.00    -0.379 OA
ATOM     29  H   UNL     1      -6.481  -0.153   1.067  0.00  0.00    +0.211 HD
ENDBRANCH  23  28
BRANCH  22  30
ATOM     30  C   UNL     1      -4.003  -2.584  -0.551  0.00  0.00    +0.169 C 
BRANCH  30  31
ATOM     31  O   UNL     1      -2.877  -3.442  -0.597  0.00  0.00    -0.379 OA
ATOM     32  H   UNL     1      -3.134  -4.291  -0.989  0.00  0.00    +0.211 HD
ENDBRANCH  30  31
ENDBRANCH  22  30
ENDBRANCH   1  19
TORSDOF 8
