REMARK  Name = 102137059
REMARK  9 active torsions:
REMARK  status: ('A' for Active; 'I' for Inactive)
REMARK    1  A    between atoms: C_6  and  O_18
REMARK    2  A    between atoms: C_8  and  O_34
REMARK    3  A    between atoms: O_18  and  C_20
REMARK    4  A    between atoms: C_21  and  O_25
REMARK    5  A    between atoms: C_22  and  O_27
REMARK    6  A    between atoms: C_23  and  C_31
REMARK    7  A    between atoms: C_24  and  O_29
REMARK    8  A    between atoms: C_31  and  O_32
REMARK    9  A    between atoms: O_34  and  C_36
REMARK                            x       y       z     vdW  Elec       q    Type
REMARK                         _______ _______ _______ _____ _____    ______ ____
ROOT
ATOM      1  O   UNL     1      -4.182  -1.050   0.734  0.00  0.00    -0.452 OA
ATOM      2  O   UNL     1      -5.938   0.146   1.595  0.00  0.00    -0.250 OA
ATOM      3  C   UNL     1      -0.934  -1.479  -1.225  0.00  0.00    +0.029 C 
ATOM      4  C   UNL     1      -1.964  -1.778  -0.097  0.00  0.00    +0.043 C 
ATOM      5  C   UNL     1      -3.081  -0.726  -0.125  0.00  0.00    +0.173 C 
ATOM      6  C   UNL     1       0.214  -0.505  -0.868  0.00  0.00    +0.099 C 
ATOM      7  C   UNL     1      -2.663   0.640   0.402  0.00  0.00    +0.091 C 
ATOM      8  C   UNL     1      -1.623   1.351  -0.472  0.00  0.00    +0.175 C 
ATOM      9  C   UNL     1      -0.215   0.810  -0.180  0.00  0.00    +0.071 C 
ATOM     10  C   UNL     1      -0.465  -2.861  -1.725  0.00  0.00    +0.002 C 
ATOM     11  C   UNL     1      -4.036   1.297   0.574  0.00  0.00    +0.106 C 
ATOM     12  C   UNL     1      -2.411  -3.181  -0.455  0.00  0.00    +0.004 C 
ATOM     13  C   UNL     1      -1.591  -3.754  -1.343  0.00  0.00    +0.000 C 
ATOM     14  C   UNL     1       1.017  -0.162  -2.139  0.00  0.00    +0.030 C 
ATOM     15  C   UNL     1      -4.852   0.106   1.037  0.00  0.00    +0.317 C 
ATOM     16  C   UNL     1      -4.085   2.409   1.612  0.00  0.00    +0.012 C 
ATOM     17  C   UNL     1      -3.563  -3.866   0.194  0.00  0.00    +0.000 C 
ENDROOT
BRANCH   6  18
ATOM     18  O   UNL     1       1.114  -1.138   0.054  0.00  0.00    -0.333 OA
BRANCH  18  20
ATOM     19  O   UNL     1       3.279  -0.594  -0.625  0.00  0.00    -0.326 OA
ATOM     20  C   UNL     1       2.246  -0.310   0.316  0.00  0.00    +0.266 C 
ATOM     21  C   UNL     1       2.723  -0.601   1.739  0.00  0.00    +0.196 C 
ATOM     22  C   UNL     1       4.026   0.135   2.051  0.00  0.00    +0.172 C 
ATOM     23  C   UNL     1       4.436   0.221  -0.432  0.00  0.00    +0.176 C 
ATOM     24  C   UNL     1       5.054  -0.066   0.938  0.00  0.00    +0.169 C 
BRANCH  21  25
ATOM     25  O   UNL     1       1.708  -0.173   2.647  0.00  0.00    -0.378 OA
ATOM     26  H   UNL     1       0.880  -0.639   2.450  0.00  0.00    +0.211 HD
ENDBRANCH  21  25
BRANCH  22  27
ATOM     27  O   UNL     1       4.582  -0.375   3.264  0.00  0.00    -0.379 OA
ATOM     28  H   UNL     1       3.944  -0.258   3.986  0.00  0.00    +0.211 HD
ENDBRANCH  22  27
BRANCH  24  29
ATOM     29  O   UNL     1       6.156   0.813   1.151  0.00  0.00    -0.379 OA
ATOM     30  H   UNL     1       6.550   0.633   2.019  0.00  0.00    +0.211 HD
ENDBRANCH  24  29
BRANCH  23  31
ATOM     31  C   UNL     1       5.409  -0.085  -1.566  0.00  0.00    +0.169 C 
BRANCH  31  32
ATOM     32  O   UNL     1       4.767   0.193  -2.798  0.00  0.00    -0.379 OA
ATOM     33  H   UNL     1       5.375   0.002  -3.529  0.00  0.00    +0.211 HD
ENDBRANCH  31  32
ENDBRANCH  23  31
ENDBRANCH  18  20
ENDBRANCH   6  18
BRANCH   8  34
ATOM     34  O   UNL     1      -1.617   2.740  -0.143  0.00  0.00    -0.452 OA
BRANCH  34  36
ATOM     35  O   UNL     1      -0.953   3.259  -2.294  0.00  0.00    -0.250 OA
ATOM     36  C   UNL     1      -1.260   3.583  -1.155  0.00  0.00    +0.317 C 
ATOM     37  C   UNL     1      -1.297   5.000  -0.667  0.00  0.00    +0.121 C 
ENDBRANCH  34  36
ENDBRANCH   8  34
TORSDOF 9
