REMARK  Name = 1021
REMARK  9 active torsions:
REMARK  status: ('A' for Active; 'I' for Inactive)
REMARK    1  A    between atoms: C_2  and  C_13
REMARK    2  A    between atoms: C_3  and  C_7
REMARK    3  A    between atoms: C_4  and  C_18
REMARK    4  A    between atoms: C_7  and  C_8
REMARK    5  A    between atoms: C_8  and  C_10
REMARK    6  A    between atoms: C_10  and  O_11
REMARK    7  A    between atoms: C_13  and  C_15
REMARK    8  A    between atoms: C_15  and  O_16
REMARK    9  A    between atoms: C_18  and  N_19
REMARK                            x       y       z     vdW  Elec       q    Type
REMARK                         _______ _______ _______ _____ _____    ______ ____
ROOT
ATOM      1  N   UNL     1       1.595   2.063  -0.857  0.00  0.00    -0.317 N 
ATOM      2  C   UNL     1       0.944   0.143   0.050  0.00  0.00    -0.007 C 
ATOM      3  C   UNL     1      -0.138   0.738  -0.612  0.00  0.00    -0.010 C 
ATOM      4  C   UNL     1       2.018   0.990  -0.117  0.00  0.00    -0.001 C 
ATOM      5  C   UNL     1       0.268   1.914  -1.165  0.00  0.00    +0.057 C 
ATOM      6  H   UNL     1       2.159   2.824  -1.126  0.00  0.00    +0.152 HD
ENDROOT
BRANCH   3   7
ATOM      7  C   UNL     1      -1.530   0.178  -0.703  0.00  0.00    +0.039 C 
BRANCH   7   8
ATOM      8  C   UNL     1      -2.449   0.625   0.438  0.00  0.00    +0.114 C 
BRANCH   8  10
ATOM      9  O   UNL     1      -4.273  -0.649  -0.558  0.00  0.00    -0.250 OA
ATOM     10  C   UNL     1      -3.865   0.104   0.314  0.00  0.00    +0.314 C 
BRANCH  10  11
ATOM     11  O   UNL     1      -4.665   0.604   1.292  0.00  0.00    -0.480 OA
ATOM     12  H   UNL     1      -4.308   1.179   1.941  0.00  0.00    +0.295 HD
ENDBRANCH  10  11
ENDBRANCH   8  10
ENDBRANCH   7   8
ENDBRANCH   3   7
BRANCH   2  13
ATOM     13  C   UNL     1       0.949  -1.138   0.787  0.00  0.00    +0.136 C 
BRANCH  13  15
ATOM     14  O   UNL     1       1.463  -2.198  -1.327  0.00  0.00    -0.250 OA
ATOM     15  C   UNL     1       1.300  -2.299  -0.117  0.00  0.00    +0.318 C 
BRANCH  15  16
ATOM     16  O   UNL     1       1.374  -3.479   0.547  0.00  0.00    -0.480 OA
ATOM     17  H   UNL     1       1.242  -3.504   1.474  0.00  0.00    +0.295 HD
ENDBRANCH  15  16
ENDBRANCH  13  15
ENDBRANCH   2  13
BRANCH   4  18
ATOM     18  C   UNL     1       3.413   0.891   0.354  0.00  0.00    -0.044 C 
BRANCH  18  19
ATOM     19  N   UNL     1       3.596   1.512   1.675  0.00  0.00    +0.384 N 
ATOM     20  H   UNL     1       4.571   1.421   1.961  0.00  0.00    -0.089 HD
ATOM     21  H   UNL     1       2.997   1.045   2.356  0.00  0.00    -0.089 HD
ATOM     22  H   UNL     1       3.347   2.500   1.624  0.00  0.00    -0.089 HD
ENDBRANCH  18  19
ENDBRANCH   4  18
TORSDOF 9
