REMARK  Name = 102106217
REMARK  7 active torsions:
REMARK  status: ('A' for Active; 'I' for Inactive)
REMARK    1  A    between atoms: C_3  and  C_16
REMARK    2  A    between atoms: C_4  and  C_22
REMARK    3  A    between atoms: C_5  and  O_10
REMARK    4  A    between atoms: C_6  and  O_12
REMARK    5  A    between atoms: C_7  and  O_14
REMARK    6  A    between atoms: C_16  and  N_18
REMARK    7  A    between atoms: C_22  and  O_23
REMARK                            x       y       z     vdW  Elec       q    Type
REMARK                         _______ _______ _______ _____ _____    ______ ____
ROOT
ATOM      1  N   UNL     1      -0.949  -0.068   0.843  0.00  0.00    +0.399 N 
ATOM      2  C   UNL     1      -1.849   1.090   0.535  0.00  0.00    -0.000 C 
ATOM      3  C   UNL     1       0.400   0.257   0.351  0.00  0.00    -0.008 C 
ATOM      4  C   UNL     1      -1.597  -1.281   0.310  0.00  0.00    -0.025 C 
ATOM      5  C   UNL     1      -0.963   2.128  -0.164  0.00  0.00    +0.119 C 
ATOM      6  C   UNL     1      -3.017   0.535  -0.277  0.00  0.00    +0.092 C 
ATOM      7  C   UNL     1       0.415   1.785   0.374  0.00  0.00    +0.118 C 
ATOM      8  C   UNL     1      -2.492  -0.781  -0.823  0.00  0.00    +0.009 C 
ATOM      9  H   UNL     1      -0.813  -0.257   1.836  0.00  0.00    -0.079 HD
ENDROOT
BRANCH   5  10
ATOM     10  O   UNL     1      -0.969   1.982  -1.580  0.00  0.00    -0.384 OA
ATOM     11  H   UNL     1      -1.849   2.201  -1.924  0.00  0.00    +0.210 HD
ENDBRANCH   5  10
BRANCH   6  12
ATOM     12  O   UNL     1      -4.108   0.281   0.608  0.00  0.00    -0.387 OA
ATOM     13  H   UNL     1      -4.443   1.121   0.958  0.00  0.00    +0.210 HD
ENDBRANCH   6  12
BRANCH   7  14
ATOM     14  O   UNL     1       1.455   2.313  -0.426  0.00  0.00    -0.384 OA
ATOM     15  H   UNL     1       2.312   2.069  -0.045  0.00  0.00    +0.210 HD
ENDBRANCH   7  14
BRANCH   3  16
ATOM     16  C   UNL     1       1.498  -0.307   1.248  0.00  0.00    +0.071 C 
BRANCH  16  18
ATOM     17  O   UNL     1       3.252  -1.626  -0.653  0.00  0.00    -0.275 OA
ATOM     18  N   UNL     1       2.791   0.126   0.812  0.00  0.00    -0.306 N 
ATOM     19  C   UNL     1       3.568  -0.571  -0.109  0.00  0.00    +0.223 C 
ATOM     20  C   UNL     1       4.872   0.119  -0.409  0.00  0.00    +0.095 C 
ATOM     21  H   UNL     1       3.150   0.964   1.183  0.00  0.00    +0.149 HD
ENDBRANCH  16  18
ENDBRANCH   3  16
BRANCH   4  22
ATOM     22  C   UNL     1      -0.729  -2.459  -0.120  0.00  0.00    +0.117 C 
BRANCH  22  23
ATOM     23  O   UNL     1      -1.575  -3.522  -0.518  0.00  0.00    -0.384 OA
ATOM     24  H   UNL     1      -1.035  -4.279  -0.795  0.00  0.00    +0.210 HD
ENDBRANCH  22  23
ENDBRANCH   4  22
TORSDOF 7
