REMARK  Name = 102109595
REMARK  12 active torsions:
REMARK  status: ('A' for Active; 'I' for Inactive)
REMARK    1  A    between atoms: C_4  and  C_13
REMARK    2  A    between atoms: C_4  and  C_26
REMARK    3  A    between atoms: C_5  and  C_29
REMARK    4  A    between atoms: C_10  and  O_23
REMARK    5  A    between atoms: C_16  and  C_17
REMARK    6  A    between atoms: C_17  and  C_18
REMARK    7  A    between atoms: C_18  and  C_19
REMARK    8  A    between atoms: C_19  and  C_20
REMARK    9  A    between atoms: C_20  and  C_21
REMARK   10  A    between atoms: C_26  and  O_27
REMARK   11  A    between atoms: C_29  and  C_32
REMARK   12  A    between atoms: C_29  and  O_37
REMARK                            x       y       z     vdW  Elec       q    Type
REMARK                         _______ _______ _______ _____ _____    ______ ____
ROOT
ATOM      1  O   UNL     1      -4.221   1.980   0.649  0.00  0.00    -0.424 OA
ATOM      2  O   UNL     1      -3.358   1.940  -1.465  0.00  0.00    -0.250 OA
ATOM      3  C   UNL     1      -2.326   0.589   0.311  0.00  0.00    +0.109 C 
ATOM      4  C   UNL     1      -1.917  -0.591  -0.600  0.00  0.00    +0.124 C 
ATOM      5  C   UNL     1      -0.049   0.971  -0.565  0.00  0.00    +0.032 C 
ATOM      6  C   UNL     1      -1.014   1.360   0.569  0.00  0.00    +0.014 C 
ATOM      7  C   UNL     1      -0.834   0.035  -1.492  0.00  0.00    +0.018 C 
ATOM      8  C   UNL     1      -3.066   0.198   1.591  0.00  0.00    +0.088 C 
ATOM      9  C   UNL     1      -3.336   1.555  -0.305  0.00  0.00    +0.319 C 
ATOM     10  C   UNL     1      -3.880   1.428   1.922  0.00  0.00    +0.288 C 
ENDROOT
BRANCH   4  13
ATOM     11  O   UNL     1      -0.858  -3.993   0.543  0.00  0.00    -0.445 OA
ATOM     12  O   UNL     1      -1.858  -3.486  -1.465  0.00  0.00    -0.245 OA
ATOM     13  C   UNL     1      -1.382  -1.782   0.145  0.00  0.00    +0.063 C 
ATOM     14  C   UNL     1      -0.813  -1.851   1.346  0.00  0.00    +0.019 C 
ATOM     15  C   UNL     1      -1.411  -3.153  -0.381  0.00  0.00    +0.338 C 
ATOM     16  C   UNL     1      -0.439  -3.240   1.689  0.00  0.00    +0.191 C 
BRANCH  16  17
ATOM     17  C   UNL     1       1.056  -3.423   1.892  0.00  0.00    +0.048 C 
BRANCH  17  18
ATOM     18  C   UNL     1       1.891  -3.059   0.662  0.00  0.00    +0.004 C 
BRANCH  18  19
ATOM     19  C   UNL     1       3.396  -3.221   0.882  0.00  0.00    +0.000 C 
BRANCH  19  20
ATOM     20  C   UNL     1       4.182  -2.868  -0.383  0.00  0.00    +0.000 C 
BRANCH  20  21
ATOM     21  C   UNL     1       5.684  -3.066  -0.178  0.00  0.00    +0.000 C 
ATOM     22  C   UNL     1       6.466  -2.748  -1.442  0.00  0.00    +0.000 C 
ENDBRANCH  20  21
ENDBRANCH  19  20
ENDBRANCH  18  19
ENDBRANCH  17  18
ENDBRANCH  16  17
ENDBRANCH   4  13
BRANCH  10  23
ATOM     23  O   UNL     1      -3.112   2.334   2.701  0.00  0.00    -0.350 OA
ATOM     24  H   UNL     1      -3.645   3.117   2.906  0.00  0.00    +0.214 HD
ENDBRANCH  10  23
BRANCH   4  26
ATOM     25  O   UNL     1      -3.081  -1.059  -2.672  0.00  0.00    -0.250 OA
ATOM     26  C   UNL     1      -3.037  -1.121  -1.452  0.00  0.00    +0.317 C 
BRANCH  26  27
ATOM     27  O   UNL     1      -4.002  -1.681  -0.681  0.00  0.00    -0.480 OA
ATOM     28  H   UNL     1      -3.907  -1.696   0.251  0.00  0.00    +0.295 HD
ENDBRANCH  26  27
ENDBRANCH   4  26
BRANCH   5  29
ATOM     29  C   UNL     1       0.517   2.176  -1.303  0.00  0.00    +0.151 C 
BRANCH  29  32
ATOM     30  O   UNL     1       2.373   2.277   0.214  0.00  0.00    -0.446 OA
ATOM     31  O   UNL     1       4.088   2.259   1.697  0.00  0.00    -0.245 OA
ATOM     32  C   UNL     1       1.326   3.076  -0.380  0.00  0.00    +0.200 C 
ATOM     33  C   UNL     1       1.920   4.258  -1.134  0.00  0.00    +0.072 C 
ATOM     34  C   UNL     1       2.881   4.966  -0.241  0.00  0.00    -0.016 C 
ATOM     35  C   UNL     1       3.350   2.881   0.942  0.00  0.00    +0.341 C 
ATOM     36  C   UNL     1       3.517   4.334   0.750  0.00  0.00    +0.077 C 
ENDBRANCH  29  32
BRANCH  29  37
ATOM     37  O   UNL     1       1.349   1.725  -2.367  0.00  0.00    -0.381 OA
ATOM     38  H   UNL     1       0.837   1.151  -2.957  0.00  0.00    +0.210 HD
ENDBRANCH  29  37
ENDBRANCH   5  29
TORSDOF 12
