REMARK  Name = 102120240
REMARK  11 active torsions:
REMARK  status: ('A' for Active; 'I' for Inactive)
REMARK    1  A    between atoms: C_1  and  C_3
REMARK    2  A    between atoms: C_1  and  O_16
REMARK    3  A    between atoms: C_1  and  C_18
REMARK    4  A    between atoms: C_4  and  O_9
REMARK    5  A    between atoms: CA_5  and  C_13
REMARK    6  A    between atoms: C_6  and  O_11
REMARK    7  A    between atoms: C_13  and  O_14
REMARK    8  A    between atoms: C_18  and  C_19
REMARK    9  A    between atoms: C_19  and  C_20
REMARK   10  A    between atoms: C_20  and  C_21
REMARK   11  A    between atoms: C_21  and  C_25
REMARK                            x       y       z     vdW  Elec       q    Type
REMARK                         _______ _______ _______ _____ _____    ______ ____
ROOT
ATOM      1  C   UNL     1      -2.553   1.297  -0.006  0.00  0.00    +0.094 C 
ENDROOT
BRANCH   1   3
ATOM      2  N   UNL     1      -3.611  -0.916  -0.370  0.00  0.00    +0.393 N 
ATOM      3  C   UNL     1      -3.656   0.514  -0.713  0.00  0.00    -0.004 C 
ATOM      4  C   UNL     1      -5.052   1.003  -0.313  0.00  0.00    +0.118 C 
ATOM      5  CA  UNL     1      -4.764  -1.204   0.485  0.00  0.00    -0.002 C 
ATOM      6  C   UNL     1      -5.835  -0.279  -0.068  0.00  0.00    +0.118 C 
ATOM      7  H1  UNL     1      -2.747  -1.126   0.130  0.00  0.00    -0.084 HD
ATOM      8  H2  UNL     1      -3.639  -1.487  -1.214  0.00  0.00    -0.084 HD
BRANCH   4   9
ATOM      9  O   UNL     1      -5.638   1.749  -1.368  0.00  0.00    -0.384 OA
ATOM     10  H   UNL     1      -5.128   2.561  -1.512  0.00  0.00    +0.210 HD
ENDBRANCH   4   9
BRANCH   6  11
ATOM     11  O   UNL     1      -6.861  -0.071   0.887  0.00  0.00    -0.384 OA
ATOM     12  H   UNL     1      -7.533   0.522   0.516  0.00  0.00    +0.210 HD
ENDBRANCH   6  11
BRANCH   5  13
ATOM     13  C   UNL     1      -5.152  -2.673   0.417  0.00  0.00    +0.118 C 
BRANCH  13  14
ATOM     14  O   UNL     1      -6.328  -2.870   1.184  0.00  0.00    -0.384 OA
ATOM     15  H   UNL     1      -6.585  -3.805   1.147  0.00  0.00    +0.210 HD
ENDBRANCH  13  14
ENDBRANCH   5  13
ENDBRANCH   1   3
BRANCH   1  16
ATOM     16  O   UNL     1      -2.698   2.679  -0.318  0.00  0.00    -0.386 OA
ATOM     17  H   UNL     1      -3.576   2.984  -0.037  0.00  0.00    +0.210 HD
ENDBRANCH   1  16
BRANCH   1  18
ATOM     18  C   UNL     1      -1.166   0.824  -0.451  0.00  0.00    +0.027 C 
BRANCH  18  19
ATOM     19  C   UNL     1      -0.041   1.587   0.257  0.00  0.00    +0.002 C 
BRANCH  19  20
ATOM     20  C   UNL     1       1.335   1.080  -0.180  0.00  0.00    +0.003 C 
BRANCH  20  21
ATOM     21  C   UNL     1       2.454   1.813   0.556  0.00  0.00    +0.030 C 
BRANCH  21  25
ATOM     22  O   UNL     1       3.840  -0.118   0.407  0.00  0.00    -0.337 OA
ATOM     23  O   UNL     1       4.983  -2.154   0.580  0.00  0.00    -0.334 OA
ATOM     24  C   UNL     1       5.075  -0.786   0.116  0.00  0.00    +0.187 C 
ATOM     25  C   UNL     1       3.825   1.288   0.147  0.00  0.00    +0.118 C 
ATOM     26  C   UNL     1       6.232  -0.122   0.866  0.00  0.00    +0.056 C 
ATOM     27  C   UNL     1       4.934   2.003   0.919  0.00  0.00    +0.030 C 
ATOM     28  C   UNL     1       5.308  -0.918  -1.390  0.00  0.00    +0.059 C 
ATOM     29  C   UNL     1       6.288   1.377   0.614  0.00  0.00    +0.007 C 
ATOM     30  C   UNL     1       4.438  -2.104  -1.730  0.00  0.00    +0.037 C 
ATOM     31  C   UNL     1       4.644  -3.000  -0.528  0.00  0.00    +0.145 C 
ENDBRANCH  21  25
ENDBRANCH  20  21
ENDBRANCH  19  20
ENDBRANCH  18  19
ENDBRANCH   1  18
TORSDOF 11
