REMARK  Name = 102117103
REMARK  7 active torsions:
REMARK  status: ('A' for Active; 'I' for Inactive)
REMARK    1  A    between atoms: C_10  and  O_20
REMARK    2  A    between atoms: C_13  and  O_18
REMARK    3  A    between atoms: C_13  and  C_27
REMARK    4  A    between atoms: O_20  and  C_22
REMARK    5  A    between atoms: C_22  and  C_23
REMARK    6  A    between atoms: C_23  and  C_25
REMARK    7  A    between atoms: C_27  and  O_28
REMARK                            x       y       z     vdW  Elec       q    Type
REMARK                         _______ _______ _______ _____ _____    ______ ____
ROOT
ATOM      1  O   UNL     1       3.544  -1.601  -0.770  0.00  0.00    -0.451 OA
ATOM      2  O   UNL     1       0.038   3.450   0.125  0.00  0.00    -0.296 OA
ATOM      3  O   UNL     1       5.615  -0.677  -0.461  0.00  0.00    -0.247 OA
ATOM      4  C   UNL     1       0.366   1.285  -0.964  0.00  0.00    +0.055 C 
ATOM      5  C   UNL     1      -0.482   0.049  -0.557  0.00  0.00    +0.047 C 
ATOM      6  C   UNL     1       2.256   0.036   0.360  0.00  0.00    +0.078 C 
ATOM      7  C   UNL     1       1.862   1.217  -0.555  0.00  0.00    +0.014 C 
ATOM      8  C   UNL     1      -0.205  -1.227  -1.375  0.00  0.00    +0.007 C 
ATOM      9  C   UNL     1       2.192  -1.339  -0.327  0.00  0.00    +0.172 C 
ATOM     10  C   UNL     1      -1.935   0.562  -0.577  0.00  0.00    +0.176 C 
ATOM     11  C   UNL     1       1.301  -1.495  -1.563  0.00  0.00    +0.044 C 
ATOM     12  C   UNL     1      -0.412   2.358  -0.203  0.00  0.00    +0.154 C 
ATOM     13  C   UNL     1       3.711   0.082   0.850  0.00  0.00    +0.208 C 
ATOM     14  C   UNL     1      -1.842   1.950   0.060  0.00  0.00    +0.108 C 
ATOM     15  C   UNL     1       0.248   1.684  -2.450  0.00  0.00    +0.007 C 
ATOM     16  C   UNL     1      -0.871  -2.462  -0.753  0.00  0.00    +0.000 C 
ATOM     17  C   UNL     1       4.427  -0.740  -0.188  0.00  0.00    +0.344 C 
ENDROOT
BRANCH  13  18
ATOM     18  O   UNL     1       4.240   1.388   0.893  0.00  0.00    -0.375 OA
ATOM     19  H   UNL     1       4.130   1.810   0.027  0.00  0.00    +0.211 HD
ENDBRANCH  13  18
BRANCH  10  20
ATOM     20  O   UNL     1      -2.780  -0.264   0.207  0.00  0.00    -0.452 OA
BRANCH  20  22
ATOM     21  O   UNL     1      -4.597   0.361  -1.070  0.00  0.00    -0.250 OA
ATOM     22  C   UNL     1      -4.105  -0.275  -0.147  0.00  0.00    +0.316 C 
BRANCH  22  23
ATOM     23  C   UNL     1      -4.888  -1.175   0.794  0.00  0.00    +0.099 C 
ATOM     24  C   UNL     1      -5.522  -2.294  -0.028  0.00  0.00    +0.012 C 
BRANCH  23  25
ATOM     25  C   UNL     1      -5.958  -0.388   1.564  0.00  0.00    +0.011 C 
ATOM     26  C   UNL     1      -5.364   0.734   2.408  0.00  0.00    +0.001 C 
ENDBRANCH  23  25
ENDBRANCH  22  23
ENDBRANCH  20  22
ENDBRANCH  10  20
BRANCH  13  27
ATOM     27  C   UNL     1       3.889  -0.576   2.220  0.00  0.00    +0.175 C 
BRANCH  27  28
ATOM     28  O   UNL     1       5.273  -0.643   2.506  0.00  0.00    -0.379 OA
ATOM     29  H   UNL     1       5.404  -1.058   3.373  0.00  0.00    +0.211 HD
ENDBRANCH  27  28
ENDBRANCH  13  27
TORSDOF 7
