REMARK  Name = 102155282
REMARK  10 active torsions:
REMARK  status: ('A' for Active; 'I' for Inactive)
REMARK    1  A    between atoms: C_3  and  C_13
REMARK    2  A    between atoms: C_4  and  C_15
REMARK    3  A    between atoms: C_7  and  O_19
REMARK    4  A    between atoms: C_8  and  O_28
REMARK    5  A    between atoms: C_15  and  C_18
REMARK    6  A    between atoms: O_19  and  C_21
REMARK    7  A    between atoms: C_21  and  C_22
REMARK    8  A    between atoms: C_22  and  O_24
REMARK    9  A    between atoms: C_22  and  C_26
REMARK   10  A    between atoms: O_28  and  C_30
REMARK                            x       y       z     vdW  Elec       q    Type
REMARK                         _______ _______ _______ _____ _____    ______ ____
ROOT
ATOM      1  O   UNL     1      -2.790   0.769   1.108  0.00  0.00    -0.445 OA
ATOM      2  O   UNL     1      -2.261   1.533   3.159  0.00  0.00    -0.245 OA
ATOM      3  C   UNL     1      -2.113  -1.204  -0.278  0.00  0.00    +0.066 C 
ATOM      4  C   UNL     1      -0.575  -1.438  -0.516  0.00  0.00    +0.073 C 
ATOM      5  C   UNL     1      -2.455   0.329  -0.246  0.00  0.00    +0.213 C 
ATOM      6  C   UNL     1      -0.137   1.024   0.153  0.00  0.00    +0.113 C 
ATOM      7  C   UNL     1       0.312  -0.455   0.283  0.00  0.00    +0.181 C 
ATOM      8  C   UNL     1      -1.320   1.178  -0.801  0.00  0.00    +0.216 C 
ATOM      9  C   UNL     1      -2.878  -1.835  -1.468  0.00  0.00    +0.009 C 
ATOM     10  C   UNL     1      -0.545   1.540   1.509  0.00  0.00    +0.060 C 
ATOM     11  C   UNL     1      -1.915   1.283   2.010  0.00  0.00    +0.337 C 
ATOM     12  C   UNL     1       0.278   2.267   2.281  0.00  0.00    +0.002 C 
ENDROOT
BRANCH   3  13
ATOM     13  C   UNL     1      -2.605  -1.889   0.980  0.00  0.00    -0.023 C 
ATOM     14  C   UNL     1      -3.558  -2.827   0.997  0.00  0.00    -0.005 C 
ENDBRANCH   3  13
BRANCH   4  15
ATOM     15  C   UNL     1      -0.148  -2.866  -0.286  0.00  0.00    +0.024 C 
ATOM     16  C   UNL     1       0.353  -3.328   0.867  0.00  0.00    -0.001 C 
BRANCH  15  18
ATOM     17  O   UNL     1      -0.732  -3.525  -2.499  0.00  0.00    -0.283 OA
ATOM     18  C   UNL     1      -0.286  -3.835  -1.401  0.00  0.00    +0.230 C 
ENDBRANCH  15  18
ENDBRANCH   4  15
BRANCH   7  19
ATOM     19  O   UNL     1       1.657  -0.519  -0.211  0.00  0.00    -0.450 OA
BRANCH  19  21
ATOM     20  O   UNL     1       2.449   0.045   1.877  0.00  0.00    -0.248 OA
ATOM     21  C   UNL     1       2.636  -0.244   0.701  0.00  0.00    +0.341 C 
BRANCH  21  22
ATOM     22  C   UNL     1       4.013  -0.345   0.049  0.00  0.00    +0.177 C 
ATOM     23  C   UNL     1       4.228  -1.757  -0.493  0.00  0.00    +0.041 C 
BRANCH  22  24
ATOM     24  O   UNL     1       4.968  -0.143   1.088  0.00  0.00    -0.376 OA
ATOM     25  H   UNL     1       4.860   0.748   1.457  0.00  0.00    +0.211 HD
ENDBRANCH  22  24
BRANCH  22  26
ATOM     26  C   UNL     1       4.178   0.749  -1.021  0.00  0.00    +0.038 C 
ATOM     27  C   UNL     1       4.053   2.171  -0.487  0.00  0.00    +0.003 C 
ENDBRANCH  22  26
ENDBRANCH  21  22
ENDBRANCH  19  21
ENDBRANCH   7  19
BRANCH   8  28
ATOM     28  O   UNL     1      -1.731   2.539  -0.902  0.00  0.00    -0.448 OA
BRANCH  28  30
ATOM     29  O   UNL     1      -0.289   2.855  -2.680  0.00  0.00    -0.250 OA
ATOM     30  C   UNL     1      -1.130   3.264  -1.891  0.00  0.00    +0.318 C 
ATOM     31  C   UNL     1      -1.656   4.668  -1.879  0.00  0.00    +0.121 C 
ENDBRANCH  28  30
ENDBRANCH   8  28
TORSDOF 10
