REMARK  Name = 102179881
REMARK  4 active torsions:
REMARK  status: ('A' for Active; 'I' for Inactive)
REMARK    1  A    between atoms: C_7  and  C_18
REMARK    2  A    between atoms: C_21  and  O_26
REMARK    3  A    between atoms: C_22  and  O_24
REMARK    4  A    between atoms: O_26  and  S_27
REMARK                            x       y       z     vdW  Elec       q    Type
REMARK                         _______ _______ _______ _____ _____    ______ ____
ROOT
ATOM      1  N   UNL     1      -2.380   0.004  -2.548  0.00  0.00    -0.299 NA
ATOM      2  C   UNL     1      -1.689  -0.358  -0.262  0.00  0.00    +0.019 C 
ATOM      3  C   UNL     1      -0.891  -1.586  -0.734  0.00  0.00    +0.011 C 
ATOM      4  C   UNL     1      -2.562  -0.737   0.956  0.00  0.00    +0.019 C 
ATOM      5  C   UNL     1      -0.322  -1.348  -2.149  0.00  0.00    +0.016 C 
ATOM      6  C   UNL     1      -2.546   0.290  -1.308  0.00  0.00    +0.054 C 
ATOM      7  C   UNL     1       0.109  -2.033   0.381  0.00  0.00    +0.044 C 
ATOM      8  C   UNL     1      -3.328   0.514   1.438  0.00  0.00    +0.004 C 
ATOM      9  C   UNL     1      -4.256   1.054   0.330  0.00  0.00    +0.002 C 
ATOM     10  C   UNL     1      -3.486   1.402  -0.949  0.00  0.00    +0.016 C 
ATOM     11  C   UNL     1      -1.740  -1.442   2.028  0.00  0.00    -0.048 C 
ATOM     12  C   UNL     1      -1.464  -1.006  -3.116  0.00  0.00    +0.069 C 
ATOM     13  C   UNL     1      -0.549  -2.010   1.750  0.00  0.00    -0.031 C 
ATOM     14  C   UNL     1       0.413  -2.568  -2.712  0.00  0.00    +0.001 C 
ATOM     15  C   UNL     1      -5.036   2.270   0.829  0.00  0.00    +0.000 C 
ATOM     16  C   UNL     1      -2.329  -1.560   3.405  0.00  0.00    +0.026 C 
ATOM     17  H   UNL     1      -2.924   0.514  -3.191  0.00  0.00    +0.123 HD
ENDROOT
BRANCH   7  18
ATOM     18  C   UNL     1       1.464  -1.330   0.430  0.00  0.00    -0.012 C 
ATOM     19  C   UNL     1       1.527   0.045   0.658  0.00  0.00    +0.036 C 
ATOM     20  C   UNL     1       2.637  -2.061   0.247  0.00  0.00    +0.033 C 
ATOM     21  C   UNL     1       2.764   0.688   0.702  0.00  0.00    +0.178 C 
ATOM     22  C   UNL     1       3.874  -1.418   0.292  0.00  0.00    +0.136 C 
ATOM     23  C   UNL     1       3.937  -0.043   0.519  0.00  0.00    +0.076 C 
BRANCH  22  24
ATOM     24  O   UNL     1       5.019  -2.132   0.114  0.00  0.00    -0.505 OA
ATOM     25  H   UNL     1       4.977  -3.055  -0.039  0.00  0.00    +0.292 HD
ENDBRANCH  22  24
BRANCH  21  26
ATOM     26  O   UNL     1       2.826   2.030   0.924  0.00  0.00    -0.322 OA
BRANCH  26  27
ATOM     27  S   UNL     1       2.082   3.047  -0.131  0.00  0.00    +0.282 S 
ATOM     28  O   UNL     1       2.905   4.447   0.029  0.00  0.00    -0.105 OA
ATOM     29  O   UNL     1       2.289   2.560  -1.482  0.00  0.00    -0.105 OA
ATOM     30  O   UNL     1       0.734   3.279   0.357  0.00  0.00    -0.012 OA
ENDBRANCH  26  27
ENDBRANCH  21  26
ENDBRANCH   7  18
TORSDOF 4
