102120572
  -OEChem-03292013293D

 61 62  0     1  0  0  0  0  0999 V2000
   -1.1420    0.9664   -2.2248 O   0  0  0  0  0  0  0  0  0  0  0  0
   -0.2899   -2.4734   -1.5483 O   0  0  0  0  0  0  0  0  0  0  0  0
    8.6148    0.8811    1.3001 O   0  0  0  0  0  0  0  0  0  0  0  0
    1.9152   -2.2969   -2.0150 O   0  0  0  0  0  0  0  0  0  0  0  0
   -2.2583    3.4248    0.7708 O   0  0  0  0  0  0  0  0  0  0  0  0
    6.9091   -0.3301    0.2781 N   0  0  0  0  0  0  0  0  0  0  0  0
   -0.4390   -0.1337   -0.3034 N   0  0  0  0  0  0  0  0  0  0  0  0
   -8.4926   -1.2771    1.5861 N   0  0  0  0  0  0  0  0  0  0  0  0
   -3.2294    2.0289   -0.8205 N   0  0  0  0  0  0  0  0  0  0  0  0
    5.0652    0.6838    1.5774 C   0  0  0  0  0  0  0  0  0  0  0  0
    5.8886    0.7208    0.2762 C   0  0  2  0  0  0  0  0  0  0  0  0
    4.0083   -0.4240    1.5608 C   0  0  0  0  0  0  0  0  0  0  0  0
   -6.3834   -0.0458    1.6751 C   0  0  0  0  0  0  0  0  0  0  0  0
    3.1133   -0.3068    0.3493 C   0  0  0  0  0  0  0  0  0  0  0  0
   -4.8801   -0.1190    1.3974 C   0  0  0  0  0  0  0  0  0  0  0  0
   -7.0372   -1.4359    1.5730 C   0  0  2  0  0  0  0  0  0  0  0  0
   -4.6007   -0.7515    0.0546 C   0  0  0  0  0  0  0  0  0  0  0  0
    5.0041    0.5795   -0.9354 C   0  0  0  0  0  0  0  0  0  0  0  0
    3.7380    0.1386   -0.8836 C   0  0  0  0  0  0  0  0  0  0  0  0
    1.8057   -0.6005    0.4057 C   0  0  0  0  0  0  0  0  0  0  0  0
   -2.6737    0.7839   -0.3617 C   0  0  1  0  0  0  0  0  0  0  0  0
    0.8795   -0.5016   -0.7674 C   0  0  1  0  0  0  0  0  0  0  0  0
   -6.5730   -2.1771    0.3457 C   0  0  0  0  0  0  0  0  0  0  0  0
   -3.5966   -0.3329   -0.7301 C   0  0  0  0  0  0  0  0  0  0  0  0
   -5.4727   -1.8414   -0.3447 C   0  0  0  0  0  0  0  0  0  0  0  0
   -1.3469    0.5752   -1.0769 C   0  0  0  0  0  0  0  0  0  0  0  0
    8.1832   -0.1507    0.7925 C   0  0  0  0  0  0  0  0  0  0  0  0
    0.9027   -1.8326   -1.5007 C   0  0  0  0  0  0  0  0  0  0  0  0
   -2.9734    3.2501   -0.2124 C   0  0  0  0  0  0  0  0  0  0  0  0
    9.0214   -1.3968    0.6907 C   0  0  0  0  0  0  0  0  0  0  0  0
   -3.6600    4.3945   -0.9084 C   0  0  0  0  0  0  0  0  0  0  0  0
    4.5604    1.6511    1.7076 H   0  0  0  0  0  0  0  0  0  0  0  0
    5.7213    0.5527    2.4463 H   0  0  0  0  0  0  0  0  0  0  0  0
    6.4039    1.6876    0.2276 H   0  0  0  0  0  0  0  0  0  0  0  0
    3.4239   -0.3730    2.4874 H   0  0  0  0  0  0  0  0  0  0  0  0
    4.5025   -1.4037    1.5459 H   0  0  0  0  0  0  0  0  0  0  0  0
   -6.5530    0.3752    2.6742 H   0  0  0  0  0  0  0  0  0  0  0  0
   -6.8447    0.6487    0.9582 H   0  0  0  0  0  0  0  0  0  0  0  0
   -4.3940   -0.7156    2.1801 H   0  0  0  0  0  0  0  0  0  0  0  0
   -4.4898    0.8995    1.4796 H   0  0  0  0  0  0  0  0  0  0  0  0
   -6.7525   -2.0293    2.4508 H   0  0  0  0  0  0  0  0  0  0  0  0
    5.4208    0.8749   -1.8950 H   0  0  0  0  0  0  0  0  0  0  0  0
    3.1989    0.1051   -1.8229 H   0  0  0  0  0  0  0  0  0  0  0  0
   -2.4791    0.8450    0.7145 H   0  0  0  0  0  0  0  0  0  0  0  0
    1.3897   -0.9480    1.3498 H   0  0  0  0  0  0  0  0  0  0  0  0
    1.1666    0.2711   -1.4861 H   0  0  0  0  0  0  0  0  0  0  0  0
   -7.1574   -3.0305    0.0104 H   0  0  0  0  0  0  0  0  0  0  0  0
   -3.4425   -0.8136   -1.6952 H   0  0  0  0  0  0  0  0  0  0  0  0
   -5.2151   -2.4075   -1.2355 H   0  0  0  0  0  0  0  0  0  0  0  0
    6.6486   -1.2460   -0.0776 H   0  0  0  0  0  0  0  0  0  0  0  0
   -0.7390   -0.4758    0.6056 H   0  0  0  0  0  0  0  0  0  0  0  0
   -8.7711   -0.7429    2.4086 H   0  0  0  0  0  0  0  0  0  0  0  0
   -8.9341   -2.1910    1.6831 H   0  0  0  0  0  0  0  0  0  0  0  0
   -3.7940    2.0205   -1.6662 H   0  0  0  0  0  0  0  0  0  0  0  0
    8.9410   -1.8292   -0.3108 H   0  0  0  0  0  0  0  0  0  0  0  0
   10.0697   -1.1517    0.8820 H   0  0  0  0  0  0  0  0  0  0  0  0
    8.6804   -2.1258    1.4309 H   0  0  0  0  0  0  0  0  0  0  0  0
   -4.7050    4.1438   -1.1124 H   0  0  0  0  0  0  0  0  0  0  0  0
   -3.6320    5.2828   -0.2714 H   0  0  0  0  0  0  0  0  0  0  0  0
   -3.1461    4.6085   -1.8495 H   0  0  0  0  0  0  0  0  0  0  0  0
   -0.2297   -3.3251   -2.0312 H   0  0  0  0  0  0  0  0  0  0  0  0
  1 26  2  0  0  0  0
  2 28  1  0  0  0  0
  2 61  1  0  0  0  0
  3 27  2  0  0  0  0
  4 28  2  0  0  0  0
  5 29  2  0  0  0  0
  6 11  1  0  0  0  0
  6 27  1  0  0  0  0
  6 50  1  0  0  0  0
  7 22  1  0  0  0  0
  7 26  1  0  0  0  0
  7 51  1  0  0  0  0
  8 16  1  0  0  0  0
  8 52  1  0  0  0  0
  8 53  1  0  0  0  0
  9 21  1  0  0  0  0
  9 29  1  0  0  0  0
  9 54  1  0  0  0  0
 10 11  1  0  0  0  0
 10 12  1  0  0  0  0
 10 32  1  0  0  0  0
 10 33  1  0  0  0  0
 11 18  1  0  0  0  0
 11 34  1  0  0  0  0
 12 14  1  0  0  0  0
 12 35  1  0  0  0  0
 12 36  1  0  0  0  0
 13 15  1  0  0  0  0
 13 16  1  0  0  0  0
 13 37  1  0  0  0  0
 13 38  1  0  0  0  0
 14 19  1  0  0  0  0
 14 20  2  0  0  0  0
 15 17  1  0  0  0  0
 15 39  1  0  0  0  0
 15 40  1  0  0  0  0
 16 23  1  0  0  0  0
 16 41  1  0  0  0  0
 17 24  2  0  0  0  0
 17 25  1  0  0  0  0
 18 19  2  0  0  0  0
 18 42  1  0  0  0  0
 19 43  1  0  0  0  0
 20 22  1  0  0  0  0
 20 45  1  0  0  0  0
 21 24  1  0  0  0  0
 21 26  1  0  0  0  0
 21 44  1  0  0  0  0
 22 28  1  0  0  0  0
 22 46  1  0  0  0  0
 23 25  2  0  0  0  0
 23 47  1  0  0  0  0
 24 48  1  0  0  0  0
 25 49  1  0  0  0  0
 27 30  1  0  0  0  0
 29 31  1  0  0  0  0
 30 55  1  0  0  0  0
 30 56  1  0  0  0  0
 30 57  1  0  0  0  0
 31 58  1  0  0  0  0
 31 59  1  0  0  0  0
 31 60  1  0  0  0  0
M  END
> <PUBCHEM_COMPOUND_CID>
102120572

> <PUBCHEM_CONFORMER_RMSD>
1

> <PUBCHEM_CONFORMER_DIVERSEORDER>
1
95
42
33
100
34
6
77
38
60
64
103
23
62
20
54
81
65
31
61
88
87
67
49
13
83
68
9
32
44
89
104
5
18
56
76
22
55
50
99
24
46
69
66
25
21
7
98
93
97
96
78
59
43
91
84
52
90
57
51
86
82
73
2
92
102
39
15
71
30
37
11
101
53
63
8
45
14
26
70
74
16
35
105
4
85
12
72
94
29
17
27
40
19
58
10
41
80
36
28
48
3
47
75
79

> <PUBCHEM_MMFF94_PARTIAL_CHARGES>
41
1 -0.57
11 0.44
12 0.14
14 -0.14
15 0.14
16 0.41
17 -0.14
18 -0.29
19 -0.15
2 -0.65
20 -0.29
21 0.5
22 0.5
23 -0.29
24 -0.29
25 -0.15
26 0.57
27 0.57
28 0.66
29 0.57
3 -0.57
30 0.06
31 0.06
4 -0.57
42 0.15
43 0.15
45 0.15
47 0.15
48 0.15
49 0.15
5 -0.57
50 0.37
51 0.37
52 0.36
53 0.36
54 0.37
6 -0.73
61 0.5
7 -0.73
8 -0.99
9 -0.73

> <PUBCHEM_EFFECTIVE_ROTOR_COUNT>
11.2

> <PUBCHEM_PHARMACOPHORE_FEATURES>
13
1 1 acceptor
1 2 acceptor
1 3 acceptor
1 4 acceptor
1 5 acceptor
1 6 donor
1 7 donor
1 8 cation
1 8 donor
1 9 donor
3 2 4 28 anion
6 10 11 12 14 18 19 rings
6 13 15 16 17 23 25 rings

> <PUBCHEM_HEAVY_ATOM_COUNT>
31

> <PUBCHEM_ATOM_DEF_STEREO_COUNT>
4

> <PUBCHEM_ATOM_UDEF_STEREO_COUNT>
0

> <PUBCHEM_BOND_DEF_STEREO_COUNT>
2

> <PUBCHEM_BOND_UDEF_STEREO_COUNT>
0

> <PUBCHEM_ISOTOPIC_ATOM_COUNT>
0

> <PUBCHEM_COMPONENT_COUNT>
1

> <PUBCHEM_CACTVS_TAUTO_COUNT>
18

> <PUBCHEM_CONFORMER_ID>
06163C7C00000001

> <PUBCHEM_MMFF94_ENERGY>
42.7442

> <PUBCHEM_FEATURE_SELFOVERLAP>
66.034

> <PUBCHEM_SHAPE_FINGERPRINT>
10369192 42 17203894075750099140
10674148 151 14779260931043617117
11135609 99 17023192689926633979
11135926 11 15984817109159385124
12107698 1 18260548952189121480
12741549 16 17676208009947325885
13073987 5 18336541617402774874
13540713 4 18126855889267790295
14068700 675 17967818292847276837
14150022 121 18201445753412059161
15183329 4 9151181930512897271
15347590 135 18411422799596572402
18608769 82 18201717383822176934
19377110 9 18187087239037038289
19611394 137 18335703879098439312
20721686 146 14116978837842235819
21130935 74 18115017495391465018
21223535 225 15051729764333578384
21927370 108 17967536770330715365
22224240 67 18131072666747989167
249057 25 17676778612862607460
249057 3 11527946776765554594
2747138 104 18335711575837946155
3009799 131 11097849701053043678
3178227 256 18060138760929935466
4015057 19 13984674676227437989
469060 322 18271261460009169321
5104073 3 18268714904805009482
5385378 56 17775290439559225294
59755656 520 17203321239235838102
613672 6 12252181819164816048
9953998 17 18202284732212564603

> <PUBCHEM_SHAPE_MULTIPOLES>
588.69
24.71
3.09
1.75
25.94
3.95
-0.13
-9.09
15.03
-6.06
-0.84
-0.39
-0.44
1.65

> <PUBCHEM_SHAPE_SELFOVERLAP>
1208.849

> <PUBCHEM_SHAPE_VOLUME>
335.3

> <PUBCHEM_COORDINATE_TYPE>
2
5
10

$$$$
