102226359
  -OEChem-03292013293D

 56 56  0     1  0  0  0  0  0999 V2000
    1.1761   -0.6010    0.1067 S   0  0  0  0  0  0  0  0  0  0  0  0
   -3.1294   -1.2127    0.9583 O   0  0  0  0  0  0  0  0  0  0  0  0
   -3.2509   -2.2316   -1.1686 O   0  0  0  0  0  0  0  0  0  0  0  0
   -2.0995    0.2072   -2.0861 O   0  0  0  0  0  0  0  0  0  0  0  0
    5.0949   -1.8816   -1.6058 O   0  0  0  0  0  0  0  0  0  0  0  0
   -2.5352    2.8847    0.9149 O   0  0  0  0  0  0  0  0  0  0  0  0
   -0.4419    3.5254    1.5053 O   0  0  0  0  0  0  0  0  0  0  0  0
   -1.7475    0.4438    0.2203 N   0  0  0  0  0  0  0  0  0  0  0  0
   -3.3993   -1.0291   -0.4381 C   0  0  1  0  0  0  0  0  0  0  0  0
   -4.7913   -0.4348   -0.6131 C   0  0  0  0  0  0  0  0  0  0  0  0
   -0.7144    1.4542    0.2744 C   0  0  2  0  0  0  0  0  0  0  0  0
   -2.3444   -0.0577   -0.9194 C   0  0  0  0  0  0  0  0  0  0  0  0
   -2.3061   -0.1342    1.4010 C   0  0  0  0  0  0  0  0  0  0  0  0
    2.6619   -0.8501    1.1562 C   0  0  2  0  0  0  0  0  0  0  0  0
    3.6676   -1.6941    0.3440 C   0  0  0  0  0  0  0  0  0  0  0  0
    0.5725    0.9055    0.8956 C   0  0  0  0  0  0  0  0  0  0  0  0
    4.1231   -1.0465   -0.9753 C   0  0  1  0  0  0  0  0  0  0  0  0
    2.2903   -1.4971    2.5016 C   0  0  0  0  0  0  0  0  0  0  0  0
   -5.0542   -0.0856   -2.0791 C   0  0  0  0  0  0  0  0  0  0  0  0
   -5.8629   -1.3964   -0.0964 C   0  0  0  0  0  0  0  0  0  0  0  0
    4.7484    0.3431   -0.7845 C   0  0  0  0  0  0  0  0  0  0  0  0
   -1.1907    2.7256    0.9571 C   0  0  0  0  0  0  0  0  0  0  0  0
    5.2670    0.9655   -2.0802 C   0  0  0  0  0  0  0  0  0  0  0  0
    3.4661   -1.6733    3.4568 C   0  0  0  0  0  0  0  0  0  0  0  0
    5.7997    2.3711   -1.8456 C   0  0  0  0  0  0  0  0  0  0  0  0
   -4.8767    0.4879   -0.0234 H   0  0  0  0  0  0  0  0  0  0  0  0
   -0.4968    1.7544   -0.7596 H   0  0  0  0  0  0  0  0  0  0  0  0
    3.1061    0.1270    1.3700 H   0  0  0  0  0  0  0  0  0  0  0  0
   -1.5325   -0.5321    2.0617 H   0  0  0  0  0  0  0  0  0  0  0  0
   -2.9239    0.5896    1.9386 H   0  0  0  0  0  0  0  0  0  0  0  0
    3.2568   -2.6920    0.1379 H   0  0  0  0  0  0  0  0  0  0  0  0
    4.5662   -1.8794    0.9456 H   0  0  0  0  0  0  0  0  0  0  0  0
    0.4142    0.7222    1.9630 H   0  0  0  0  0  0  0  0  0  0  0  0
    1.3563    1.6684    0.8201 H   0  0  0  0  0  0  0  0  0  0  0  0
    3.2907   -0.9698   -1.6822 H   0  0  0  0  0  0  0  0  0  0  0  0
    1.8316   -2.4797    2.3327 H   0  0  0  0  0  0  0  0  0  0  0  0
    1.5411   -0.8862    3.0177 H   0  0  0  0  0  0  0  0  0  0  0  0
   -5.8689   -2.3356   -0.6597 H   0  0  0  0  0  0  0  0  0  0  0  0
   -5.7082   -1.6342    0.9611 H   0  0  0  0  0  0  0  0  0  0  0  0
   -6.1036    0.1993   -2.2185 H   0  0  0  0  0  0  0  0  0  0  0  0
   -4.4613    0.7723   -2.4084 H   0  0  0  0  0  0  0  0  0  0  0  0
   -4.8549   -0.9290   -2.7481 H   0  0  0  0  0  0  0  0  0  0  0  0
   -6.8584   -0.9481   -0.1880 H   0  0  0  0  0  0  0  0  0  0  0  0
    5.5857    0.2674   -0.0789 H   0  0  0  0  0  0  0  0  0  0  0  0
    4.0155    1.0299   -0.3488 H   0  0  0  0  0  0  0  0  0  0  0  0
   -2.3042   -2.4508   -1.1989 H   0  0  0  0  0  0  0  0  0  0  0  0
    6.0671    0.3491   -2.5052 H   0  0  0  0  0  0  0  0  0  0  0  0
    4.4598    1.0071   -2.8207 H   0  0  0  0  0  0  0  0  0  0  0  0
    3.9931   -0.7263    3.6090 H   0  0  0  0  0  0  0  0  0  0  0  0
    4.1793   -2.4147    3.0858 H   0  0  0  0  0  0  0  0  0  0  0  0
    3.1076   -2.0224    4.4307 H   0  0  0  0  0  0  0  0  0  0  0  0
    4.6856   -2.7525   -1.7456 H   0  0  0  0  0  0  0  0  0  0  0  0
    5.0152    3.0292   -1.4586 H   0  0  0  0  0  0  0  0  0  0  0  0
    6.6267    2.3624   -1.1283 H   0  0  0  0  0  0  0  0  0  0  0  0
    6.1680    2.7978   -2.7837 H   0  0  0  0  0  0  0  0  0  0  0  0
   -2.8219    3.7062    1.3678 H   0  0  0  0  0  0  0  0  0  0  0  0
  1 14  1  0  0  0  0
  1 16  1  0  0  0  0
  2  9  1  0  0  0  0
  2 13  1  0  0  0  0
  3  9  1  0  0  0  0
  3 46  1  0  0  0  0
  4 12  2  0  0  0  0
  5 17  1  0  0  0  0
  5 52  1  0  0  0  0
  6 22  1  0  0  0  0
  6 56  1  0  0  0  0
  7 22  2  0  0  0  0
  8 11  1  0  0  0  0
  8 12  1  0  0  0  0
  8 13  1  0  0  0  0
  9 10  1  0  0  0  0
  9 12  1  0  0  0  0
 10 19  1  0  0  0  0
 10 20  1  0  0  0  0
 10 26  1  0  0  0  0
 11 16  1  0  0  0  0
 11 22  1  0  0  0  0
 11 27  1  0  0  0  0
 13 29  1  0  0  0  0
 13 30  1  0  0  0  0
 14 15  1  0  0  0  0
 14 18  1  0  0  0  0
 14 28  1  0  0  0  0
 15 17  1  0  0  0  0
 15 31  1  0  0  0  0
 15 32  1  0  0  0  0
 16 33  1  0  0  0  0
 16 34  1  0  0  0  0
 17 21  1  0  0  0  0
 17 35  1  0  0  0  0
 18 24  1  0  0  0  0
 18 36  1  0  0  0  0
 18 37  1  0  0  0  0
 19 40  1  0  0  0  0
 19 41  1  0  0  0  0
 19 42  1  0  0  0  0
 20 38  1  0  0  0  0
 20 39  1  0  0  0  0
 20 43  1  0  0  0  0
 21 23  1  0  0  0  0
 21 44  1  0  0  0  0
 21 45  1  0  0  0  0
 23 25  1  0  0  0  0
 23 47  1  0  0  0  0
 23 48  1  0  0  0  0
 24 49  1  0  0  0  0
 24 50  1  0  0  0  0
 24 51  1  0  0  0  0
 25 53  1  0  0  0  0
 25 54  1  0  0  0  0
 25 55  1  0  0  0  0
M  END
> <PUBCHEM_COMPOUND_CID>
102226359

> <PUBCHEM_CONFORMER_RMSD>
1

> <PUBCHEM_CONFORMER_DIVERSEORDER>
1
148
136
35
25
149
102
142
48
88
55
4
107
34
137
126
64
119
32
61
66
60
33
85
108
104
121
114
128
140
16
72
23
54
89
123
12
17
28
11
110
59
2
6
112
99
46
8
116
37
92
45
3
80
70
105
130
145
125
58
53
57
115
13
79
82
132
9
27
44
127
139
41
62
69
7
78
38
5
42
144
52
19
150
73
91
15
30
100
124
93
118
18
138
103
31
133
74
43
129
75
50
113
39
101
98
40
111
97
77
84
117
36
135
83
49
26
122
51
63
65
47
109
81
134
76
56
131
68
96
24
22
71
106
90
10
14
86
120
20
143
146
67
95
87
21
94
29
147
141

> <PUBCHEM_MMFF94_PARTIAL_CHARGES>
19
1 -0.46
11 0.36
12 0.57
13 0.58
14 0.23
16 0.23
17 0.28
2 -0.56
22 0.66
3 -0.68
4 -0.57
46 0.4
5 -0.68
52 0.4
56 0.5
6 -0.65
7 -0.57
8 -0.66
9 0.62

> <PUBCHEM_EFFECTIVE_ROTOR_COUNT>
11.8

> <PUBCHEM_PHARMACOPHORE_FEATURES>
15
1 2 acceptor
1 24 hydrophobe
1 25 hydrophobe
1 3 acceptor
1 3 donor
1 4 acceptor
1 5 acceptor
1 5 donor
1 6 acceptor
1 7 acceptor
3 10 19 20 hydrophobe
3 14 15 18 hydrophobe
3 6 7 22 anion
5 1 14 15 16 18 hydrophobe
5 2 8 9 12 13 rings

> <PUBCHEM_HEAVY_ATOM_COUNT>
25

> <PUBCHEM_ATOM_DEF_STEREO_COUNT>
4

> <PUBCHEM_ATOM_UDEF_STEREO_COUNT>
0

> <PUBCHEM_BOND_DEF_STEREO_COUNT>
0

> <PUBCHEM_BOND_UDEF_STEREO_COUNT>
0

> <PUBCHEM_ISOTOPIC_ATOM_COUNT>
0

> <PUBCHEM_COMPONENT_COUNT>
1

> <PUBCHEM_CACTVS_TAUTO_COUNT>
1

> <PUBCHEM_CONFORMER_ID>
0617D9B700000001

> <PUBCHEM_MMFF94_ENERGY>
45.4999

> <PUBCHEM_FEATURE_SELFOVERLAP>
79.641

> <PUBCHEM_SHAPE_FINGERPRINT>
10042902 136 16773511199981305989
10366900 7 17131837572665870334
10692045 39 11314570035836864716
10928967 22 17060336284667851470
11725454 13 14635145789479113322
12553582 1 18272359889304958707
12714826 92 17203333256517005736
12788726 201 18338793421178982161
131258 43 16700343155197909472
13673619 4 16773805783673008782
14341114 176 13686301296234624278
15806764 133 16271921576366069520
15842332 3 17899133819814846680
16752209 62 18269264686457344651
1813 80 17917415554094672465
18222031 100 17845924212940210783
2132832 1 17678438793837119896
21365058 113 14548472357530149088
22907989 373 18270678645520890685
23352939 185 18040155123862272749
23557571 272 17845633873077109816
23559900 14 15769213976435951217
3004659 81 17896585228881546290
312423 11 18262233301334778394
314173 85 18131055035848697339
495365 180 14707202181005313832
6049 1 17059481938425919282
633830 44 17897188865734843136
67856867 119 16950268599553786186
7615 1 17897438390149081184
9658208 31 17342087105363053057

> <PUBCHEM_SHAPE_MULTIPOLES>
478.14
13.12
2.93
2.56
2.79
0.27
0.9
1.13
-8.93
3.7
1.81
0.28
0.45
-2.67

> <PUBCHEM_SHAPE_SELFOVERLAP>
930.28

> <PUBCHEM_SHAPE_VOLUME>
291.9

> <PUBCHEM_COORDINATE_TYPE>
2
5
10

$$$$
