REMARK  Name = 102266754
REMARK  2 active torsions:
REMARK  status: ('A' for Active; 'I' for Inactive)
REMARK    1  A    between atoms: C_17  and  O_26
REMARK    2  A    between atoms: O_26  and  C_28
REMARK                            x       y       z     vdW  Elec       q    Type
REMARK                         _______ _______ _______ _____ _____    ______ ____
ROOT
ATOM      1  S   UNL     1      -0.083  -0.723   2.530  0.00  0.00    -0.054 S 
ATOM      2  S   UNL     1       0.988   1.026   2.257  0.00  0.00    -0.054 S 
ATOM      3  O   UNL     1      -0.191   1.798  -1.035  0.00  0.00    -0.272 OA
ATOM      4  O   UNL     1       1.872  -2.771   0.465  0.00  0.00    -0.272 OA
ATOM      5  O   UNL     1      -4.353  -2.325  -1.132  0.00  0.00    -0.448 OA
ATOM      6  N   UNL     1      -0.579  -0.316  -0.106  0.00  0.00    -0.258 N 
ATOM      7  N   UNL     1       2.075  -0.456   0.221  0.00  0.00    -0.243 N 
ATOM      8  C   UNL     1      -0.076  -1.350   0.806  0.00  0.00    +0.183 C 
ATOM      9  C   UNL     1       1.454   0.857   0.480  0.00  0.00    +0.186 C 
ATOM     10  C   UNL     1      -1.928  -0.591  -0.623  0.00  0.00    +0.143 C 
ATOM     11  C   UNL     1      -0.982  -2.559   0.589  0.00  0.00    +0.065 C 
ATOM     12  C   UNL     1       0.161   0.851  -0.339  0.00  0.00    +0.254 C 
ATOM     13  C   UNL     1       1.387  -1.644   0.440  0.00  0.00    +0.257 C 
ATOM     14  C   UNL     1      -2.148  -2.014  -0.186  0.00  0.00    +0.018 C 
ATOM     15  C   UNL     1       2.491   1.922   0.057  0.00  0.00    +0.066 C 
ATOM     16  C   UNL     1       3.411  -0.284  -0.157  0.00  0.00    +0.051 C 
ATOM     17  C   UNL     1      -3.004   0.356  -0.048  0.00  0.00    +0.216 C 
ATOM     18  C   UNL     1       3.698   1.079  -0.247  0.00  0.00    -0.005 C 
ATOM     19  C   UNL     1      -3.242  -2.737  -0.447  0.00  0.00    +0.173 C 
ATOM     20  C   UNL     1      -4.439  -0.003  -0.335  0.00  0.00    +0.059 C 
ATOM     21  C   UNL     1       4.374  -1.241  -0.429  0.00  0.00    +0.015 C 
ATOM     22  C   UNL     1       4.961   1.520  -0.608  0.00  0.00    -0.003 C 
ATOM     23  C   UNL     1      -4.959  -1.137  -0.824  0.00  0.00    +0.179 C 
ATOM     24  C   UNL     1       5.651  -0.804  -0.790  0.00  0.00    +0.001 C 
ATOM     25  C   UNL     1       5.943   0.566  -0.877  0.00  0.00    -0.000 C 
ENDROOT
BRANCH  17  26
ATOM     26  O   UNL     1      -2.804   1.655  -0.615  0.00  0.00    -0.445 OA
BRANCH  26  28
ATOM     27  O   UNL     1      -3.623   2.632   1.311  0.00  0.00    -0.250 OA
ATOM     28  C   UNL     1      -3.160   2.703   0.181  0.00  0.00    +0.318 C 
ATOM     29  C   UNL     1      -2.897   3.991  -0.538  0.00  0.00    +0.121 C 
ENDBRANCH  26  28
ENDBRANCH  17  26
TORSDOF 2
