REMARK  Name = 10224454
REMARK  8 active torsions:
REMARK  status: ('A' for Active; 'I' for Inactive)
REMARK    1  A    between atoms: C_1  and  C_9
REMARK    2  A    between atoms: C_4  and  C_23
REMARK    3  A    between atoms: C_6  and  O_32
REMARK    4  A    between atoms: N_8  and  C_11
REMARK    5  A    between atoms: C_14  and  O_17
REMARK    6  A    between atoms: O_17  and  N_20
REMARK    7  A    between atoms: N_22  and  C_25
REMARK    8  A    between atoms: C_25  and  C_27
REMARK                            x       y       z     vdW  Elec       q    Type
REMARK                         _______ _______ _______ _____ _____    ______ ____
ROOT
ATOM      1  C   UNL     1       2.010  -2.266   0.036  0.00  0.00    +0.054 C 
ATOM      2  C   UNL     1       2.017  -0.875   0.146  0.00  0.00    +0.012 C 
ATOM      3  C   UNL     1       3.214  -2.965  -0.042  0.00  0.00    +0.008 C 
ATOM      4  C   UNL     1       3.228  -0.184   0.179  0.00  0.00    +0.087 C 
ATOM      5  C   UNL     1       4.426  -2.274  -0.009  0.00  0.00    +0.037 C 
ATOM      6  C   UNL     1       4.432  -0.884   0.101  0.00  0.00    +0.143 C 
ENDROOT
BRANCH   1   9
ATOM      7  O   UNL     1       0.678  -4.158   0.416  0.00  0.00    -0.270 OA
ATOM      8  N   UNL     1      -0.368  -2.297  -0.491  0.00  0.00    -0.302 N 
ATOM      9  C   UNL     1       0.720  -3.003   0.001  0.00  0.00    +0.246 C 
ATOM     10  H   UNL     1      -0.232  -1.373  -0.802  0.00  0.00    +0.150 HD
BRANCH   8  11
ATOM     11  C   UNL     1      -1.694  -2.868  -0.566  0.00  0.00    +0.072 C 
ATOM     12  C   UNL     1      -2.470  -2.314  -1.764  0.00  0.00    +0.023 C 
ATOM     13  C   UNL     1      -2.453  -2.660   0.747  0.00  0.00    +0.023 C 
ATOM     14  C   UNL     1      -3.663  -0.650  -0.245  0.00  0.00    +0.201 C 
ATOM     15  C   UNL     1      -2.922  -0.865  -1.565  0.00  0.00    +0.048 C 
ATOM     16  C   UNL     1      -2.891  -1.208   0.951  0.00  0.00    +0.048 C 
BRANCH  14  17
ATOM     17  O   UNL     1      -4.959  -1.241  -0.310  0.00  0.00    -0.340 OA
BRANCH  17  20
ATOM     18  O   UNL     1      -5.406   0.254   1.258  0.00  0.00    -0.090 OA
ATOM     19  O   UNL     1      -7.040  -1.111   0.596  0.00  0.00    -0.090 OA
ATOM     20  N   UNL     1      -5.894  -0.657   0.588  0.00  0.00    +0.218 N 
ENDBRANCH  17  20
ENDBRANCH  14  17
ENDBRANCH   8  11
ENDBRANCH   1   9
BRANCH   4  23
ATOM     21  O   UNL     1       4.154   1.864   0.845  0.00  0.00    -0.270 OA
ATOM     22  N   UNL     1       2.115   1.936  -0.257  0.00  0.00    -0.297 N 
ATOM     23  C   UNL     1       3.213   1.267   0.295  0.00  0.00    +0.249 C 
ATOM     24  H   UNL     1       1.406   1.398  -0.677  0.00  0.00    +0.150 HD
BRANCH  22  25
ATOM     25  C   UNL     1       1.967   3.373  -0.243  0.00  0.00    +0.118 C 
BRANCH  25  27
ATOM     26  N   UNL     1      -1.429   4.350   1.104  0.00  0.00    -0.243 NA
ATOM     27  C   UNL     1       0.525   3.789  -0.204  0.00  0.00    +0.017 C 
ATOM     28  C   UNL     1      -0.192   3.997  -1.378  0.00  0.00    +0.001 C 
ATOM     29  C   UNL     1      -0.133   3.978   1.000  0.00  0.00    +0.096 C 
ATOM     30  C   UNL     1      -1.527   4.381  -1.311  0.00  0.00    +0.020 C 
ATOM     31  C   UNL     1      -2.093   4.543  -0.057  0.00  0.00    +0.099 C 
ENDBRANCH  25  27
ENDBRANCH  22  25
ENDBRANCH   4  23
BRANCH   6  32
ATOM     32  O   UNL     1       5.626  -0.227   0.131  0.00  0.00    -0.471 OA
ATOM     33  C   UNL     1       6.806  -1.024   0.046  0.00  0.00    +0.252 C 
ENDBRANCH   6  32
TORSDOF 8
