REMARK  Name = 102209473
REMARK  8 active torsions:
REMARK  status: ('A' for Active; 'I' for Inactive)
REMARK    1  A    between atoms: C_3  and  C_19
REMARK    2  A    between atoms: C_4  and  O_15
REMARK    3  A    between atoms: C_5  and  O_17
REMARK    4  A    between atoms: C_6  and  N_11
REMARK    5  A    between atoms: C_9  and  C_22
REMARK    6  A    between atoms: C_19  and  O_20
REMARK    7  A    between atoms: C_22  and  C_24
REMARK    8  A    between atoms: C_24  and  O_25
REMARK                            x       y       z     vdW  Elec       q    Type
REMARK                         _______ _______ _______ _____ _____    ______ ____
ROOT
ATOM      1  N   UNL     1      -0.391   1.177   0.052  0.00  0.00    -0.276 N 
ATOM      2  N   UNL     1      -1.085  -0.657  -0.986  0.00  0.00    -0.396 NA
ATOM      3  C   UNL     1       0.524   2.194   0.569  0.00  0.00    +0.134 C 
ATOM      4  C   UNL     1       1.962   1.650   0.692  0.00  0.00    +0.160 C 
ATOM      5  C   UNL     1       2.349   0.807  -0.537  0.00  0.00    +0.165 C 
ATOM      6  C   UNL     1       1.405  -0.388  -0.751  0.00  0.00    +0.168 C 
ATOM      7  C   UNL     1      -0.022   0.018  -0.593  0.00  0.00    +0.180 C 
ATOM      8  C   UNL     1      -1.754   1.214   0.105  0.00  0.00    +0.148 C 
ATOM      9  C   UNL     1      -2.160   0.078  -0.553  0.00  0.00    +0.119 C 
ENDROOT
BRANCH   6  11
ATOM     10  O   UNL     1       3.296  -2.568  -1.065  0.00  0.00    -0.275 OA
ATOM     11  N   UNL     1       1.659  -1.470   0.173  0.00  0.00    -0.297 N 
ATOM     12  C   UNL     1       2.586  -2.469  -0.068  0.00  0.00    +0.223 C 
ATOM     13  C   UNL     1       2.668  -3.455   1.067  0.00  0.00    +0.095 C 
ATOM     14  H   UNL     1       1.147  -1.498   1.014  0.00  0.00    +0.150 HD
ENDBRANCH   6  11
BRANCH   4  15
ATOM     15  O   UNL     1       2.041   0.859   1.881  0.00  0.00    -0.380 OA
ATOM     16  H   UNL     1       1.795   1.402   2.647  0.00  0.00    +0.211 HD
ENDBRANCH   4  15
BRANCH   5  17
ATOM     17  O   UNL     1       3.693   0.351  -0.427  0.00  0.00    -0.380 OA
ATOM     18  H   UNL     1       4.282   1.110  -0.292  0.00  0.00    +0.211 HD
ENDBRANCH   5  17
BRANCH   3  19
ATOM     19  C   UNL     1       0.478   3.443  -0.315  0.00  0.00    +0.159 C 
BRANCH  19  20
ATOM     20  O   UNL     1      -0.719   4.142  -0.036  0.00  0.00    -0.380 OA
ATOM     21  H   UNL     1      -0.765   4.938  -0.589  0.00  0.00    +0.211 HD
ENDBRANCH  19  20
ENDBRANCH   3  19
BRANCH   9  22
ATOM     22  C   UNL     1      -3.533  -0.383  -0.810  0.00  0.00    +0.165 C 
BRANCH  22  24
ATOM     23  O   UNL     1      -3.487  -1.648   1.270  0.00  0.00    -0.250 OA
ATOM     24  C   UNL     1      -4.108  -1.275   0.284  0.00  0.00    +0.321 C 
BRANCH  24  25
ATOM     25  O   UNL     1      -5.401  -1.622   0.050  0.00  0.00    -0.480 OA
ATOM     26  H   UNL     1      -5.837  -1.312  -0.720  0.00  0.00    +0.295 HD
ENDBRANCH  24  25
ENDBRANCH  22  24
ENDBRANCH   9  22
TORSDOF 8
