10220197
  -OEChem-03292013303D

 28 28  0     0  0  0  0  0  0999 V2000
    0.2917    1.5861    1.3099 O   0  0  0  0  0  0  0  0  0  0  0  0
    4.0114   -1.8505   -1.4019 O   0  0  0  0  0  0  0  0  0  0  0  0
   -2.5876   -2.4904    0.6438 O   0  5  0  0  0  0  0  0  0  0  0  0
   -0.6401   -1.6061    1.1569 O   0  0  0  0  0  0  0  0  0  0  0  0
    2.3009    0.9059    0.3728 N   0  0  0  0  0  0  0  0  0  0  0  0
   -1.2893    0.5201   -0.6445 N   0  0  0  0  0  0  0  0  0  0  0  0
   -3.3862    0.0925   -0.1226 N   0  0  0  0  0  0  0  0  0  0  0  0
   -1.7780   -1.5201    0.6130 N   0  3  0  0  0  0  0  0  0  0  0  0
    0.1623    0.3659   -0.7484 C   0  0  0  0  0  0  0  0  0  0  0  0
    3.0701    0.2323   -0.6710 C   0  0  0  0  0  0  0  0  0  0  0  0
    0.9062    1.0108    0.4078 C   0  0  0  0  0  0  0  0  0  0  0  0
    3.2910   -1.2330   -0.3430 C   0  0  0  0  0  0  0  0  0  0  0  0
    3.0933    1.4973    1.4438 C   0  0  0  0  0  0  0  0  0  0  0  0
   -2.1461   -0.3341   -0.0328 C   0  0  0  0  0  0  0  0  0  0  0  0
   -1.9984    1.5541   -1.1595 C   0  0  0  0  0  0  0  0  0  0  0  0
   -3.3012    1.2689   -0.8243 C   0  0  0  0  0  0  0  0  0  0  0  0
    0.4495    0.8731   -1.6772 H   0  0  0  0  0  0  0  0  0  0  0  0
    0.3979   -0.6938   -0.8605 H   0  0  0  0  0  0  0  0  0  0  0  0
    4.0301    0.7463   -0.8031 H   0  0  0  0  0  0  0  0  0  0  0  0
    2.5593    0.3178   -1.6349 H   0  0  0  0  0  0  0  0  0  0  0  0
    2.3432   -1.7640   -0.2134 H   0  0  0  0  0  0  0  0  0  0  0  0
    3.8709   -1.3445    0.5789 H   0  0  0  0  0  0  0  0  0  0  0  0
    3.7489    2.2617    1.0163 H   0  0  0  0  0  0  0  0  0  0  0  0
    3.6980    0.7172    1.9149 H   0  0  0  0  0  0  0  0  0  0  0  0
    2.4641    1.9624    2.2069 H   0  0  0  0  0  0  0  0  0  0  0  0
   -1.5474    2.3758   -1.6982 H   0  0  0  0  0  0  0  0  0  0  0  0
   -4.1820    1.8515   -1.0517 H   0  0  0  0  0  0  0  0  0  0  0  0
    4.1369   -2.7829   -1.1558 H   0  0  0  0  0  0  0  0  0  0  0  0
  1 11  2  0  0  0  0
  2 12  1  0  0  0  0
  2 28  1  0  0  0  0
  3  8  1  0  0  0  0
  4  8  2  0  0  0  0
  5 10  1  0  0  0  0
  5 11  1  0  0  0  0
  5 13  1  0  0  0  0
  6  9  1  0  0  0  0
  6 14  1  0  0  0  0
  6 15  1  0  0  0  0
  7 14  2  0  0  0  0
  7 16  1  0  0  0  0
  8 14  1  0  0  0  0
  9 11  1  0  0  0  0
  9 17  1  0  0  0  0
  9 18  1  0  0  0  0
 10 12  1  0  0  0  0
 10 19  1  0  0  0  0
 10 20  1  0  0  0  0
 12 21  1  0  0  0  0
 12 22  1  0  0  0  0
 13 23  1  0  0  0  0
 13 24  1  0  0  0  0
 13 25  1  0  0  0  0
 15 16  2  0  0  0  0
 15 26  1  0  0  0  0
 16 27  1  0  0  0  0
M  CHG  2   3  -1   8   1
M  END
> <PUBCHEM_COMPOUND_CID>
10220197

> <PUBCHEM_CONFORMER_RMSD>
0.8

> <PUBCHEM_CONFORMER_DIVERSEORDER>
2
111
91
118
97
85
72
27
100
114
70
60
102
45
67
82
9
79
101
74
62
105
26
81
98
86
53
69
21
29
43
99
104
77
83
112
57
108
40
54
23
116
38
78
22
18
84
5
73
117
95
7
68
103
44
49
41
80
42
48
90
88
35
110
55
56
13
1
28
46
24
61
64
31
87
34
59
12
51
37
109
94
4
19
30
65
50
52
93
32
107
10
58
106
33
6
36
89
47
39
96
75
76
17
113
14
16
8
3
92
20
63
11
66
71
115
25
15

> <PUBCHEM_MMFF94_PARTIAL_CHARGES>
19
1 -0.57
10 0.3
11 0.57
12 0.28
13 0.3
14 0.27
15 -0.3
16 0.08
2 -0.68
26 0.15
27 0.15
28 0.4
3 -0.52
4 -0.52
5 -0.66
6 0.05
7 -0.57
8 0.96
9 0.32

> <PUBCHEM_EFFECTIVE_ROTOR_COUNT>
6

> <PUBCHEM_PHARMACOPHORE_FEATURES>
7
1 1 acceptor
1 2 acceptor
1 2 donor
1 3 acceptor
1 4 acceptor
4 6 7 8 14 cation
5 6 7 14 15 16 rings

> <PUBCHEM_HEAVY_ATOM_COUNT>
16

> <PUBCHEM_ATOM_DEF_STEREO_COUNT>
0

> <PUBCHEM_ATOM_UDEF_STEREO_COUNT>
0

> <PUBCHEM_BOND_DEF_STEREO_COUNT>
0

> <PUBCHEM_BOND_UDEF_STEREO_COUNT>
0

> <PUBCHEM_ISOTOPIC_ATOM_COUNT>
0

> <PUBCHEM_COMPONENT_COUNT>
1

> <PUBCHEM_CACTVS_TAUTO_COUNT>
1

> <PUBCHEM_CONFORMER_ID>
009BF2A500000002

> <PUBCHEM_MMFF94_ENERGY>
29.9634

> <PUBCHEM_FEATURE_SELFOVERLAP>
35.602

> <PUBCHEM_SHAPE_FINGERPRINT>
10922523 26 18410571820677857590
11322862 65 18261108578222763215
12202030 40 18340774839721270526
12716758 59 18334853900849433121
12932764 1 16443337685124720628
13296908 3 18201720690872842892
13544592 145 18338232665711294604
14115302 16 18262811665893916630
15219456 202 18341891930713518520
15375358 24 18342725330810839400
16945 1 18113606898464677141
18186145 218 18336821979302701349
19049666 15 18342451543340428376
20201158 50 18342178813165091214
20279233 1 18340760529001172424
20645476 183 16226055474314035179
20645477 56 18260542342371687397
20645477 70 17775562035820413716
20711983 138 18272094880847635168
20715346 28 18271240633506638724
20871998 184 18192427696078475359
22802520 49 18409448123904718913
22943178 12 18340482356775087124
23526113 38 18200860851088990032
23557571 272 18187927351920556376
23559900 14 18409726249629942988
2748010 2 18410290349932973078
598444 67 18408889507831807687
6049 1 18411423950800683920
77492 1 15267063678656479052
81228 2 17970062455976611505
8809292 202 18410296874030422374
9709674 26 18411693322496075654

> <PUBCHEM_SHAPE_MULTIPOLES>
285.87
6.56
2.16
1.28
2.6
1.02
-0.08
1.02
1.44
-0.19
-0.41
0.62
-0.11
2.06

> <PUBCHEM_SHAPE_SELFOVERLAP>
579.848

> <PUBCHEM_SHAPE_VOLUME>
167.1

> <PUBCHEM_COORDINATE_TYPE>
2
5
10

$$$$
