REMARK  Name = 102216446
REMARK  6 active torsions:
REMARK  status: ('A' for Active; 'I' for Inactive)
REMARK    1  A    between atoms: C_5  and  C_30
REMARK    2  A    between atoms: C_10  and  C_27
REMARK    3  A    between atoms: C_21  and  O_24
REMARK    4  A    between atoms: C_27  and  O_28
REMARK    5  A    between atoms: C_30  and  O_31
REMARK    6  A    between atoms: O_31  and  C_33
REMARK                            x       y       z     vdW  Elec       q    Type
REMARK                         _______ _______ _______ _____ _____    ______ ____
ROOT
ATOM      1  O   UNL     1      -1.480   2.527   0.903  0.00  0.00    -0.275 OA
ATOM      2  O   UNL     1       2.586   1.315  -3.512  0.00  0.00    -0.292 OA
ATOM      3  N   UNL     1      -2.275   1.157  -0.775  0.00  0.00    -0.279 N 
ATOM      4  C   UNL     1      -0.186   0.529   0.419  0.00  0.00    +0.088 C 
ATOM      5  C   UNL     1      -0.559  -0.903  -0.086  0.00  0.00    +0.053 C 
ATOM      6  C   UNL     1      -0.835  -0.730  -1.615  0.00  0.00    +0.028 C 
ATOM      7  C   UNL     1       0.929   1.166  -0.380  0.00  0.00    -0.038 C 
ATOM      8  C   UNL     1       0.338   0.611   1.877  0.00  0.00    +0.024 C 
ATOM      9  C   UNL     1       1.766   2.049   0.492  0.00  0.00    +0.030 C 
ATOM     10  C   UNL     1       1.706   1.324   1.840  0.00  0.00    +0.104 C 
ATOM     11  C   UNL     1       0.391  -0.173  -2.401  0.00  0.00    +0.030 C 
ATOM     12  C   UNL     1      -1.777  -1.595   0.653  0.00  0.00    +0.007 C 
ATOM     13  C   UNL     1       1.180   0.868  -1.661  0.00  0.00    +0.005 C 
ATOM     14  C   UNL     1      -1.356   1.514   0.209  0.00  0.00    +0.228 C 
ATOM     15  C   UNL     1      -2.044   0.173  -1.829  0.00  0.00    +0.094 C 
ATOM     16  C   UNL     1       3.154   2.302  -0.096  0.00  0.00    +0.013 C 
ATOM     17  C   UNL     1      -2.858  -0.808   1.429  0.00  0.00    +0.029 C 
ATOM     18  C   UNL     1       2.305   1.570  -2.342  0.00  0.00    +0.169 C 
ATOM     19  C   UNL     1       3.044   2.654  -1.576  0.00  0.00    +0.069 C 
ATOM     20  C   UNL     1      -3.622   1.692  -0.688  0.00  0.00    +0.096 C 
ATOM     21  C   UNL     1      -4.174  -0.473   0.679  0.00  0.00    +0.112 C 
ATOM     22  C   UNL     1      -4.433   1.050   0.464  0.00  0.00    +0.047 C 
ATOM     23  C   UNL     1      -5.919   1.357   0.220  0.00  0.00    +0.004 C 
ENDROOT
BRANCH  21  24
ATOM     24  O   UNL     1      -5.242  -1.006   1.480  0.00  0.00    -0.384 OA
ATOM     25  H   UNL     1      -5.097  -1.955   1.624  0.00  0.00    +0.210 HD
ENDBRANCH  21  24
BRANCH  10  27
ATOM     26  O   UNL     1       2.591  -0.888   2.213  0.00  0.00    -0.250 OA
ATOM     27  C   UNL     1       2.792   0.308   2.055  0.00  0.00    +0.317 C 
BRANCH  27  28
ATOM     28  O   UNL     1       4.006   0.930   2.044  0.00  0.00    -0.444 OA
ATOM     29  C   UNL     1       5.137   0.074   2.238  0.00  0.00    +0.256 C 
ENDBRANCH  27  28
ENDBRANCH  10  27
BRANCH   5  30
ATOM     30  C   UNL     1       0.627  -1.908   0.059  0.00  0.00    +0.209 C 
BRANCH  30  31
ATOM     31  O   UNL     1       0.228  -3.110  -0.547  0.00  0.00    -0.448 OA
BRANCH  31  33
ATOM     32  O   UNL     1       2.257  -4.086  -0.030  0.00  0.00    -0.250 OA
ATOM     33  C   UNL     1       1.141  -4.138  -0.528  0.00  0.00    +0.318 C 
ATOM     34  C   UNL     1       0.581  -5.351  -1.208  0.00  0.00    +0.121 C 
ENDBRANCH  31  33
ENDBRANCH  30  31
ENDBRANCH   5  30
TORSDOF 6
