REMARK  Name = 102271497
REMARK  10 active torsions:
REMARK  status: ('A' for Active; 'I' for Inactive)
REMARK    1  A    between atoms: C_2  and  C_24
REMARK    2  A    between atoms: C_6  and  O_17
REMARK    3  A    between atoms: C_7  and  O_15
REMARK    4  A    between atoms: C_10  and  C_32
REMARK    5  A    between atoms: O_17  and  C_19
REMARK    6  A    between atoms: C_19  and  C_20
REMARK    7  A    between atoms: C_24  and  C_25
REMARK    8  A    between atoms: C_26  and  C_27
REMARK    9  A    between atoms: C_27  and  O_30
REMARK   10  A    between atoms: C_32  and  O_33
REMARK                            x       y       z     vdW  Elec       q    Type
REMARK                         _______ _______ _______ _____ _____    ______ ____
ROOT
ATOM      1  O   UNL     1      -4.208   0.709   1.604  0.00  0.00    -0.287 OA
ATOM      2  C   UNL     1      -1.089  -2.008  -0.114  0.00  0.00    +0.026 C 
ATOM      3  C   UNL     1      -2.481  -1.876   0.576  0.00  0.00    +0.030 C 
ATOM      4  C   UNL     1      -0.882  -0.920  -1.161  0.00  0.00    -0.027 C 
ATOM      5  C   UNL     1      -1.013  -3.370  -0.849  0.00  0.00    +0.005 C 
ATOM      6  C   UNL     1       0.041   1.209   0.031  0.00  0.00    +0.219 C 
ATOM      7  C   UNL     1      -1.082   1.973   0.803  0.00  0.00    +0.147 C 
ATOM      8  C   UNL     1      -0.439   0.346  -1.110  0.00  0.00    +0.015 C 
ATOM      9  C   UNL     1      -3.642  -1.592  -0.348  0.00  0.00    -0.024 C 
ATOM     10  C   UNL     1      -4.327  -0.440  -0.474  0.00  0.00    +0.042 C 
ATOM     11  C   UNL     1      -2.219   2.412  -0.111  0.00  0.00    +0.007 C 
ATOM     12  C   UNL     1      -0.537   3.212   1.535  0.00  0.00    +0.038 C 
ATOM     13  C   UNL     1      -3.990   0.717   0.399  0.00  0.00    +0.193 C 
ATOM     14  C   UNL     1      -3.443   1.899  -0.309  0.00  0.00    +0.040 C 
ENDROOT
BRANCH   7  15
ATOM     15  O   UNL     1      -1.564   1.107   1.830  0.00  0.00    -0.379 OA
ATOM     16  H   UNL     1      -1.924   0.300   1.430  0.00  0.00    +0.211 HD
ENDBRANCH   7  15
BRANCH   6  17
ATOM     17  O   UNL     1       0.990   2.134  -0.518  0.00  0.00    -0.442 OA
BRANCH  17  19
ATOM     18  O   UNL     1       2.664   1.200   0.767  0.00  0.00    -0.245 OA
ATOM     19  C   UNL     1       2.263   2.008  -0.054  0.00  0.00    +0.341 C 
BRANCH  19  20
ATOM     20  C   UNL     1       3.077   3.053  -0.718  0.00  0.00    +0.073 C 
ATOM     21  C   UNL     1       4.389   3.268  -0.512  0.00  0.00    -0.037 C 
ATOM     22  C   UNL     1       5.285   2.488   0.409  0.00  0.00    +0.027 C 
ATOM     23  C   UNL     1       5.092   4.372  -1.260  0.00  0.00    +0.027 C 
ENDBRANCH  19  20
ENDBRANCH  17  19
ENDBRANCH   6  17
BRANCH   2  24
ATOM     24  C   UNL     1       0.005  -2.036   0.970  0.00  0.00    +0.030 C 
BRANCH  24  25
ATOM     25  C   UNL     1       1.355  -2.202   0.352  0.00  0.00    -0.028 C 
ATOM     26  C   UNL     1       2.173  -3.229   0.635  0.00  0.00    -0.005 C 
BRANCH  26  27
ATOM     27  C   UNL     1       3.558  -3.476   0.082  0.00  0.00    +0.107 C 
ATOM     28  C   UNL     1       3.576  -4.819  -0.657  0.00  0.00    +0.034 C 
ATOM     29  C   UNL     1       4.108  -2.374  -0.830  0.00  0.00    +0.034 C 
BRANCH  27  30
ATOM     30  O   UNL     1       4.436  -3.581   1.209  0.00  0.00    -0.383 OA
ATOM     31  H   UNL     1       4.113  -4.274   1.807  0.00  0.00    +0.211 HD
ENDBRANCH  27  30
ENDBRANCH  26  27
ENDBRANCH  24  25
ENDBRANCH   2  24
BRANCH  10  32
ATOM     32  C   UNL     1      -5.458  -0.262  -1.439  0.00  0.00    +0.166 C 
BRANCH  32  33
ATOM     33  O   UNL     1      -6.640   0.077  -0.737  0.00  0.00    -0.377 OA
ATOM     34  H   UNL     1      -7.369   0.192  -1.367  0.00  0.00    +0.211 HD
ENDBRANCH  32  33
ENDBRANCH  10  32
TORSDOF 10
