102293917
  -OEChem-03292013293D

 52 55  0     1  0  0  0  0  0999 V2000
    1.4046    0.9624    2.5897 S   0  0  0  0  0  0  0  0  0  0  0  0
    1.7615    3.3859   -1.3725 O   0  0  0  0  0  0  0  0  0  0  0  0
   -0.7276    1.6442   -2.1887 O   0  0  0  0  0  0  0  0  0  0  0  0
    5.1827    0.6445    1.6674 O   0  0  0  0  0  0  0  0  0  0  0  0
   -2.0507    2.8787   -0.7903 O   0  0  0  0  0  0  0  0  0  0  0  0
   -9.0419   -1.8956    0.9412 O   0  5  0  0  0  0  0  0  0  0  0  0
   -9.1313   -1.4352   -1.2034 O   0  0  0  0  0  0  0  0  0  0  0  0
    0.9687    1.7022    0.0777 N   0  0  0  0  0  0  0  0  0  0  0  0
    4.1482    1.5268   -0.2142 N   0  0  0  0  0  0  0  0  0  0  0  0
   -8.4994   -1.5086   -0.1219 N   0  3  0  0  0  0  0  0  0  0  0  0
    1.9359    0.9525    0.8608 C   0  0  1  0  0  0  0  0  0  0  0  0
    2.9619    2.0402    0.4565 C   0  0  2  0  0  0  0  0  0  0  0  0
    1.8481    2.5445   -0.5088 C   0  0  0  0  0  0  0  0  0  0  0  0
   -0.3657    1.4422    0.0743 C   0  0  0  0  0  0  0  0  0  0  0  0
   -0.1644    0.1008    2.2253 C   0  0  0  0  0  0  0  0  0  0  0  0
   -0.9312    0.6669    1.0315 C   0  0  0  0  0  0  0  0  0  0  0  0
    5.1781    0.8600    0.4580 C   0  0  0  0  0  0  0  0  0  0  0  0
   -1.1570    2.0832   -0.9902 C   0  0  0  0  0  0  0  0  0  0  0  0
   -2.3324    0.2902    1.0615 C   0  0  0  0  0  0  0  0  0  0  0  0
    6.2943    0.4353   -0.4760 C   0  0  0  0  0  0  0  0  0  0  0  0
   -3.0094   -0.0420   -0.0383 C   0  0  0  0  0  0  0  0  0  0  0  0
    6.5233   -1.0529   -0.4937 C   0  0  0  0  0  0  0  0  0  0  0  0
   -4.4329   -0.4214   -0.0594 C   0  0  0  0  0  0  0  0  0  0  0  0
    7.4256   -1.6308    0.3995 C   0  0  0  0  0  0  0  0  0  0  0  0
    5.8325   -1.8536   -1.4032 C   0  0  0  0  0  0  0  0  0  0  0  0
   -5.0569   -0.8546    1.1105 C   0  0  0  0  0  0  0  0  0  0  0  0
   -5.1564   -0.3483   -1.2498 C   0  0  0  0  0  0  0  0  0  0  0  0
    7.6371   -3.0096    0.3830 C   0  0  0  0  0  0  0  0  0  0  0  0
    6.0438   -3.2323   -1.4194 C   0  0  0  0  0  0  0  0  0  0  0  0
    6.9462   -3.8102   -0.5265 C   0  0  0  0  0  0  0  0  0  0  0  0
   -6.4042   -1.2148    1.0901 C   0  0  0  0  0  0  0  0  0  0  0  0
   -6.5037   -0.7086   -1.2702 C   0  0  0  0  0  0  0  0  0  0  0  0
   -7.1276   -1.1419   -0.1004 C   0  0  0  0  0  0  0  0  0  0  0  0
    2.1289   -0.0443    0.4449 H   0  0  0  0  0  0  0  0  0  0  0  0
    3.2140    2.7860    1.2200 H   0  0  0  0  0  0  0  0  0  0  0  0
    4.2418    1.6539   -1.2191 H   0  0  0  0  0  0  0  0  0  0  0  0
   -0.7638    0.1735    3.1395 H   0  0  0  0  0  0  0  0  0  0  0  0
    0.0503   -0.9599    2.0516 H   0  0  0  0  0  0  0  0  0  0  0  0
   -2.8040    0.3351    2.0381 H   0  0  0  0  0  0  0  0  0  0  0  0
    7.2063    0.9519   -0.1500 H   0  0  0  0  0  0  0  0  0  0  0  0
    6.1145    0.7870   -1.4991 H   0  0  0  0  0  0  0  0  0  0  0  0
   -2.5215   -0.0994   -1.0074 H   0  0  0  0  0  0  0  0  0  0  0  0
   -1.2294    2.0449   -2.9303 H   0  0  0  0  0  0  0  0  0  0  0  0
    7.9686   -1.0180    1.1140 H   0  0  0  0  0  0  0  0  0  0  0  0
    5.1254   -1.4149   -2.1022 H   0  0  0  0  0  0  0  0  0  0  0  0
   -4.5293   -0.9489    2.0550 H   0  0  0  0  0  0  0  0  0  0  0  0
   -4.6862   -0.0112   -2.1705 H   0  0  0  0  0  0  0  0  0  0  0  0
    8.3393   -3.4597    1.0787 H   0  0  0  0  0  0  0  0  0  0  0  0
    5.5054   -3.8559   -2.1271 H   0  0  0  0  0  0  0  0  0  0  0  0
    7.1106   -4.8837   -0.5391 H   0  0  0  0  0  0  0  0  0  0  0  0
   -6.8567   -1.5524    2.0191 H   0  0  0  0  0  0  0  0  0  0  0  0
   -7.0358   -0.6387   -2.2155 H   0  0  0  0  0  0  0  0  0  0  0  0
  1 11  1  0  0  0  0
  1 15  1  0  0  0  0
  2 13  2  0  0  0  0
  3 18  1  0  0  0  0
  3 43  1  0  0  0  0
  4 17  2  0  0  0  0
  5 18  2  0  0  0  0
  6 10  1  0  0  0  0
  7 10  2  0  0  0  0
  8 11  1  0  0  0  0
  8 13  1  0  0  0  0
  8 14  1  0  0  0  0
  9 12  1  0  0  0  0
  9 17  1  0  0  0  0
  9 36  1  0  0  0  0
 10 33  1  0  0  0  0
 11 12  1  0  0  0  0
 11 34  1  0  0  0  0
 12 13  1  0  0  0  0
 12 35  1  0  0  0  0
 14 16  2  0  0  0  0
 14 18  1  0  0  0  0
 15 16  1  0  0  0  0
 15 37  1  0  0  0  0
 15 38  1  0  0  0  0
 16 19  1  0  0  0  0
 17 20  1  0  0  0  0
 19 21  2  0  0  0  0
 19 39  1  0  0  0  0
 20 22  1  0  0  0  0
 20 40  1  0  0  0  0
 20 41  1  0  0  0  0
 21 23  1  0  0  0  0
 21 42  1  0  0  0  0
 22 24  2  0  0  0  0
 22 25  1  0  0  0  0
 23 26  2  0  0  0  0
 23 27  1  0  0  0  0
 24 28  1  0  0  0  0
 24 44  1  0  0  0  0
 25 29  2  0  0  0  0
 25 45  1  0  0  0  0
 26 31  1  0  0  0  0
 26 46  1  0  0  0  0
 27 32  2  0  0  0  0
 27 47  1  0  0  0  0
 28 30  2  0  0  0  0
 28 48  1  0  0  0  0
 29 30  1  0  0  0  0
 29 49  1  0  0  0  0
 30 50  1  0  0  0  0
 31 33  2  0  0  0  0
 31 51  1  0  0  0  0
 32 33  1  0  0  0  0
 32 52  1  0  0  0  0
M  CHG  2   6  -1  10   1
M  END
> <PUBCHEM_COMPOUND_CID>
102293917

> <PUBCHEM_CONFORMER_RMSD>
1

> <PUBCHEM_CONFORMER_DIVERSEORDER>
1
30
9
5
14
25
37
21
27
8
18
23
7
29
26
4
31
33
24
38
13
35
20
36
34
17
19
12
16
3
11
32
28
2
22
6
15
10

> <PUBCHEM_MMFF94_PARTIAL_CHARGES>
46
1 -0.45
10 0.91
11 0.44
12 0.28
13 0.58
14 0.12
15 0.37
16 -0.14
17 0.57
18 0.71
19 -0.15
2 -0.57
20 0.2
21 -0.18
22 -0.14
23 0.03
24 -0.15
25 -0.15
26 -0.15
27 -0.15
28 -0.15
29 -0.15
3 -0.65
30 -0.15
31 -0.15
32 -0.15
33 0.13
36 0.37
39 0.15
4 -0.57
42 0.15
43 0.5
44 0.15
45 0.15
46 0.15
47 0.15
48 0.15
49 0.15
5 -0.57
50 0.15
51 0.15
52 0.15
6 -0.52
7 -0.52
8 -0.39
9 -0.65

> <PUBCHEM_EFFECTIVE_ROTOR_COUNT>
8.6

> <PUBCHEM_PHARMACOPHORE_FEATURES>
13
1 2 acceptor
1 3 acceptor
1 4 acceptor
1 5 acceptor
1 6 acceptor
1 6 anion
1 7 acceptor
1 9 donor
3 3 5 18 anion
4 8 11 12 13 rings
6 1 8 11 14 15 16 rings
6 22 24 25 28 29 30 rings
6 23 26 27 31 32 33 rings

> <PUBCHEM_HEAVY_ATOM_COUNT>
33

> <PUBCHEM_ATOM_DEF_STEREO_COUNT>
0

> <PUBCHEM_ATOM_UDEF_STEREO_COUNT>
2

> <PUBCHEM_BOND_DEF_STEREO_COUNT>
1

> <PUBCHEM_BOND_UDEF_STEREO_COUNT>
0

> <PUBCHEM_ISOTOPIC_ATOM_COUNT>
0

> <PUBCHEM_COMPONENT_COUNT>
1

> <PUBCHEM_CACTVS_TAUTO_COUNT>
7

> <PUBCHEM_CONFORMER_ID>
0618E19D00000001

> <PUBCHEM_MMFF94_ENERGY>
105.0054

> <PUBCHEM_FEATURE_SELFOVERLAP>
66.37

> <PUBCHEM_SHAPE_FINGERPRINT>
10 15 12751239216209745832
10066227 49 18412263956637060931
10319688 67 14045737123585146535
10693767 8 18408882945385848458
10981352 41 18273215288235358286
117089 54 18338525119368608678
11828532 37 18041010574190023642
12035758 1 13973963190525373176
12133447 93 17023169515131710101
12838863 1 18262233297858313754
13383665 225 15141227773605398679
13383668 254 9943531778984682339
13533116 47 18060420244480808552
13553644 42 18115864110127799995
13782708 43 18342175540468401260
14216079 64 18411982459705186630
14537116 161 14129058127876738318
14565420 104 10807938146211569468
15183329 4 17821443560451193321
15198563 99 17095795539032344277
15475509 35 17632290160789895498
16728300 4 17488746649455326934
16994733 274 11097864020405248180
18393751 57 11527948937091932124
19301679 30 18201441342295704344
19315958 150 18270677705218153328
19841028 212 18272653441782868914
20105231 36 17749112219137943971
2026 5 18340486668817660359
20771845 140 15985108504956785062
21267235 1 17967811691609201825
21307412 95 17967824842250469098
21344244 181 18259985998125323778
21792934 111 13470423148956331249
22002106 203 18267019459142004410
22224240 67 11671788169735677565
22899556 105 17896034352566621042
23569943 247 18265618680272761314
23576562 1 15503233335233464007
3886686 26 15763621581635774654
3918712 181 8502360123769586958
397830 11 9655281674850524804
406291 66 18129946676821127614
4258327 124 12540700323287172985
4403749 210 10519980470824765693
44880168 125 18341602763962467383
513202 73 18342172237480646525
54076057 255 13117998924577710412
5718773 13 18338517439903539286
58260988 647 18411704270657746896
58902169 19 13334734665730826338
59682541 35 11815897886286429613
6081469 158 18407758136458455055
9555976 147 17130442189636748912

> <PUBCHEM_SHAPE_MULTIPOLES>
632.82
26.39
3.59
1.79
22.53
0.94
0.45
32.03
-3.07
-6.28
-1.29
0.31
-0.47
1.38

> <PUBCHEM_SHAPE_SELFOVERLAP>
1361.395

> <PUBCHEM_SHAPE_VOLUME>
347.8

> <PUBCHEM_COORDINATE_TYPE>
2
5
10

$$$$
