REMARK  Name = 10221081
REMARK  4 active torsions:
REMARK  status: ('A' for Active; 'I' for Inactive)
REMARK    1  A    between atoms: S_1  and  C_8
REMARK    2  A    between atoms: S_1  and  C_13
REMARK    3  A    between atoms: C_9  and  O_10
REMARK    4  A    between atoms: O_10  and  C_11
REMARK                            x       y       z     vdW  Elec       q    Type
REMARK                         _______ _______ _______ _____ _____    ______ ____
ROOT
ATOM      1  S   UNL     1       0.172   1.188   1.095  0.00  0.00    +0.036 S 
ATOM      2  O   UNL     1      -0.059   0.515   2.362  0.00  0.00    -0.167 OA
ATOM      3  O   UNL     1       0.249   2.634   0.999  0.00  0.00    -0.167 OA
ENDROOT
BRANCH   1   8
ATOM      4  O   UNL     1      -3.031   0.750  -1.097  0.00  0.00    -0.260 OA
ATOM      5  O   UNL     1      -2.182   2.784  -0.523  0.00  0.00    -0.075 OA
ATOM      6  N   UNL     1      -2.050   1.544  -0.428  0.00  0.00    +0.084 NA
ATOM      7  N   UNL     1      -2.708  -0.582  -0.870  0.00  0.00    -0.020 NA
ATOM      8  C   UNL     1      -1.221   0.716   0.143  0.00  0.00    +0.339 C 
ATOM      9  C   UNL     1      -1.609  -0.572  -0.117  0.00  0.00    +0.283 C 
BRANCH   9  10
ATOM     10  O   UNL     1      -1.072  -1.741   0.256  0.00  0.00    -0.459 OA
BRANCH  10  11
ATOM     11  C   UNL     1      -1.718  -2.947  -0.182  0.00  0.00    +0.207 C 
ATOM     12  C   UNL     1      -0.943  -4.139   0.336  0.00  0.00    +0.051 C 
ENDBRANCH  10  11
ENDBRANCH   9  10
ENDBRANCH   1   8
BRANCH   1  13
ATOM     13  C   UNL     1       1.575   0.514   0.304  0.00  0.00    +0.108 C 
ATOM     14  C   UNL     1       2.246   1.250  -0.673  0.00  0.00    +0.018 C 
ATOM     15  C   UNL     1       2.024  -0.761   0.648  0.00  0.00    +0.018 C 
ATOM     16  C   UNL     1       3.366   0.711  -1.306  0.00  0.00    +0.001 C 
ATOM     17  C   UNL     1       3.145  -1.300   0.015  0.00  0.00    +0.001 C 
ATOM     18  C   UNL     1       3.815  -0.564  -0.962  0.00  0.00    +0.000 C 
ENDBRANCH   1  13
TORSDOF 4
