102271635
  -OEChem-03292013293D

 73 78  0     1  0  0  0  0  0999 V2000
    0.5074   -0.3085   -2.5260 O   0  0  0  0  0  0  0  0  0  0  0  0
   -1.7539    1.1391   -1.7442 O   0  0  0  0  0  0  0  0  0  0  0  0
    1.7248    1.9813   -1.9918 O   0  0  0  0  0  0  0  0  0  0  0  0
    1.5937   -1.8923    2.6681 O   0  0  0  0  0  0  0  0  0  0  0  0
   -3.8218    0.6066    0.3566 O   0  0  0  0  0  0  0  0  0  0  0  0
   -3.6817   -2.4693   -0.0617 O   0  0  0  0  0  0  0  0  0  0  0  0
    3.5977    3.3448    0.2811 O   0  0  0  0  0  0  0  0  0  0  0  0
   -4.1642    2.6916    1.2909 O   0  0  0  0  0  0  0  0  0  0  0  0
    2.4788   -1.2938   -0.5753 N   0  0  2  0  0  0  0  0  0  0  0  0
    1.1446   -0.0216    1.0754 C   0  0  1  0  0  0  0  0  0  0  0  0
    1.8141    1.2617    0.4274 C   0  0  2  0  0  0  0  0  0  0  0  0
   -0.3373    0.2228    1.5859 C   0  0  1  0  0  0  0  0  0  0  0  0
    1.1039   -0.8902   -0.2096 C   0  0  1  0  0  0  0  0  0  0  0  0
    0.3581    0.0971   -1.1743 C   0  0  2  0  0  0  0  0  0  0  0  0
   -1.3661    0.7797    0.5782 C   0  0  1  0  0  0  0  0  0  0  0  0
   -1.1676    0.1807   -0.8336 C   0  0  1  0  0  0  0  0  0  0  0  0
    1.0000    1.4861   -0.8855 C   0  0  2  0  0  0  0  0  0  0  0  0
    3.3282    0.9745    0.1521 C   0  0  2  0  0  0  0  0  0  0  0  0
    1.9779   -0.5734    2.2872 C   0  0  2  0  0  0  0  0  0  0  0  0
   -1.0702   -1.0241    2.1574 C   0  0  0  0  0  0  0  0  0  0  0  0
   -2.4512   -1.0773    1.4857 C   0  0  1  0  0  0  0  0  0  0  0  0
   -2.7108    0.3917    1.2003 C   0  0  2  0  0  0  0  0  0  0  0  0
   -1.9397   -1.1452   -1.0656 C   0  0  0  0  0  0  0  0  0  0  0  0
    3.4263   -0.2069   -0.8593 C   0  0  0  0  0  0  0  0  0  0  0  0
    4.0292    0.6342    1.4885 C   0  0  0  0  0  0  0  0  0  0  0  0
   -2.3872   -1.9110    0.1911 C   0  0  2  0  0  0  0  0  0  0  0  0
    3.4914   -0.6092    2.1483 C   0  0  0  0  0  0  0  0  0  0  0  0
    4.0901    2.2069   -0.3891 C   0  0  0  0  0  0  0  0  0  0  0  0
    2.5431   -2.3526   -1.5733 C   0  0  0  0  0  0  0  0  0  0  0  0
   -1.6138    0.7031   -3.0794 C   0  0  0  0  0  0  0  0  0  0  0  0
    3.9303   -2.9695   -1.6307 C   0  0  0  0  0  0  0  0  0  0  0  0
   -4.4690    1.8077    0.5016 C   0  0  0  0  0  0  0  0  0  0  0  0
   -3.5842   -3.6601   -0.8238 C   0  0  0  0  0  0  0  0  0  0  0  0
   -5.6211    1.8955   -0.4528 C   0  0  0  0  0  0  0  0  0  0  0  0
    1.6887    2.1138    1.1058 H   0  0  0  0  0  0  0  0  0  0  0  0
   -0.2696    0.9553    2.4044 H   0  0  0  0  0  0  0  0  0  0  0  0
    0.5223   -1.8010   -0.0423 H   0  0  0  0  0  0  0  0  0  0  0  0
   -1.3251    1.8747    0.5446 H   0  0  0  0  0  0  0  0  0  0  0  0
    0.2484    2.2549   -0.6929 H   0  0  0  0  0  0  0  0  0  0  0  0
    1.7563    0.0761    3.1452 H   0  0  0  0  0  0  0  0  0  0  0  0
   -0.5495   -1.9691    2.0053 H   0  0  0  0  0  0  0  0  0  0  0  0
   -1.1910   -0.8958    3.2406 H   0  0  0  0  0  0  0  0  0  0  0  0
   -3.2066   -1.4959    2.1602 H   0  0  0  0  0  0  0  0  0  0  0  0
   -2.8495    0.9079    2.1613 H   0  0  0  0  0  0  0  0  0  0  0  0
   -1.3724   -1.8466   -1.6868 H   0  0  0  0  0  0  0  0  0  0  0  0
   -2.8558   -0.9432   -1.6397 H   0  0  0  0  0  0  0  0  0  0  0  0
    4.4575   -0.5769   -0.8149 H   0  0  0  0  0  0  0  0  0  0  0  0
    3.2829    0.1480   -1.8861 H   0  0  0  0  0  0  0  0  0  0  0  0
    3.9267    1.4763    2.1863 H   0  0  0  0  0  0  0  0  0  0  0  0
    5.1070    0.4952    1.3325 H   0  0  0  0  0  0  0  0  0  0  0  0
   -1.6931   -2.7441    0.3645 H   0  0  0  0  0  0  0  0  0  0  0  0
    3.8173   -1.5088    1.6126 H   0  0  0  0  0  0  0  0  0  0  0  0
    3.9430   -0.7170    3.1437 H   0  0  0  0  0  0  0  0  0  0  0  0
    3.9716    2.3490   -1.4656 H   0  0  0  0  0  0  0  0  0  0  0  0
    5.1688    2.1277   -0.2109 H   0  0  0  0  0  0  0  0  0  0  0  0
    0.3140   -1.2575   -2.5899 H   0  0  0  0  0  0  0  0  0  0  0  0
    1.8372   -3.1506   -1.3134 H   0  0  0  0  0  0  0  0  0  0  0  0
    2.2842   -2.0006   -2.5761 H   0  0  0  0  0  0  0  0  0  0  0  0
    1.9077    2.9213   -1.8224 H   0  0  0  0  0  0  0  0  0  0  0  0
    2.0550   -2.1111    3.4957 H   0  0  0  0  0  0  0  0  0  0  0  0
   -2.4826    1.1137   -3.6100 H   0  0  0  0  0  0  0  0  0  0  0  0
   -1.6530   -0.3666   -3.2979 H   0  0  0  0  0  0  0  0  0  0  0  0
   -0.7654    1.2015   -3.5608 H   0  0  0  0  0  0  0  0  0  0  0  0
    4.6620   -2.3087   -2.1055 H   0  0  0  0  0  0  0  0  0  0  0  0
    4.2931   -3.2416   -0.6335 H   0  0  0  0  0  0  0  0  0  0  0  0
    3.8995   -3.8870   -2.2290 H   0  0  0  0  0  0  0  0  0  0  0  0
    4.0856    4.1142   -0.0585 H   0  0  0  0  0  0  0  0  0  0  0  0
   -3.0199   -4.4251   -0.2812 H   0  0  0  0  0  0  0  0  0  0  0  0
   -3.1295   -3.4765   -1.8015 H   0  0  0  0  0  0  0  0  0  0  0  0
   -4.5964   -4.0406   -0.9886 H   0  0  0  0  0  0  0  0  0  0  0  0
   -5.2557    1.8183   -1.4799 H   0  0  0  0  0  0  0  0  0  0  0  0
   -6.1207    2.8608   -0.3316 H   0  0  0  0  0  0  0  0  0  0  0  0
   -6.3396    1.1005   -0.2389 H   0  0  0  0  0  0  0  0  0  0  0  0
  1 14  1  0  0  0  0
  1 56  1  0  0  0  0
  2 16  1  0  0  0  0
  2 30  1  0  0  0  0
  3 17  1  0  0  0  0
  3 59  1  0  0  0  0
  4 19  1  0  0  0  0
  4 60  1  0  0  0  0
  5 22  1  0  0  0  0
  5 32  1  0  0  0  0
  6 26  1  0  0  0  0
  6 33  1  0  0  0  0
  7 28  1  0  0  0  0
  7 67  1  0  0  0  0
  8 32  2  0  0  0  0
  9 13  1  0  0  0  0
  9 24  1  0  0  0  0
  9 29  1  0  0  0  0
 10 11  1  0  0  0  0
 10 12  1  0  0  0  0
 10 13  1  0  0  0  0
 10 19  1  0  0  0  0
 11 17  1  0  0  0  0
 11 18  1  0  0  0  0
 11 35  1  0  0  0  0
 12 15  1  0  0  0  0
 12 20  1  0  0  0  0
 12 36  1  0  0  0  0
 13 14  1  0  0  0  0
 13 37  1  0  0  0  0
 14 16  1  0  0  0  0
 14 17  1  0  0  0  0
 15 16  1  0  0  0  0
 15 22  1  0  0  0  0
 15 38  1  0  0  0  0
 16 23  1  0  0  0  0
 17 39  1  0  0  0  0
 18 24  1  0  0  0  0
 18 25  1  0  0  0  0
 18 28  1  0  0  0  0
 19 27  1  0  0  0  0
 19 40  1  0  0  0  0
 20 21  1  0  0  0  0
 20 41  1  0  0  0  0
 20 42  1  0  0  0  0
 21 22  1  0  0  0  0
 21 26  1  0  0  0  0
 21 43  1  0  0  0  0
 22 44  1  0  0  0  0
 23 26  1  0  0  0  0
 23 45  1  0  0  0  0
 23 46  1  0  0  0  0
 24 47  1  0  0  0  0
 24 48  1  0  0  0  0
 25 27  1  0  0  0  0
 25 49  1  0  0  0  0
 25 50  1  0  0  0  0
 26 51  1  0  0  0  0
 27 52  1  0  0  0  0
 27 53  1  0  0  0  0
 28 54  1  0  0  0  0
 28 55  1  0  0  0  0
 29 31  1  0  0  0  0
 29 57  1  0  0  0  0
 29 58  1  0  0  0  0
 30 61  1  0  0  0  0
 30 62  1  0  0  0  0
 30 63  1  0  0  0  0
 31 64  1  0  0  0  0
 31 65  1  0  0  0  0
 31 66  1  0  0  0  0
 32 34  1  0  0  0  0
 33 68  1  0  0  0  0
 33 69  1  0  0  0  0
 33 70  1  0  0  0  0
 34 71  1  0  0  0  0
 34 72  1  0  0  0  0
 34 73  1  0  0  0  0
M  END
> <PUBCHEM_COMPOUND_CID>
102271635

> <PUBCHEM_CONFORMER_RMSD>
1

> <PUBCHEM_CONFORMER_DIVERSEORDER>
1

> <PUBCHEM_MMFF94_PARTIAL_CHARGES>
27
1 -0.68
13 0.27
14 0.28
16 0.28
17 0.28
19 0.28
2 -0.56
22 0.28
24 0.27
26 0.28
28 0.28
29 0.27
3 -0.68
30 0.28
32 0.66
33 0.28
34 0.06
4 -0.68
5 -0.43
56 0.4
59 0.4
6 -0.56
60 0.4
67 0.4
7 -0.68
8 -0.57
9 -0.81

> <PUBCHEM_EFFECTIVE_ROTOR_COUNT>
8

> <PUBCHEM_PHARMACOPHORE_FEATURES>
16
1 1 acceptor
1 1 donor
1 2 acceptor
1 3 acceptor
1 3 donor
1 4 acceptor
1 4 donor
1 6 acceptor
1 7 acceptor
1 7 donor
1 8 acceptor
1 9 cation
6 10 11 18 19 25 27 rings
8 10 11 12 13 14 15 16 17 rings
8 12 15 16 20 21 22 23 26 rings
8 9 10 11 13 14 17 18 24 rings

> <PUBCHEM_HEAVY_ATOM_COUNT>
34

> <PUBCHEM_ATOM_DEF_STEREO_COUNT>
13

> <PUBCHEM_ATOM_UDEF_STEREO_COUNT>
0

> <PUBCHEM_BOND_DEF_STEREO_COUNT>
0

> <PUBCHEM_BOND_UDEF_STEREO_COUNT>
0

> <PUBCHEM_ISOTOPIC_ATOM_COUNT>
0

> <PUBCHEM_COMPONENT_COUNT>
1

> <PUBCHEM_CACTVS_TAUTO_COUNT>
2

> <PUBCHEM_CONFORMER_ID>
06188A9300000001

> <PUBCHEM_MMFF94_ENERGY>
196.781

> <PUBCHEM_FEATURE_SELFOVERLAP>
82.709

> <PUBCHEM_SHAPE_FINGERPRINT>
10863032 1 18130517378525184675
10948715 1 18411986874905102401
11370993 70 18272092681982868951
11421498 54 17980762963141718871
11578080 2 18270419246717811765
12156800 1 13457969766674585056
12422481 6 16588295038930600329
12553582 1 16443072706953577559
12633257 1 18114450202371538928
13140716 1 16516546549293712761
13224815 77 16298100990898593594
13583140 156 17489583493393706451
14289901 80 18200323224289067674
14790565 3 16590022522217053116
1601671 61 16226913054845156149
16945 1 18266161851943371044
17980427 23 17751364095380156724
21033648 29 18198058067444057777
22907989 373 16845026696438437977
23559900 14 18129948884001222714
238 59 15339117901450930881
2818148 4 15792598338232865915
469060 322 17200487896518214903
633830 44 17604446179171208526

> <PUBCHEM_SHAPE_MULTIPOLES>
647.77
8.46
3.14
2.54
4.3
1.2
-0.1
-2.39
0.35
0.61
-0.83
-0.76
0.41
0.21

> <PUBCHEM_SHAPE_SELFOVERLAP>
1422.156

> <PUBCHEM_SHAPE_VOLUME>
342.3

> <PUBCHEM_COORDINATE_TYPE>
2
5
10

$$$$
