REMARK  Name = 102231363
REMARK  5 active torsions:
REMARK  status: ('A' for Active; 'I' for Inactive)
REMARK    1  A    between atoms: C_6  and  O_23
REMARK    2  A    between atoms: C_15  and  C_29
REMARK    3  A    between atoms: C_20  and  O_27
REMARK    4  A    between atoms: C_21  and  O_25
REMARK    5  A    between atoms: C_29  and  C_30
REMARK                            x       y       z     vdW  Elec       q    Type
REMARK                         _______ _______ _______ _____ _____    ______ ____
ROOT
ATOM      1  O   UNL     1       0.750   0.975   1.226  0.00  0.00    -0.472 OA
ATOM      2  O   UNL     1      -1.946   1.862   1.355  0.00  0.00    -0.472 OA
ATOM      3  O   UNL     1       0.059  -3.050   1.615  0.00  0.00    -0.288 OA
ATOM      4  O   UNL     1      -3.981  -2.097  -1.825  0.00  0.00    -0.435 OA
ATOM      5  O   UNL     1      -4.762   0.164  -2.110  0.00  0.00    -0.435 OA
ATOM      6  C   UNL     1      -0.847  -0.818   1.835  0.00  0.00    +0.205 C 
ATOM      7  C   UNL     1      -0.124   0.466   2.244  0.00  0.00    +0.244 C 
ATOM      8  C   UNL     1      -1.894  -0.528   0.779  0.00  0.00    +0.049 C 
ATOM      9  C   UNL     1      -1.163   1.553   2.513  0.00  0.00    +0.252 C 
ATOM     10  C   UNL     1       0.191  -1.846   1.422  0.00  0.00    +0.208 C 
ATOM     11  C   UNL     1       1.396  -1.325   0.750  0.00  0.00    +0.074 C 
ATOM     12  C   UNL     1      -2.383   0.791   0.618  0.00  0.00    +0.141 C 
ATOM     13  C   UNL     1       1.599   0.053   0.684  0.00  0.00    +0.141 C 
ATOM     14  C   UNL     1      -2.423  -1.554  -0.026  0.00  0.00    +0.042 C 
ATOM     15  C   UNL     1       2.709   0.556   0.003  0.00  0.00    +0.053 C 
ATOM     16  C   UNL     1      -3.347   1.092  -0.353  0.00  0.00    +0.077 C 
ATOM     17  C   UNL     1      -3.378  -1.228  -0.968  0.00  0.00    +0.176 C 
ATOM     18  C   UNL     1       2.314  -2.203   0.168  0.00  0.00    +0.046 C 
ATOM     19  C   UNL     1      -3.825   0.060  -1.129  0.00  0.00    +0.179 C 
ATOM     20  C   UNL     1       3.626  -0.317  -0.583  0.00  0.00    +0.167 C 
ATOM     21  C   UNL     1       3.431  -1.695  -0.497  0.00  0.00    +0.172 C 
ATOM     22  C   UNL     1      -4.856  -1.207  -2.547  0.00  0.00    +0.429 C 
ENDROOT
BRANCH   6  23
ATOM     23  O   UNL     1      -1.499  -1.350   2.989  0.00  0.00    -0.372 OA
ATOM     24  H   UNL     1      -2.177  -0.726   3.294  0.00  0.00    +0.211 HD
ENDBRANCH   6  23
BRANCH  21  25
ATOM     25  O   UNL     1       4.319  -2.558  -1.065  0.00  0.00    -0.468 OA
ATOM     26  C   UNL     1       4.076  -2.941  -2.417  0.00  0.00    +0.253 C 
ENDBRANCH  21  25
BRANCH  20  27
ATOM     27  O   UNL     1       4.716   0.171  -1.242  0.00  0.00    -0.503 OA
ATOM     28  H   UNL     1       4.851   1.096  -1.302  0.00  0.00    +0.292 HD
ENDBRANCH  20  27
BRANCH  15  29
ATOM     29  C   UNL     1       2.929   2.033  -0.095  0.00  0.00    +0.058 C 
BRANCH  29  30
ATOM     30  C   UNL     1       2.008   2.695  -1.088  0.00  0.00    -0.030 C 
ATOM     31  C   UNL     1       1.123   3.685  -0.866  0.00  0.00    -0.048 C 
ATOM     32  C   UNL     1       0.953   4.259   0.516  0.00  0.00    +0.026 C 
ATOM     33  C   UNL     1       0.231   4.301  -1.906  0.00  0.00    +0.026 C 
ENDBRANCH  29  30
ENDBRANCH  15  29
TORSDOF 5
