10220554
  -OEChem-03292013303D

 27 27  0     1  0  0  0  0  0999 V2000
   -4.9963    0.1506   -0.8483 S   0  0  0  0  0  0  0  0  0  0  0  0
    3.5061    1.6781    1.3209 S   0  0  0  0  0  0  0  0  0  0  0  0
   -0.6622    1.1574   -1.1898 O   0  0  0  0  0  0  0  0  0  0  0  0
    2.4755   -1.8635    0.5694 O   0  0  0  0  0  0  0  0  0  0  0  0
    3.9112   -1.2043   -1.0568 O   0  0  0  0  0  0  0  0  0  0  0  0
   -2.6932    0.8956    0.3757 N   0  0  0  0  0  0  0  0  0  0  0  0
    0.8228    0.1202    0.2724 N   0  0  0  0  0  0  0  0  0  0  0  0
   -1.4700    0.3628    0.9074 C   0  0  1  0  0  0  0  0  0  0  0  0
   -1.7717   -1.1138    1.1035 C   0  0  0  0  0  0  0  0  0  0  0  0
   -2.8536   -1.4235    0.0657 C   0  0  0  0  0  0  0  0  0  0  0  0
   -0.4126    0.6049   -0.1216 C   0  0  0  0  0  0  0  0  0  0  0  0
   -3.5259   -0.0907   -0.1241 C   0  0  0  0  0  0  0  0  0  0  0  0
    2.0062    0.2085   -0.5523 C   0  0  1  0  0  0  0  0  0  0  0  0
    2.7586    1.5237   -0.3353 C   0  0  0  0  0  0  0  0  0  0  0  0
    2.9049   -1.0059   -0.3869 C   0  0  0  0  0  0  0  0  0  0  0  0
   -1.2159    0.8759    1.8396 H   0  0  0  0  0  0  0  0  0  0  0  0
   -2.1918   -1.2675    2.1058 H   0  0  0  0  0  0  0  0  0  0  0  0
   -0.9104   -1.7804    1.0018 H   0  0  0  0  0  0  0  0  0  0  0  0
   -3.5468   -2.1943    0.4138 H   0  0  0  0  0  0  0  0  0  0  0  0
   -2.4091   -1.7392   -0.8848 H   0  0  0  0  0  0  0  0  0  0  0  0
   -2.9121    1.8863    0.3375 H   0  0  0  0  0  0  0  0  0  0  0  0
    1.6632    0.1794   -1.5947 H   0  0  0  0  0  0  0  0  0  0  0  0
    0.9203   -0.2924    1.1958 H   0  0  0  0  0  0  0  0  0  0  0  0
    2.0888    2.3778   -0.4818 H   0  0  0  0  0  0  0  0  0  0  0  0
    3.5720    1.6124   -1.0634 H   0  0  0  0  0  0  0  0  0  0  0  0
    2.3593    1.6047    2.0124 H   0  0  0  0  0  0  0  0  0  0  0  0
    3.0653   -2.6427    0.6551 H   0  0  0  0  0  0  0  0  0  0  0  0
  1 12  2  0  0  0  0
  2 14  1  0  0  0  0
  2 26  1  0  0  0  0
  3 11  2  0  0  0  0
  4 15  1  0  0  0  0
  4 27  1  0  0  0  0
  5 15  2  0  0  0  0
  6  8  1  0  0  0  0
  6 12  1  0  0  0  0
  6 21  1  0  0  0  0
  7 11  1  0  0  0  0
  7 13  1  0  0  0  0
  7 23  1  0  0  0  0
  8  9  1  0  0  0  0
  8 11  1  0  0  0  0
  8 16  1  0  0  0  0
  9 10  1  0  0  0  0
  9 17  1  0  0  0  0
  9 18  1  0  0  0  0
 10 12  1  0  0  0  0
 10 19  1  0  0  0  0
 10 20  1  0  0  0  0
 13 14  1  0  0  0  0
 13 15  1  0  0  0  0
 13 22  1  0  0  0  0
 14 24  1  0  0  0  0
 14 25  1  0  0  0  0
M  END
> <PUBCHEM_COMPOUND_CID>
10220554

> <PUBCHEM_CONFORMER_RMSD>
0.6

> <PUBCHEM_CONFORMER_DIVERSEORDER>
1
4
78
70
23
73
46
67
88
12
93
94
79
49
91
13
63
71
75
40
43
33
87
90
22
80
48
61
45
28
85
30
11
19
77
25
42
76
60
32
57
9
29
92
21
51
20
17
64
36
38
14
56
72
62
54
84
83
3
53
86
89
47
31
66
52
10
6
24
41
82
74
68
27
39
8
34
44
81
65
59
37
7
2
50
26
15
55
35
18
58
69
5
16

> <PUBCHEM_MMFF94_PARTIAL_CHARGES>
18
1 -0.38
10 0.06
11 0.57
12 0.38
13 0.36
14 0.23
15 0.66
2 -0.41
21 0.37
23 0.37
26 0.18
27 0.5
3 -0.57
4 -0.65
5 -0.57
6 -0.73
7 -0.73
8 0.36

> <PUBCHEM_EFFECTIVE_ROTOR_COUNT>
5.8

> <PUBCHEM_PHARMACOPHORE_FEATURES>
7
1 1 acceptor
1 3 acceptor
1 4 acceptor
1 5 acceptor
1 7 donor
3 4 5 15 anion
5 6 8 9 10 12 rings

> <PUBCHEM_HEAVY_ATOM_COUNT>
15

> <PUBCHEM_ATOM_DEF_STEREO_COUNT>
2

> <PUBCHEM_ATOM_UDEF_STEREO_COUNT>
0

> <PUBCHEM_BOND_DEF_STEREO_COUNT>
0

> <PUBCHEM_BOND_UDEF_STEREO_COUNT>
0

> <PUBCHEM_ISOTOPIC_ATOM_COUNT>
0

> <PUBCHEM_COMPONENT_COUNT>
1

> <PUBCHEM_CACTVS_TAUTO_COUNT>
6

> <PUBCHEM_CONFORMER_ID>
009BF40A00000001

> <PUBCHEM_MMFF94_ENERGY>
31.1312

> <PUBCHEM_FEATURE_SELFOVERLAP>
35.581

> <PUBCHEM_SHAPE_FINGERPRINT>
11132069 177 18260261984128229809
12932764 1 18187933841431121680
13296908 3 18261403281429479771
13533116 47 18202284684609020119
13544592 145 18334012765874741071
13549 16 18041276591599820063
13571099 22 18410578396336149773
15375358 24 18188203311937316761
15536298 74 18411982476774097706
17834072 14 18337103566264604943
18186145 218 18333452023729623665
19026448 5 17489593359403051153
200 152 17989205932399761679
20201158 50 18335991869625173882
20279233 1 18260548947930564224
20523700 14 17531259343620952054
20528008 55 18412825810903758225
20645476 183 14707504619126721387
20645477 56 18114459054721102757
20645477 70 18344148089702926639
21730867 7 18413390960318401936
22169311 21 18410574028233064411
22485316 2 18201716297263672079
23048698 100 17561365097238871752
23402539 116 17750498732299456541
23559900 14 18411699911034066352
3248919 1 18041566939346143328
474 4 17130132346643900808
495365 180 18342727520658487515
5374978 207 18060416923943431521
581208 293 18336265738462365836
69090 78 18410288121277463159
7364860 26 18131354120354780144
81228 2 17749390312978639341
81539 233 18198902694495920384
93112 12 18334300868022841199
9709674 26 18263648527149698443

> <PUBCHEM_SHAPE_MULTIPOLES>
288.82
8.59
1.7
1.15
3.43
0.28
0.08
-0.1
-1.2
-1.64
0.18
-0.22
-0.09
0.91

> <PUBCHEM_SHAPE_SELFOVERLAP>
562.591

> <PUBCHEM_SHAPE_VOLUME>
176.9

> <PUBCHEM_COORDINATE_TYPE>
2
5
10

$$$$
