REMARK  Name = 102210446
REMARK  7 active torsions:
REMARK  status: ('A' for Active; 'I' for Inactive)
REMARK    1  A    between atoms: N_2  and  C_19
REMARK    2  A    between atoms: C_3  and  C_7
REMARK    3  A    between atoms: C_11  and  C_13
REMARK    4  A    between atoms: C_19  and  C_22
REMARK    5  A    between atoms: C_19  and  C_25
REMARK    6  A    between atoms: C_25  and  C_27
REMARK    7  A    between atoms: C_27  and  O_28
REMARK                            x       y       z     vdW  Elec       q    Type
REMARK                         _______ _______ _______ _____ _____    ______ ____
ROOT
ATOM      1  O   UNL     1      -0.416  -0.883   1.244  0.00  0.00    -0.273 OA
ATOM      2  N   UNL     1      -1.875  -0.330  -0.484  0.00  0.00    -0.297 N 
ATOM      3  C   UNL     1      -0.690  -0.808   0.049  0.00  0.00    +0.241 C 
ATOM      4  H   UNL     1      -1.978  -0.320  -1.463  0.00  0.00    +0.150 HD
ENDROOT
BRANCH   3   7
ATOM      5  O   UNL     1       1.690   1.212  -0.765  0.00  0.00    -0.277 OA
ATOM      6  N   UNL     1       1.611  -1.085  -0.488  0.00  0.00    -0.275 N 
ATOM      7  C   UNL     1       0.264  -1.270  -1.012  0.00  0.00    +0.152 C 
ATOM      8  C   UNL     1       0.149  -2.769  -1.263  0.00  0.00    +0.031 C 
ATOM      9  C   UNL     1       2.227  -2.366  -0.153  0.00  0.00    +0.094 C 
ATOM     10  C   UNL     1       1.091  -3.376  -0.227  0.00  0.00    +0.024 C 
ATOM     11  C   UNL     1       2.243   0.149  -0.476  0.00  0.00    +0.206 C 
BRANCH  11  13
ATOM     12  N   UNL     1       4.340   1.239  -0.761  0.00  0.00    +0.391 N 
ATOM     13  C   UNL     1       3.680   0.133  -0.069  0.00  0.00    +0.017 C 
ATOM     14  C   UNL     1       3.874   0.392   1.423  0.00  0.00    -0.015 C 
ATOM     15  C   UNL     1       4.688   1.676   1.490  0.00  0.00    -0.025 C 
ATOM     16  C   UNL     1       5.376   1.728   0.142  0.00  0.00    -0.081 C 
ATOM     17  H   UNL     1       3.669   1.980  -0.963  0.00  0.00    -0.084 HD
ATOM     18  H   UNL     1       4.737   0.936  -1.651  0.00  0.00    -0.084 HD
ENDBRANCH  11  13
ENDBRANCH   3   7
BRANCH   2  19
ATOM     19  C   UNL     1      -2.968   0.154   0.327  0.00  0.00    +0.160 C 
BRANCH  19  22
ATOM     20  O   UNL     1      -4.026  -2.003  -0.035  0.00  0.00    -0.274 OA
ATOM     21  N   UNL     1      -4.414  -0.910   1.948  0.00  0.00    -0.327 N 
ATOM     22  C   UNL     1      -3.832  -1.041   0.705  0.00  0.00    +0.238 C 
ATOM     23  H   UNL     1      -4.995  -1.624   2.298  0.00  0.00    +0.145 HD
ATOM     24  H   UNL     1      -4.249  -0.102   2.486  0.00  0.00    +0.145 HD
ENDBRANCH  19  22
BRANCH  19  25
ATOM     25  C   UNL     1      -3.796   1.207  -0.412  0.00  0.00    +0.138 C 
BRANCH  25  27
ATOM     26  O   UNL     1      -2.099   2.861   0.162  0.00  0.00    -0.250 OA
ATOM     27  C   UNL     1      -3.168   2.584  -0.363  0.00  0.00    +0.316 C 
BRANCH  27  28
ATOM     28  O   UNL     1      -3.950   3.506  -0.984  0.00  0.00    -0.480 OA
ATOM     29  H   UNL     1      -4.762   3.247  -1.372  0.00  0.00    +0.295 HD
ENDBRANCH  27  28
ENDBRANCH  25  27
ENDBRANCH  19  25
ENDBRANCH   2  19
TORSDOF 7
