REMARK  Name = 10226
REMARK  4 active torsions:
REMARK  status: ('A' for Active; 'I' for Inactive)
REMARK    1  A    between atoms: C_4  and  S_11
REMARK    2  A    between atoms: C_5  and  N_17
REMARK    3  A    between atoms: C_6  and  O_21
REMARK    4  A    between atoms: C_8  and  N_20
REMARK                            x       y       z     vdW  Elec       q    Type
REMARK                         _______ _______ _______ _____ _____    ______ ____
ROOT
ATOM      1  C   UNL     1      -0.114  -0.467   0.025  0.00  0.00    +0.038 C 
ATOM      2  C   UNL     1       0.172   0.919   0.016  0.00  0.00    +0.026 C 
ATOM      3  C   UNL     1      -1.452  -0.892   0.044  0.00  0.00    +0.022 C 
ATOM      4  C   UNL     1      -2.494   0.036   0.053  0.00  0.00    +0.112 C 
ATOM      5  C   UNL     1       1.510   1.345  -0.002  0.00  0.00    +0.145 C 
ATOM      6  C   UNL     1       0.948  -1.386   0.016  0.00  0.00    +0.156 C 
ATOM      7  C   UNL     1      -0.889   1.839   0.025  0.00  0.00    +0.003 C 
ATOM      8  C   UNL     1       2.271  -0.946  -0.002  0.00  0.00    +0.178 C 
ATOM      9  C   UNL     1      -2.213   1.399   0.043  0.00  0.00    +0.019 C 
ATOM     10  C   UNL     1       2.552   0.417  -0.011  0.00  0.00    +0.051 C 
ENDROOT
BRANCH   4  11
ATOM     11  S   UNL     1      -4.152  -0.513   0.072  0.00  0.00    +0.042 S 
ATOM     12  O   UNL     1      -4.575  -0.655  -1.501  0.00  0.00    -0.065 OA
ATOM     13  O   UNL     1      -4.175  -1.853   0.641  0.00  0.00    -0.065 OA
ATOM     14  O   UNL     1      -4.945   0.556   0.658  0.00  0.00    -0.065 OA
ENDBRANCH   4  11
BRANCH   5  17
ATOM     15  O   UNL     1       3.078   3.035  -0.034  0.00  0.00    -0.126 OA
ATOM     16  O   UNL     1       0.952   3.583  -0.008  0.00  0.00    -0.126 OA
ATOM     17  N   UNL     1       1.865   2.726  -0.015  0.00  0.00    +0.058 N 
ENDBRANCH   5  17
BRANCH   8  20
ATOM     18  O   UNL     1       4.524  -1.438  -0.029  0.00  0.00    -0.126 OA
ATOM     19  O   UNL     1       3.092  -3.101  -0.003  0.00  0.00    -0.126 OA
ATOM     20  N   UNL     1       3.349  -1.874  -0.012  0.00  0.00    +0.061 N 
ENDBRANCH   8  20
BRANCH   6  21
ATOM     21  O   UNL     1       0.696  -2.732   0.025  0.00  0.00    -0.504 OA
ATOM     22  H   UNL     1      -0.187  -3.043   0.037  0.00  0.00    +0.292 HD
ENDBRANCH   6  21
TORSDOF 4
