REMARK  Name = 102271635
REMARK  10 active torsions:
REMARK  status: ('A' for Active; 'I' for Inactive)
REMARK    1  A    between atoms: N_1  and  C_31
REMARK    2  A    between atoms: C_6  and  O_21
REMARK    3  A    between atoms: C_8  and  O_23
REMARK    4  A    between atoms: C_9  and  O_25
REMARK    5  A    between atoms: C_10  and  C_37
REMARK    6  A    between atoms: C_11  and  O_27
REMARK    7  A    between atoms: C_14  and  O_33
REMARK    8  A    between atoms: C_18  and  O_29
REMARK    9  A    between atoms: O_33  and  C_35
REMARK   10  A    between atoms: C_37  and  O_38
REMARK                            x       y       z     vdW  Elec       q    Type
REMARK                         _______ _______ _______ _____ _____    ______ ____
ROOT
ATOM      1  N   UNL     1       2.479  -1.294  -0.575  0.00  0.00    +0.390 N 
ATOM      2  C   UNL     1       1.145  -0.022   1.075  0.00  0.00    +0.013 C 
ATOM      3  C   UNL     1       1.814   1.262   0.427  0.00  0.00    +0.030 C 
ATOM      4  C   UNL     1      -0.337   0.223   1.586  0.00  0.00    +0.007 C 
ATOM      5  C   UNL     1       1.104  -0.890  -0.210  0.00  0.00    -0.026 C 
ATOM      6  C   UNL     1       0.358   0.097  -1.174  0.00  0.00    +0.119 C 
ATOM      7  C   UNL     1      -1.366   0.780   0.578  0.00  0.00    +0.067 C 
ATOM      8  C   UNL     1      -1.168   0.181  -0.834  0.00  0.00    +0.121 C 
ATOM      9  C   UNL     1       1.000   1.486  -0.885  0.00  0.00    +0.135 C 
ATOM     10  C   UNL     1       3.328   0.975   0.152  0.00  0.00    +0.011 C 
ATOM     11  C   UNL     1       1.978  -0.573   2.287  0.00  0.00    +0.109 C 
ATOM     12  C   UNL     1      -1.070  -1.024   2.157  0.00  0.00    +0.006 C 
ATOM     13  C   UNL     1      -2.451  -1.077   1.486  0.00  0.00    +0.067 C 
ATOM     14  C   UNL     1      -2.711   0.392   1.200  0.00  0.00    +0.173 C 
ATOM     15  C   UNL     1      -1.940  -1.145  -1.066  0.00  0.00    +0.059 C 
ATOM     16  C   UNL     1       3.426  -0.207  -0.859  0.00  0.00    -0.075 C 
ATOM     17  C   UNL     1       4.029   0.634   1.488  0.00  0.00    +0.003 C 
ATOM     18  C   UNL     1      -2.387  -1.911   0.191  0.00  0.00    +0.121 C 
ATOM     19  C   UNL     1       3.491  -0.609   2.148  0.00  0.00    +0.029 C 
ATOM     20  H   UNL     1       2.814  -1.691   0.303  0.00  0.00    -0.080 HD
ENDROOT
BRANCH   6  21
ATOM     21  O   UNL     1       0.507  -0.308  -2.526  0.00  0.00    -0.384 OA
ATOM     22  H   UNL     1       0.092  -1.176  -2.651  0.00  0.00    +0.210 HD
ENDBRANCH   6  21
BRANCH   8  23
ATOM     23  O   UNL     1      -1.754   1.139  -1.744  0.00  0.00    -0.353 OA
ATOM     24  C   UNL     1      -1.614   0.703  -3.079  0.00  0.00    +0.174 C 
ENDBRANCH   8  23
BRANCH   9  25
ATOM     25  O   UNL     1       1.725   1.981  -1.992  0.00  0.00    -0.382 OA
ATOM     26  H   UNL     1       2.106   2.845  -1.768  0.00  0.00    +0.210 HD
ENDBRANCH   9  25
BRANCH  11  27
ATOM     27  O   UNL     1       1.594  -1.892   2.668  0.00  0.00    -0.385 OA
ATOM     28  H   UNL     1       0.630  -1.931   2.773  0.00  0.00    +0.210 HD
ENDBRANCH  11  27
BRANCH  18  29
ATOM     29  O   UNL     1      -3.682  -2.469  -0.062  0.00  0.00    -0.353 OA
ATOM     30  C   UNL     1      -3.584  -3.660  -0.824  0.00  0.00    +0.174 C 
ENDBRANCH  18  29
BRANCH   1  31
ATOM     31  C   UNL     1       2.543  -2.353  -1.573  0.00  0.00    -0.077 C 
ATOM     32  C   UNL     1       3.930  -2.970  -1.631  0.00  0.00    -0.025 C 
ENDBRANCH   1  31
BRANCH  14  33
ATOM     33  O   UNL     1      -3.822   0.607   0.357  0.00  0.00    -0.452 OA
BRANCH  33  35
ATOM     34  O   UNL     1      -4.164   2.692   1.291  0.00  0.00    -0.250 OA
ATOM     35  C   UNL     1      -4.469   1.808   0.502  0.00  0.00    +0.317 C 
ATOM     36  C   UNL     1      -5.621   1.895  -0.453  0.00  0.00    +0.121 C 
ENDBRANCH  33  35
ENDBRANCH  14  33
BRANCH  10  37
ATOM     37  C   UNL     1       4.090   2.207  -0.389  0.00  0.00    +0.135 C 
BRANCH  37  38
ATOM     38  O   UNL     1       3.598   3.345   0.281  0.00  0.00    -0.382 OA
ATOM     39  H   UNL     1       4.060   4.135  -0.040  0.00  0.00    +0.210 HD
ENDBRANCH  37  38
ENDBRANCH  10  37
TORSDOF 10
