REMARK  Name = 102293917
REMARK  8 active torsions:
REMARK  status: ('A' for Active; 'I' for Inactive)
REMARK    1  A    between atoms: CA_5  and  N_11
REMARK    2  A    between atoms: CA_7  and  C_22
REMARK    3  A    between atoms: C_9  and  C_25
REMARK    4  A    between atoms: C_12  and  C_14
REMARK    5  A    between atoms: C_14  and  C_15
REMARK    6  A    between atoms: C_22  and  O_23
REMARK    7  A    between atoms: C_26  and  C_27
REMARK    8  A    between atoms: C_32  and  N_35
REMARK                            x       y       z     vdW  Elec       q    Type
REMARK                         _______ _______ _______ _____ _____    ______ ____
ROOT
ATOM      1  S   UNL     1       1.405   0.962   2.590  0.00  0.00    -0.114 S 
ATOM      2  O   UNL     1       1.762   3.386  -1.373  0.00  0.00    -0.273 OA
ATOM      3  N   UNL     1       0.969   1.702   0.078  0.00  0.00    -0.242 N 
ATOM      4  C   UNL     1       1.936   0.953   0.861  0.00  0.00    +0.155 C 
ATOM      5  CA  UNL     1       2.962   2.040   0.457  0.00  0.00    +0.178 C 
ATOM      6  C   UNL     1       1.848   2.545  -0.509  0.00  0.00    +0.251 C 
ATOM      7  CA  UNL     1      -0.366   1.442   0.074  0.00  0.00    +0.128 C 
ATOM      8  C   UNL     1      -0.164   0.101   2.225  0.00  0.00    +0.087 C 
ATOM      9  C   UNL     1      -0.931   0.667   1.032  0.00  0.00    +0.009 C 
ENDROOT
BRANCH   5  11
ATOM     10  O   UNL     1       5.183   0.644   1.667  0.00  0.00    -0.275 OA
ATOM     11  N   UNL     1       4.148   1.527  -0.214  0.00  0.00    -0.296 N 
ATOM     12  C   UNL     1       5.178   0.860   0.458  0.00  0.00    +0.227 C 
ATOM     13  H   UNL     1       4.229   1.655  -1.187  0.00  0.00    +0.150 HD
BRANCH  12  14
ATOM     14  C   UNL     1       6.294   0.435  -0.476  0.00  0.00    +0.111 C 
BRANCH  14  15
ATOM     15  C   UNL     1       6.523  -1.053  -0.494  0.00  0.00    -0.013 C 
ATOM     16  C   UNL     1       7.426  -1.631   0.400  0.00  0.00    -0.004 C 
ATOM     17  C   UNL     1       5.832  -1.854  -1.403  0.00  0.00    -0.004 C 
ATOM     18  C   UNL     1       7.637  -3.010   0.383  0.00  0.00    -0.000 C 
ATOM     19  C   UNL     1       6.044  -3.232  -1.419  0.00  0.00    -0.000 C 
ATOM     20  C   UNL     1       6.946  -3.810  -0.526  0.00  0.00    -0.000 C 
ENDBRANCH  14  15
ENDBRANCH  12  14
ENDBRANCH   5  11
BRANCH   7  22
ATOM     21  OXT UNL     1      -2.051   2.879  -0.790  0.00  0.00    -0.244 OA
ATOM     22  C   UNL     1      -1.157   2.083  -0.990  0.00  0.00    +0.352 C 
BRANCH  22  23
ATOM     23  O   UNL     1      -0.728   1.644  -2.189  0.00  0.00    -0.476 OA
ATOM     24  H   UNL     1      -0.026   1.025  -2.237  0.00  0.00    +0.295 HD
ENDBRANCH  22  23
ENDBRANCH   7  22
BRANCH   9  25
ATOM     25  C   UNL     1      -2.332   0.290   1.062  0.00  0.00    -0.002 C 
ATOM     26  C   UNL     1      -3.009  -0.042  -0.038  0.00  0.00    -0.000 C 
BRANCH  26  27
ATOM     27  C   UNL     1      -4.433  -0.421  -0.059  0.00  0.00    +0.000 C 
ATOM     28  C   UNL     1      -5.057  -0.855   1.111  0.00  0.00    +0.002 C 
ATOM     29  C   UNL     1      -5.156  -0.348  -1.250  0.00  0.00    +0.002 C 
ATOM     30  C   UNL     1      -6.404  -1.215   1.090  0.00  0.00    +0.024 C 
ATOM     31  C   UNL     1      -6.504  -0.709  -1.270  0.00  0.00    +0.024 C 
ATOM     32  C   UNL     1      -7.128  -1.142  -0.100  0.00  0.00    +0.143 C 
BRANCH  32  35
ATOM     33  O   UNL     1      -9.042  -1.896   0.941  0.00  0.00    -0.126 OA
ATOM     34  O   UNL     1      -9.131  -1.435  -1.203  0.00  0.00    -0.126 OA
ATOM     35  N   UNL     1      -8.499  -1.509  -0.122  0.00  0.00    +0.058 N 
ENDBRANCH  32  35
ENDBRANCH  26  27
ENDBRANCH   9  25
TORSDOF 8
