REMARK  Name = 102213
REMARK  5 active torsions:
REMARK  status: ('A' for Active; 'I' for Inactive)
REMARK    1  A    between atoms: N_1  and  C_12
REMARK    2  A    between atoms: C_11  and  O_15
REMARK    3  A    between atoms: C_13  and  O_17
REMARK    4  A    between atoms: C_14  and  C_19
REMARK    5  A    between atoms: C_19  and  O_20
REMARK                            x       y       z     vdW  Elec       q    Type
REMARK                         _______ _______ _______ _____ _____    ______ ____
ROOT
ATOM      1  N   UNL     1      -0.338  -0.420  -0.172  0.00  0.00    -0.247 N 
ATOM      2  N   UNL     1      -1.828  -1.859   0.658  0.00  0.00    -0.242 NA
ATOM      3  N   UNL     1      -1.827   1.375  -0.849  0.00  0.00    -0.228 NA
ATOM      4  N   UNL     1      -4.154   0.836  -0.348  0.00  0.00    -0.229 NA
ATOM      5  C   UNL     1      -1.560   0.173  -0.317  0.00  0.00    +0.152 C 
ATOM      6  C   UNL     1      -0.552  -1.639   0.418  0.00  0.00    +0.223 C 
ATOM      7  C   UNL     1      -2.470  -0.734   0.203  0.00  0.00    +0.140 C 
ATOM      8  C   UNL     1      -3.811  -0.366   0.176  0.00  0.00    +0.143 C 
ATOM      9  C   UNL     1      -3.155   1.620  -0.821  0.00  0.00    +0.253 C 
ATOM     10  N   UNL     1      -4.801  -1.224   0.684  0.00  0.00    -0.342 N 
ATOM     11  H   UNL     1      -5.748  -0.953   0.660  0.00  0.00    +0.144 HD
ATOM     12  H   UNL     1      -4.549  -2.096   1.065  0.00  0.00    +0.144 HD
ENDROOT
BRANCH   1  15
ATOM     13  O   UNL     1       1.832  -0.938  -0.981  0.00  0.00    -0.333 OA
ATOM     14  C   UNL     1       1.685   0.865   0.548  0.00  0.00    +0.191 C 
ATOM     15  C   UNL     1       0.958   0.129  -0.567  0.00  0.00    +0.225 C 
ATOM     16  C   UNL     1       3.128   0.742   0.099  0.00  0.00    +0.171 C 
ATOM     17  C   UNL     1       3.166  -0.663  -0.492  0.00  0.00    +0.175 C 
BRANCH  14  18
ATOM     18  O   UNL     1       1.253   2.205   0.664  0.00  0.00    -0.347 OA
ATOM     19  C   UNL     1       2.030   2.932   1.611  0.00  0.00    +0.174 C 
ENDBRANCH  14  18
BRANCH  16  20
ATOM     20  O   UNL     1       3.384   1.687  -0.940  0.00  0.00    -0.379 OA
ATOM     21  H   UNL     1       3.362   2.585  -0.574  0.00  0.00    +0.211 HD
ENDBRANCH  16  20
BRANCH  17  22
ATOM     22  C   UNL     1       3.531  -1.728   0.532  0.00  0.00    +0.169 C 
BRANCH  22  23
ATOM     23  O   UNL     1       3.530  -2.993  -0.108  0.00  0.00    -0.379 OA
ATOM     24  H   UNL     1       3.761  -3.681   0.535  0.00  0.00    +0.211 HD
ENDBRANCH  22  23
ENDBRANCH  17  22
ENDBRANCH   1  15
TORSDOF 5
