REMARK  Name = 102216630
REMARK  6 active torsions:
REMARK  status: ('A' for Active; 'I' for Inactive)
REMARK    1  A    between atoms: C_5  and  O_24
REMARK    2  A    between atoms: C_6  and  O_26
REMARK    3  A    between atoms: C_10  and  O_28
REMARK    4  A    between atoms: O_28  and  C_30
REMARK    5  A    between atoms: C_30  and  C_31
REMARK    6  A    between atoms: C_32  and  C_34
REMARK                            x       y       z     vdW  Elec       q    Type
REMARK                         _______ _______ _______ _____ _____    ______ ____
ROOT
ATOM      1  O   UNL     1       1.891  -1.182   1.194  0.00  0.00    -0.358 OA
ATOM      2  O   UNL     1       1.061   1.079   0.495  0.00  0.00    -0.325 OA
ATOM      3  O   UNL     1       3.660   2.822  -0.952  0.00  0.00    -0.293 OA
ATOM      4  C   UNL     1       0.952  -1.240   2.285  0.00  0.00    +0.122 C 
ATOM      5  C   UNL     1      -0.286  -0.339   1.924  0.00  0.00    +0.190 C 
ATOM      6  C   UNL     1       0.033   1.139   1.493  0.00  0.00    +0.249 C 
ATOM      7  C   UNL     1       2.121  -2.484   0.640  0.00  0.00    +0.119 C 
ATOM      8  C   UNL     1       0.610  -2.732   2.445  0.00  0.00    +0.032 C 
ATOM      9  C   UNL     1       0.945  -3.336   1.097  0.00  0.00    +0.032 C 
ATOM     10  C   UNL     1      -1.183   1.924   0.915  0.00  0.00    +0.222 C 
ATOM     11  C   UNL     1       2.366  -2.371  -0.894  0.00  0.00    +0.043 C 
ATOM     12  C   UNL     1      -0.761   3.294   0.330  0.00  0.00    +0.048 C 
ATOM     13  C   UNL     1       0.419   3.122  -0.639  0.00  0.00    +0.041 C 
ATOM     14  C   UNL     1       1.534   2.329   0.030  0.00  0.00    +0.175 C 
ATOM     15  C   UNL     1       1.684  -0.739   3.535  0.00  0.00    +0.032 C 
ATOM     16  C   UNL     1       3.534  -1.403  -1.111  0.00  0.00    -0.029 C 
ATOM     17  C   UNL     1       2.812  -3.752  -1.431  0.00  0.00    +0.007 C 
ATOM     18  C   UNL     1       1.091  -1.992  -1.667  0.00  0.00    +0.007 C 
ATOM     19  C   UNL     1      -1.920   4.014  -0.364  0.00  0.00    +0.004 C 
ATOM     20  C   UNL     1       2.682   2.069  -0.940  0.00  0.00    +0.181 C 
ATOM     21  C   UNL     1       2.575   0.886  -1.909  0.00  0.00    +0.082 C 
ATOM     22  C   UNL     1       3.623  -0.123  -1.519  0.00  0.00    -0.024 C 
ATOM     23  C   UNL     1       2.790   1.371  -3.341  0.00  0.00    +0.013 C 
ENDROOT
BRANCH   5  24
ATOM     24  O   UNL     1      -1.018  -0.981   0.880  0.00  0.00    -0.378 OA
ATOM     25  H   UNL     1      -1.218  -1.893   1.140  0.00  0.00    +0.211 HD
ENDBRANCH   5  24
BRANCH   6  26
ATOM     26  O   UNL     1       0.494   1.797   2.682  0.00  0.00    -0.359 OA
ATOM     27  H   UNL     1       1.251   1.312   3.046  0.00  0.00    +0.213 HD
ENDBRANCH   6  26
BRANCH  10  28
ATOM     28  O   UNL     1      -1.842   1.188  -0.115  0.00  0.00    -0.444 OA
BRANCH  28  30
ATOM     29  O   UNL     1      -3.799   1.190   1.108  0.00  0.00    -0.245 OA
ATOM     30  C   UNL     1      -3.152   0.890   0.118  0.00  0.00    +0.341 C 
BRANCH  30  31
ATOM     31  C   UNL     1      -3.647   0.119  -1.049  0.00  0.00    +0.073 C 
ATOM     32  C   UNL     1      -4.606  -0.824  -1.010  0.00  0.00    -0.037 C 
ATOM     33  C   UNL     1      -5.263  -1.161   0.306  0.00  0.00    +0.027 C 
BRANCH  32  34
ATOM     34  C   UNL     1      -5.093  -1.642  -2.184  0.00  0.00    +0.022 C 
ATOM     35  C   UNL     1      -4.305  -2.933  -2.355  0.00  0.00    +0.005 C 
ENDBRANCH  32  34
ENDBRANCH  30  31
ENDBRANCH  28  30
ENDBRANCH  10  28
TORSDOF 6
