REMARK  Name = 102276
REMARK  7 active torsions:
REMARK  status: ('A' for Active; 'I' for Inactive)
REMARK    1  A    between atoms: C_2  and  O_17
REMARK    2  A    between atoms: C_3  and  C_19
REMARK    3  A    between atoms: C_5  and  N_7
REMARK    4  A    between atoms: C_19  and  O_20
REMARK    5  A    between atoms: O_20  and  P_21
REMARK    6  A    between atoms: P_21  and  O_23
REMARK    7  A    between atoms: P_21  and  O_25
REMARK                            x       y       z     vdW  Elec       q    Type
REMARK                         _______ _______ _______ _____ _____    ______ ____
ROOT
ATOM      1  O   UNL     1      -0.444   1.324   1.020  0.00  0.00    -0.334 OA
ATOM      2  C   UNL     1      -1.010   2.863  -0.692  0.00  0.00    +0.144 C 
ATOM      3  C   UNL     1      -1.573   1.856   0.301  0.00  0.00    +0.174 C 
ATOM      4  C   UNL     1       0.371   2.322  -0.982  0.00  0.00    +0.084 C 
ATOM      5  C   UNL     1       0.766   1.700   0.348  0.00  0.00    +0.209 C 
ENDROOT
BRANCH   5   7
ATOM      6  O   UNL     1       3.567   1.735   0.390  0.00  0.00    -0.193 OA
ATOM      7  N   UNL     1       1.603   0.546   0.195  0.00  0.00    -0.181 N 
ATOM      8  N   UNL     1       3.744  -0.504   0.075  0.00  0.00    -0.306 NA
ATOM      9  N   UNL     1       3.966  -2.781  -0.244  0.00  0.00    -0.332 N 
ATOM     10  C   UNL     1       0.990  -0.672   0.013  0.00  0.00    +0.079 C 
ATOM     11  C   UNL     1       3.002   0.652   0.229  0.00  0.00    +0.275 C 
ATOM     12  C   UNL     1       1.678  -1.807  -0.139  0.00  0.00    +0.038 C 
ATOM     13  C   UNL     1       3.169  -1.667  -0.098  0.00  0.00    +0.189 C 
ATOM     14  C   UNL     1       1.044  -3.144  -0.338  0.00  0.00    +0.037 C 
ATOM     15  H   UNL     1       4.946  -2.693  -0.218  0.00  0.00    +0.145 HD
ATOM     16  H   UNL     1       3.555  -3.667  -0.375  0.00  0.00    +0.145 HD
ENDBRANCH   5   7
BRANCH   2  17
ATOM     17  O   UNL     1      -0.904   4.144  -0.077  0.00  0.00    -0.382 OA
ATOM     18  H   UNL     1      -1.792   4.489   0.108  0.00  0.00    +0.210 HD
ENDBRANCH   2  17
BRANCH   3  19
ATOM     19  C   UNL     1      -2.288   0.693  -0.375  0.00  0.00    +0.186 C 
BRANCH  19  20
ATOM     20  O   UNL     1      -2.766  -0.194   0.624  0.00  0.00    -0.271 OA
BRANCH  20  21
ATOM     21  P   UNL     1      -3.568  -1.520   0.157  0.00  0.00    +0.473 P 
ATOM     22  O   UNL     1      -4.039  -2.402   1.276  0.00  0.00    -0.227 OA
BRANCH  21  23
ATOM     23  O   UNL     1      -2.567  -2.221  -0.902  0.00  0.00    -0.303 OA
ATOM     24  H   UNL     1      -2.317  -1.579  -1.585  0.00  0.00    +0.222 HD
ENDBRANCH  21  23
BRANCH  21  25
ATOM     25  O   UNL     1      -4.741  -0.920  -0.780  0.00  0.00    -0.303 OA
ATOM     26  H   UNL     1      -4.350  -0.365  -1.473  0.00  0.00    +0.222 HD
ENDBRANCH  21  25
ENDBRANCH  20  21
ENDBRANCH  19  20
ENDBRANCH   3  19
TORSDOF 7
