REMARK  Name = 102287777
REMARK  14 active torsions:
REMARK  status: ('A' for Active; 'I' for Inactive)
REMARK    1  A    between atoms: C_3  and  C_5
REMARK    2  A    between atoms: C_5  and  C_7
REMARK    3  A    between atoms: C_7  and  C_9
REMARK    4  A    between atoms: C_9  and  C_17
REMARK    5  A    between atoms: C_12  and  C_32
REMARK    6  A    between atoms: CA_14  and  C_29
REMARK    7  A    between atoms: CA_20  and  C_25
REMARK    8  A    between atoms: C_25  and  O_26
REMARK    9  A    between atoms: C_29  and  O_30
REMARK   10  A    between atoms: C_32  and  C_33
REMARK   11  A    between atoms: C_33  and  CA_34
REMARK   12  A    between atoms: CA_34  and  N_35
REMARK   13  A    between atoms: CA_34  and  C_40
REMARK   14  A    between atoms: C_40  and  O_41
REMARK                            x       y       z     vdW  Elec       q    Type
REMARK                         _______ _______ _______ _____ _____    ______ ____
ROOT
ATOM      1  N   UNL     1      -0.452   0.145  -0.522  0.00  0.00    -0.333 N 
ATOM      2  N   UNL     1       3.531   1.288  -0.261  0.00  0.00    -0.266 NA
ATOM      3  C   UNL     1      -0.206   1.555  -0.901  0.00  0.00    +0.075 C 
ATOM      4  C   UNL     1       1.206   2.046  -0.505  0.00  0.00    +0.058 C 
ATOM      5  C   UNL     1       1.330   2.790   0.832  0.00  0.00    +0.010 C 
ATOM      6  C   UNL     1       2.293   0.967  -0.482  0.00  0.00    +0.053 C 
ATOM      7  C   UNL     1       2.790   3.164   1.137  0.00  0.00    +0.036 C 
ATOM      8  C   UNL     1       1.913  -0.463  -0.625  0.00  0.00    +0.005 C 
ATOM      9  C   UNL     1       0.606  -0.747  -0.577  0.00  0.00    +0.055 C 
ATOM     10  CA  UNL     1       3.751   2.703   0.040  0.00  0.00    +0.201 C 
ATOM     11  H   UNL     1      -1.176   0.613  -0.047  0.00  0.00    +0.147 HD
ENDROOT
BRANCH  10  13
ATOM     12  OXT UNL     1       5.927   1.846   0.638  0.00  0.00    -0.248 OA
ATOM     13  C   UNL     1       5.165   2.794   0.515  0.00  0.00    +0.336 C 
BRANCH  13  14
ATOM     14  O   UNL     1       5.494   4.079   0.796  0.00  0.00    -0.479 OA
ATOM     15  H   UNL     1       4.862   4.760   0.680  0.00  0.00    +0.295 HD
ENDBRANCH  13  14
ENDBRANCH  10  13
BRANCH   3  16
ATOM     16  C   UNL     1      -1.339   2.457  -0.374  0.00  0.00    +0.024 C 
BRANCH  16  17
ATOM     17  C   UNL     1      -2.723   1.946  -0.789  0.00  0.00    +0.022 C 
BRANCH  17  18
ATOM     18  C   UNL     1      -2.865   0.470  -0.534  0.00  0.00    -0.064 C 
ATOM     19  C   UNL     1      -1.768  -0.294  -0.404  0.00  0.00    -0.011 C 
BRANCH  18  21
ATOM     20  N   UNL     1      -4.880   0.552   0.712  0.00  0.00    +0.396 N 
ATOM     21  C   UNL     1      -4.255  -0.081  -0.453  0.00  0.00    -0.042 C 
ATOM     22  C   UNL     1      -5.017   0.211  -1.744  0.00  0.00    -0.017 C 
ATOM     23  C   UNL     1      -6.473  -0.226  -1.626  0.00  0.00    -0.003 C 
ATOM     24  CA  UNL     1      -6.278   0.130   0.897  0.00  0.00    +0.040 C 
ATOM     25  C   UNL     1      -7.112   0.371  -0.373  0.00  0.00    -0.011 C 
ATOM     26  H1  UNL     1      -4.857   1.564   0.586  0.00  0.00    -0.083 HD
ATOM     27  H2  UNL     1      -4.356   0.267   1.539  0.00  0.00    -0.083 HD
BRANCH  24  29
ATOM     28  OXT UNL     1      -5.439  -2.026   1.602  0.00  0.00    -0.253 OA
ATOM     29  C   UNL     1      -6.384  -1.275   1.411  0.00  0.00    +0.293 C 
BRANCH  29  30
ATOM     30  O   UNL     1      -7.679  -1.606   1.637  0.00  0.00    -0.482 OA
ATOM     31  H   UNL     1      -8.358  -0.982   1.470  0.00  0.00    +0.295 HD
ENDBRANCH  29  30
ENDBRANCH  24  29
ENDBRANCH  18  21
ENDBRANCH  17  18
ENDBRANCH  16  17
ENDBRANCH   3  16
BRANCH   8  32
ATOM     32  C   UNL     1       2.986  -1.500  -0.705  0.00  0.00    +0.027 C 
BRANCH  32  33
ATOM     33  C   UNL     1       3.471  -1.980   0.666  0.00  0.00    -0.006 C 
BRANCH  33  34
ATOM     34  CA  UNL     1       4.628  -2.992   0.638  0.00  0.00    +0.036 C 
BRANCH  34  35
ATOM     35  N   UNL     1       5.781  -2.471  -0.097  0.00  0.00    +0.389 N 
ATOM     36  H1  UNL     1       6.109  -1.614   0.349  0.00  0.00    -0.088 HD
ATOM     37  H2  UNL     1       5.508  -2.271  -1.059  0.00  0.00    -0.088 HD
ATOM     38  H3  UNL     1       6.528  -3.165  -0.092  0.00  0.00    -0.088 HD
ENDBRANCH  34  35
BRANCH  34  40
ATOM     39  OXT UNL     1       4.660  -4.717  -1.091  0.00  0.00    -0.253 OA
ATOM     40  C   UNL     1       4.178  -4.263  -0.061  0.00  0.00    +0.293 C 
BRANCH  40  41
ATOM     41  O   UNL     1       3.158  -4.871   0.601  0.00  0.00    -0.482 OA
ATOM     42  H   UNL     1       2.816  -4.491   1.386  0.00  0.00    +0.295 HD
ENDBRANCH  40  41
ENDBRANCH  34  40
ENDBRANCH  33  34
ENDBRANCH  32  33
ENDBRANCH   8  32
TORSDOF 14
