REMARK  Name = 102202611
REMARK  8 active torsions:
REMARK  status: ('A' for Active; 'I' for Inactive)
REMARK    1  A    between atoms: C_2  and  N_4
REMARK    2  A    between atoms: C_2  and  N_19
REMARK    3  A    between atoms: C_5  and  C_9
REMARK    4  A    between atoms: C_8  and  C_13
REMARK    5  A    between atoms: N_19  and  N_22
REMARK    6  A    between atoms: C_23  and  C_25
REMARK    7  A    between atoms: C_26  and  N_32
REMARK    8  A    between atoms: N_32  and  O_33
REMARK                            x       y       z     vdW  Elec       q    Type
REMARK                         _______ _______ _______ _____ _____    ______ ____
ROOT
ATOM      1  S   UNL     1       5.419   0.990   0.390  0.00  0.00    -0.017 S 
ATOM      2  C   UNL     1       3.752   0.976   0.562  0.00  0.00    +0.153 C 
ENDROOT
BRANCH   2   4
ATOM      3  O   UNL     1       4.299  -1.882  -0.330  0.00  0.00    -0.266 OA
ATOM      4  N   UNL     1       2.900  -0.120   0.338  0.00  0.00    -0.260 N 
ATOM      5  C   UNL     1       3.188  -1.430  -0.075  0.00  0.00    +0.285 C 
ATOM      6  H   UNL     1       1.945   0.062   0.497  0.00  0.00    +0.157 HD
BRANCH   5   9
ATOM      7  O   UNL     1       0.776  -1.776   0.010  0.00  0.00    -0.449 OA
ATOM      8  C   UNL     1      -0.130  -2.764  -0.214  0.00  0.00    +0.146 C 
ATOM      9  C   UNL     1       2.001  -2.307  -0.244  0.00  0.00    +0.199 C 
ATOM     10  C   UNL     1       0.503  -3.920  -0.609  0.00  0.00    +0.041 C 
ATOM     11  C   UNL     1       1.887  -3.623  -0.628  0.00  0.00    +0.045 C 
BRANCH   8  13
ATOM     12 CL   UNL     1      -0.910  -1.817   2.610  0.00  0.00    -0.082 Cl
ATOM     13  C   UNL     1      -1.502  -2.401   0.001  0.00  0.00    +0.045 C 
ATOM     14  C   UNL     1      -1.960  -1.959   1.242  0.00  0.00    +0.061 C 
ATOM     15  C   UNL     1      -2.386  -2.500  -1.073  0.00  0.00    +0.004 C 
ATOM     16  C   UNL     1      -3.302  -1.617   1.409  0.00  0.00    +0.011 C 
ATOM     17  C   UNL     1      -3.728  -2.157  -0.907  0.00  0.00    +0.000 C 
ATOM     18  C   UNL     1      -4.186  -1.716   0.334  0.00  0.00    +0.001 C 
ENDBRANCH   8  13
ENDBRANCH   5   9
ENDBRANCH   2   4
BRANCH   2  19
ATOM     19  N   UNL     1       3.101   2.129   0.970  0.00  0.00    -0.245 N 
ATOM     20  H   UNL     1       3.626   2.942   1.148  0.00  0.00    +0.172 HD
BRANCH  19  22
ATOM     21  O   UNL     1       1.361   2.796  -1.067  0.00  0.00    -0.269 OA
ATOM     22  N   UNL     1       1.734   2.159   1.130  0.00  0.00    -0.231 N 
ATOM     23  C   UNL     1       0.944   2.506   0.051  0.00  0.00    +0.263 C 
ATOM     24  H   UNL     1       1.327   1.938   1.999  0.00  0.00    +0.173 HD
BRANCH  23  25
ATOM     25  C   UNL     1      -0.519   2.508   0.306  0.00  0.00    +0.075 C 
ATOM     26  C   UNL     1      -1.430   2.223  -0.711  0.00  0.00    +0.119 C 
ATOM     27  C   UNL     1      -0.977   2.803   1.590  0.00  0.00    +0.006 C 
ATOM     28  C   UNL     1      -2.799   2.232  -0.444  0.00  0.00    +0.022 C 
ATOM     29  C   UNL     1      -2.346   2.812   1.857  0.00  0.00    +0.000 C 
ATOM     30  C   UNL     1      -3.257   2.527   0.840  0.00  0.00    +0.002 C 
BRANCH  26  32
ATOM     31  O   UNL     1      -1.314   2.617  -3.057  0.00  0.00    -0.057 OA
ATOM     32  N   UNL     1      -0.985   1.920  -2.031  0.00  0.00    -0.092 N 
BRANCH  32  33
ATOM     33  O   UNL     1      -0.132   0.792  -2.250  0.00  0.00    -0.260 OA
ATOM     34  H   UNL     1       0.163   0.589  -3.116  0.00  0.00    +0.247 HD
ENDBRANCH  32  33
ENDBRANCH  26  32
ENDBRANCH  23  25
ENDBRANCH  19  22
ENDBRANCH   2  19
TORSDOF 8
