REMARK  Name = 102237436
REMARK  6 active torsions:
REMARK  status: ('A' for Active; 'I' for Inactive)
REMARK    1  A    between atoms: C_8  and  O_22
REMARK    2  A    between atoms: C_10  and  O_26
REMARK    3  A    between atoms: C_14  and  O_30
REMARK    4  A    between atoms: C_16  and  O_24
REMARK    5  A    between atoms: O_26  and  C_28
REMARK    6  A    between atoms: O_30  and  C_32
REMARK                            x       y       z     vdW  Elec       q    Type
REMARK                         _______ _______ _______ _____ _____    ______ ____
ROOT
ATOM      1  O   UNL     1       2.668   1.013  -2.613  0.00  0.00    -0.292 OA
ATOM      2  C   UNL     1      -0.357   0.156   0.795  0.00  0.00    +0.009 C 
ATOM      3  C   UNL     1       1.026   0.026   0.004  0.00  0.00    +0.047 C 
ATOM      4  C   UNL     1       1.680   1.393  -0.387  0.00  0.00    +0.061 C 
ATOM      5  C   UNL     1      -1.277   1.170  -0.004  0.00  0.00    +0.031 C 
ATOM      6  C   UNL     1      -2.807   1.212   0.402  0.00  0.00    +0.042 C 
ATOM      7  C   UNL     1       0.699   2.407  -0.982  0.00  0.00    +0.037 C 
ATOM      8  C   UNL     1      -0.613   2.553  -0.214  0.00  0.00    +0.111 C 
ATOM      9  C   UNL     1       2.550   1.975   0.743  0.00  0.00    +0.012 C 
ATOM     10  C   UNL     1       2.053  -0.961   0.665  0.00  0.00    +0.169 C 
ATOM     11  C   UNL     1      -1.063  -1.239   0.786  0.00  0.00    +0.033 C 
ATOM     12  C   UNL     1       3.739   1.015   0.790  0.00  0.00    +0.029 C 
ATOM     13  C   UNL     1       3.273  -0.327   1.370  0.00  0.00    +0.048 C 
ATOM     14  C   UNL     1      -3.380  -0.239   0.436  0.00  0.00    +0.195 C 
ATOM     15  C   UNL     1       2.795   1.114  -1.403  0.00  0.00    +0.168 C 
ATOM     16  C   UNL     1      -2.521  -1.205   1.254  0.00  0.00    +0.150 C 
ATOM     17  C   UNL     1      -0.115   0.529   2.277  0.00  0.00    +0.000 C 
ATOM     18  C   UNL     1       4.079   0.918  -0.668  0.00  0.00    +0.012 C 
ATOM     19  C   UNL     1      -3.095   1.909   1.746  0.00  0.00    +0.004 C 
ATOM     20  C   UNL     1      -3.607   2.013  -0.665  0.00  0.00    +0.004 C 
ATOM     21  C   UNL     1       5.264   0.749  -1.254  0.00  0.00    -0.002 C 
ENDROOT
BRANCH   8  22
ATOM     22  O   UNL     1      -0.397   3.251   1.000  0.00  0.00    -0.384 OA
ATOM     23  H   UNL     1      -1.236   3.337   1.478  0.00  0.00    +0.210 HD
ENDBRANCH   8  22
BRANCH  16  24
ATOM     24  O   UNL     1      -3.052  -2.527   1.154  0.00  0.00    -0.381 OA
ATOM     25  H   UNL     1      -2.504  -3.136   1.673  0.00  0.00    +0.210 HD
ENDBRANCH  16  24
BRANCH  10  26
ATOM     26  O   UNL     1       2.528  -1.881  -0.330  0.00  0.00    -0.452 OA
BRANCH  26  28
ATOM     27  O   UNL     1       2.753  -3.514   1.289  0.00  0.00    -0.250 OA
ATOM     28  C   UNL     1       2.839  -3.122   0.133  0.00  0.00    +0.317 C 
ATOM     29  C   UNL     1       3.317  -3.968  -1.007  0.00  0.00    +0.121 C 
ENDBRANCH  26  28
ENDBRANCH  10  26
BRANCH  14  30
ATOM     30  O   UNL     1      -3.536  -0.760  -0.890  0.00  0.00    -0.450 OA
BRANCH  30  32
ATOM     31  O   UNL     1      -5.811  -0.968  -0.544  0.00  0.00    -0.250 OA
ATOM     32  C   UNL     1      -4.811  -1.081  -1.242  0.00  0.00    +0.318 C 
ATOM     33  C   UNL     1      -4.822  -1.610  -2.644  0.00  0.00    +0.121 C 
ENDBRANCH  30  32
ENDBRANCH  14  30
TORSDOF 6
