REMARK  Name = 102212087
REMARK  7 active torsions:
REMARK  status: ('A' for Active; 'I' for Inactive)
REMARK    1  A    between atoms: C_6  and  C_22
REMARK    2  A    between atoms: C_17  and  C_28
REMARK    3  A    between atoms: C_22  and  C_25
REMARK    4  A    between atoms: C_25  and  O_26
REMARK    5  A    between atoms: C_28  and  O_30
REMARK    6  A    between atoms: C_28  and  C_32
REMARK    7  A    between atoms: C_32  and  O_33
REMARK                            x       y       z     vdW  Elec       q    Type
REMARK                         _______ _______ _______ _____ _____    ______ ____
ROOT
ATOM      1  O   UNL     1       3.421   1.247   0.890  0.00  0.00    -0.456 OA
ATOM      2  O   UNL     1       4.857   2.932   1.488  0.00  0.00    -0.250 OA
ATOM      3  C   UNL     1      -1.666  -0.505   0.599  0.00  0.00    +0.000 C 
ATOM      4  C   UNL     1      -2.633   0.473  -0.145  0.00  0.00    +0.001 C 
ATOM      5  C   UNL     1      -0.174  -0.359   0.148  0.00  0.00    +0.000 C 
ATOM      6  C   UNL     1      -4.012   0.023   0.411  0.00  0.00    +0.011 C 
ATOM      7  C   UNL     1       0.297   1.141   0.205  0.00  0.00    +0.003 C 
ATOM      8  C   UNL     1      -2.384  -1.852   0.384  0.00  0.00    +0.000 C 
ATOM      9  C   UNL     1      -2.236   1.910   0.200  0.00  0.00    +0.000 C 
ATOM     10  C   UNL     1      -3.889  -1.518   0.492  0.00  0.00    +0.001 C 
ATOM     11  C   UNL     1      -0.784   2.193  -0.203  0.00  0.00    +0.000 C 
ATOM     12  C   UNL     1       0.277  -1.069  -1.143  0.00  0.00    +0.000 C 
ATOM     13  C   UNL     1       1.558   1.469  -0.640  0.00  0.00    +0.040 C 
ATOM     14  C   UNL     1       2.876   0.711  -0.342  0.00  0.00    +0.139 C 
ATOM     15  C   UNL     1      -1.645  -0.293   2.162  0.00  0.00    +0.000 C 
ATOM     16  C   UNL     1      -2.643   0.325  -1.693  0.00  0.00    +0.000 C 
ATOM     17  C   UNL     1       2.709  -0.818  -0.146  0.00  0.00    +0.064 C 
ATOM     18  C   UNL     1       1.763  -1.492  -1.159  0.00  0.00    +0.006 C 
ATOM     19  C   UNL     1       3.932   1.113  -1.379  0.00  0.00    +0.052 C 
ATOM     20  C   UNL     1       4.476   2.421  -0.848  0.00  0.00    +0.113 C 
ATOM     21  C   UNL     1       4.309   2.254   0.632  0.00  0.00    +0.317 C 
ENDROOT
BRANCH   6  22
ATOM     22  C   UNL     1      -5.256   0.468  -0.351  0.00  0.00    +0.099 C 
ATOM     23  C   UNL     1      -5.603   1.918  -0.024  0.00  0.00    +0.012 C 
BRANCH  22  25
ATOM     24  O   UNL     1      -6.893  -0.628   1.090  0.00  0.00    -0.250 OA
ATOM     25  C   UNL     1      -6.415  -0.450  -0.021  0.00  0.00    +0.313 C 
BRANCH  25  26
ATOM     26  O   UNL     1      -6.876  -1.060  -1.143  0.00  0.00    -0.480 OA
ATOM     27  H   UNL     1      -6.471  -0.887  -1.970  0.00  0.00    +0.295 HD
ENDBRANCH  25  26
ENDBRANCH  22  25
ENDBRANCH   6  22
BRANCH  17  28
ATOM     28  C   UNL     1       4.039  -1.593  -0.108  0.00  0.00    +0.118 C 
ATOM     29  C   UNL     1       4.410  -2.066  -1.511  0.00  0.00    +0.032 C 
BRANCH  28  30
ATOM     30  O   UNL     1       5.058  -0.691   0.324  0.00  0.00    -0.384 OA
ATOM     31  H   UNL     1       4.850  -0.371   1.216  0.00  0.00    +0.210 HD
ENDBRANCH  28  30
BRANCH  28  32
ATOM     32  C   UNL     1       3.944  -2.752   0.888  0.00  0.00    +0.164 C 
BRANCH  32  33
ATOM     33  O   UNL     1       5.182  -3.452   0.945  0.00  0.00    -0.380 OA
ATOM     34  H   UNL     1       5.110  -4.184   1.578  0.00  0.00    +0.211 HD
ENDBRANCH  32  33
ENDBRANCH  28  32
ENDBRANCH  17  28
TORSDOF 7
