REMARK  Name = 102220567
REMARK  9 active torsions:
REMARK  status: ('A' for Active; 'I' for Inactive)
REMARK    1  A    between atoms: C_2  and  O_7
REMARK    2  A    between atoms: C_3  and  O_9
REMARK    3  A    between atoms: C_4  and  O_11
REMARK    4  A    between atoms: C_5  and  C_24
REMARK    5  A    between atoms: C_6  and  O_13
REMARK    6  A    between atoms: O_13  and  C_14
REMARK    7  A    between atoms: C_14  and  C_15
REMARK    8  A    between atoms: C_16  and  N_21
REMARK    9  A    between atoms: C_24  and  O_25
REMARK                            x       y       z     vdW  Elec       q    Type
REMARK                         _______ _______ _______ _____ _____    ______ ____
ROOT
ATOM      1  O   UNL     1       1.391   0.850  -0.009  0.00  0.00    -0.326 OA
ATOM      2  C   UNL     1       3.136  -1.431  -0.065  0.00  0.00    +0.172 C 
ATOM      3  C   UNL     1       3.632  -0.012  -0.344  0.00  0.00    +0.169 C 
ATOM      4  C   UNL     1       1.631  -1.548  -0.307  0.00  0.00    +0.196 C 
ATOM      5  C   UNL     1       2.757   1.020   0.373  0.00  0.00    +0.176 C 
ATOM      6  C   UNL     1       0.867  -0.417   0.382  0.00  0.00    +0.266 C 
ENDROOT
BRANCH   2   7
ATOM      7  O   UNL     1       3.829  -2.321  -0.942  0.00  0.00    -0.379 OA
ATOM      8  H   UNL     1       4.784  -2.247  -0.789  0.00  0.00    +0.211 HD
ENDBRANCH   2   7
BRANCH   3   9
ATOM      9  O   UNL     1       4.977   0.115   0.109  0.00  0.00    -0.379 OA
ATOM     10  H   UNL     1       5.533  -0.538  -0.343  0.00  0.00    +0.211 HD
ENDBRANCH   3   9
BRANCH   4  11
ATOM     11  O   UNL     1       1.162  -2.789   0.220  0.00  0.00    -0.378 OA
ATOM     12  H   UNL     1       1.636  -3.521  -0.206  0.00  0.00    +0.211 HD
ENDBRANCH   4  11
BRANCH   6  13
ATOM     13  O   UNL     1      -0.503  -0.513  -0.005  0.00  0.00    -0.324 OA
BRANCH  13  14
ATOM     14  C   UNL     1      -1.346   0.176   0.905  0.00  0.00    +0.173 C 
BRANCH  14  15
ATOM     15  C   UNL     1      -2.770   0.043   0.452  0.00  0.00    +0.020 C 
ATOM     16  C   UNL     1      -3.252   0.776  -0.633  0.00  0.00    +0.040 C 
ATOM     17  C   UNL     1      -3.616  -0.830   1.134  0.00  0.00    -0.001 C 
ATOM     18  C   UNL     1      -4.580   0.636  -1.035  0.00  0.00    +0.014 C 
ATOM     19  C   UNL     1      -4.945  -0.971   0.732  0.00  0.00    -0.000 C 
ATOM     20  C   UNL     1      -5.427  -0.238  -0.352  0.00  0.00    +0.001 C 
BRANCH  16  21
ATOM     21  N   UNL     1      -2.409   1.665  -1.336  0.00  0.00    -0.357 N 
ATOM     22  H   UNL     1      -1.470   1.773  -1.062  0.00  0.00    +0.142 HD
ATOM     23  H   UNL     1      -2.761   2.177  -2.100  0.00  0.00    +0.142 HD
ENDBRANCH  16  21
ENDBRANCH  14  15
ENDBRANCH  13  14
ENDBRANCH   6  13
BRANCH   5  24
ATOM     24  C   UNL     1       3.160   2.447   0.016  0.00  0.00    +0.169 C 
BRANCH  24  25
ATOM     25  O   UNL     1       2.305   3.342   0.704  0.00  0.00    -0.379 OA
ATOM     26  H   UNL     1       2.550   4.255   0.487  0.00  0.00    +0.211 HD
ENDBRANCH  24  25
ENDBRANCH   5  24
TORSDOF 9
