REMARK  Name = 10220197
REMARK  5 active torsions:
REMARK  status: ('A' for Active; 'I' for Inactive)
REMARK    1  A    between atoms: C_1  and  N_4
REMARK    2  A    between atoms: C_1  and  C_12
REMARK    3  A    between atoms: N_11  and  C_14
REMARK    4  A    between atoms: C_14  and  C_15
REMARK    5  A    between atoms: C_15  and  O_16
REMARK                            x       y       z     vdW  Elec       q    Type
REMARK                         _______ _______ _______ _____ _____    ______ ____
ROOT
ATOM      1  C   UNL     1       0.162   0.366  -0.748  0.00  0.00    +0.184 C 
ENDROOT
BRANCH   1   4
ATOM      2  O   UNL     1      -2.588  -2.490   0.644  0.00  0.00    -0.123 OA
ATOM      3  O   UNL     1      -0.640  -1.606   1.157  0.00  0.00    -0.123 OA
ATOM      4  N   UNL     1      -1.289   0.520  -0.644  0.00  0.00    -0.242 N 
ATOM      5  N   UNL     1      -3.386   0.092  -0.123  0.00  0.00    -0.207 NA
ATOM      6  N   UNL     1      -1.778  -1.520   0.613  0.00  0.00    +0.091 N 
ATOM      7  C   UNL     1      -2.146  -0.334  -0.033  0.00  0.00    +0.284 C 
ATOM      8  C   UNL     1      -1.998   1.554  -1.159  0.00  0.00    +0.089 C 
ATOM      9  C   UNL     1      -3.301   1.269  -0.824  0.00  0.00    +0.118 C 
ENDBRANCH   1   4
BRANCH   1  12
ATOM     10  O   UNL     1       0.292   1.586   1.310  0.00  0.00    -0.273 OA
ATOM     11  N   UNL     1       2.301   0.906   0.373  0.00  0.00    -0.274 N 
ATOM     12  C   UNL     1       0.906   1.011   0.408  0.00  0.00    +0.246 C 
ATOM     13  C   UNL     1       3.093   1.497   1.444  0.00  0.00    +0.115 C 
BRANCH  11  14
ATOM     14  C   UNL     1       3.070   0.232  -0.671  0.00  0.00    +0.125 C 
BRANCH  14  15
ATOM     15  C   UNL     1       3.291  -1.233  -0.343  0.00  0.00    +0.159 C 
BRANCH  15  16
ATOM     16  O   UNL     1       4.011  -1.851  -1.402  0.00  0.00    -0.380 OA
ATOM     17  H   UNL     1       4.153  -2.787  -1.193  0.00  0.00    +0.211 HD
ENDBRANCH  15  16
ENDBRANCH  14  15
ENDBRANCH  11  14
ENDBRANCH   1  12
TORSDOF 5
