102205430
  -OEChem-03292013293D

 40 42  0     1  0  0  0  0  0999 V2000
   -1.7915    2.4034    0.3057 O   0  0  0  0  0  0  0  0  0  0  0  0
   -1.3502   -0.7036   -1.1663 O   0  0  0  0  0  0  0  0  0  0  0  0
   -1.2345   -0.0523    2.3291 O   0  0  0  0  0  0  0  0  0  0  0  0
   -1.1685    1.3143   -2.2338 O   0  0  0  0  0  0  0  0  0  0  0  0
   -3.6969   -1.7339   -0.0547 O   0  0  0  0  0  0  0  0  0  0  0  0
   -1.3438    4.6496    0.1813 O   0  0  0  0  0  0  0  0  0  0  0  0
   -3.1262   -4.4289   -0.3817 O   0  0  0  0  0  0  0  0  0  0  0  0
    3.4274   -2.0858    1.6427 O   0  0  0  0  0  0  0  0  0  0  0  0
    4.6893   -1.7802   -0.8149 O   0  0  0  0  0  0  0  0  0  0  0  0
   -1.0344    1.1916    0.2073 C   0  0  1  0  0  0  0  0  0  0  0  0
    0.3833    1.6096    0.6103 C   0  0  2  0  0  0  0  0  0  0  0  0
   -1.7094    0.0846    1.0043 C   0  0  1  0  0  0  0  0  0  0  0  0
   -1.3823   -1.1543    0.1938 C   0  0  1  0  0  0  0  0  0  0  0  0
    0.4588    3.0349    0.0699 C   0  0  0  0  0  0  0  0  0  0  0  0
   -1.1831    0.6556   -1.2051 C   0  0  0  0  0  0  0  0  0  0  0  0
   -2.4260   -2.2493    0.3408 C   0  0  2  0  0  0  0  0  0  0  0  0
    1.5324    0.7044    0.2335 C   0  0  0  0  0  0  0  0  0  0  0  0
   -0.9651    3.4888    0.2000 C   0  0  0  0  0  0  0  0  0  0  0  0
   -2.1036   -3.4509   -0.5393 C   0  0  0  0  0  0  0  0  0  0  0  0
    1.9602   -0.2850    1.1188 C   0  0  0  0  0  0  0  0  0  0  0  0
    2.1649    0.8572   -1.0003 C   0  0  0  0  0  0  0  0  0  0  0  0
    3.0205   -1.1217    0.7704 C   0  0  0  0  0  0  0  0  0  0  0  0
    3.2254    0.0206   -1.3486 C   0  0  0  0  0  0  0  0  0  0  0  0
    3.6531   -0.9689   -0.4634 C   0  0  0  0  0  0  0  0  0  0  0  0
    0.4130    1.7276    1.7045 H   0  0  0  0  0  0  0  0  0  0  0  0
   -2.7889    0.2701    1.0575 H   0  0  0  0  0  0  0  0  0  0  0  0
   -0.4016   -1.5688    0.4489 H   0  0  0  0  0  0  0  0  0  0  0  0
    0.7279    3.1285   -0.9835 H   0  0  0  0  0  0  0  0  0  0  0  0
    1.1191    3.6562    0.6816 H   0  0  0  0  0  0  0  0  0  0  0  0
   -2.5199   -2.5652    1.3855 H   0  0  0  0  0  0  0  0  0  0  0  0
   -1.4310    0.7779    2.7957 H   0  0  0  0  0  0  0  0  0  0  0  0
   -2.0792   -3.1786   -1.5994 H   0  0  0  0  0  0  0  0  0  0  0  0
   -1.1447   -3.8980   -0.2593 H   0  0  0  0  0  0  0  0  0  0  0  0
    1.4725   -0.4029    2.0829 H   0  0  0  0  0  0  0  0  0  0  0  0
    1.8506    1.5932   -1.7314 H   0  0  0  0  0  0  0  0  0  0  0  0
   -3.6224   -1.4314   -0.9761 H   0  0  0  0  0  0  0  0  0  0  0  0
    3.7057    0.1462   -2.3154 H   0  0  0  0  0  0  0  0  0  0  0  0
   -2.8900   -5.1820   -0.9497 H   0  0  0  0  0  0  0  0  0  0  0  0
    2.8742   -2.0449    2.4416 H   0  0  0  0  0  0  0  0  0  0  0  0
    5.0019   -1.5288   -1.7009 H   0  0  0  0  0  0  0  0  0  0  0  0
  1 10  1  0  0  0  0
  1 18  1  0  0  0  0
  2 13  1  0  0  0  0
  2 15  1  0  0  0  0
  3 12  1  0  0  0  0
  3 31  1  0  0  0  0
  4 15  2  0  0  0  0
  5 16  1  0  0  0  0
  5 36  1  0  0  0  0
  6 18  2  0  0  0  0
  7 19  1  0  0  0  0
  7 38  1  0  0  0  0
  8 22  1  0  0  0  0
  8 39  1  0  0  0  0
  9 24  1  0  0  0  0
  9 40  1  0  0  0  0
 10 11  1  0  0  0  0
 10 12  1  0  0  0  0
 10 15  1  0  0  0  0
 11 14  1  0  0  0  0
 11 17  1  0  0  0  0
 11 25  1  0  0  0  0
 12 13  1  0  0  0  0
 12 26  1  0  0  0  0
 13 16  1  0  0  0  0
 13 27  1  0  0  0  0
 14 18  1  0  0  0  0
 14 28  1  0  0  0  0
 14 29  1  0  0  0  0
 16 19  1  0  0  0  0
 16 30  1  0  0  0  0
 17 20  2  0  0  0  0
 17 21  1  0  0  0  0
 19 32  1  0  0  0  0
 19 33  1  0  0  0  0
 20 22  1  0  0  0  0
 20 34  1  0  0  0  0
 21 23  2  0  0  0  0
 21 35  1  0  0  0  0
 22 24  2  0  0  0  0
 23 24  1  0  0  0  0
 23 37  1  0  0  0  0
M  END
> <PUBCHEM_COMPOUND_CID>
102205430

> <PUBCHEM_CONFORMER_RMSD>
0.8

> <PUBCHEM_CONFORMER_DIVERSEORDER>
1
4
14
12
24
18
28
22
25
29
26
36
21
3
15
31
27
5
16
10
23
13
37
30
9
35
32
8
6
2
17
34
19
33
7
11
20

> <PUBCHEM_MMFF94_PARTIAL_CHARGES>
32
1 -0.43
10 0.34
11 0.14
12 0.28
13 0.28
14 0.06
15 0.66
16 0.28
17 -0.14
18 0.66
19 0.28
2 -0.43
20 -0.15
21 -0.15
22 0.08
23 -0.15
24 0.08
3 -0.68
31 0.4
34 0.15
35 0.15
36 0.4
37 0.15
38 0.4
39 0.45
4 -0.57
40 0.45
5 -0.68
6 -0.57
7 -0.68
8 -0.53
9 -0.53

> <PUBCHEM_EFFECTIVE_ROTOR_COUNT>
4.2

> <PUBCHEM_PHARMACOPHORE_FEATURES>
13
1 3 acceptor
1 3 donor
1 4 acceptor
1 5 acceptor
1 5 donor
1 6 acceptor
1 7 acceptor
1 7 donor
1 8 donor
1 9 donor
5 1 10 11 14 18 rings
5 2 10 12 13 15 rings
6 17 20 21 22 23 24 rings

> <PUBCHEM_HEAVY_ATOM_COUNT>
24

> <PUBCHEM_ATOM_DEF_STEREO_COUNT>
5

> <PUBCHEM_ATOM_UDEF_STEREO_COUNT>
0

> <PUBCHEM_BOND_DEF_STEREO_COUNT>
0

> <PUBCHEM_BOND_UDEF_STEREO_COUNT>
0

> <PUBCHEM_ISOTOPIC_ATOM_COUNT>
0

> <PUBCHEM_COMPONENT_COUNT>
1

> <PUBCHEM_CACTVS_TAUTO_COUNT>
33

> <PUBCHEM_CONFORMER_ID>
061787F600000001

> <PUBCHEM_MMFF94_ENERGY>
63.4277

> <PUBCHEM_FEATURE_SELFOVERLAP>
66.008

> <PUBCHEM_SHAPE_FINGERPRINT>
107951 10 17766574451517828990
11578080 2 18114729546818092077
12156800 1 14320371905299799278
12173636 292 18121780526240481356
12553582 1 18338520840737137002
12592029 89 17332527873882511953
12788726 201 18334861580129723883
13004483 165 18411701006203195691
13083527 12 17902767972090809712
14787075 74 18046066227638699540
14863182 85 16677535070801388591
15422964 175 18126838524240160658
15906896 17 18045235850797753665
16752209 62 18194396689048528121
16945 1 18266740190575112609
17492 54 17176314145618339404
17818456 19 17701000957328860451
20028762 73 18130227052596979005
20600515 1 18058188248354857093
20645476 183 17902243217113005896
20645477 70 17475508856038643583
21421861 104 17620767506116033955
21452121 199 18265603467703527344
21731516 1 18338527437985770970
2255824 54 17475515452643478243
23184049 29 18410846677305254464
23419403 2 14001165215517980025
23557571 272 18337940269038789432
23559900 14 17837769294190108707
23598288 3 18045528359782707184
23728640 28 18122058698328929618
25222932 49 15899544849655692471
3060560 45 17039218290928645229
314173 41 18194967572007225979
463206 1 18188761872461549282
5845 1 18262237849315072825
6443956 14 18122063367138053023
7364860 26 17475801325903998983
81228 2 18200297849701800297
8272917 22 17331967630259341311
90525 40 17973735670727060560

> <PUBCHEM_SHAPE_MULTIPOLES>
441.08
5.74
4.79
1.48
3.36
2.04
0.03
-7.05
-0.67
-3.64
-0.03
0.26
-0.1
-0.57

> <PUBCHEM_SHAPE_SELFOVERLAP>
962.049

> <PUBCHEM_SHAPE_VOLUME>
240

> <PUBCHEM_COORDINATE_TYPE>
2
5
10

$$$$
