102257033
  -OEChem-03292013293D

 60 65  0     1  0  0  0  0  0999 V2000
   -3.6157    1.4635   -1.0594 O   0  0  0  0  0  0  0  0  0  0  0  0
   -3.2544    1.5369    1.8598 O   0  0  0  0  0  0  0  0  0  0  0  0
   -5.7561   -0.8015    0.6193 O   0  0  0  0  0  0  0  0  0  0  0  0
   -0.2630    3.7255   -0.3717 O   0  0  0  0  0  0  0  0  0  0  0  0
   -7.1342    1.5079   -0.0478 O   0  0  0  0  0  0  0  0  0  0  0  0
    2.0147    3.3840   -0.3433 O   0  0  0  0  0  0  0  0  0  0  0  0
   -1.4368   -4.4775   -0.1096 O   0  0  0  0  0  0  0  0  0  0  0  0
    1.3358   -4.3885   -0.0917 O   0  0  0  0  0  0  0  0  0  0  0  0
    5.5414    0.8145    2.0043 O   0  0  0  0  0  0  0  0  0  0  0  0
    6.7468    0.8292   -0.0825 O   0  0  0  0  0  0  0  0  0  0  0  0
   -3.1346    0.3589   -0.2805 C   0  0  2  0  0  0  0  0  0  0  0  0
   -3.7290    0.3970    1.1438 C   0  0  2  0  0  0  0  0  0  0  0  0
   -1.6186    0.3435   -0.2701 C   0  0  0  0  0  0  0  0  0  0  0  0
   -5.2606    0.4525    1.0893 C   0  0  1  0  0  0  0  0  0  0  0  0
   -5.7261    1.5604    0.1377 C   0  0  1  0  0  0  0  0  0  0  0  0
   -0.9423    1.5491   -0.3047 C   0  0  0  0  0  0  0  0  0  0  0  0
   -5.0340    1.4466   -1.2154 C   0  0  0  0  0  0  0  0  0  0  0  0
   -0.8786   -0.8528   -0.2255 C   0  0  0  0  0  0  0  0  0  0  0  0
    0.4342    1.5781   -0.2954 C   0  0  0  0  0  0  0  0  0  0  0  0
    0.5466   -0.8075   -0.2164 C   0  0  0  0  0  0  0  0  0  0  0  0
    1.2060    0.4318   -0.2522 C   0  0  0  0  0  0  0  0  0  0  0  0
   -1.4707    2.9240   -0.3537 C   0  0  0  0  0  0  0  0  0  0  0  0
   -1.5224   -2.0993   -0.1895 C   0  0  0  0  0  0  0  0  0  0  0  0
    0.8750    2.9634   -0.3376 C   0  0  0  0  0  0  0  0  0  0  0  0
    2.6556    0.5342   -0.2443 C   0  0  0  0  0  0  0  0  0  0  0  0
    1.2695   -2.0096   -0.1719 C   0  0  0  0  0  0  0  0  0  0  0  0
   -0.7835   -3.2821   -0.1452 C   0  0  0  0  0  0  0  0  0  0  0  0
    0.6078   -3.2374   -0.1365 C   0  0  0  0  0  0  0  0  0  0  0  0
    3.3378    0.6229    0.9716 C   0  0  0  0  0  0  0  0  0  0  0  0
    3.3589    0.5430   -1.4617 C   0  0  0  0  0  0  0  0  0  0  0  0
    4.7135    0.7188    0.9284 C   0  0  0  0  0  0  0  0  0  0  0  0
    4.7523    0.6407   -1.4774 C   0  0  0  0  0  0  0  0  0  0  0  0
    5.4019    0.7273   -0.2632 C   0  0  0  0  0  0  0  0  0  0  0  0
    6.8281    0.8836    1.3563 C   0  0  0  0  0  0  0  0  0  0  0  0
   -1.7567   -5.0022    1.1774 C   0  0  0  0  0  0  0  0  0  0  0  0
    1.6912   -4.9787   -1.3405 C   0  0  0  0  0  0  0  0  0  0  0  0
   -3.4965   -0.5254   -0.8141 H   0  0  0  0  0  0  0  0  0  0  0  0
   -3.4037   -0.4932    1.6954 H   0  0  0  0  0  0  0  0  0  0  0  0
   -5.6939    0.6238    2.0813 H   0  0  0  0  0  0  0  0  0  0  0  0
   -5.4783    2.5298    0.5874 H   0  0  0  0  0  0  0  0  0  0  0  0
   -5.3432    0.5458   -1.7600 H   0  0  0  0  0  0  0  0  0  0  0  0
   -5.3121    2.2957   -1.8496 H   0  0  0  0  0  0  0  0  0  0  0  0
   -2.0029    3.1559   -1.2788 H   0  0  0  0  0  0  0  0  0  0  0  0
   -2.0473    3.2156    0.5247 H   0  0  0  0  0  0  0  0  0  0  0  0
   -2.6031   -2.2004   -0.1744 H   0  0  0  0  0  0  0  0  0  0  0  0
   -3.6347    1.5007    2.7540 H   0  0  0  0  0  0  0  0  0  0  0  0
    2.3567   -2.0273   -0.1620 H   0  0  0  0  0  0  0  0  0  0  0  0
   -5.4582   -1.4858    1.2426 H   0  0  0  0  0  0  0  0  0  0  0  0
   -7.3801    2.2369   -0.6424 H   0  0  0  0  0  0  0  0  0  0  0  0
    2.8134    0.6181    1.9219 H   0  0  0  0  0  0  0  0  0  0  0  0
    2.8265    0.4739   -2.4080 H   0  0  0  0  0  0  0  0  0  0  0  0
    5.2982    0.6480   -2.4139 H   0  0  0  0  0  0  0  0  0  0  0  0
    7.4421    0.0454    1.7051 H   0  0  0  0  0  0  0  0  0  0  0  0
    7.3163    1.8215    1.6450 H   0  0  0  0  0  0  0  0  0  0  0  0
   -2.2673   -5.9592    1.0399 H   0  0  0  0  0  0  0  0  0  0  0  0
   -2.4262   -4.3219    1.7132 H   0  0  0  0  0  0  0  0  0  0  0  0
   -0.8468   -5.1719    1.7617 H   0  0  0  0  0  0  0  0  0  0  0  0
    2.2620   -5.8892   -1.1390 H   0  0  0  0  0  0  0  0  0  0  0  0
    2.3167   -4.2951   -1.9233 H   0  0  0  0  0  0  0  0  0  0  0  0
    0.7952   -5.2461   -1.9095 H   0  0  0  0  0  0  0  0  0  0  0  0
  1 11  1  0  0  0  0
  1 17  1  0  0  0  0
  2 12  1  0  0  0  0
  2 46  1  0  0  0  0
  3 14  1  0  0  0  0
  3 48  1  0  0  0  0
  4 22  1  0  0  0  0
  4 24  1  0  0  0  0
  5 15  1  0  0  0  0
  5 49  1  0  0  0  0
  6 24  2  0  0  0  0
  7 27  1  0  0  0  0
  7 35  1  0  0  0  0
  8 28  1  0  0  0  0
  8 36  1  0  0  0  0
  9 31  1  0  0  0  0
  9 34  1  0  0  0  0
 10 33  1  0  0  0  0
 10 34  1  0  0  0  0
 11 12  1  0  0  0  0
 11 13  1  0  0  0  0
 11 37  1  0  0  0  0
 12 14  1  0  0  0  0
 12 38  1  0  0  0  0
 13 16  2  0  0  0  0
 13 18  1  0  0  0  0
 14 15  1  0  0  0  0
 14 39  1  0  0  0  0
 15 17  1  0  0  0  0
 15 40  1  0  0  0  0
 16 19  1  0  0  0  0
 16 22  1  0  0  0  0
 17 41  1  0  0  0  0
 17 42  1  0  0  0  0
 18 20  1  0  0  0  0
 18 23  2  0  0  0  0
 19 21  2  0  0  0  0
 19 24  1  0  0  0  0
 20 21  1  0  0  0  0
 20 26  2  0  0  0  0
 21 25  1  0  0  0  0
 22 43  1  0  0  0  0
 22 44  1  0  0  0  0
 23 27  1  0  0  0  0
 23 45  1  0  0  0  0
 25 29  2  0  0  0  0
 25 30  1  0  0  0  0
 26 28  1  0  0  0  0
 26 47  1  0  0  0  0
 27 28  2  0  0  0  0
 29 31  1  0  0  0  0
 29 50  1  0  0  0  0
 30 32  2  0  0  0  0
 30 51  1  0  0  0  0
 31 33  2  0  0  0  0
 32 33  1  0  0  0  0
 32 52  1  0  0  0  0
 34 53  1  0  0  0  0
 34 54  1  0  0  0  0
 35 55  1  0  0  0  0
 35 56  1  0  0  0  0
 35 57  1  0  0  0  0
 36 58  1  0  0  0  0
 36 59  1  0  0  0  0
 36 60  1  0  0  0  0
M  END
> <PUBCHEM_COMPOUND_CID>
102257033

> <PUBCHEM_CONFORMER_RMSD>
1

> <PUBCHEM_CONFORMER_DIVERSEORDER>
2
3
1
4

> <PUBCHEM_MMFF94_PARTIAL_CHARGES>
40
1 -0.56
10 -0.36
11 0.42
12 0.28
13 -0.14
14 0.28
15 0.28
16 -0.14
17 0.28
19 0.09
2 -0.68
22 0.42
23 -0.15
24 0.63
26 -0.15
27 0.08
28 0.08
29 -0.15
3 -0.68
30 -0.15
31 0.08
32 -0.15
33 0.08
34 0.56
35 0.28
36 0.28
4 -0.43
45 0.15
46 0.4
47 0.15
48 0.4
49 0.4
5 -0.68
50 0.15
51 0.15
52 0.15
6 -0.57
7 -0.36
8 -0.36
9 -0.36

> <PUBCHEM_EFFECTIVE_ROTOR_COUNT>
6.2

> <PUBCHEM_PHARMACOPHORE_FEATURES>
18
1 1 acceptor
1 10 acceptor
1 2 acceptor
1 2 donor
1 3 acceptor
1 3 donor
1 5 acceptor
1 5 donor
1 6 acceptor
1 7 acceptor
1 8 acceptor
1 9 acceptor
5 4 16 19 22 24 rings
5 9 10 31 33 34 rings
6 1 11 12 14 15 17 rings
6 13 16 18 19 20 21 rings
6 18 20 23 26 27 28 rings
6 25 29 30 31 32 33 rings

> <PUBCHEM_HEAVY_ATOM_COUNT>
36

> <PUBCHEM_ATOM_DEF_STEREO_COUNT>
4

> <PUBCHEM_ATOM_UDEF_STEREO_COUNT>
0

> <PUBCHEM_BOND_DEF_STEREO_COUNT>
0

> <PUBCHEM_BOND_UDEF_STEREO_COUNT>
0

> <PUBCHEM_ISOTOPIC_ATOM_COUNT>
0

> <PUBCHEM_COMPONENT_COUNT>
1

> <PUBCHEM_CACTVS_TAUTO_COUNT>
1

> <PUBCHEM_CONFORMER_ID>
0618518900000002

> <PUBCHEM_MMFF94_ENERGY>
143.8719

> <PUBCHEM_FEATURE_SELFOVERLAP>
91.646

> <PUBCHEM_SHAPE_FINGERPRINT>
10050765 1 18048882093591284052
10074138 170 18193537060319375346
102385 1 17761490687518703861
10906281 52 18115325387963290321
10940486 97 18120378906871555140
1100329 8 18338517568051081076
11135926 11 18338791231125521317
11136131 41 18189609458624760979
11445158 3 17822576126247545925
11578080 2 17628354088981729312
11646440 116 18201165420268797441
11719270 70 18336262353901497133
12035758 1 18411423946368664313
12058002 1 17414474750557918316
12236239 1 17530963584284667476
12838862 33 18338780265541829373
13140716 1 18267022954036581400
13540713 5 17899136298158968100
13617811 41 18262532411468715060
13692114 37 18269550710327141639
13726171 33 17977974567695062188
13911987 19 18334866021421684309
14028597 1 17560518375102857954
14790565 3 18337967743486633293
14866123 147 18337105795047417219
15042514 8 18336265764348474018
15297060 5 18272085015904018082
15320294 125 17968641762821804394
15324884 4 17701559513530387286
16728300 4 17461414976738068834
19591789 44 18267033747389512758
20028762 73 18200315553920998199
20554085 129 18059277804159037066
20642791 105 18196933481712740275
20771845 171 17968391051751570198
21033648 29 18270100371040099353
21703447 108 17976253535153770907
21781051 124 18042707077449549306
22149856 69 18265634104159489417
22223350 30 18197772413332026824
22311459 1 18410572877129679389
22956985 138 17753888308037763730
23559900 14 17688582767423094069
23569914 152 11607816405282052641
23569914 2 15191024551219835680
23569917 315 18412830183139417695
23569943 247 17486510208192206302
283562 15 18270118994139581137
3178227 256 18336559282513898233
3383291 50 18339361971849313771
350125 39 18193847161395037655
4017518 198 18202569488539242590
404807 14 14686994136276110804
469060 322 18338532845218709265
5171179 24 17836087771254187202
5265222 85 18336274551730541700
5385378 56 18340493248975660827
6669772 16 18343023246622277038
70251023 43 17835525921234373779

> <PUBCHEM_SHAPE_MULTIPOLES>
682.17
13.16
5.54
1.27
1.81
9.24
-0.25
-9.2
-3.46
-1.16
0.65
0.7
-0.05
1.08

> <PUBCHEM_SHAPE_SELFOVERLAP>
1542.102

> <PUBCHEM_SHAPE_VOLUME>
358.7

> <PUBCHEM_COORDINATE_TYPE>
2
5
10

$$$$
