REMARK  Name = 102288172
REMARK  7 active torsions:
REMARK  status: ('A' for Active; 'I' for Inactive)
REMARK    1  A    between atoms: C_8  and  C_27
REMARK    2  A    between atoms: C_10  and  O_23
REMARK    3  A    between atoms: CA_12  and  C_32
REMARK    4  A    between atoms: C_18  and  O_25
REMARK    5  A    between atoms: C_27  and  O_28
REMARK    6  A    between atoms: C_27  and  O_30
REMARK    7  A    between atoms: C_32  and  O_33
REMARK                            x       y       z     vdW  Elec       q    Type
REMARK                         _______ _______ _______ _____ _____    ______ ____
ROOT
ATOM      1  O   UNL     1      -1.868  -3.021   0.460  0.00  0.00    -0.287 OA
ATOM      2  O   UNL     1      -3.173   2.118   0.241  0.00  0.00    -0.284 OA
ATOM      3  N   UNL     1       1.033   1.103   0.033  0.00  0.00    +0.409 N 
ATOM      4  N   UNL     1       3.471   0.551   1.541  0.00  0.00    +0.385 N 
ATOM      5  C   UNL     1       2.692  -0.538   0.933  0.00  0.00    -0.076 C 
ATOM      6  C   UNL     1       1.205  -0.090   0.875  0.00  0.00    -0.069 C 
ATOM      7  CA  UNL     1       3.458   1.570   0.482  0.00  0.00    -0.054 C 
ATOM      8  C   UNL     1       3.372  -0.668  -0.447  0.00  0.00    +0.033 C 
ATOM      9  C   UNL     1       3.889   0.754  -0.737  0.00  0.00    -0.018 C 
ATOM     10  C   UNL     1       2.030   2.152   0.337  0.00  0.00    +0.040 C 
ATOM     11  C   UNL     1       0.311  -1.227   0.349  0.00  0.00    +0.007 C 
ATOM     12  CA  UNL     1      -0.364   1.594  -0.039  0.00  0.00    +0.002 C 
ATOM     13  C   UNL     1      -1.123  -0.787   0.240  0.00  0.00    +0.012 C 
ATOM     14  C   UNL     1      -1.431   0.509   0.104  0.00  0.00    +0.002 C 
ATOM     15  C   UNL     1      -2.169  -1.836   0.335  0.00  0.00    +0.190 C 
ATOM     16  C   UNL     1      -2.856   0.932   0.178  0.00  0.00    +0.223 C 
ATOM     17  C   UNL     1      -3.600  -1.419   0.254  0.00  0.00    +0.054 C 
ATOM     18  C   UNL     1      -3.910  -0.114   0.188  0.00  0.00    +0.176 C 
ATOM     19  C   UNL     1      -4.614  -2.525   0.274  0.00  0.00    +0.038 C 
ATOM     20  H   UNL     1       1.230   0.804  -0.922  0.00  0.00    -0.075 HD
ATOM     21  H1  UNL     1       4.422   0.251   1.754  0.00  0.00    -0.084 HD
ATOM     22  H2  UNL     1       3.092   0.880   2.429  0.00  0.00    -0.084 HD
ENDROOT
BRANCH  10  23
ATOM     23  O   UNL     1       1.761   2.894   1.532  0.00  0.00    -0.407 OA
ATOM     24  H   UNL     1       0.872   3.277   1.481  0.00  0.00    +0.207 HD
ENDBRANCH  10  23
BRANCH  18  25
ATOM     25  O   UNL     1      -5.224   0.311   0.139  0.00  0.00    -0.468 OA
ATOM     26  C   UNL     1      -5.669   0.406  -1.200  0.00  0.00    +0.253 C 
ENDBRANCH  18  25
BRANCH   8  27
ATOM     27  C   UNL     1       4.517  -1.681  -0.436  0.00  0.00    +0.226 C 
BRANCH  27  28
ATOM     28  O   UNL     1       5.177  -1.677  -1.691  0.00  0.00    -0.360 OA
ATOM     29  H   UNL     1       5.575  -0.891  -2.009  0.00  0.00    +0.213 HD
ENDBRANCH  27  28
BRANCH  27  30
ATOM     30  O   UNL     1       3.984  -2.960  -0.135  0.00  0.00    -0.360 OA
ATOM     31  H   UNL     1       3.521  -3.097   0.668  0.00  0.00    +0.213 HD
ENDBRANCH  27  30
ENDBRANCH   8  27
BRANCH  12  32
ATOM     32  C   UNL     1      -0.528   2.306  -1.395  0.00  0.00    +0.121 C 
BRANCH  32  33
ATOM     33  O   UNL     1      -0.370   1.343  -2.415  0.00  0.00    -0.384 OA
ATOM     34  H   UNL     1      -0.470   1.769  -3.281  0.00  0.00    +0.210 HD
ENDBRANCH  32  33
ENDBRANCH  12  32
TORSDOF 7
