REMARK  Name = 102216288
REMARK  4 active torsions:
REMARK  status: ('A' for Active; 'I' for Inactive)
REMARK    1  A    between atoms: C_7  and  O_32
REMARK    2  A    between atoms: C_8  and  O_34
REMARK    3  A    between atoms: C_16  and  O_36
REMARK    4  A    between atoms: C_26  and  O_38
REMARK                            x       y       z     vdW  Elec       q    Type
REMARK                         _______ _______ _______ _____ _____    ______ ____
ROOT
ATOM      1  O   UNL     1       5.709   0.468  -0.090  0.00  0.00    -0.477 OA
ATOM      2  O   UNL     1       1.059  -1.042  -0.022  0.00  0.00    -0.424 OA
ATOM      3  O   UNL     1      -1.233  -0.937   0.005  0.00  0.00    -0.423 OA
ATOM      4  O   UNL     1      -6.042  -0.430   0.065  0.00  0.00    -0.479 OA
ATOM      5  O   UNL     1      -0.787   3.177  -0.005  0.00  0.00    -0.286 OA
ATOM      6  C   UNL     1       6.247  -0.829   0.228  0.00  0.00    +0.160 C 
ATOM      7  C   UNL     1       5.431  -1.969  -0.424  0.00  0.00    +0.178 C 
ATOM      8  C   UNL     1       3.945  -1.900  -0.074  0.00  0.00    +0.169 C 
ATOM      9  C   UNL     1       3.456  -0.480  -0.051  0.00  0.00    +0.078 C 
ATOM     10  C   UNL     1       4.344   0.609  -0.058  0.00  0.00    +0.173 C 
ATOM     11  C   UNL     1       2.094  -0.142  -0.036  0.00  0.00    +0.150 A 
ATOM     12  C   UNL     1       6.332  -0.960   1.759  0.00  0.00    +0.046 C 
ATOM     13  C   UNL     1       7.684  -0.824  -0.325  0.00  0.00    +0.046 C 
ATOM     14  C   UNL     1       1.601   1.166  -0.033  0.00  0.00    +0.047 A 
ATOM     15  C   UNL     1       0.191   1.041  -0.015  0.00  0.00    +0.114 A 
ATOM     16  C   UNL     1       3.885   1.933  -0.068  0.00  0.00    +0.168 C 
ATOM     17  C   UNL     1       2.518   2.228  -0.051  0.00  0.00    +0.043 C 
ATOM     18  C   UNL     1      -0.070  -0.303  -0.009  0.00  0.00    +0.304 A 
ATOM     19  C   UNL     1      -2.257   1.293   0.014  0.00  0.00    +0.107 A 
ATOM     20  C   UNL     1      -2.361  -0.123   0.017  0.00  0.00    +0.157 A 
ATOM     21  C   UNL     1      -0.916   1.962  -0.003  0.00  0.00    +0.208 A 
ATOM     22  C   UNL     1      -3.621  -0.742   0.030  0.00  0.00    +0.068 A 
ATOM     23  C   UNL     1      -6.252  -1.852  -0.053  0.00  0.00    +0.152 C 
ATOM     24  C   UNL     1      -4.766   0.063   0.041  0.00  0.00    +0.140 A 
ATOM     25  C   UNL     1      -4.660   1.459   0.044  0.00  0.00    +0.046 A 
ATOM     26  C   UNL     1      -3.410   2.077   0.029  0.00  0.00    +0.139 A 
ATOM     27  C   UNL     1      -3.776  -2.190   0.041  0.00  0.00    +0.005 C 
ATOM     28  C   UNL     1      -5.007  -2.703  -0.001  0.00  0.00    +0.013 C 
ATOM     29  C   UNL     1      -6.970  -2.083  -1.387  0.00  0.00    +0.048 C 
ATOM     30  C   UNL     1      -7.178  -2.241   1.106  0.00  0.00    +0.048 C 
ATOM     31  C   UNL     1      -5.898   2.303   0.064  0.00  0.00    +0.037 C 
ENDROOT
BRANCH   7  32
ATOM     32  O   UNL     1       5.558  -1.917  -1.849  0.00  0.00    -0.378 OA
ATOM     33  H   UNL     1       6.497  -1.959  -2.092  0.00  0.00    +0.211 HD
ENDBRANCH   7  32
BRANCH   8  34
ATOM     34  O   UNL     1       3.733  -2.521   1.192  0.00  0.00    -0.377 OA
ATOM     35  H   UNL     1       4.053  -3.436   1.161  0.00  0.00    +0.211 HD
ENDBRANCH   8  34
BRANCH  16  36
ATOM     36  O   UNL     1       4.773   2.971  -0.107  0.00  0.00    -0.503 OA
ATOM     37  H   UNL     1       5.694   2.800  -0.119  0.00  0.00    +0.292 HD
ENDBRANCH  16  36
BRANCH  26  38
ATOM     38  O   UNL     1      -3.357   3.439   0.029  0.00  0.00    -0.506 OA
ATOM     39  H   UNL     1      -2.528   3.876   0.018  0.00  0.00    +0.292 HD
ENDBRANCH  26  38
TORSDOF 4
