REMARK  Name = 102283124
REMARK  9 active torsions:
REMARK  status: ('A' for Active; 'I' for Inactive)
REMARK    1  A    between atoms: N_1  and  C_30
REMARK    2  A    between atoms: C_4  and  O_22
REMARK    3  A    between atoms: C_8  and  O_24
REMARK    4  A    between atoms: C_9  and  O_32
REMARK    5  A    between atoms: C_13  and  O_36
REMARK    6  A    between atoms: C_14  and  O_26
REMARK    7  A    between atoms: C_17  and  O_28
REMARK    8  A    between atoms: O_32  and  C_34
REMARK    9  A    between atoms: O_36  and  C_38
REMARK                            x       y       z     vdW  Elec       q    Type
REMARK                         _______ _______ _______ _____ _____    ______ ____
ROOT
ATOM      1  N   UNL     1      -2.712  -0.969   0.879  0.00  0.00    +0.390 N 
ATOM      2  C   UNL     1      -1.223  -0.522  -1.060  0.00  0.00    +0.018 C 
ATOM      3  C   UNL     1       0.271  -0.600  -1.560  0.00  0.00    +0.007 C 
ATOM      4  C   UNL     1      -0.464   0.366   1.012  0.00  0.00    +0.130 C 
ATOM      5  C   UNL     1      -1.296  -0.846   0.463  0.00  0.00    -0.024 C 
ATOM      6  C   UNL     1      -1.772   0.952  -0.986  0.00  0.00    +0.045 C 
ATOM      7  C   UNL     1       1.348   0.180  -0.776  0.00  0.00    +0.067 C 
ATOM      8  C   UNL     1       1.066   0.178   0.744  0.00  0.00    +0.118 C 
ATOM      9  C   UNL     1      -1.065   1.584   0.247  0.00  0.00    +0.193 C 
ATOM     10  C   UNL     1      -3.313   0.894  -0.692  0.00  0.00    +0.003 C 
ATOM     11  C   UNL     1       0.858  -2.037  -1.635  0.00  0.00    +0.006 C 
ATOM     12  C   UNL     1       2.202  -1.996  -0.892  0.00  0.00    +0.067 C 
ATOM     13  C   UNL     1       2.639  -0.561  -1.146  0.00  0.00    +0.173 C 
ATOM     14  C   UNL     1      -2.074  -1.425  -2.026  0.00  0.00    +0.130 C 
ATOM     15  C   UNL     1       1.697  -1.044   1.470  0.00  0.00    +0.059 C 
ATOM     16  C   UNL     1      -3.550   0.225   0.694  0.00  0.00    -0.073 C 
ATOM     17  C   UNL     1       2.000  -2.280   0.607  0.00  0.00    +0.121 C 
ATOM     18  C   UNL     1      -4.038   0.071  -1.730  0.00  0.00    -0.031 C 
ATOM     19  C   UNL     1      -3.472  -0.984  -2.318  0.00  0.00    -0.002 C 
ATOM     20  C   UNL     1      -3.930   2.307  -0.720  0.00  0.00    +0.002 C 
ATOM     21  H   UNL     1      -3.067  -1.638   0.195  0.00  0.00    -0.079 HD
ENDROOT
BRANCH   4  22
ATOM     22  O   UNL     1      -0.666   0.567   2.407  0.00  0.00    -0.383 OA
ATOM     23  H   UNL     1      -0.297  -0.183   2.899  0.00  0.00    +0.210 HD
ENDBRANCH   4  22
BRANCH   8  24
ATOM     24  O   UNL     1       1.721   1.333   1.311  0.00  0.00    -0.384 OA
ATOM     25  H   UNL     1       1.371   2.138   0.898  0.00  0.00    +0.210 HD
ENDBRANCH   8  24
BRANCH  14  26
ATOM     26  O   UNL     1      -2.132  -2.764  -1.534  0.00  0.00    -0.380 OA
ATOM     27  H   UNL     1      -1.234  -3.075  -1.336  0.00  0.00    +0.211 HD
ENDBRANCH  14  26
BRANCH  17  28
ATOM     28  O   UNL     1       3.196  -2.892   1.105  0.00  0.00    -0.353 OA
ATOM     29  C   UNL     1       2.927  -3.683   2.249  0.00  0.00    +0.174 C 
ENDBRANCH  17  28
BRANCH   1  30
ATOM     30  C   UNL     1      -2.897  -1.564   2.195  0.00  0.00    -0.077 C 
ATOM     31  C   UNL     1      -4.340  -1.986   2.409  0.00  0.00    -0.025 C 
ENDBRANCH   1  30
BRANCH   9  32
ATOM     32  O   UNL     1      -0.134   2.575  -0.153  0.00  0.00    -0.450 OA
BRANCH  32  34
ATOM     33  O   UNL     1      -0.428   3.692   1.847  0.00  0.00    -0.250 OA
ATOM     34  C   UNL     1       0.096   3.581   0.747  0.00  0.00    +0.318 C 
ATOM     35  C   UNL     1       1.095   4.550   0.192  0.00  0.00    +0.121 C 
ENDBRANCH  32  34
ENDBRANCH   9  32
BRANCH  13  36
ATOM     36  O   UNL     1       3.766  -0.178  -0.389  0.00  0.00    -0.452 OA
BRANCH  36  38
ATOM     37  O   UNL     1       4.361   1.364  -2.003  0.00  0.00    -0.250 OA
ATOM     38  C   UNL     1       4.555   0.805  -0.933  0.00  0.00    +0.317 C 
ATOM     39  C   UNL     1       5.708   1.107  -0.025  0.00  0.00    +0.121 C 
ENDBRANCH  36  38
ENDBRANCH  13  36
TORSDOF 9
