102266754
  -OEChem-03292013293D

 45 50  0     1  0  0  0  0  0999 V2000
   -0.0828   -0.7234    2.5299 S   0  0  0  0  0  0  0  0  0  0  0  0
    0.9883    1.0258    2.2568 S   0  0  0  0  0  0  0  0  0  0  0  0
   -0.1906    1.7977   -1.0350 O   0  0  0  0  0  0  0  0  0  0  0  0
    1.8717   -2.7708    0.4654 O   0  0  0  0  0  0  0  0  0  0  0  0
   -2.8042    1.6548   -0.6153 O   0  0  0  0  0  0  0  0  0  0  0  0
   -4.3528   -2.3253   -1.1322 O   0  0  0  0  0  0  0  0  0  0  0  0
   -3.6230    2.6316    1.3114 O   0  0  0  0  0  0  0  0  0  0  0  0
   -0.5790   -0.3159   -0.1062 N   0  0  0  0  0  0  0  0  0  0  0  0
    2.0754   -0.4564    0.2213 N   0  0  0  0  0  0  0  0  0  0  0  0
   -0.0762   -1.3496    0.8058 C   0  0  2  0  0  0  0  0  0  0  0  0
    1.4535    0.8567    0.4799 C   0  0  1  0  0  0  0  0  0  0  0  0
   -1.9279   -0.5912   -0.6226 C   0  0  1  0  0  0  0  0  0  0  0  0
   -0.9819   -2.5592    0.5891 C   0  0  0  0  0  0  0  0  0  0  0  0
    0.1612    0.8506   -0.3391 C   0  0  0  0  0  0  0  0  0  0  0  0
    1.3870   -1.6439    0.4398 C   0  0  0  0  0  0  0  0  0  0  0  0
   -2.1477   -2.0138   -0.1858 C   0  0  0  0  0  0  0  0  0  0  0  0
    2.4906    1.9217    0.0567 C   0  0  0  0  0  0  0  0  0  0  0  0
    3.4111   -0.2840   -0.1570 C   0  0  0  0  0  0  0  0  0  0  0  0
   -3.0037    0.3556   -0.0483 C   0  0  2  0  0  0  0  0  0  0  0  0
    3.6978    1.0794   -0.2466 C   0  0  0  0  0  0  0  0  0  0  0  0
   -3.2420   -2.7368   -0.4474 C   0  0  0  0  0  0  0  0  0  0  0  0
   -4.4385   -0.0025   -0.3352 C   0  0  0  0  0  0  0  0  0  0  0  0
    4.3741   -1.2413   -0.4293 C   0  0  0  0  0  0  0  0  0  0  0  0
    4.9607    1.5200   -0.6078 C   0  0  0  0  0  0  0  0  0  0  0  0
   -4.9588   -1.1370   -0.8235 C   0  0  0  0  0  0  0  0  0  0  0  0
    5.6513   -0.8037   -0.7900 C   0  0  0  0  0  0  0  0  0  0  0  0
    5.9433    0.5662   -0.8775 C   0  0  0  0  0  0  0  0  0  0  0  0
   -3.1596    2.7031    0.1812 C   0  0  0  0  0  0  0  0  0  0  0  0
   -2.8975    3.9915   -0.5383 C   0  0  0  0  0  0  0  0  0  0  0  0
   -1.8672   -0.5015   -1.7141 H   0  0  0  0  0  0  0  0  0  0  0  0
   -1.3014   -3.0296    1.5255 H   0  0  0  0  0  0  0  0  0  0  0  0
   -0.4957   -3.3285   -0.0229 H   0  0  0  0  0  0  0  0  0  0  0  0
    2.7186    2.6470    0.8446 H   0  0  0  0  0  0  0  0  0  0  0  0
    2.1959    2.4625   -0.8485 H   0  0  0  0  0  0  0  0  0  0  0  0
   -2.8761    0.3979    1.0422 H   0  0  0  0  0  0  0  0  0  0  0  0
   -3.3454   -3.7757   -0.1621 H   0  0  0  0  0  0  0  0  0  0  0  0
   -5.1628    0.7873   -0.1354 H   0  0  0  0  0  0  0  0  0  0  0  0
    4.1711   -2.3038   -0.3717 H   0  0  0  0  0  0  0  0  0  0  0  0
    5.1850    2.5786   -0.6839 H   0  0  0  0  0  0  0  0  0  0  0  0
   -6.0188   -1.2227   -1.0332 H   0  0  0  0  0  0  0  0  0  0  0  0
    6.4283   -1.5319   -1.0074 H   0  0  0  0  0  0  0  0  0  0  0  0
    6.9422    0.8854   -1.1621 H   0  0  0  0  0  0  0  0  0  0  0  0
   -1.8225    4.1270   -0.6777 H   0  0  0  0  0  0  0  0  0  0  0  0
   -3.2829    4.8236    0.0578 H   0  0  0  0  0  0  0  0  0  0  0  0
   -3.4142    3.9917   -1.5016 H   0  0  0  0  0  0  0  0  0  0  0  0
  1  2  1  0  0  0  0
  1 10  1  0  0  0  0
  2 11  1  0  0  0  0
  3 14  2  0  0  0  0
  4 15  2  0  0  0  0
  5 19  1  0  0  0  0
  5 28  1  0  0  0  0
  6 21  1  0  0  0  0
  6 25  1  0  0  0  0
  7 28  2  0  0  0  0
  8 10  1  0  0  0  0
  8 12  1  0  0  0  0
  8 14  1  0  0  0  0
  9 11  1  0  0  0  0
  9 15  1  0  0  0  0
  9 18  1  0  0  0  0
 10 13  1  0  0  0  0
 10 15  1  0  0  0  0
 11 14  1  0  0  0  0
 11 17  1  0  0  0  0
 12 16  1  0  0  0  0
 12 19  1  0  0  0  0
 12 30  1  0  0  0  0
 13 16  1  0  0  0  0
 13 31  1  0  0  0  0
 13 32  1  0  0  0  0
 16 21  2  0  0  0  0
 17 20  1  0  0  0  0
 17 33  1  0  0  0  0
 17 34  1  0  0  0  0
 18 20  1  0  0  0  0
 18 23  2  0  0  0  0
 19 22  1  0  0  0  0
 19 35  1  0  0  0  0
 20 24  2  0  0  0  0
 21 36  1  0  0  0  0
 22 25  2  0  0  0  0
 22 37  1  0  0  0  0
 23 26  1  0  0  0  0
 23 38  1  0  0  0  0
 24 27  1  0  0  0  0
 24 39  1  0  0  0  0
 25 40  1  0  0  0  0
 26 27  2  0  0  0  0
 26 41  1  0  0  0  0
 27 42  1  0  0  0  0
 28 29  1  0  0  0  0
 29 43  1  0  0  0  0
 29 44  1  0  0  0  0
 29 45  1  0  0  0  0
M  END
> <PUBCHEM_COMPOUND_CID>
102266754

> <PUBCHEM_CONFORMER_RMSD>
0.8

> <PUBCHEM_CONFORMER_DIVERSEORDER>
1
3
2

> <PUBCHEM_MMFF94_PARTIAL_CHARGES>
36
1 -0.23
10 0.59
11 0.59
12 0.44
13 0.14
14 0.57
15 0.57
16 -0.28
17 0.14
18 0.12
19 0.42
2 -0.23
20 -0.14
21 -0.07
22 -0.29
23 -0.15
24 -0.15
25 -0.07
26 -0.15
27 -0.15
28 0.66
29 0.06
3 -0.57
36 0.15
37 0.15
38 0.15
39 0.15
4 -0.57
40 0.15
41 0.15
42 0.15
5 -0.43
6 -0.15
7 -0.57
8 -0.66
9 -0.48

> <PUBCHEM_EFFECTIVE_ROTOR_COUNT>
3.2

> <PUBCHEM_PHARMACOPHORE_FEATURES>
9
1 3 acceptor
1 4 acceptor
1 6 acceptor
1 7 acceptor
5 8 10 12 13 16 rings
5 9 11 17 18 20 rings
6 18 20 23 24 26 27 rings
7 6 12 16 19 21 22 25 rings
8 1 2 8 9 10 11 14 15 rings

> <PUBCHEM_HEAVY_ATOM_COUNT>
29

> <PUBCHEM_ATOM_DEF_STEREO_COUNT>
4

> <PUBCHEM_ATOM_UDEF_STEREO_COUNT>
0

> <PUBCHEM_BOND_DEF_STEREO_COUNT>
0

> <PUBCHEM_BOND_UDEF_STEREO_COUNT>
0

> <PUBCHEM_ISOTOPIC_ATOM_COUNT>
0

> <PUBCHEM_COMPONENT_COUNT>
1

> <PUBCHEM_CACTVS_TAUTO_COUNT>
4

> <PUBCHEM_CONFORMER_ID>
0618778200000001

> <PUBCHEM_MMFF94_ENERGY>
110.071

> <PUBCHEM_FEATURE_SELFOVERLAP>
45.923

> <PUBCHEM_SHAPE_FINGERPRINT>
10165383 225 18128827348272101593
10498660 4 18264190552438801677
10863032 1 18341890740807124018
12107183 9 17904477403244523274
12166972 35 12318862827187115537
12788726 201 18336255813019889459
12954195 1 18342742905352674005
13140716 1 18046636882388721627
13782708 43 17059771260340165015
13944108 23 16823331892803022557
13947930 73 13756925204946761773
14251751 93 18412822456603014973
14251757 17 18200319818543402326
14347332 77 18341887515471632591
14713325 29 18262251004831464731
14790565 3 17834964066060048892
14955137 171 18047200923707409083
15183329 4 18333169462675021326
19591789 44 18263924349880472940
200 152 17846787342732686414
20691752 17 17458625567009027882
21033650 10 18193301657704482628
21236236 1 18411141333394204180
21267235 1 18337393867821738879
21857420 4 15543703235151500630
221357 26 18272086144857651487
22393880 68 18341612590678335028
23419403 2 17131260385053793888
23559900 14 18270390732345706209
244849 19 17417510497845797968
25147074 1 18115014213297855426
3004659 81 18334576846354341502
350125 39 18340206293979493417
469060 322 14418427649492620771
5104073 3 18408322177428411536
5283173 99 18413109451066446472
59755656 215 18335696152932308671
70251023 43 17558809918416070639

> <PUBCHEM_SHAPE_MULTIPOLES>
565.2
10.57
3.49
1.41
7.26
1.56
1.08
0.45
-4.83
-3.95
-0.21
-0.03
0.04
-0.7

> <PUBCHEM_SHAPE_SELFOVERLAP>
1246.459

> <PUBCHEM_SHAPE_VOLUME>
304.6

> <PUBCHEM_COORDINATE_TYPE>
2
5
10

$$$$
