REMARK  Name = 102237435
REMARK  6 active torsions:
REMARK  status: ('A' for Active; 'I' for Inactive)
REMARK    1  A    between atoms: C_10  and  O_22
REMARK    2  A    between atoms: C_12  and  O_24
REMARK    3  A    between atoms: C_14  and  O_26
REMARK    4  A    between atoms: C_16  and  O_30
REMARK    5  A    between atoms: O_26  and  C_28
REMARK    6  A    between atoms: O_30  and  C_32
REMARK                            x       y       z     vdW  Elec       q    Type
REMARK                         _______ _______ _______ _____ _____    ______ ____
ROOT
ATOM      1  O   UNL     1      -2.752   2.229   1.029  0.00  0.00    -0.292 OA
ATOM      2  C   UNL     1      -0.137  -0.443  -0.855  0.00  0.00    +0.006 C 
ATOM      3  C   UNL     1      -1.539  -0.555  -0.111  0.00  0.00    +0.034 C 
ATOM      4  C   UNL     1      -2.621   0.447  -0.655  0.00  0.00    +0.060 C 
ATOM      5  C   UNL     1       0.224   1.092  -0.869  0.00  0.00    +0.004 C 
ATOM      6  C   UNL     1       1.734   1.493  -1.127  0.00  0.00    +0.041 C 
ATOM      7  C   UNL     1      -2.202   1.417  -1.753  0.00  0.00    +0.007 C 
ATOM      8  C   UNL     1      -3.927  -0.275  -1.073  0.00  0.00    +0.039 C 
ATOM      9  C   UNL     1      -0.773   1.940  -1.682  0.00  0.00    +0.001 C 
ATOM     10  C   UNL     1      -2.136  -1.985   0.060  0.00  0.00    +0.114 C 
ATOM     11  C   UNL     1       0.945  -1.222  -0.048  0.00  0.00    +0.048 C 
ATOM     12  C   UNL     1      -4.440  -0.836   0.252  0.00  0.00    +0.112 C 
ATOM     13  C   UNL     1      -3.538  -1.991   0.710  0.00  0.00    +0.060 C 
ATOM     14  C   UNL     1       2.662   0.623  -0.234  0.00  0.00    +0.208 C 
ATOM     15  C   UNL     1      -3.172   1.182   0.565  0.00  0.00    +0.171 C 
ATOM     16  C   UNL     1       2.385  -0.869  -0.415  0.00  0.00    +0.208 C 
ATOM     17  C   UNL     1      -0.219  -1.084  -2.258  0.00  0.00    +0.000 C 
ATOM     18  C   UNL     1      -4.291   0.375   1.143  0.00  0.00    +0.036 C 
ATOM     19  C   UNL     1       2.192   1.368  -2.597  0.00  0.00    +0.004 C 
ATOM     20  C   UNL     1       1.931   2.988  -0.752  0.00  0.00    +0.004 C 
ATOM     21  C   UNL     1      -5.006   0.763   2.200  0.00  0.00    +0.001 C 
ENDROOT
BRANCH  10  22
ATOM     22  O   UNL     1      -1.291  -2.803   0.863  0.00  0.00    -0.384 OA
ATOM     23  H   UNL     1      -0.400  -2.820   0.480  0.00  0.00    +0.210 HD
ENDBRANCH  10  22
BRANCH  12  24
ATOM     24  O   UNL     1      -5.782  -1.273   0.154  0.00  0.00    -0.382 OA
ATOM     25  H   UNL     1      -5.829  -2.049  -0.425  0.00  0.00    +0.211 HD
ENDBRANCH  12  24
BRANCH  14  26
ATOM     26  O   UNL     1       2.469   0.936   1.150  0.00  0.00    -0.448 OA
BRANCH  26  28
ATOM     27  O   UNL     1       4.695   1.528   1.334  0.00  0.00    -0.250 OA
ATOM     28  C   UNL     1       3.577   1.378   1.809  0.00  0.00    +0.318 C 
ATOM     29  C   UNL     1       3.228   1.665   3.238  0.00  0.00    +0.121 C 
ENDBRANCH  26  28
ENDBRANCH  14  26
BRANCH  16  30
ATOM     30  O   UNL     1       3.255  -1.624   0.430  0.00  0.00    -0.448 OA
BRANCH  30  32
ATOM     31  O   UNL     1       4.830  -1.719  -1.256  0.00  0.00    -0.250 OA
ATOM     32  C   UNL     1       4.449  -1.982  -0.124  0.00  0.00    +0.318 C 
ATOM     33  C   UNL     1       5.252  -2.764   0.871  0.00  0.00    +0.121 C 
ENDBRANCH  30  32
ENDBRANCH  16  30
TORSDOF 6
