REMARK  Name = 10226546
REMARK  6 active torsions:
REMARK  status: ('A' for Active; 'I' for Inactive)
REMARK    1  A    between atoms: N_4  and  C_22
REMARK    2  A    between atoms: C_8  and  C_17
REMARK    3  A    between atoms: C_9  and  C_26
REMARK    4  A    between atoms: C_18  and  O_20
REMARK    5  A    between atoms: C_22  and  C_23
REMARK    6  A    between atoms: C_26  and  C_29
REMARK                            x       y       z     vdW  Elec       q    Type
REMARK                         _______ _______ _______ _____ _____    ______ ____
ROOT
ATOM      1  S   UNL     1       1.361  -0.480   0.935  0.00  0.00    -0.073 S 
ATOM      2  O   UNL     1      -1.701   2.637  -1.270  0.00  0.00    -0.267 OA
ATOM      3  O   UNL     1       2.229   4.449   0.495  0.00  0.00    -0.246 OA
ATOM      4  N   UNL     1       1.888   2.160   0.732  0.00  0.00    -0.276 N 
ATOM      5  N   UNL     1       0.269   3.559  -0.394  0.00  0.00    -0.247 N 
ATOM      6  C   UNL     1      -0.182   1.221  -0.200  0.00  0.00    +0.083 A 
ATOM      7  C   UNL     1       1.015   1.112   0.458  0.00  0.00    +0.098 A 
ATOM      8  C   UNL     1      -0.836  -0.042  -0.316  0.00  0.00    +0.064 A 
ATOM      9  C   UNL     1      -0.103  -1.056   0.262  0.00  0.00    +0.018 A 
ATOM     10  C   UNL     1      -0.634   2.506  -0.678  0.00  0.00    +0.266 A 
ATOM     11  C   UNL     1       1.518   3.457   0.296  0.00  0.00    +0.334 A 
ATOM     12  C   UNL     1      -0.117   4.890  -0.855  0.00  0.00    +0.138 C 
ENDROOT
BRANCH   8  17
ATOM     13  O   UNL     1      -3.147  -0.182   1.237  0.00  0.00    -0.260 OA
ATOM     14  O   UNL     1      -2.182  -0.574  -2.155  0.00  0.00    -0.268 OA
ATOM     15  N   UNL     1      -3.248  -0.201  -0.170  0.00  0.00    -0.162 N 
ATOM     16  C   UNL     1      -4.625  -0.412  -0.581  0.00  0.00    +0.156 C 
ATOM     17  C   UNL     1      -2.128  -0.291  -0.958  0.00  0.00    +0.272 C 
ATOM     18  C   UNL     1      -5.420  -0.127   0.663  0.00  0.00    +0.165 C 
ATOM     19  C   UNL     1      -4.446  -0.529   1.746  0.00  0.00    +0.202 C 
BRANCH  18  20
ATOM     20  O   UNL     1      -5.678   1.269   0.763  0.00  0.00    -0.380 OA
ATOM     21  H   UNL     1      -6.304   1.533   0.070  0.00  0.00    +0.211 HD
ENDBRANCH  18  20
ENDBRANCH   8  17
BRANCH   4  22
ATOM     22  C   UNL     1       3.155   1.986   1.442  0.00  0.00    +0.111 C 
BRANCH  22  23
ATOM     23  C   UNL     1       4.321   1.689   0.492  0.00  0.00    +0.023 C 
ATOM     24  C   UNL     1       4.512   2.853  -0.481  0.00  0.00    +0.002 C 
ATOM     25  C   UNL     1       4.098   0.390  -0.285  0.00  0.00    +0.002 C 
ENDBRANCH  22  23
ENDBRANCH   4  22
BRANCH   9  26
ATOM     26  C   UNL     1      -0.419  -2.500   0.360  0.00  0.00    +0.062 C 
BRANCH  26  29
ATOM     27  N   UNL     1       2.420  -4.743   0.132  0.00  0.00    -0.280 N 
ATOM     28  N   UNL     1       2.294  -4.498  -1.183  0.00  0.00    -0.178 NA
ATOM     29  C   UNL     1       0.752  -3.398   0.024  0.00  0.00    +0.011 A 
ATOM     30  C   UNL     1       1.502  -4.094   0.904  0.00  0.00    +0.049 A 
ATOM     31  C   UNL     1       1.255  -3.661  -1.238  0.00  0.00    +0.076 A 
ATOM     32  C   UNL     1       1.476  -4.236   2.369  0.00  0.00    +0.051 C 
ATOM     33  C   UNL     1       0.799  -3.154  -2.545  0.00  0.00    +0.054 C 
ATOM     34  H   UNL     1       3.112  -5.336   0.504  0.00  0.00    +0.189 HD
ENDBRANCH  26  29
ENDBRANCH   9  26
TORSDOF 6
