REMARK  Name = 102293495
REMARK  9 active torsions:
REMARK  status: ('A' for Active; 'I' for Inactive)
REMARK    1  A    between atoms: N_1  and  C_32
REMARK    2  A    between atoms: C_2  and  C_31
REMARK    3  A    between atoms: C_4  and  O_18
REMARK    4  A    between atoms: C_6  and  O_20
REMARK    5  A    between atoms: C_9  and  O_22
REMARK    6  A    between atoms: C_11  and  O_24
REMARK    7  A    between atoms: C_14  and  O_28
REMARK    8  A    between atoms: C_14  and  C_34
REMARK    9  A    between atoms: C_15  and  O_26
REMARK                            x       y       z     vdW  Elec       q    Type
REMARK                         _______ _______ _______ _____ _____    ______ ____
ROOT
ATOM      1  N   UNL     1       1.893  -1.670  -0.429  0.00  0.00    +0.392 N 
ATOM      2  C   UNL     1       0.810   0.024   0.991  0.00  0.00    +0.049 C 
ATOM      3  C   UNL     1      -0.549   0.628   1.460  0.00  0.00    +0.010 C 
ATOM      4  C   UNL     1       0.137   0.099  -1.259  0.00  0.00    +0.119 C 
ATOM      5  C   UNL     1      -1.451   1.264   0.381  0.00  0.00    +0.055 C 
ATOM      6  C   UNL     1      -1.344   0.523  -0.974  0.00  0.00    +0.115 C 
ATOM      7  C   UNL     1       0.625  -0.939  -0.197  0.00  0.00    -0.021 C 
ATOM      8  C   UNL     1       1.777   1.053   0.309  0.00  0.00    +0.061 C 
ATOM      9  C   UNL     1       1.150   1.273  -1.105  0.00  0.00    +0.143 C 
ATOM     10  C   UNL     1      -2.841  -0.305   1.427  0.00  0.00    +0.055 C 
ATOM     11  C   UNL     1      -2.848   1.159   1.004  0.00  0.00    +0.120 C 
ATOM     12  C   UNL     1      -1.489  -0.401   2.152  0.00  0.00    +0.005 C 
ATOM     13  C   UNL     1      -2.361  -0.645  -1.103  0.00  0.00    +0.059 C 
ATOM     14  C   UNL     1       3.197   0.436   0.076  0.00  0.00    +0.091 C 
ATOM     15  C   UNL     1      -2.879  -1.254   0.212  0.00  0.00    +0.120 C 
ATOM     16  C   UNL     1       3.066  -0.859  -0.770  0.00  0.00    -0.045 C 
ATOM     17  H   UNL     1       2.102  -2.027   0.503  0.00  0.00    -0.079 HD
ENDROOT
BRANCH   4  18
ATOM     18  O   UNL     1       0.214  -0.448  -2.570  0.00  0.00    -0.384 OA
ATOM     19  H   UNL     1      -0.421  -1.177  -2.653  0.00  0.00    +0.210 HD
ENDBRANCH   4  18
BRANCH   6  20
ATOM     20  O   UNL     1      -1.729   1.476  -1.987  0.00  0.00    -0.384 OA
ATOM     21  H   UNL     1      -1.128   2.237  -1.960  0.00  0.00    +0.210 HD
ENDBRANCH   6  20
BRANCH   9  22
ATOM     22  O   UNL     1       0.603   2.577  -1.199  0.00  0.00    -0.351 OA
ATOM     23  C   UNL     1       1.607   3.552  -1.455  0.00  0.00    +0.174 C 
ENDBRANCH   9  22
BRANCH  11  24
ATOM     24  O   UNL     1      -3.890   1.497   0.115  0.00  0.00    -0.353 OA
ATOM     25  C   UNL     1      -5.127   1.694   0.795  0.00  0.00    +0.174 C 
ENDBRANCH  11  24
BRANCH  15  26
ATOM     26  O   UNL     1      -4.232  -1.662  -0.018  0.00  0.00    -0.353 OA
ATOM     27  C   UNL     1      -4.283  -2.906  -0.694  0.00  0.00    +0.174 C 
ENDBRANCH  15  26
BRANCH  14  28
ATOM     28  O   UNL     1       3.967   1.387  -0.679  0.00  0.00    -0.385 OA
ATOM     29  H   UNL     1       3.518   1.573  -1.518  0.00  0.00    +0.211 HD
ENDBRANCH  14  28
BRANCH   2  31
ATOM     30  O   UNL     1       1.659  -1.817   2.304  0.00  0.00    -0.288 OA
ATOM     31  C   UNL     1       1.396  -0.621   2.225  0.00  0.00    +0.205 C 
ENDBRANCH   2  31
BRANCH   1  32
ATOM     32  C   UNL     1       1.747  -2.812  -1.325  0.00  0.00    -0.077 C 
ATOM     33  C   UNL     1       2.963  -3.720  -1.259  0.00  0.00    -0.025 C 
ENDBRANCH   1  32
BRANCH  14  34
ATOM     34  C   UNL     1       3.981   0.227   1.339  0.00  0.00    -0.002 C 
ATOM     35  C   UNL     1       4.231   1.189   2.233  0.00  0.00    -0.003 C 
ENDBRANCH  14  34
TORSDOF 9
