REMARK  Name = 102225530
REMARK  9 active torsions:
REMARK  status: ('A' for Active; 'I' for Inactive)
REMARK    1  A    between atoms: C_5  and  C_14
REMARK    2  A    between atoms: C_8  and  O_12
REMARK    3  A    between atoms: C_8  and  C_23
REMARK    4  A    between atoms: C_9  and  C_26
REMARK    5  A    between atoms: C_15  and  O_16
REMARK    6  A    between atoms: O_16  and  C_18
REMARK    7  A    between atoms: C_18  and  C_19
REMARK    8  A    between atoms: C_23  and  O_24
REMARK    9  A    between atoms: C_26  and  C_28
REMARK                            x       y       z     vdW  Elec       q    Type
REMARK                         _______ _______ _______ _____ _____    ______ ____
ROOT
ATOM      1  O   UNL     1       2.950  -2.058   1.001  0.00  0.00    -0.294 OA
ATOM      2  C   UNL     1       1.369   2.060   0.539  0.00  0.00    +0.004 C 
ATOM      3  C   UNL     1       3.124   1.091  -0.501  0.00  0.00    +0.034 C 
ATOM      4  C   UNL     1       2.762   1.613   0.895  0.00  0.00    +0.003 C 
ATOM      5  C   UNL     1       0.502   0.693   0.519  0.00  0.00    +0.033 C 
ATOM      6  C   UNL     1       1.673   2.835  -0.825  0.00  0.00    +0.000 C 
ATOM      7  C   UNL     1       3.101   2.354  -1.306  0.00  0.00    +0.003 C 
ATOM      8  C   UNL     1       3.765  -0.261  -0.439  0.00  0.00    +0.166 C 
ATOM      9  C   UNL     1       1.106  -0.728   0.004  0.00  0.00    +0.071 C 
ATOM     10  C   UNL     1       0.800   3.039   1.573  0.00  0.00    +0.000 C 
ATOM     11  C   UNL     1       2.644  -1.106   0.280  0.00  0.00    +0.177 C 
ENDROOT
BRANCH   8  12
ATOM     12  O   UNL     1       3.987  -0.800  -1.731  0.00  0.00    -0.377 OA
ATOM     13  H   UNL     1       3.154  -0.801  -2.228  0.00  0.00    +0.211 HD
ENDBRANCH   8  12
BRANCH   5  14
ATOM     14  C   UNL     1      -0.823   0.954  -0.145  0.00  0.00    +0.015 C 
ATOM     15  C   UNL     1      -1.993   0.934   0.501  0.00  0.00    +0.179 C 
BRANCH  15  16
ATOM     16  O   UNL     1      -3.188   1.173  -0.117  0.00  0.00    -0.418 OA
BRANCH  16  18
ATOM     17  O   UNL     1      -4.252  -0.226   1.407  0.00  0.00    -0.244 OA
ATOM     18  C   UNL     1      -4.262   0.521   0.443  0.00  0.00    +0.345 C 
BRANCH  18  19
ATOM     19  C   UNL     1      -5.461   0.883  -0.355  0.00  0.00    +0.074 C 
ATOM     20  C   UNL     1      -6.535   0.095  -0.546  0.00  0.00    -0.037 C 
ATOM     21  C   UNL     1      -6.568  -1.284   0.062  0.00  0.00    +0.027 C 
ATOM     22  C   UNL     1      -7.759   0.439  -1.348  0.00  0.00    +0.027 C 
ENDBRANCH  18  19
ENDBRANCH  16  18
ENDBRANCH  15  16
ENDBRANCH   5  14
BRANCH   8  23
ATOM     23  C   UNL     1       5.088  -0.276   0.310  0.00  0.00    +0.171 C 
BRANCH  23  24
ATOM     24  O   UNL     1       5.870   0.825  -0.123  0.00  0.00    -0.379 OA
ATOM     25  H   UNL     1       6.717   0.825   0.349  0.00  0.00    +0.211 HD
ENDBRANCH  23  24
ENDBRANCH   8  23
BRANCH   9  26
ATOM     26  C   UNL     1       0.234  -1.876   0.550  0.00  0.00    +0.072 C 
BRANCH  26  28
ATOM     27  O   UNL     1       0.969  -3.288  -1.270  0.00  0.00    -0.296 OA
ATOM     28  C   UNL     1       0.557  -3.191  -0.115  0.00  0.00    +0.152 C 
ATOM     29  C   UNL     1       0.341  -4.414   0.737  0.00  0.00    +0.072 C 
ENDBRANCH  26  28
ENDBRANCH   9  26
TORSDOF 9
