REMARK  Name = 102257033
REMARK  7 active torsions:
REMARK  status: ('A' for Active; 'I' for Inactive)
REMARK    1  A    between atoms: C_3  and  C_25
REMARK    2  A    between atoms: C_8  and  C_17
REMARK    3  A    between atoms: C_13  and  O_36
REMARK    4  A    between atoms: C_14  and  O_38
REMARK    5  A    between atoms: C_26  and  O_30
REMARK    6  A    between atoms: C_27  and  O_32
REMARK    7  A    between atoms: C_28  and  O_34
REMARK                            x       y       z     vdW  Elec       q    Type
REMARK                         _______ _______ _______ _____ _____    ______ ____
ROOT
ATOM      1  O   UNL     1      -0.263   3.725  -0.372  0.00  0.00    -0.440 OA
ATOM      2  O   UNL     1       2.015   3.384  -0.343  0.00  0.00    -0.245 OA
ATOM      3  C   UNL     1      -1.619   0.344  -0.270  0.00  0.00    +0.007 A 
ATOM      4  C   UNL     1      -0.942   1.549  -0.305  0.00  0.00    +0.026 A 
ATOM      5  C   UNL     1      -0.879  -0.853  -0.226  0.00  0.00    +0.001 A 
ATOM      6  C   UNL     1       0.434   1.578  -0.295  0.00  0.00    +0.075 A 
ATOM      7  C   UNL     1       0.547  -0.807  -0.216  0.00  0.00    +0.003 A 
ATOM      8  C   UNL     1       1.206   0.432  -0.252  0.00  0.00    +0.006 A 
ATOM      9  C   UNL     1      -1.471   2.924  -0.354  0.00  0.00    +0.235 C 
ATOM     10  C   UNL     1      -1.522  -2.099  -0.190  0.00  0.00    +0.040 C 
ATOM     11  C   UNL     1       0.875   2.963  -0.338  0.00  0.00    +0.341 C 
ATOM     12  C   UNL     1       1.270  -2.010  -0.172  0.00  0.00    +0.040 C 
ATOM     13  C   UNL     1      -0.783  -3.282  -0.145  0.00  0.00    +0.172 C 
ATOM     14  C   UNL     1       0.608  -3.237  -0.137  0.00  0.00    +0.172 C 
ENDROOT
BRANCH   8  17
ATOM     15  O   UNL     1       5.541   0.815   2.004  0.00  0.00    -0.435 OA
ATOM     16  O   UNL     1       6.747   0.829  -0.083  0.00  0.00    -0.435 OA
ATOM     17  C   UNL     1       2.656   0.534  -0.244  0.00  0.00    +0.003 C 
ATOM     18  C   UNL     1       3.338   0.623   0.972  0.00  0.00    +0.040 C 
ATOM     19  C   UNL     1       3.359   0.543  -1.462  0.00  0.00    +0.003 C 
ATOM     20  C   UNL     1       4.713   0.719   0.928  0.00  0.00    +0.176 C 
ATOM     21  C   UNL     1       4.752   0.641  -1.477  0.00  0.00    +0.040 C 
ATOM     22  C   UNL     1       5.402   0.727  -0.263  0.00  0.00    +0.176 C 
ATOM     23  C   UNL     1       6.828   0.884   1.356  0.00  0.00    +0.429 C 
ENDBRANCH   8  17
BRANCH   3  25
ATOM     24  O   UNL     1      -3.616   1.464  -1.059  0.00  0.00    -0.347 OA
ATOM     25  C   UNL     1      -3.135   0.359  -0.281  0.00  0.00    +0.166 C 
ATOM     26  C   UNL     1      -3.729   0.397   1.144  0.00  0.00    +0.171 C 
ATOM     27  C   UNL     1      -5.261   0.453   1.089  0.00  0.00    +0.169 C 
ATOM     28  C   UNL     1      -5.726   1.560   0.138  0.00  0.00    +0.169 C 
ATOM     29  C   UNL     1      -5.034   1.447  -1.215  0.00  0.00    +0.174 C 
BRANCH  26  30
ATOM     30  O   UNL     1      -3.254   1.537   1.860  0.00  0.00    -0.379 OA
ATOM     31  H   UNL     1      -2.286   1.513   1.901  0.00  0.00    +0.211 HD
ENDBRANCH  26  30
BRANCH  27  32
ATOM     32  O   UNL     1      -5.756  -0.801   0.619  0.00  0.00    -0.379 OA
ATOM     33  H   UNL     1      -5.466  -1.508   1.217  0.00  0.00    +0.211 HD
ENDBRANCH  27  32
BRANCH  28  34
ATOM     34  O   UNL     1      -7.134   1.508  -0.048  0.00  0.00    -0.379 OA
ATOM     35  H   UNL     1      -7.577   1.580   0.812  0.00  0.00    +0.211 HD
ENDBRANCH  28  34
ENDBRANCH   3  25
BRANCH  13  36
ATOM     36  O   UNL     1      -1.437  -4.478  -0.110  0.00  0.00    -0.468 OA
ATOM     37  C   UNL     1      -1.757  -5.002   1.177  0.00  0.00    +0.253 C 
ENDBRANCH  13  36
BRANCH  14  38
ATOM     38  O   UNL     1       1.336  -4.388  -0.092  0.00  0.00    -0.468 OA
ATOM     39  C   UNL     1       1.691  -4.979  -1.341  0.00  0.00    +0.253 C 
ENDBRANCH  14  38
TORSDOF 7
