REMARK  Name = 102210151
REMARK  6 active torsions:
REMARK  status: ('A' for Active; 'I' for Inactive)
REMARK    1  A    between atoms: C_1  and  C_5
REMARK    2  A    between atoms: C_1  and  O_12
REMARK    3  A    between atoms: C_1  and  C_14
REMARK    4  A    between atoms: C_14  and  N_15
REMARK    5  A    between atoms: C_14  and  C_20
REMARK    6  A    between atoms: C_20  and  O_21
REMARK                            x       y       z     vdW  Elec       q    Type
REMARK                         _______ _______ _______ _____ _____    ______ ____
ROOT
ATOM      1  C   UNL     1       0.285   1.032  -0.204  0.00  0.00    +0.138 C 
ENDROOT
BRANCH   1   5
ATOM      2  S   UNL     1      -4.483  -0.536   1.239  0.00  0.00    -0.021 S 
ATOM      3  N   UNL     1      -1.902   0.272   0.751  0.00  0.00    -0.365 NA
ATOM      4  N   UNL     1      -3.183   0.164  -1.080  0.00  0.00    -0.363 NA
ATOM      5  C   UNL     1      -1.151   0.642  -0.344  0.00  0.00    +0.049 C 
ATOM      6  C   UNL     1      -1.923   0.576  -1.439  0.00  0.00    +0.056 C 
ATOM      7  C   UNL     1      -3.206  -0.040   0.315  0.00  0.00    +0.106 C 
ATOM      8  H   UNL     1      -1.581   0.232   1.681  0.00  0.00    +0.130 HD
ATOM      9  H   UNL     1      -1.155   0.725   1.206  0.00  0.00    +0.130 HD
ATOM     10  H   UNL     1      -3.943   0.034  -1.693  0.00  0.00    +0.130 HD
ATOM     11  H   UNL     1      -2.732   1.009  -0.851  0.00  0.00    +0.130 HD
ENDBRANCH   1   5
BRANCH   1  12
ATOM     12  O   UNL     1       0.341   2.230   0.568  0.00  0.00    -0.380 OA
ATOM     13  H   UNL     1       1.266   2.504   0.673  0.00  0.00    +0.211 HD
ENDBRANCH   1  12
BRANCH   1  14
ATOM     14  C   UNL     1       1.160  -0.064   0.422  0.00  0.00    +0.080 C 
BRANCH  14  15
ATOM     15  N   UNL     1       2.603   0.224   0.157  0.00  0.00    +0.396 N 
ATOM     16  C   UNL     1       2.884   0.201  -1.348  0.00  0.00    -0.095 C 
ATOM     17  C   UNL     1       3.490  -0.825   0.833  0.00  0.00    -0.095 C 
ATOM     18  C   UNL     1       2.981   1.604   0.702  0.00  0.00    -0.095 C 
ENDBRANCH  14  15
BRANCH  14  20
ATOM     19  O   UNL     1       0.815  -1.739  -1.310  0.00  0.00    -0.252 OA
ATOM     20  C   UNL     1       0.809  -1.434  -0.125  0.00  0.00    +0.297 C 
BRANCH  20  21
ATOM     21  O   UNL     1       0.479  -2.308   0.861  0.00  0.00    -0.481 OA
ATOM     22  H   UNL     1       0.489  -2.030   1.756  0.00  0.00    +0.295 HD
ENDBRANCH  20  21
ENDBRANCH  14  20
ENDBRANCH   1  14
TORSDOF 6
