REMARK  Name = 102205948
REMARK  4 active torsions:
REMARK  status: ('A' for Active; 'I' for Inactive)
REMARK    1  A    between atoms: C_4  and  O_23
REMARK    2  A    between atoms: C_5  and  O_25
REMARK    3  A    between atoms: C_9  and  O_27
REMARK    4  A    between atoms: C_19  and  O_29
REMARK                            x       y       z     vdW  Elec       q    Type
REMARK                         _______ _______ _______ _____ _____    ______ ____
ROOT
ATOM      1  O   UNL     1      -1.424   1.900  -1.623  0.00  0.00    -0.288 OA
ATOM      2  O   UNL     1       0.499   2.483   0.616  0.00  0.00    -0.287 OA
ATOM      3  O   UNL     1       2.186  -2.390  -0.743  0.00  0.00    -0.287 OA
ATOM      4  C   UNL     1      -2.419  -0.771   0.647  0.00  0.00    +0.127 C 
ATOM      5  C   UNL     1      -1.592   0.510   0.377  0.00  0.00    +0.187 C 
ATOM      6  C   UNL     1      -2.075  -1.850  -0.397  0.00  0.00    +0.064 C 
ATOM      7  C   UNL     1      -3.931  -0.474   0.687  0.00  0.00    +0.052 C 
ATOM      8  C   UNL     1      -0.104   0.217   0.177  0.00  0.00    +0.051 C 
ATOM      9  C   UNL     1      -0.579  -2.188  -0.395  0.00  0.00    +0.138 C 
ATOM     10  C   UNL     1       0.340  -1.007  -0.170  0.00  0.00    +0.045 C 
ATOM     11  C   UNL     1      -2.136   1.242  -0.864  0.00  0.00    +0.203 C 
ATOM     12  C   UNL     1      -4.417   0.432  -0.409  0.00  0.00    -0.039 C 
ATOM     13  C   UNL     1      -3.596   1.207  -1.131  0.00  0.00    +0.032 C 
ATOM     14  C   UNL     1       0.870   1.342   0.359  0.00  0.00    +0.194 C 
ATOM     15  C   UNL     1       1.792  -1.286  -0.382  0.00  0.00    +0.197 C 
ATOM     16  C   UNL     1       2.308   1.065   0.218  0.00  0.00    +0.045 C 
ATOM     17  C   UNL     1       2.754  -0.202  -0.141  0.00  0.00    +0.075 C 
ATOM     18  C   UNL     1      -5.899   0.430  -0.651  0.00  0.00    +0.027 C 
ATOM     19  C   UNL     1       4.126  -0.450  -0.278  0.00  0.00    +0.137 C 
ATOM     20  C   UNL     1       3.236   2.092   0.441  0.00  0.00    +0.003 C 
ATOM     21  C   UNL     1       5.047   0.574  -0.055  0.00  0.00    +0.037 C 
ATOM     22  C   UNL     1       4.602   1.843   0.305  0.00  0.00    +0.003 C 
ENDROOT
BRANCH   4  23
ATOM     23  O   UNL     1      -2.071  -1.271   1.948  0.00  0.00    -0.383 OA
ATOM     24  H   UNL     1      -1.123  -1.474   1.974  0.00  0.00    +0.210 HD
ENDBRANCH   4  23
BRANCH   5  25
ATOM     25  O   UNL     1      -1.817   1.393   1.478  0.00  0.00    -0.373 OA
ATOM     26  H   UNL     1      -1.491   0.981   2.294  0.00  0.00    +0.211 HD
ENDBRANCH   5  25
BRANCH   9  27
ATOM     27  O   UNL     1      -0.327  -3.173   0.611  0.00  0.00    -0.380 OA
ATOM     28  H   UNL     1      -0.912  -3.934   0.473  0.00  0.00    +0.211 HD
ENDBRANCH   9  27
BRANCH  19  29
ATOM     29  O   UNL     1       4.627  -1.670  -0.624  0.00  0.00    -0.505 OA
ATOM     30  H   UNL     1       4.045  -2.387  -0.784  0.00  0.00    +0.292 HD
ENDBRANCH  19  29
TORSDOF 4
