102293380
  -OEChem-03292013293D

 43 44  0     1  0  0  0  0  0999 V2000
   -2.7615    0.4052   -2.4880 O   0  0  0  0  0  0  0  0  0  0  0  0
   -4.9340    0.2503   -1.8808 O   0  0  0  0  0  0  0  0  0  0  0  0
   -1.8281   -2.6590    1.0013 O   0  0  0  0  0  0  0  0  0  0  0  0
    2.9815   -3.9650    0.1672 O   0  0  0  0  0  0  0  0  0  0  0  0
   -1.8385   -0.6956   -0.2581 N   0  0  0  0  0  0  0  0  0  0  0  0
    0.8592   -0.5650    0.1722 N   0  0  0  0  0  0  0  0  0  0  0  0
    3.9910    0.9190   -0.7594 N   0  0  0  0  0  0  0  0  0  0  0  0
   -2.9982    1.5965    1.3148 C   0  0  0  0  0  0  0  0  0  0  0  0
   -3.7593    0.3071    0.9312 C   0  0  0  0  0  0  0  0  0  0  0  0
   -3.2615   -0.4787   -0.2913 C   0  0  1  0  0  0  0  0  0  0  0  0
   -3.5268    2.2727    2.5778 C   0  0  0  0  0  0  0  0  0  0  0  0
   -3.0581    2.5851    0.1443 C   0  0  0  0  0  0  0  0  0  0  0  0
   -3.7470    0.1051   -1.6086 C   0  0  0  0  0  0  0  0  0  0  0  0
   -1.2502   -1.7689    0.3870 C   0  0  0  0  0  0  0  0  0  0  0  0
    0.2092   -1.7674    0.2760 C   0  0  0  0  0  0  0  0  0  0  0  0
    2.2328   -0.4872    0.0687 C   0  0  0  0  0  0  0  0  0  0  0  0
    0.8420   -2.9489    0.2826 C   0  0  0  0  0  0  0  0  0  0  0  0
    3.0002   -1.5943    0.0582 C   0  0  0  0  0  0  0  0  0  0  0  0
    2.3302   -2.9261    0.1695 C   0  0  0  0  0  0  0  0  0  0  0  0
    2.8431    0.8516   -0.0487 C   0  0  0  0  0  0  0  0  0  0  0  0
    2.2373    1.9434    0.5520 C   0  0  0  0  0  0  0  0  0  0  0  0
    2.8490    3.1844    0.4140 C   0  0  0  0  0  0  0  0  0  0  0  0
    4.5568    2.1418   -0.8719 C   0  0  0  0  0  0  0  0  0  0  0  0
    4.0309    3.2941   -0.3100 C   0  0  0  0  0  0  0  0  0  0  0  0
   -1.9457    1.3477    1.4993 H   0  0  0  0  0  0  0  0  0  0  0  0
   -4.8243    0.5435    0.8057 H   0  0  0  0  0  0  0  0  0  0  0  0
   -3.7052   -0.3640    1.7999 H   0  0  0  0  0  0  0  0  0  0  0  0
   -3.7264   -1.4737   -0.2533 H   0  0  0  0  0  0  0  0  0  0  0  0
   -4.0842    2.7371   -0.2065 H   0  0  0  0  0  0  0  0  0  0  0  0
   -2.9347    3.1595    2.8272 H   0  0  0  0  0  0  0  0  0  0  0  0
   -3.4777    1.5867    3.4298 H   0  0  0  0  0  0  0  0  0  0  0  0
   -2.4383    2.2552   -0.6923 H   0  0  0  0  0  0  0  0  0  0  0  0
   -2.6642    3.5623    0.4466 H   0  0  0  0  0  0  0  0  0  0  0  0
   -4.5699    2.5824    2.4534 H   0  0  0  0  0  0  0  0  0  0  0  0
   -1.2623   -0.0400   -0.7762 H   0  0  0  0  0  0  0  0  0  0  0  0
    0.3139    0.2857    0.1942 H   0  0  0  0  0  0  0  0  0  0  0  0
    0.3494   -3.9104    0.3590 H   0  0  0  0  0  0  0  0  0  0  0  0
    4.0812   -1.5860   -0.0190 H   0  0  0  0  0  0  0  0  0  0  0  0
   -3.1174    0.7574   -3.3315 H   0  0  0  0  0  0  0  0  0  0  0  0
    1.3278    1.8711    1.1386 H   0  0  0  0  0  0  0  0  0  0  0  0
    2.4084    4.0639    0.8740 H   0  0  0  0  0  0  0  0  0  0  0  0
    5.4771    2.1735   -1.4457 H   0  0  0  0  0  0  0  0  0  0  0  0
    4.5258    4.2510   -0.4296 H   0  0  0  0  0  0  0  0  0  0  0  0
  1 13  1  0  0  0  0
  1 39  1  0  0  0  0
  2 13  2  0  0  0  0
  3 14  2  0  0  0  0
  4 19  2  0  0  0  0
  5 10  1  0  0  0  0
  5 14  1  0  0  0  0
  5 35  1  0  0  0  0
  6 15  1  0  0  0  0
  6 16  1  0  0  0  0
  6 36  1  0  0  0  0
  7 20  1  0  0  0  0
  7 23  2  0  0  0  0
  8  9  1  0  0  0  0
  8 11  1  0  0  0  0
  8 12  1  0  0  0  0
  8 25  1  0  0  0  0
  9 10  1  0  0  0  0
  9 26  1  0  0  0  0
  9 27  1  0  0  0  0
 10 13  1  0  0  0  0
 10 28  1  0  0  0  0
 11 30  1  0  0  0  0
 11 31  1  0  0  0  0
 11 34  1  0  0  0  0
 12 29  1  0  0  0  0
 12 32  1  0  0  0  0
 12 33  1  0  0  0  0
 14 15  1  0  0  0  0
 15 17  2  0  0  0  0
 16 18  2  0  0  0  0
 16 20  1  0  0  0  0
 17 19  1  0  0  0  0
 17 37  1  0  0  0  0
 18 19  1  0  0  0  0
 18 38  1  0  0  0  0
 20 21  2  0  0  0  0
 21 22  1  0  0  0  0
 21 40  1  0  0  0  0
 22 24  2  0  0  0  0
 22 41  1  0  0  0  0
 23 24  1  0  0  0  0
 23 42  1  0  0  0  0
 24 43  1  0  0  0  0
M  END
> <PUBCHEM_COMPOUND_CID>
102293380

> <PUBCHEM_CONFORMER_RMSD>
0.8

> <PUBCHEM_CONFORMER_DIVERSEORDER>
1
106
166
24
82
62
68
4
136
37
174
114
175
126
150
21
176
151
99
153
76
154
158
2
11
93
140
121
48
162
42
87
135
173
172
112
18
109
155
40
179
144
47
108
50
159
13
41
53
22
152
97
149
186
141
143
188
81
183
71
132
168
3
39
134
146
128
157
98
95
92
86
32
91
110
30
107
5
127
113
142
148
178
138
7
74
33
19
122
10
105
15
36
160
104
115
35
72
88
77
139
131
6
80
8
171
79
167
170
65
124
12
147
94
163
55
83
118
9
145
130
64
90
129
103
123
169
63
119
111
89
78
58
69
20
61
26
102
56
46
60
100
164
117
187
133
17
45
52
70
116
73
137
85
38
54
184
16
59
14
23
75
43
29
28
161
177
165
101
96
49
31
51
44
125
25
67
66
34
181
27
156
120
84
57
180
182
190
185
189

> <PUBCHEM_MMFF94_PARTIAL_CHARGES>
29
1 -0.65
10 0.36
13 0.66
14 0.62
15 0.11
16 0.07
17 -0.14
18 -0.14
19 0.54
2 -0.57
20 0.34
21 -0.15
22 -0.15
23 0.16
24 -0.15
3 -0.57
35 0.37
36 0.4
37 0.15
38 0.15
39 0.5
4 -0.57
40 0.15
41 0.15
42 0.15
43 0.15
5 -0.73
6 -0.6
7 -0.62

> <PUBCHEM_EFFECTIVE_ROTOR_COUNT>
7

> <PUBCHEM_PHARMACOPHORE_FEATURES>
12
1 1 acceptor
1 2 acceptor
1 3 acceptor
1 4 acceptor
1 5 donor
1 6 cation
1 6 donor
1 7 acceptor
3 1 2 13 anion
3 8 11 12 hydrophobe
6 6 15 16 17 18 19 rings
6 7 20 21 22 23 24 rings

> <PUBCHEM_HEAVY_ATOM_COUNT>
24

> <PUBCHEM_ATOM_DEF_STEREO_COUNT>
1

> <PUBCHEM_ATOM_UDEF_STEREO_COUNT>
0

> <PUBCHEM_BOND_DEF_STEREO_COUNT>
0

> <PUBCHEM_BOND_UDEF_STEREO_COUNT>
0

> <PUBCHEM_ISOTOPIC_ATOM_COUNT>
0

> <PUBCHEM_COMPONENT_COUNT>
1

> <PUBCHEM_CACTVS_TAUTO_COUNT>
8

> <PUBCHEM_CONFORMER_ID>
0618DF8400000001

> <PUBCHEM_MMFF94_ENERGY>
60.9268

> <PUBCHEM_FEATURE_SELFOVERLAP>
60.962

> <PUBCHEM_SHAPE_FINGERPRINT>
10498660 4 18264765647979890084
12539773 59 17775012293007958993
12549972 3 16589429666474375337
12769317 202 18410284852712249510
12788726 201 17632855326861850173
13134695 92 18119798115392195654
13464514 151 18341067267323606318
13583140 156 17829624855518678201
13590594 115 17833274121293763498
14123250 116 18272940435676146913
14468879 13 17531230752514240949
14848178 96 18337389443593765908
15842332 3 18059853914039763763
17980427 23 18057873659323173970
20510252 161 17979361089794305954
20775438 99 15465750145754668534
21095088 737 18339919428539303389
21860390 5 18198622129783316734
21864079 5 18271536307698016745
22122407 14 17979092491932097609
22749437 52 18410285943244020361
23559900 14 18338503175774174866
24771293 8 18200304426351895490
283562 15 17904483252652993851
312423 11 18129942278541949111
469060 322 17097217366549023051
474 4 18410569587194740891
5048184 11 18341624697791054169
5895379 119 17416692327987416576
633830 44 18200327601203672684
7615 1 18059000684368724283
84936 182 18343023319857539256
9981440 41 18266168625054050082

> <PUBCHEM_SHAPE_MULTIPOLES>
455.49
9.46
4.6
1.57
1.63
1.22
-0.32
-6.45
-2.08
-4.7
1.31
2.78
-0.83
-1.53

> <PUBCHEM_SHAPE_SELFOVERLAP>
957.786

> <PUBCHEM_SHAPE_VOLUME>
254.3

> <PUBCHEM_COORDINATE_TYPE>
2
5
10

$$$$
