102237435
  -OEChem-03292013293D

 65 68  0     1  0  0  0  0  0999 V2000
   -1.2909   -2.8028    0.8626 O   0  0  0  0  0  0  0  0  0  0  0  0
   -5.7825   -1.2727    0.1544 O   0  0  0  0  0  0  0  0  0  0  0  0
    2.4692    0.9362    1.1504 O   0  0  0  0  0  0  0  0  0  0  0  0
    3.2546   -1.6238    0.4302 O   0  0  0  0  0  0  0  0  0  0  0  0
   -2.7522    2.2295    1.0289 O   0  0  0  0  0  0  0  0  0  0  0  0
    4.6948    1.5275    1.3343 O   0  0  0  0  0  0  0  0  0  0  0  0
    4.8303   -1.7187   -1.2565 O   0  0  0  0  0  0  0  0  0  0  0  0
   -0.1371   -0.4431   -0.8548 C   0  0  1  0  0  0  0  0  0  0  0  0
   -1.5390   -0.5549   -0.1109 C   0  0  1  0  0  0  0  0  0  0  0  0
   -2.6206    0.4471   -0.6551 C   0  0  1  0  0  0  0  0  0  0  0  0
    0.2242    1.0916   -0.8691 C   0  0  1  0  0  0  0  0  0  0  0  0
    1.7335    1.4927   -1.1268 C   0  0  0  0  0  0  0  0  0  0  0  0
   -2.2016    1.4166   -1.7534 C   0  0  0  0  0  0  0  0  0  0  0  0
   -3.9273   -0.2750   -1.0734 C   0  0  0  0  0  0  0  0  0  0  0  0
   -0.7726    1.9403   -1.6819 C   0  0  0  0  0  0  0  0  0  0  0  0
   -2.1362   -1.9850    0.0596 C   0  0  2  0  0  0  0  0  0  0  0  0
    0.9445   -1.2216   -0.0484 C   0  0  0  0  0  0  0  0  0  0  0  0
   -4.4398   -0.8362    0.2520 C   0  0  2  0  0  0  0  0  0  0  0  0
   -3.5378   -1.9908    0.7103 C   0  0  0  0  0  0  0  0  0  0  0  0
    2.6623    0.6227   -0.2341 C   0  0  2  0  0  0  0  0  0  0  0  0
   -3.1725    1.1823    0.5653 C   0  0  0  0  0  0  0  0  0  0  0  0
    2.3847   -0.8693   -0.4152 C   0  0  1  0  0  0  0  0  0  0  0  0
   -0.2194   -1.0839   -2.2577 C   0  0  0  0  0  0  0  0  0  0  0  0
   -4.2907    0.3749    1.1429 C   0  0  0  0  0  0  0  0  0  0  0  0
    2.1921    1.3680   -2.5969 C   0  0  0  0  0  0  0  0  0  0  0  0
    1.9306    2.9876   -0.7517 C   0  0  0  0  0  0  0  0  0  0  0  0
   -5.0056    0.7631    2.2001 C   0  0  0  0  0  0  0  0  0  0  0  0
    3.5771    1.3783    1.8094 C   0  0  0  0  0  0  0  0  0  0  0  0
    4.4489   -1.9819   -0.1241 C   0  0  0  0  0  0  0  0  0  0  0  0
    3.2275    1.6648    3.2383 C   0  0  0  0  0  0  0  0  0  0  0  0
    5.2517   -2.7636    0.8712 C   0  0  0  0  0  0  0  0  0  0  0  0
   -1.3056   -0.2448    0.9216 H   0  0  0  0  0  0  0  0  0  0  0  0
    0.0525    1.4080    0.1737 H   0  0  0  0  0  0  0  0  0  0  0  0
   -2.8817    2.2793   -1.7821 H   0  0  0  0  0  0  0  0  0  0  0  0
   -2.3401    0.9357   -2.7297 H   0  0  0  0  0  0  0  0  0  0  0  0
   -3.7677   -1.0485   -1.8337 H   0  0  0  0  0  0  0  0  0  0  0  0
   -4.6607    0.4229   -1.5047 H   0  0  0  0  0  0  0  0  0  0  0  0
   -0.4289    2.0766   -2.7115 H   0  0  0  0  0  0  0  0  0  0  0  0
   -0.8052    2.9474   -1.2465 H   0  0  0  0  0  0  0  0  0  0  0  0
   -2.2115   -2.4682   -0.9203 H   0  0  0  0  0  0  0  0  0  0  0  0
    0.8253   -2.3036   -0.1856 H   0  0  0  0  0  0  0  0  0  0  0  0
    0.8065   -1.0542    1.0284 H   0  0  0  0  0  0  0  0  0  0  0  0
   -4.0100   -2.9572    0.4853 H   0  0  0  0  0  0  0  0  0  0  0  0
   -3.4420   -1.9902    1.8052 H   0  0  0  0  0  0  0  0  0  0  0  0
    3.7008    0.8083   -0.5349 H   0  0  0  0  0  0  0  0  0  0  0  0
    2.5457   -1.1689   -1.4559 H   0  0  0  0  0  0  0  0  0  0  0  0
    0.7205   -1.0270   -2.8039 H   0  0  0  0  0  0  0  0  0  0  0  0
   -0.4505   -2.1525   -2.1886 H   0  0  0  0  0  0  0  0  0  0  0  0
   -0.9840   -0.6400   -2.8942 H   0  0  0  0  0  0  0  0  0  0  0  0
    1.6015    1.9952   -3.2706 H   0  0  0  0  0  0  0  0  0  0  0  0
    2.1625    0.3505   -2.9812 H   0  0  0  0  0  0  0  0  0  0  0  0
    2.9926    3.2591   -0.7709 H   0  0  0  0  0  0  0  0  0  0  0  0
    1.5509    3.2085    0.2518 H   0  0  0  0  0  0  0  0  0  0  0  0
    1.4157    3.6524   -1.4537 H   0  0  0  0  0  0  0  0  0  0  0  0
    3.2325    1.7015   -2.7007 H   0  0  0  0  0  0  0  0  0  0  0  0
   -1.6892   -3.6890    0.9026 H   0  0  0  0  0  0  0  0  0  0  0  0
   -5.8322   -1.9267   -0.5636 H   0  0  0  0  0  0  0  0  0  0  0  0
   -5.8266    0.1572    2.5678 H   0  0  0  0  0  0  0  0  0  0  0  0
   -4.7902    1.6870    2.7256 H   0  0  0  0  0  0  0  0  0  0  0  0
    2.4612    2.4427    3.2832 H   0  0  0  0  0  0  0  0  0  0  0  0
    4.1173    2.0212    3.7651 H   0  0  0  0  0  0  0  0  0  0  0  0
    2.8777    0.7505    3.7243 H   0  0  0  0  0  0  0  0  0  0  0  0
    5.4480   -2.1483    1.7530 H   0  0  0  0  0  0  0  0  0  0  0  0
    6.2087   -3.0464    0.4235 H   0  0  0  0  0  0  0  0  0  0  0  0
    4.7140   -3.6738    1.1482 H   0  0  0  0  0  0  0  0  0  0  0  0
  1 16  1  0  0  0  0
  1 56  1  0  0  0  0
  2 18  1  0  0  0  0
  2 57  1  0  0  0  0
  3 20  1  0  0  0  0
  3 28  1  0  0  0  0
  4 22  1  0  0  0  0
  4 29  1  0  0  0  0
  5 21  2  0  0  0  0
  6 28  2  0  0  0  0
  7 29  2  0  0  0  0
  8  9  1  0  0  0  0
  8 11  1  0  0  0  0
  8 17  1  0  0  0  0
  8 23  1  0  0  0  0
  9 10  1  0  0  0  0
  9 16  1  0  0  0  0
  9 32  1  0  0  0  0
 10 13  1  0  0  0  0
 10 14  1  0  0  0  0
 10 21  1  0  0  0  0
 11 12  1  0  0  0  0
 11 15  1  0  0  0  0
 11 33  1  0  0  0  0
 12 20  1  0  0  0  0
 12 25  1  0  0  0  0
 12 26  1  0  0  0  0
 13 15  1  0  0  0  0
 13 34  1  0  0  0  0
 13 35  1  0  0  0  0
 14 18  1  0  0  0  0
 14 36  1  0  0  0  0
 14 37  1  0  0  0  0
 15 38  1  0  0  0  0
 15 39  1  0  0  0  0
 16 19  1  0  0  0  0
 16 40  1  0  0  0  0
 17 22  1  0  0  0  0
 17 41  1  0  0  0  0
 17 42  1  0  0  0  0
 18 19  1  0  0  0  0
 18 24  1  0  0  0  0
 19 43  1  0  0  0  0
 19 44  1  0  0  0  0
 20 22  1  0  0  0  0
 20 45  1  0  0  0  0
 21 24  1  0  0  0  0
 22 46  1  0  0  0  0
 23 47  1  0  0  0  0
 23 48  1  0  0  0  0
 23 49  1  0  0  0  0
 24 27  2  0  0  0  0
 25 50  1  0  0  0  0
 25 51  1  0  0  0  0
 25 55  1  0  0  0  0
 26 52  1  0  0  0  0
 26 53  1  0  0  0  0
 26 54  1  0  0  0  0
 27 58  1  0  0  0  0
 27 59  1  0  0  0  0
 28 30  1  0  0  0  0
 29 31  1  0  0  0  0
 30 60  1  0  0  0  0
 30 61  1  0  0  0  0
 30 62  1  0  0  0  0
 31 63  1  0  0  0  0
 31 64  1  0  0  0  0
 31 65  1  0  0  0  0
M  END
> <PUBCHEM_COMPOUND_CID>
102237435

> <PUBCHEM_CONFORMER_RMSD>
0.8

> <PUBCHEM_CONFORMER_DIVERSEORDER>
1
2
3

> <PUBCHEM_MMFF94_PARTIAL_CHARGES>
23
1 -0.68
10 0.06
16 0.28
18 0.42
2 -0.68
20 0.28
21 0.49
22 0.28
24 -0.12
27 -0.3
28 0.66
29 0.66
3 -0.43
30 0.06
31 0.06
4 -0.43
5 -0.57
56 0.4
57 0.4
58 0.15
59 0.15
6 -0.57
7 -0.57

> <PUBCHEM_EFFECTIVE_ROTOR_COUNT>
5.8

> <PUBCHEM_PHARMACOPHORE_FEATURES>
11
1 1 acceptor
1 1 donor
1 2 acceptor
1 2 donor
1 5 acceptor
1 6 acceptor
1 7 acceptor
3 12 25 26 hydrophobe
6 8 11 12 17 20 22 rings
6 8 9 10 11 13 15 rings
8 9 10 14 16 18 19 21 24 rings

> <PUBCHEM_HEAVY_ATOM_COUNT>
31

> <PUBCHEM_ATOM_DEF_STEREO_COUNT>
8

> <PUBCHEM_ATOM_UDEF_STEREO_COUNT>
0

> <PUBCHEM_BOND_DEF_STEREO_COUNT>
0

> <PUBCHEM_BOND_UDEF_STEREO_COUNT>
0

> <PUBCHEM_ISOTOPIC_ATOM_COUNT>
0

> <PUBCHEM_COMPONENT_COUNT>
1

> <PUBCHEM_CACTVS_TAUTO_COUNT>
4

> <PUBCHEM_CONFORMER_ID>
061804FB00000001

> <PUBCHEM_MMFF94_ENERGY>
125.8063

> <PUBCHEM_FEATURE_SELFOVERLAP>
55.851

> <PUBCHEM_SHAPE_FINGERPRINT>
11370993 144 18201719535273484947
12403259 118 16702019743200343465
12553582 1 17603586322196904115
12633257 1 18340221704010869543
12670546 177 10881400928624937840
12714826 92 16805593733777794742
12892183 10 18272086144947374249
13140716 1 18261408770798909411
13224815 77 18271535272853459077
13533116 47 18272647965461838939
13583140 156 17631167683333781546
14341114 176 18410863156836293331
14739800 52 17631731702671035840
14849402 71 18131627924710142768
14950920 106 18060416902500302275
15209289 33 18262526887850426283
15238133 3 17559132998482573017
15295992 7 17989494012936070563
17349148 13 18411703210012042263
17492 89 18043823189189650259
1813 80 16877941650620112054
18222031 100 17966968322444238399
21033648 29 18263908986746071073
21756936 100 16843868988293905672
22182313 1 18190155954868804748
23559900 14 18334574654839540455
2838139 119 16127236987560073976
350125 39 18261121729470314685
3633792 109 18334285492672918271
3737641 26 17973450897279309362
392239 28 18202289065575629745
437815 12 17986681372599799766
5104073 3 18272941526782391939
563151 74 17559934667656838970
6669772 16 14853034944067883308
6823239 73 18260258638823245736

> <PUBCHEM_SHAPE_MULTIPOLES>
596.88
10.63
2.95
2.29
0.76
0.47
0.82
4.07
4.91
-2.2
0.06
-1.2
-1.37
0.55

> <PUBCHEM_SHAPE_SELFOVERLAP>
1276.31

> <PUBCHEM_SHAPE_VOLUME>
325.9

> <PUBCHEM_COORDINATE_TYPE>
2
5
10

$$$$
