REMARK  Name = 10222114
REMARK  13 active torsions:
REMARK  status: ('A' for Active; 'I' for Inactive)
REMARK    1  A    between atoms: N_2  and  CA_5
REMARK    2  A    between atoms: C_3  and  CA_19
REMARK    3  A    between atoms: CA_5  and  C_8
REMARK    4  A    between atoms: CA_5  and  CB_15
REMARK    5  A    between atoms: N_7  and  CA_10
REMARK    6  A    between atoms: CA_10  and  C_12
REMARK    7  A    between atoms: C_12  and  O_13
REMARK    8  A    between atoms: CB_15  and  CG_16
REMARK    9  A    between atoms: CA_19  and  N_21
REMARK   10  A    between atoms: CA_19  and  CB_29
REMARK   11  A    between atoms: C_22  and  CA_24
REMARK   12  A    between atoms: CA_24  and  N_25
REMARK   13  A    between atoms: CB_29  and  CG_30
REMARK                            x       y       z     vdW  Elec       q    Type
REMARK                         _______ _______ _______ _____ _____    ______ ____
ROOT
ATOM      1  O   PHE A   2       0.647  -0.283   1.694  0.00  0.00    -0.273 OA
ATOM      2  N   LEU A   3       0.821  -0.506  -0.612  0.00  0.00    -0.297 N 
ATOM      3  C   PHE A   2       0.138  -0.267   0.576  0.00  0.00    +0.241 C 
ATOM      4  H   LEU A   3       0.315  -0.468  -1.456  0.00  0.00    +0.150 HD
ENDROOT
BRANCH   2   5
ATOM      5  CA  LEU A   3       2.228  -0.806  -0.673  0.00  0.00    +0.149 C 
BRANCH   5   8
ATOM      6  O   LEU A   3       2.529   1.519  -1.293  0.00  0.00    -0.273 OA
ATOM      7  N   GLY A   4       4.154   0.487   0.006  0.00  0.00    -0.294 N 
ATOM      8  C   LEU A   3       2.969   0.526  -0.717  0.00  0.00    +0.241 C 
ATOM      9  H   GLY A   4       4.415  -0.363   0.429  0.00  0.00    +0.150 HD
BRANCH   7  10
ATOM     10  CA  GLY A   4       5.022   1.631   0.167  0.00  0.00    +0.200 C 
BRANCH  10  12
ATOM     11  OXT GLY A   4       5.296   3.472   1.693  0.00  0.00    -0.248 OA
ATOM     12  C   GLY A   4       4.686   2.456   1.382  0.00  0.00    +0.334 C 
BRANCH  12  13
ATOM     13  O   GLY A   4       3.646   1.968   2.097  0.00  0.00    -0.479 OA
ATOM     14  H   GLY A   4       3.211   1.186   1.818  0.00  0.00    +0.295 HD
ENDBRANCH  12  13
ENDBRANCH  10  12
ENDBRANCH   7  10
ENDBRANCH   5   8
BRANCH   5  15
ATOM     15  CB  LEU A   3       2.588  -1.655  -1.899  0.00  0.00    +0.029 C 
BRANCH  15  16
ATOM     16  CG  LEU A   3       1.857  -3.010  -1.986  0.00  0.00    +0.002 C 
ATOM     17  CD1 LEU A   3       2.192  -3.856  -0.754  0.00  0.00    +0.000 C 
ATOM     18  CD2 LEU A   3       2.214  -3.784  -3.255  0.00  0.00    +0.000 C 
ENDBRANCH  15  16
ENDBRANCH   5  15
ENDBRANCH   2   5
BRANCH   3  19
ATOM     19  CA  PHE A   2      -1.351  -0.031   0.345  0.00  0.00    +0.153 C 
BRANCH  19  21
ATOM     20  O   GLY A   1      -2.220  -2.784   0.545  0.00  0.00    -0.277 OA
ATOM     21  N   PHE A   2      -2.055  -0.647   1.442  0.00  0.00    -0.300 N 
ATOM     22  C   GLY A   1      -2.435  -1.984   1.453  0.00  0.00    +0.201 C 
ATOM     23  H   PHE A   2      -2.278  -0.092   2.224  0.00  0.00    +0.150 HD
BRANCH  22  24
ATOM     24  CA  GLY A   1      -3.186  -2.351   2.716  0.00  0.00    +0.001 C 
BRANCH  24  25
ATOM     25  N   GLY A   1      -2.938  -3.754   3.017  0.00  0.00    +0.386 N 
ATOM     26  H1  GLY A   1      -3.439  -4.013   3.867  0.00  0.00    -0.089 HD
ATOM     27  H2  GLY A   1      -1.938  -3.901   3.154  0.00  0.00    -0.089 HD
ATOM     28  H3  GLY A   1      -3.263  -4.331   2.241  0.00  0.00    -0.089 HD
ENDBRANCH  24  25
ENDBRANCH  22  24
ENDBRANCH  19  21
BRANCH  19  29
ATOM     29  CB  PHE A   2      -1.643   1.470   0.241  0.00  0.00    +0.055 C 
BRANCH  29  30
ATOM     30  CG  PHE A   2      -2.968   1.762  -0.420  0.00  0.00    -0.020 C 
ATOM     31  CD1 PHE A   2      -3.037   1.927  -1.803  0.00  0.00    -0.004 C 
ATOM     32  CD2 PHE A   2      -4.125   1.867   0.353  0.00  0.00    -0.004 C 
ATOM     33  CE1 PHE A   2      -4.261   2.197  -2.414  0.00  0.00    -0.000 C 
ATOM     34  CE2 PHE A   2      -5.350   2.136  -0.258  0.00  0.00    -0.000 C 
ATOM     35  CZ  PHE A   2      -5.418   2.301  -1.642  0.00  0.00    -0.000 C 
ENDBRANCH  29  30
ENDBRANCH  19  29
ENDBRANCH   3  19
TORSDOF 13
