REMARK  Name = 102293380
REMARK  7 active torsions:
REMARK  status: ('A' for Active; 'I' for Inactive)
REMARK    1  A    between atoms: CA_3  and  C_17
REMARK    2  A    between atoms: C_4  and  C_10
REMARK    3  A    between atoms: N_16  and  CA_19
REMARK    4  A    between atoms: CA_19  and  C_21
REMARK    5  A    between atoms: CA_19  and  CB_24
REMARK    6  A    between atoms: C_21  and  O_22
REMARK    7  A    between atoms: CB_24  and  CG_25
REMARK                            x       y       z     vdW  Elec       q    Type
REMARK                         _______ _______ _______ _____ _____    ______ ____
ROOT
ATOM      1  O   UNL     1       2.982  -3.965   0.167  0.00  0.00    -0.286 OA
ATOM      2  N   UNL     1       0.859  -0.565   0.172  0.00  0.00    -0.308 N 
ATOM      3  CA  UNL     1       0.209  -1.767   0.276  0.00  0.00    +0.106 C 
ATOM      4  C   UNL     1       2.233  -0.487   0.069  0.00  0.00    +0.069 C 
ATOM      5  C   UNL     1       0.842  -2.949   0.283  0.00  0.00    +0.061 C 
ATOM      6  C   UNL     1       3.000  -1.594   0.058  0.00  0.00    +0.058 C 
ATOM      7  C   UNL     1       2.330  -2.926   0.170  0.00  0.00    +0.198 C 
ATOM      8  H   UNL     1       0.331   0.266   0.171  0.00  0.00    +0.152 HD
ENDROOT
BRANCH   4  10
ATOM      9  N   UNL     1       3.991   0.919  -0.759  0.00  0.00    -0.243 NA
ATOM     10  C   UNL     1       2.843   0.852  -0.049  0.00  0.00    +0.095 C 
ATOM     11  C   UNL     1       2.237   1.943   0.552  0.00  0.00    +0.020 C 
ATOM     12  C   UNL     1       2.849   3.184   0.414  0.00  0.00    +0.003 C 
ATOM     13  C   UNL     1       4.557   2.142  -0.872  0.00  0.00    +0.099 C 
ATOM     14  C   UNL     1       4.031   3.294  -0.310  0.00  0.00    +0.021 C 
ENDBRANCH   4  10
BRANCH   3  17
ATOM     15  O   UNL     1      -1.828  -2.659   1.001  0.00  0.00    -0.269 OA
ATOM     16  N   UNL     1      -1.839  -0.696  -0.258  0.00  0.00    -0.292 N 
ATOM     17  C   UNL     1      -1.250  -1.769   0.387  0.00  0.00    +0.260 C 
ATOM     18  H   UNL     1      -1.256  -0.048  -0.717  0.00  0.00    +0.150 HD
BRANCH  16  19
ATOM     19  CA  UNL     1      -3.261  -0.479  -0.291  0.00  0.00    +0.172 C 
BRANCH  19  21
ATOM     20  OXT UNL     1      -4.934   0.250  -1.881  0.00  0.00    -0.248 OA
ATOM     21  C   UNL     1      -3.747   0.105  -1.609  0.00  0.00    +0.332 C 
BRANCH  21  22
ATOM     22  O   UNL     1      -2.761   0.405  -2.488  0.00  0.00    -0.479 OA
ATOM     23  H   UNL     1      -1.865   0.282  -2.247  0.00  0.00    +0.295 HD
ENDBRANCH  21  22
ENDBRANCH  19  21
BRANCH  19  24
ATOM     24  CB  UNL     1      -3.759   0.307   0.931  0.00  0.00    +0.031 C 
BRANCH  24  25
ATOM     25  CG  UNL     1      -2.998   1.597   1.315  0.00  0.00    +0.002 C 
ATOM     26  CD1 UNL     1      -3.527   2.273   2.578  0.00  0.00    +0.000 C 
ATOM     27  CD2 UNL     1      -3.058   2.585   0.144  0.00  0.00    +0.000 C 
ENDBRANCH  24  25
ENDBRANCH  19  24
ENDBRANCH  16  19
ENDBRANCH   3  17
TORSDOF 7
