REMARK  Name = 102226359
REMARK  14 active torsions:
REMARK  status: ('A' for Active; 'I' for Inactive)
REMARK    1  A    between atoms: C_1  and  N_4
REMARK    2  A    between atoms: C_1  and  C_14
REMARK    3  A    between atoms: C_1  and  C_17
REMARK    4  A    between atoms: C_5  and  C_8
REMARK    5  A    between atoms: C_5  and  O_11
REMARK    6  A    between atoms: C_14  and  O_15
REMARK    7  A    between atoms: C_17  and  S_18
REMARK    8  A    between atoms: S_18  and  C_19
REMARK    9  A    between atoms: C_19  and  C_20
REMARK   10  A    between atoms: C_19  and  C_22
REMARK   11  A    between atoms: C_22  and  C_23
REMARK   12  A    between atoms: C_23  and  O_24
REMARK   13  A    between atoms: C_23  and  C_26
REMARK   14  A    between atoms: C_26  and  C_27
REMARK                            x       y       z     vdW  Elec       q    Type
REMARK                         _______ _______ _______ _____ _____    ______ ____
ROOT
ATOM      1  C   UNL     1      -0.714   1.454   0.274  0.00  0.00    +0.187 C 
ENDROOT
BRANCH   1   4
ATOM      2  O   UNL     1      -3.129  -1.213   0.958  0.00  0.00    -0.307 OA
ATOM      3  O   UNL     1      -2.099   0.207  -2.086  0.00  0.00    -0.270 OA
ATOM      4  N   UNL     1      -1.748   0.444   0.220  0.00  0.00    -0.241 N 
ATOM      5  C   UNL     1      -3.399  -1.029  -0.438  0.00  0.00    +0.256 C 
ATOM      6  C   UNL     1      -2.344  -0.058  -0.919  0.00  0.00    +0.279 C 
ATOM      7  C   UNL     1      -2.306  -0.134   1.401  0.00  0.00    +0.245 C 
BRANCH   5   8
ATOM      8  C   UNL     1      -4.791  -0.435  -0.613  0.00  0.00    +0.060 C 
ATOM      9  C   UNL     1      -5.054  -0.086  -2.079  0.00  0.00    +0.006 C 
ATOM     10  C   UNL     1      -5.863  -1.396  -0.096  0.00  0.00    +0.006 C 
ENDBRANCH   5   8
BRANCH   5  11
ATOM     11  O   UNL     1      -3.251  -2.232  -1.169  0.00  0.00    -0.357 OA
ATOM     12  H   UNL     1      -3.919  -2.872  -0.877  0.00  0.00    +0.213 HD
ENDBRANCH   5  11
ENDBRANCH   1   4
BRANCH   1  14
ATOM     13  O   UNL     1      -0.442   3.525   1.505  0.00  0.00    -0.248 OA
ATOM     14  C   UNL     1      -1.191   2.726   0.957  0.00  0.00    +0.333 C 
BRANCH  14  15
ATOM     15  O   UNL     1      -2.535   2.885   0.915  0.00  0.00    -0.479 OA
ATOM     16  H   UNL     1      -3.069   2.247   0.484  0.00  0.00    +0.295 HD
ENDBRANCH  14  15
ENDBRANCH   1  14
BRANCH   1  17
ATOM     17  C   UNL     1       0.573   0.905   0.896  0.00  0.00    +0.089 C 
BRANCH  17  18
ATOM     18  S   UNL     1       1.176  -0.601   0.107  0.00  0.00    -0.139 S 
BRANCH  18  19
ATOM     19  C   UNL     1       2.662  -0.850   1.156  0.00  0.00    +0.050 C 
BRANCH  19  20
ATOM     20  C   UNL     1       2.290  -1.497   2.502  0.00  0.00    +0.011 C 
ATOM     21  C   UNL     1       3.466  -1.673   3.457  0.00  0.00    +0.001 C 
ENDBRANCH  19  20
BRANCH  19  22
ATOM     22  C   UNL     1       3.668  -1.694   0.344  0.00  0.00    +0.040 C 
BRANCH  22  23
ATOM     23  C   UNL     1       4.123  -1.046  -0.975  0.00  0.00    +0.111 C 
BRANCH  23  24
ATOM     24  O   UNL     1       5.095  -1.882  -1.606  0.00  0.00    -0.384 OA
ATOM     25  H   UNL     1       4.723  -2.768  -1.738  0.00  0.00    +0.210 HD
ENDBRANCH  23  24
BRANCH  23  26
ATOM     26  C   UNL     1       4.748   0.343  -0.784  0.00  0.00    +0.029 C 
BRANCH  26  27
ATOM     27  C   UNL     1       5.267   0.966  -2.080  0.00  0.00    +0.002 C 
ATOM     28  C   UNL     1       5.800   2.371  -1.846  0.00  0.00    +0.000 C 
ENDBRANCH  26  27
ENDBRANCH  23  26
ENDBRANCH  22  23
ENDBRANCH  19  22
ENDBRANCH  18  19
ENDBRANCH  17  18
ENDBRANCH   1  17
TORSDOF 14
