REMARK  Name = 102271589
REMARK  4 active torsions:
REMARK  status: ('A' for Active; 'I' for Inactive)
REMARK    1  A    between atoms: C_6  and  O_33
REMARK    2  A    between atoms: C_8  and  O_35
REMARK    3  A    between atoms: C_18  and  C_24
REMARK    4  A    between atoms: C_26  and  C_29
REMARK                            x       y       z     vdW  Elec       q    Type
REMARK                         _______ _______ _______ _____ _____    ______ ____
ROOT
ATOM      1  O   UNL     1       3.569  -2.716   1.483  0.00  0.00    -0.296 OA
ATOM      2  O   UNL     1      -0.592   0.262   0.704  0.00  0.00    -0.448 OA
ATOM      3  O   UNL     1      -1.428  -1.032   2.418  0.00  0.00    -0.250 OA
ATOM      4  C   UNL     1       2.159  -2.822  -0.482  0.00  0.00    +0.077 C 
ATOM      5  C   UNL     1       4.385  -1.322  -0.302  0.00  0.00    +0.084 C 
ATOM      6  C   UNL     1       3.843   0.120  -0.198  0.00  0.00    +0.118 C 
ATOM      7  C   UNL     1       3.397  -2.331   0.320  0.00  0.00    +0.154 C 
ATOM      8  C   UNL     1       0.911  -1.926  -0.202  0.00  0.00    +0.128 C 
ATOM      9  C   UNL     1       4.748   1.211  -0.835  0.00  0.00    +0.032 C 
ATOM     10  C   UNL     1       2.445  -2.857  -1.997  0.00  0.00    +0.010 C 
ATOM     11  C   UNL     1       1.895  -4.289  -0.061  0.00  0.00    +0.010 C 
ATOM     12  C   UNL     1       5.757  -1.494   0.367  0.00  0.00    +0.010 C 
ATOM     13  C   UNL     1       0.587  -1.718   1.286  0.00  0.00    +0.139 C 
ATOM     14  C   UNL     1       4.167   2.642  -0.673  0.00  0.00    +0.028 C 
ATOM     15  C   UNL     1       5.070   0.912  -2.304  0.00  0.00    +0.003 C 
ATOM     16  C   UNL     1      -0.605  -0.817   1.536  0.00  0.00    +0.320 C 
ATOM     17  C   UNL     1       2.848   2.865  -1.357  0.00  0.00    -0.026 C 
ATOM     18  C   UNL     1      -1.650   1.236   0.850  0.00  0.00    +0.192 C 
ATOM     19  C   UNL     1       1.639   3.169  -0.860  0.00  0.00    -0.009 C 
ATOM     20  C   UNL     1      -1.193   2.533   0.167  0.00  0.00    +0.074 C 
ATOM     21  C   UNL     1       1.198   3.438   0.502  0.00  0.00    -0.026 C 
ATOM     22  C   UNL     1      -0.060   3.183   0.922  0.00  0.00    -0.026 C 
ATOM     23  C   UNL     1       2.143   4.127   1.452  0.00  0.00    +0.031 C 
ENDROOT
BRANCH  18  24
ATOM     24  C   UNL     1      -2.890   0.721   0.187  0.00  0.00    -0.002 C 
ATOM     25  C   UNL     1      -2.743   0.454  -1.286  0.00  0.00    +0.030 C 
ATOM     26  C   UNL     1      -4.018   0.544   0.901  0.00  0.00    +0.023 C 
BRANCH  26  29
ATOM     27  S   UNL     1      -7.559  -1.079   0.148  0.00  0.00    -0.079 S 
ATOM     28  N   UNL     1      -5.627   0.254  -0.935  0.00  0.00    -0.404 NA
ATOM     29  C   UNL     1      -5.293   0.033   0.387  0.00  0.00    +0.120 C 
ATOM     30  C   UNL     1      -6.215  -0.672   1.132  0.00  0.00    +0.123 C 
ATOM     31  C   UNL     1      -6.801  -0.288  -1.173  0.00  0.00    +0.135 C 
ATOM     32  C   UNL     1      -7.488  -0.255  -2.482  0.00  0.00    +0.074 C 
ENDBRANCH  26  29
ENDBRANCH  18  24
BRANCH   6  33
ATOM     33  O   UNL     1       3.655   0.422   1.188  0.00  0.00    -0.384 OA
ATOM     34  H   UNL     1       3.091  -0.256   1.593  0.00  0.00    +0.210 HD
ENDBRANCH   6  33
BRANCH   8  35
ATOM     35  O   UNL     1      -0.253  -2.509  -0.801  0.00  0.00    -0.383 OA
ATOM     36  H   UNL     1      -0.091  -2.657  -1.746  0.00  0.00    +0.210 HD
ENDBRANCH   8  35
TORSDOF 4
