REMARK  Name = 10223268
REMARK  8 active torsions:
REMARK  status: ('A' for Active; 'I' for Inactive)
REMARK    1  A    between atoms: C_12  and  C_30
REMARK    2  A    between atoms: C_13  and  C_17
REMARK    3  A    between atoms: C_17  and  O_19
REMARK    4  A    between atoms: C_18  and  C_22
REMARK    5  A    between atoms: C_22  and  C_23
REMARK    6  A    between atoms: C_24  and  C_25
REMARK    7  A    between atoms: C_26  and  C_27
REMARK    8  A    between atoms: C_30  and  O_31
REMARK                            x       y       z     vdW  Elec       q    Type
REMARK                         _______ _______ _______ _____ _____    ______ ____
ROOT
ATOM      1  O   UNL     1       3.351  -2.733   0.679  0.00  0.00    -0.441 OA
ATOM      2  O   UNL     1       3.986   3.397   0.594  0.00  0.00    -0.473 OA
ATOM      3  O   UNL     1       4.532  -0.561   2.022  0.00  0.00    -0.287 OA
ATOM      4  O   UNL     1       1.821  -4.448   0.662  0.00  0.00    -0.245 OA
ATOM      5  C   UNL     1       3.423  -1.456   0.061  0.00  0.00    +0.210 C 
ATOM      6  C   UNL     1       2.019  -1.195  -0.362  0.00  0.00    +0.030 C 
ATOM      7  C   UNL     1       2.318   1.205  -0.275  0.00  0.00    -0.013 C 
ATOM      8  C   UNL     1       3.481   1.040   0.586  0.00  0.00    +0.072 C 
ATOM      9  C   UNL     1       3.872  -0.345   1.010  0.00  0.00    +0.216 C 
ATOM     10  C   UNL     1       1.926   2.635  -0.528  0.00  0.00    +0.073 C 
ATOM     11  C   UNL     1       1.621   0.145  -0.724  0.00  0.00    -0.004 C 
ATOM     12  C   UNL     1       3.184   3.510  -0.598  0.00  0.00    +0.199 C 
ATOM     13  C   UNL     1       1.268  -2.291  -0.242  0.00  0.00    +0.109 C 
ATOM     14  C   UNL     1       4.402  -1.554  -1.113  0.00  0.00    +0.057 C 
ATOM     15  C   UNL     1       2.139  -3.302   0.392  0.00  0.00    +0.344 C 
ATOM     16  C   UNL     1       4.200   2.096   0.988  0.00  0.00    +0.175 C 
ENDROOT
BRANCH  13  17
ATOM     17  C   UNL     1      -0.120  -2.493  -0.506  0.00  0.00    +0.143 C 
ATOM     18  C   UNL     1      -1.055  -1.574  -0.186  0.00  0.00    +0.079 C 
BRANCH  17  19
ATOM     19  O   UNL     1      -0.460  -3.693  -1.111  0.00  0.00    -0.505 OA
ATOM     20  H   UNL     1       0.207  -4.316  -1.324  0.00  0.00    +0.292 HD
ENDBRANCH  17  19
BRANCH  18  22
ATOM     21  O   UNL     1      -2.983  -2.756  -0.976  0.00  0.00    -0.286 OA
ATOM     22  C   UNL     1      -2.512  -1.757  -0.448  0.00  0.00    +0.199 C 
BRANCH  22  23
ATOM     23  C   UNL     1      -3.349  -0.607  -0.007  0.00  0.00    +0.042 C 
ATOM     24  C   UNL     1      -4.678  -0.638  -0.181  0.00  0.00    +0.003 C 
BRANCH  24  25
ATOM     25  C   UNL     1      -5.545   0.448   0.226  0.00  0.00    +0.000 C 
ATOM     26  C   UNL     1      -6.876   0.425   0.056  0.00  0.00    -0.000 C 
BRANCH  26  27
ATOM     27  C   UNL     1      -7.735   1.514   0.466  0.00  0.00    -0.005 C 
ATOM     28  C   UNL     1      -9.069   1.580   0.337  0.00  0.00    -0.026 C 
ATOM     29  C   UNL     1      -9.989   2.684   0.748  0.00  0.00    +0.031 C 
ENDBRANCH  26  27
ENDBRANCH  24  25
ENDBRANCH  22  23
ENDBRANCH  18  22
ENDBRANCH  13  17
BRANCH  12  30
ATOM     30  C   UNL     1       2.816   4.980  -0.762  0.00  0.00    +0.181 C 
BRANCH  30  31
ATOM     31  O   UNL     1       4.008   5.743  -0.811  0.00  0.00    -0.379 OA
ATOM     32  H   UNL     1       3.787   6.682  -0.915  0.00  0.00    +0.211 HD
ENDBRANCH  30  31
ENDBRANCH  12  30
TORSDOF 8
