REMARK  Name = 102277211
REMARK  7 active torsions:
REMARK  status: ('A' for Active; 'I' for Inactive)
REMARK    1  A    between atoms: C_6  and  O_23
REMARK    2  A    between atoms: C_7  and  O_21
REMARK    3  A    between atoms: C_7  and  C_26
REMARK    4  A    between atoms: C_8  and  C_15
REMARK    5  A    between atoms: C_16  and  C_17
REMARK    6  A    between atoms: C_18  and  C_19
REMARK    7  A    between atoms: C_26  and  C_27
REMARK                            x       y       z     vdW  Elec       q    Type
REMARK                         _______ _______ _______ _____ _____    ______ ____
ROOT
ATOM      1  O   UNL     1      -1.589  -0.217  -0.130  0.00  0.00    -0.466 OA
ATOM      2  O   UNL     1       0.065  -3.286  -0.147  0.00  0.00    -0.287 OA
ATOM      3  O   UNL     1       0.140  -0.897   2.301  0.00  0.00    -0.271 OA
ATOM      4  N   UNL     1       1.313   0.489   0.823  0.00  0.00    -0.275 N 
ATOM      5  C   UNL     1      -0.334  -0.898  -0.093  0.00  0.00    +0.282 C 
ATOM      6  C   UNL     1       0.622  -0.424  -1.198  0.00  0.00    +0.213 C 
ATOM      7  C   UNL     1       1.285   0.804  -0.581  0.00  0.00    +0.238 C 
ATOM      8  C   UNL     1      -2.576  -1.199  -0.284  0.00  0.00    +0.146 C 
ATOM      9  C   UNL     1      -0.707  -2.341  -0.190  0.00  0.00    +0.219 C 
ATOM     10  C   UNL     1       0.374  -0.478   1.178  0.00  0.00    +0.270 C 
ATOM     11  C   UNL     1      -2.155  -2.468  -0.330  0.00  0.00    +0.049 C 
ATOM     12  C   UNL     1      -2.872  -3.752  -0.473  0.00  0.00    +0.037 C 
ATOM     13  H   UNL     1       1.930   0.911   1.463  0.00  0.00    +0.152 HD
ENDROOT
BRANCH   8  15
ATOM     14  O   UNL     1      -4.978  -1.223   0.521  0.00  0.00    -0.341 OA
ATOM     15  C   UNL     1      -3.978  -0.751  -0.378  0.00  0.00    +0.202 C 
ATOM     16  C   UNL     1      -4.513   0.119   0.727  0.00  0.00    +0.172 C 
BRANCH  16  17
ATOM     17  C   UNL     1      -5.305   1.283   0.359  0.00  0.00    +0.001 C 
ATOM     18  C   UNL     1      -4.817   2.492   0.040  0.00  0.00    -0.028 C 
BRANCH  18  19
ATOM     19  C   UNL     1      -3.356   2.826   0.015  0.00  0.00    +0.026 C 
ATOM     20  C   UNL     1      -2.880   3.336   1.367  0.00  0.00    +0.005 C 
ENDBRANCH  18  19
ENDBRANCH  16  17
ENDBRANCH   8  15
BRANCH   7  21
ATOM     21  O   UNL     1       0.523   1.975  -0.775  0.00  0.00    -0.331 OA
ATOM     22  C   UNL     1       1.048   3.079  -0.043  0.00  0.00    +0.176 C 
ENDBRANCH   7  21
BRANCH   6  23
ATOM     23  O   UNL     1      -0.053  -0.119  -2.405  0.00  0.00    -0.377 OA
ATOM     24  H   UNL     1      -0.458  -0.925  -2.762  0.00  0.00    +0.211 HD
ENDBRANCH   6  23
BRANCH   7  26
ATOM     25  O   UNL     1       2.939   1.709  -2.023  0.00  0.00    -0.287 OA
ATOM     26  C   UNL     1       2.695   1.024  -1.032  0.00  0.00    +0.218 C 
BRANCH  26  27
ATOM     27  C   UNL     1       3.808   0.402  -0.262  0.00  0.00    +0.039 C 
ATOM     28  C   UNL     1       3.870  -0.985  -0.121  0.00  0.00    +0.003 C 
ATOM     29  C   UNL     1       4.789   1.206   0.318  0.00  0.00    +0.003 C 
ATOM     30  C   UNL     1       4.913  -1.567   0.599  0.00  0.00    +0.000 C 
ATOM     31  C   UNL     1       5.832   0.624   1.038  0.00  0.00    +0.000 C 
ATOM     32  C   UNL     1       5.894  -0.763   1.178  0.00  0.00    +0.000 C 
ENDBRANCH  26  27
ENDBRANCH   7  26
TORSDOF 7
