REMARK  Name = 102234393
REMARK  9 active torsions:
REMARK  status: ('A' for Active; 'I' for Inactive)
REMARK    1  A    between atoms: C_3  and  C_22
REMARK    2  A    between atoms: C_8  and  O_16
REMARK    3  A    between atoms: C_10  and  O_18
REMARK    4  A    between atoms: C_13  and  C_29
REMARK    5  A    between atoms: C_15  and  O_20
REMARK    6  A    between atoms: C_22  and  C_23
REMARK    7  A    between atoms: C_23  and  C_24
REMARK    8  A    between atoms: C_24  and  O_27
REMARK    9  A    between atoms: C_29  and  C_30
REMARK                            x       y       z     vdW  Elec       q    Type
REMARK                         _______ _______ _______ _____ _____    ______ ____
ROOT
ATOM      1  O   UNL     1       0.013  -2.819   0.245  0.00  0.00    -0.453 OA
ATOM      2  O   UNL     1      -0.900   1.141  -0.233  0.00  0.00    -0.286 OA
ATOM      3  C   UNL     1      -2.971  -0.774  -0.557  0.00  0.00    +0.018 C 
ATOM      4  C   UNL     1      -1.649  -1.096  -0.242  0.00  0.00    +0.073 A 
ATOM      5  C   UNL     1      -1.266  -2.425  -0.065  0.00  0.00    +0.148 A 
ATOM      6  C   UNL     1      -0.633  -0.043  -0.091  0.00  0.00    +0.204 A 
ATOM      7  C   UNL     1       0.730  -0.484   0.240  0.00  0.00    +0.107 A 
ATOM      8  C   UNL     1      -3.914  -1.793  -0.694  0.00  0.00    +0.130 C 
ATOM      9  C   UNL     1       0.974  -1.849   0.389  0.00  0.00    +0.154 A 
ATOM     10  C   UNL     1       1.762   0.444   0.403  0.00  0.00    +0.139 C 
ATOM     11  C   UNL     1      -2.214  -3.441  -0.203  0.00  0.00    +0.041 C 
ATOM     12  C   UNL     1      -3.536  -3.124  -0.517  0.00  0.00    +0.039 C 
ATOM     13  C   UNL     1       3.046  -0.004   0.718  0.00  0.00    +0.050 C 
ATOM     14  C   UNL     1       2.261  -2.291   0.704  0.00  0.00    +0.074 C 
ATOM     15  C   UNL     1       3.295  -1.368   0.868  0.00  0.00    +0.136 C 
ENDROOT
BRANCH   8  16
ATOM     16  O   UNL     1      -5.212  -1.513  -1.001  0.00  0.00    -0.506 OA
ATOM     17  H   UNL     1      -5.484  -0.624  -1.123  0.00  0.00    +0.292 HD
ENDBRANCH   8  16
BRANCH  10  18
ATOM     18  O   UNL     1       1.558   1.785   0.264  0.00  0.00    -0.506 OA
ATOM     19  H   UNL     1       0.705   2.110   0.053  0.00  0.00    +0.292 HD
ENDBRANCH  10  18
BRANCH  15  20
ATOM     20  O   UNL     1       4.544  -1.819   1.175  0.00  0.00    -0.506 OA
ATOM     21  H   UNL     1       5.247  -1.210   1.288  0.00  0.00    +0.292 HD
ENDBRANCH  15  20
BRANCH   3  22
ATOM     22  C   UNL     1      -3.443   0.632  -0.760  0.00  0.00    +0.032 C 
BRANCH  22  23
ATOM     23  C   UNL     1      -3.632   1.374   0.576  0.00  0.00    +0.032 C 
BRANCH  23  24
ATOM     24  C   UNL     1      -4.093   2.839   0.443  0.00  0.00    +0.089 C 
ATOM     25  C   UNL     1      -4.226   3.464   1.836  0.00  0.00    +0.029 C 
ATOM     26  C   UNL     1      -3.142   3.675  -0.415  0.00  0.00    +0.029 C 
BRANCH  24  27
ATOM     27  O   UNL     1      -5.385   2.851  -0.169  0.00  0.00    -0.387 OA
ATOM     28  H   UNL     1      -6.000   2.324   0.365  0.00  0.00    +0.210 HD
ENDBRANCH  24  27
ENDBRANCH  23  24
ENDBRANCH  22  23
ENDBRANCH   3  22
BRANCH  13  29
ATOM     29  C   UNL     1       4.161   0.978   0.895  0.00  0.00    +0.058 C 
BRANCH  29  30
ATOM     30  C   UNL     1       4.663   1.534  -0.413  0.00  0.00    -0.030 C 
ATOM     31  C   UNL     1       5.897   1.428  -0.941  0.00  0.00    -0.048 C 
ATOM     32  C   UNL     1       6.332   2.010  -2.255  0.00  0.00    +0.026 C 
ATOM     33  C   UNL     1       6.981   0.688  -0.201  0.00  0.00    +0.026 C 
ENDBRANCH  29  30
ENDBRANCH  13  29
TORSDOF 9
