102212087
  -OEChem-03292013293D

 71 74  0     1  0  0  0  0  0999 V2000
    3.4213    1.2466    0.8901 O   0  0  0  0  0  0  0  0  0  0  0  0
    5.0582   -0.6905    0.3237 O   0  0  0  0  0  0  0  0  0  0  0  0
   -6.8756   -1.0603   -1.1431 O   0  0  0  0  0  0  0  0  0  0  0  0
   -6.8929   -0.6281    1.0901 O   0  0  0  0  0  0  0  0  0  0  0  0
    5.1816   -3.4524    0.9450 O   0  0  0  0  0  0  0  0  0  0  0  0
    4.8571    2.9316    1.4876 O   0  0  0  0  0  0  0  0  0  0  0  0
   -1.6663   -0.5046    0.5986 C   0  0  2  0  0  0  0  0  0  0  0  0
   -2.6328    0.4728   -0.1454 C   0  0  1  0  0  0  0  0  0  0  0  0
   -0.1745   -0.3588    0.1483 C   0  0  2  0  0  0  0  0  0  0  0  0
   -4.0124    0.0228    0.4112 C   0  0  2  0  0  0  0  0  0  0  0  0
    0.2967    1.1412    0.2049 C   0  0  2  0  0  0  0  0  0  0  0  0
   -2.3838   -1.8524    0.3840 C   0  0  0  0  0  0  0  0  0  0  0  0
   -2.2356    1.9102    0.1995 C   0  0  0  0  0  0  0  0  0  0  0  0
   -3.8891   -1.5185    0.4918 C   0  0  0  0  0  0  0  0  0  0  0  0
   -0.7839    2.1927   -0.2030 C   0  0  0  0  0  0  0  0  0  0  0  0
    0.2767   -1.0687   -1.1431 C   0  0  0  0  0  0  0  0  0  0  0  0
    1.5577    1.4686   -0.6401 C   0  0  0  0  0  0  0  0  0  0  0  0
    2.8755    0.7106   -0.3420 C   0  0  2  0  0  0  0  0  0  0  0  0
   -1.6448   -0.2932    2.1622 C   0  0  0  0  0  0  0  0  0  0  0  0
   -2.6429    0.3249   -1.6930 C   0  0  0  0  0  0  0  0  0  0  0  0
    2.7089   -0.8179   -0.1464 C   0  0  1  0  0  0  0  0  0  0  0  0
   -5.2560    0.4683   -0.3507 C   0  0  2  0  0  0  0  0  0  0  0  0
    1.7633   -1.4918   -1.1587 C   0  0  0  0  0  0  0  0  0  0  0  0
    3.9324    1.1128   -1.3794 C   0  0  0  0  0  0  0  0  0  0  0  0
    4.0394   -1.5927   -0.1083 C   0  0  2  0  0  0  0  0  0  0  0  0
   -5.6032    1.9180   -0.0235 C   0  0  0  0  0  0  0  0  0  0  0  0
    4.4765    2.4215   -0.8477 C   0  0  0  0  0  0  0  0  0  0  0  0
   -6.4154   -0.4495   -0.0210 C   0  0  0  0  0  0  0  0  0  0  0  0
    4.3095    2.2542    0.6317 C   0  0  0  0  0  0  0  0  0  0  0  0
    3.9441   -2.7516    0.8879 C   0  0  0  0  0  0  0  0  0  0  0  0
    4.4103   -2.0660   -1.5114 C   0  0  0  0  0  0  0  0  0  0  0  0
    0.3652   -0.8882    0.9407 H   0  0  0  0  0  0  0  0  0  0  0  0
   -4.1222    0.3894    1.4404 H   0  0  0  0  0  0  0  0  0  0  0  0
    0.5504    1.3521    1.2528 H   0  0  0  0  0  0  0  0  0  0  0  0
   -2.0904   -2.6162    1.1122 H   0  0  0  0  0  0  0  0  0  0  0  0
   -2.1987   -2.2737   -0.6075 H   0  0  0  0  0  0  0  0  0  0  0  0
   -2.3718    2.1205    1.2656 H   0  0  0  0  0  0  0  0  0  0  0  0
   -2.8666    2.6337   -0.3242 H   0  0  0  0  0  0  0  0  0  0  0  0
   -4.4121   -2.0375   -0.3190 H   0  0  0  0  0  0  0  0  0  0  0  0
   -4.2969   -1.8881    1.4397 H   0  0  0  0  0  0  0  0  0  0  0  0
   -0.7564    2.3317   -1.2916 H   0  0  0  0  0  0  0  0  0  0  0  0
   -0.4967    3.1676    0.2135 H   0  0  0  0  0  0  0  0  0  0  0  0
    0.0980   -0.4436   -2.0210 H   0  0  0  0  0  0  0  0  0  0  0  0
   -0.3037   -1.9783   -1.3171 H   0  0  0  0  0  0  0  0  0  0  0  0
    1.3119    1.3489   -1.7031 H   0  0  0  0  0  0  0  0  0  0  0  0
    1.7432    2.5441   -0.5090 H   0  0  0  0  0  0  0  0  0  0  0  0
   -1.2492    0.6834    2.4531 H   0  0  0  0  0  0  0  0  0  0  0  0
   -1.0055   -1.0483    2.6374 H   0  0  0  0  0  0  0  0  0  0  0  0
   -2.6241   -0.3994    2.6359 H   0  0  0  0  0  0  0  0  0  0  0  0
   -3.2906    1.0778   -2.1565 H   0  0  0  0  0  0  0  0  0  0  0  0
   -1.6668    0.4960   -2.1422 H   0  0  0  0  0  0  0  0  0  0  0  0
   -2.9854   -0.6596   -2.0253 H   0  0  0  0  0  0  0  0  0  0  0  0
    2.2995   -0.9333    0.8634 H   0  0  0  0  0  0  0  0  0  0  0  0
    2.1093   -1.3432   -2.1882 H   0  0  0  0  0  0  0  0  0  0  0  0
    1.7637   -2.5750   -0.9820 H   0  0  0  0  0  0  0  0  0  0  0  0
   -5.1204    0.3941   -1.4335 H   0  0  0  0  0  0  0  0  0  0  0  0
    3.5129    1.2245   -2.3855 H   0  0  0  0  0  0  0  0  0  0  0  0
    4.7967    0.4659   -1.4982 H   0  0  0  0  0  0  0  0  0  0  0  0
   -5.5641    2.1179    1.0526 H   0  0  0  0  0  0  0  0  0  0  0  0
   -6.6227    2.1501   -0.3535 H   0  0  0  0  0  0  0  0  0  0  0  0
   -4.9413    2.6185   -0.5355 H   0  0  0  0  0  0  0  0  0  0  0  0
    3.8915    3.2807   -1.1865 H   0  0  0  0  0  0  0  0  0  0  0  0
    5.5299    2.5530   -1.1072 H   0  0  0  0  0  0  0  0  0  0  0  0
    3.7463   -2.3770    1.8984 H   0  0  0  0  0  0  0  0  0  0  0  0
    3.1606   -3.4649    0.6146 H   0  0  0  0  0  0  0  0  0  0  0  0
    5.4712   -2.3462   -1.5437 H   0  0  0  0  0  0  0  0  0  0  0  0
    4.2914   -1.3218   -2.3015 H   0  0  0  0  0  0  0  0  0  0  0  0
    3.8502   -2.9593   -1.8100 H   0  0  0  0  0  0  0  0  0  0  0  0
    5.8848   -1.1944    0.4161 H   0  0  0  0  0  0  0  0  0  0  0  0
   -7.6288   -1.6586   -0.9507 H   0  0  0  0  0  0  0  0  0  0  0  0
    5.0737   -4.1700    1.5922 H   0  0  0  0  0  0  0  0  0  0  0  0
  1 18  1  0  0  0  0
  1 29  1  0  0  0  0
  2 25  1  0  0  0  0
  2 69  1  0  0  0  0
  3 28  1  0  0  0  0
  3 70  1  0  0  0  0
  4 28  2  0  0  0  0
  5 30  1  0  0  0  0
  5 71  1  0  0  0  0
  6 29  2  0  0  0  0
  7  8  1  0  0  0  0
  7  9  1  0  0  0  0
  7 12  1  0  0  0  0
  7 19  1  0  0  0  0
  8 10  1  0  0  0  0
  8 13  1  0  0  0  0
  8 20  1  0  0  0  0
  9 11  1  0  0  0  0
  9 16  1  0  0  0  0
  9 32  1  0  0  0  0
 10 14  1  0  0  0  0
 10 22  1  0  0  0  0
 10 33  1  0  0  0  0
 11 15  1  0  0  0  0
 11 17  1  0  0  0  0
 11 34  1  0  0  0  0
 12 14  1  0  0  0  0
 12 35  1  0  0  0  0
 12 36  1  0  0  0  0
 13 15  1  0  0  0  0
 13 37  1  0  0  0  0
 13 38  1  0  0  0  0
 14 39  1  0  0  0  0
 14 40  1  0  0  0  0
 15 41  1  0  0  0  0
 15 42  1  0  0  0  0
 16 23  1  0  0  0  0
 16 43  1  0  0  0  0
 16 44  1  0  0  0  0
 17 18  1  0  0  0  0
 17 45  1  0  0  0  0
 17 46  1  0  0  0  0
 18 21  1  0  0  0  0
 18 24  1  0  0  0  0
 19 47  1  0  0  0  0
 19 48  1  0  0  0  0
 19 49  1  0  0  0  0
 20 50  1  0  0  0  0
 20 51  1  0  0  0  0
 20 52  1  0  0  0  0
 21 23  1  0  0  0  0
 21 25  1  0  0  0  0
 21 53  1  0  0  0  0
 22 26  1  0  0  0  0
 22 28  1  0  0  0  0
 22 56  1  0  0  0  0
 23 54  1  0  0  0  0
 23 55  1  0  0  0  0
 24 27  1  0  0  0  0
 24 57  1  0  0  0  0
 24 58  1  0  0  0  0
 25 30  1  0  0  0  0
 25 31  1  0  0  0  0
 26 59  1  0  0  0  0
 26 60  1  0  0  0  0
 26 61  1  0  0  0  0
 27 29  1  0  0  0  0
 27 62  1  0  0  0  0
 27 63  1  0  0  0  0
 30 64  1  0  0  0  0
 30 65  1  0  0  0  0
 31 66  1  0  0  0  0
 31 67  1  0  0  0  0
 31 68  1  0  0  0  0
M  END
> <PUBCHEM_COMPOUND_CID>
102212087

> <PUBCHEM_CONFORMER_RMSD>
0.8

> <PUBCHEM_CONFORMER_DIVERSEORDER>
1
4
5
3
2

> <PUBCHEM_MMFF94_PARTIAL_CHARGES>
16
1 -0.43
18 0.28
2 -0.68
22 0.06
25 0.28
27 0.06
28 0.66
29 0.66
3 -0.65
30 0.28
4 -0.57
5 -0.68
6 -0.57
69 0.4
70 0.5
71 0.4

> <PUBCHEM_EFFECTIVE_ROTOR_COUNT>
6.4

> <PUBCHEM_PHARMACOPHORE_FEATURES>
13
1 2 acceptor
1 2 donor
1 26 hydrophobe
1 3 acceptor
1 4 acceptor
1 5 acceptor
1 5 donor
1 6 acceptor
3 3 4 28 anion
5 1 18 24 27 29 rings
5 7 8 10 12 14 rings
6 7 8 9 11 13 15 rings
7 9 11 16 17 18 21 23 rings

> <PUBCHEM_HEAVY_ATOM_COUNT>
31

> <PUBCHEM_ATOM_DEF_STEREO_COUNT>
9

> <PUBCHEM_ATOM_UDEF_STEREO_COUNT>
0

> <PUBCHEM_BOND_DEF_STEREO_COUNT>
0

> <PUBCHEM_BOND_UDEF_STEREO_COUNT>
0

> <PUBCHEM_ISOTOPIC_ATOM_COUNT>
0

> <PUBCHEM_COMPONENT_COUNT>
1

> <PUBCHEM_CACTVS_TAUTO_COUNT>
4

> <PUBCHEM_CONFORMER_ID>
0617A1F700000001

> <PUBCHEM_MMFF94_ENERGY>
152.633

> <PUBCHEM_FEATURE_SELFOVERLAP>
66.098

> <PUBCHEM_SHAPE_FINGERPRINT>
10366900 7 18115324280056529962
10906281 52 18263382424209171073
11405975 8 18335987484341875282
11963148 33 18192146212338692227
12107698 1 18336826386023237670
12166972 35 17774725247484759850
12236239 1 17275111656464417661
12403259 415 17895189965942404661
12403260 363 18339644421345256707
12616971 3 17988914548822768863
12633257 1 18197511623017650312
12788726 201 17417822720425140305
13073987 5 18410295813738178145
131258 43 17344652352960450326
13140716 1 18268430136073932768
13224815 77 18130794468672563092
13383668 362 18269538572960528042
13533116 47 18409449176409076850
13583140 156 18057606662353800089
1361 4 18339643468670606559
13782708 43 18040999518970349579
14840074 17 17917719049616954749
14910302 57 17967247589897326023
14955137 171 18202004271312210006
15082195 135 18189067528298945068
15183329 4 18343589521322892301
15196674 1 18410295796352489565
17349148 13 18130509638994240711
17492 89 18197780994697912726
17844677 252 18336271158721915829
1813 80 17022624190996402357
18335252 98 18042134300858751403
19958102 18 18113612374985875191
20028762 73 18201154356370129423
20511986 3 18201708596023384879
20645477 70 18412549795152364382
21033650 10 15936971799708796445
21130935 74 18410860975779332667
21267235 1 18339653251840520782
21279426 13 18335981965984445013
21792934 111 18410005504045466249
21859007 373 17605253104510180517
22149856 69 18264227906265299849
22393880 68 18342186604367505302
23081809 10 17988926674243282627
23522609 53 18049476718607091492
23559900 14 18186809071401475166
23569943 247 17533494535213161195
24771750 20 17392212015645308877
3004659 81 18334018267896600342
3411729 13 18340766039987532288
34797466 226 17131562733719385413
34934 24 18341048639422579214
350125 39 18410857642757778804
3680242 22 18264777571025290947
404807 14 17404309499345497203
4073 2 18115313400382097627
4093350 32 17918280844018145894
4340502 62 18040712610242285672
5104073 3 18412551981301332961
5283173 99 18260829255214747381
59755656 215 18335988640321223556
70251023 43 18269564840610926154
9709674 26 18187935009693835816

> <PUBCHEM_SHAPE_MULTIPOLES>
602.75
14.91
3.02
1.37
13.3
0.13
0.05
1.88
0.35
-4.9
0.52
-0.43
0.13
0.32

> <PUBCHEM_SHAPE_SELFOVERLAP>
1276.485

> <PUBCHEM_SHAPE_VOLUME>
333.3

> <PUBCHEM_COORDINATE_TYPE>
2
5
10

$$$$
