102287777
  -OEChem-03292013293D

 65 68  0     1  0  0  0  0  0999 V2000
    5.4943    4.0787    0.7965 O   0  0  0  0  0  0  0  0  0  0  0  0
    5.9268    1.8463    0.6381 O   0  0  0  0  0  0  0  0  0  0  0  0
   -7.6789   -1.6061    1.6368 O   0  0  0  0  0  0  0  0  0  0  0  0
   -5.4387   -2.0261    1.6020 O   0  0  0  0  0  0  0  0  0  0  0  0
    3.1577   -4.8710    0.6008 O   0  0  0  0  0  0  0  0  0  0  0  0
    4.6598   -4.7173   -1.0909 O   0  0  0  0  0  0  0  0  0  0  0  0
   -0.4517    0.1446   -0.5216 N   0  0  0  0  0  0  0  0  0  0  0  0
   -4.8798    0.5524    0.7118 N   0  0  0  0  0  0  0  0  0  0  0  0
    3.5313    1.2876   -0.2614 N   0  0  0  0  0  0  0  0  0  0  0  0
    5.7806   -2.4711   -0.0966 N   0  0  0  0  0  0  0  0  0  0  0  0
   -0.2056    1.5548   -0.9009 C   0  0  2  0  0  0  0  0  0  0  0  0
    1.2061    2.0460   -0.5051 C   0  0  1  0  0  0  0  0  0  0  0  0
   -1.3390    2.4565   -0.3736 C   0  0  0  0  0  0  0  0  0  0  0  0
    1.3304    2.7898    0.8323 C   0  0  0  0  0  0  0  0  0  0  0  0
   -2.7230    1.9462   -0.7888 C   0  0  0  0  0  0  0  0  0  0  0  0
    2.2934    0.9667   -0.4821 C   0  0  0  0  0  0  0  0  0  0  0  0
   -2.8655    0.4698   -0.5341 C   0  0  0  0  0  0  0  0  0  0  0  0
   -4.2545   -0.0809   -0.4533 C   0  0  2  0  0  0  0  0  0  0  0  0
   -1.7684   -0.2945   -0.4044 C   0  0  0  0  0  0  0  0  0  0  0  0
    2.7899    3.1645    1.1370 C   0  0  0  0  0  0  0  0  0  0  0  0
    1.9127   -0.4630   -0.6251 C   0  0  0  0  0  0  0  0  0  0  0  0
    0.6064   -0.7472   -0.5767 C   0  0  0  0  0  0  0  0  0  0  0  0
   -5.0170    0.2108   -1.7445 C   0  0  0  0  0  0  0  0  0  0  0  0
    3.7513    2.7032    0.0400 C   0  0  1  0  0  0  0  0  0  0  0  0
   -6.4732   -0.2263   -1.6256 C   0  0  0  0  0  0  0  0  0  0  0  0
   -6.2777    0.1299    0.8971 C   0  0  1  0  0  0  0  0  0  0  0  0
   -7.1124    0.3712   -0.3727 C   0  0  0  0  0  0  0  0  0  0  0  0
    2.9860   -1.5003   -0.7052 C   0  0  0  0  0  0  0  0  0  0  0  0
    3.4713   -1.9795    0.6664 C   0  0  0  0  0  0  0  0  0  0  0  0
    5.1654    2.7942    0.5152 C   0  0  0  0  0  0  0  0  0  0  0  0
   -6.3838   -1.2753    1.4114 C   0  0  0  0  0  0  0  0  0  0  0  0
    4.6279   -2.9916    0.6385 C   0  0  1  0  0  0  0  0  0  0  0  0
    4.1779   -4.2629   -0.0614 C   0  0  0  0  0  0  0  0  0  0  0  0
   -0.2510    1.5823   -2.0006 H   0  0  0  0  0  0  0  0  0  0  0  0
    1.4907    2.7596   -1.2928 H   0  0  0  0  0  0  0  0  0  0  0  0
   -1.2063    3.4829   -0.7355 H   0  0  0  0  0  0  0  0  0  0  0  0
   -1.3131    2.4919    0.7234 H   0  0  0  0  0  0  0  0  0  0  0  0
    0.9457    2.1658    1.6489 H   0  0  0  0  0  0  0  0  0  0  0  0
    0.7310    3.7072    0.8210 H   0  0  0  0  0  0  0  0  0  0  0  0
   -2.8698    2.1444   -1.8574 H   0  0  0  0  0  0  0  0  0  0  0  0
   -3.4739    2.5280   -0.2434 H   0  0  0  0  0  0  0  0  0  0  0  0
   -4.2058   -1.1677   -0.3179 H   0  0  0  0  0  0  0  0  0  0  0  0
   -1.8600   -1.3602   -0.2166 H   0  0  0  0  0  0  0  0  0  0  0  0
    2.8679    4.2501    1.2746 H   0  0  0  0  0  0  0  0  0  0  0  0
    3.0713    2.7214    2.1019 H   0  0  0  0  0  0  0  0  0  0  0  0
    0.2911   -1.7873   -0.5898 H   0  0  0  0  0  0  0  0  0  0  0  0
   -4.5489   -0.3073   -2.5907 H   0  0  0  0  0  0  0  0  0  0  0  0
   -5.0085    1.2810   -1.9869 H   0  0  0  0  0  0  0  0  0  0  0  0
    3.6665    3.3015   -0.8753 H   0  0  0  0  0  0  0  0  0  0  0  0
   -4.3509    0.3333    1.5565 H   0  0  0  0  0  0  0  0  0  0  0  0
   -7.0324    0.0827   -2.5157 H   0  0  0  0  0  0  0  0  0  0  0  0
   -6.5249   -1.3208   -1.5781 H   0  0  0  0  0  0  0  0  0  0  0  0
   -6.6850    0.7656    1.6941 H   0  0  0  0  0  0  0  0  0  0  0  0
   -7.2180    1.4544   -0.5209 H   0  0  0  0  0  0  0  0  0  0  0  0
   -8.1283   -0.0252   -0.2640 H   0  0  0  0  0  0  0  0  0  0  0  0
    3.8208   -1.1125   -1.3012 H   0  0  0  0  0  0  0  0  0  0  0  0
    2.6062   -2.3602   -1.2725 H   0  0  0  0  0  0  0  0  0  0  0  0
    3.7955   -1.1111    1.2559 H   0  0  0  0  0  0  0  0  0  0  0  0
    2.6231   -2.4103    1.2149 H   0  0  0  0  0  0  0  0  0  0  0  0
    4.9386   -3.2485    1.6571 H   0  0  0  0  0  0  0  0  0  0  0  0
    6.4196    4.1593    1.1121 H   0  0  0  0  0  0  0  0  0  0  0  0
    6.5575   -3.1272   -0.0236 H   0  0  0  0  0  0  0  0  0  0  0  0
    6.0979   -1.6051    0.3375 H   0  0  0  0  0  0  0  0  0  0  0  0
   -7.7697   -2.5235    1.9720 H   0  0  0  0  0  0  0  0  0  0  0  0
    2.8693   -5.6935    0.1507 H   0  0  0  0  0  0  0  0  0  0  0  0
  1 30  1  0  0  0  0
  1 61  1  0  0  0  0
  2 30  2  0  0  0  0
  3 31  1  0  0  0  0
  3 64  1  0  0  0  0
  4 31  2  0  0  0  0
  5 33  1  0  0  0  0
  5 65  1  0  0  0  0
  6 33  2  0  0  0  0
  7 11  1  0  0  0  0
  7 19  1  0  0  0  0
  7 22  1  0  0  0  0
  8 18  1  0  0  0  0
  8 26  1  0  0  0  0
  8 50  1  0  0  0  0
  9 16  2  0  0  0  0
  9 24  1  0  0  0  0
 10 32  1  0  0  0  0
 10 62  1  0  0  0  0
 10 63  1  0  0  0  0
 11 12  1  0  0  0  0
 11 13  1  0  0  0  0
 11 34  1  0  0  0  0
 12 14  1  0  0  0  0
 12 16  1  0  0  0  0
 12 35  1  0  0  0  0
 13 15  1  0  0  0  0
 13 36  1  0  0  0  0
 13 37  1  0  0  0  0
 14 20  1  0  0  0  0
 14 38  1  0  0  0  0
 14 39  1  0  0  0  0
 15 17  1  0  0  0  0
 15 40  1  0  0  0  0
 15 41  1  0  0  0  0
 16 21  1  0  0  0  0
 17 18  1  0  0  0  0
 17 19  2  0  0  0  0
 18 23  1  0  0  0  0
 18 42  1  0  0  0  0
 19 43  1  0  0  0  0
 20 24  1  0  0  0  0
 20 44  1  0  0  0  0
 20 45  1  0  0  0  0
 21 22  2  0  0  0  0
 21 28  1  0  0  0  0
 22 46  1  0  0  0  0
 23 25  1  0  0  0  0
 23 47  1  0  0  0  0
 23 48  1  0  0  0  0
 24 30  1  0  0  0  0
 24 49  1  0  0  0  0
 25 27  1  0  0  0  0
 25 51  1  0  0  0  0
 25 52  1  0  0  0  0
 26 27  1  0  0  0  0
 26 31  1  0  0  0  0
 26 53  1  0  0  0  0
 27 54  1  0  0  0  0
 27 55  1  0  0  0  0
 28 29  1  0  0  0  0
 28 56  1  0  0  0  0
 28 57  1  0  0  0  0
 29 32  1  0  0  0  0
 29 58  1  0  0  0  0
 29 59  1  0  0  0  0
 32 33  1  0  0  0  0
 32 60  1  0  0  0  0
M  END
> <PUBCHEM_COMPOUND_CID>
102287777

> <PUBCHEM_CONFORMER_RMSD>
1

> <PUBCHEM_CONFORMER_DIVERSEORDER>
1
103
91
46
42
26
89
87
63
30
102
43
78
75
98
47
94
39
97
65
18
12
20
16
54
51
66
101
8
31
74
23
64
5
10
25
62
41
99
27
71
70
59
73
95
90
79
2
76
21
58
60
11
28
3
88
55
92
100
33
7
15
68
84
35
82
72
69
45
83
50
32
40
38
4
19
24
52
93
48
14
34
61
96
67
56
77
86
57
36
29
22
17
85
53
44
81
9
37
49
6
13
80

> <PUBCHEM_MMFF94_PARTIAL_CHARGES>
34
1 -0.65
10 -0.99
11 0.37
12 0.06
15 0.14
16 0.37
17 -0.28
18 0.41
19 -0.05
2 -0.57
21 -0.12
22 -0.05
24 0.31
26 0.33
28 0.14
3 -0.65
30 0.66
31 0.66
32 0.33
33 0.66
4 -0.57
43 0.15
46 0.15
5 -0.65
50 0.36
6 -0.57
61 0.5
62 0.36
63 0.36
64 0.5
65 0.5
7 -0.57
8 -0.9
9 -0.7

> <PUBCHEM_EFFECTIVE_ROTOR_COUNT>
9.2

> <PUBCHEM_PHARMACOPHORE_FEATURES>
19
1 1 acceptor
1 10 cation
1 10 donor
1 2 acceptor
1 3 acceptor
1 4 acceptor
1 5 acceptor
1 6 acceptor
1 7 cation
1 8 cation
1 8 donor
1 9 acceptor
3 1 2 30 anion
3 3 4 31 anion
3 5 6 33 anion
6 7 11 12 16 21 22 rings
6 7 11 13 15 17 19 rings
6 8 18 23 25 26 27 rings
6 9 12 14 16 20 24 rings

> <PUBCHEM_HEAVY_ATOM_COUNT>
33

> <PUBCHEM_ATOM_DEF_STEREO_COUNT>
4

> <PUBCHEM_ATOM_UDEF_STEREO_COUNT>
2

> <PUBCHEM_BOND_DEF_STEREO_COUNT>
0

> <PUBCHEM_BOND_UDEF_STEREO_COUNT>
0

> <PUBCHEM_ISOTOPIC_ATOM_COUNT>
0

> <PUBCHEM_COMPONENT_COUNT>
1

> <PUBCHEM_CACTVS_TAUTO_COUNT>
2

> <PUBCHEM_CONFORMER_ID>
0618C9A100000001

> <PUBCHEM_MMFF94_ENERGY>
58.5431

> <PUBCHEM_FEATURE_SELFOVERLAP>
96.666

> <PUBCHEM_SHAPE_FINGERPRINT>
10 15 18189332549187495641
10050765 1 18340200770140608093
10169797 241 18341624693511553958
10411042 1 18124873453050782606
1100329 8 17765150567144622576
11135926 11 18339632455851512516
117089 54 17978234854928714486
11963148 33 18188767382920108650
12107183 9 17983864385017614425
12730499 353 18338801216492214148
13073987 5 18411143537340440849
13533116 47 18411134718901760725
13540713 4 18115576059244611629
13782708 43 18187365377067097431
13955234 65 18413102883908431296
14028597 1 17775573056801837400
14114211 68 18263381325109104580
15927050 60 18269550714527040422
16112460 7 18272933838722359555
18393751 57 18122617521051803928
19319366 153 18270959184574584508
19841028 212 18340757244227534519
21033648 29 17895182304364580349
21049683 271 18334584499954168068
21130935 74 18410019845310565307
21623969 137 18335986475573543969
21703447 108 18262509300064629976
22311459 1 18339918333096569252
23559900 14 17967254178783333279
23569914 152 17328264015709215007
249999 5 18411697703863740930
25147074 1 17845637257289858023
255183 451 18057887944785359998
3178227 256 18268430307910015872
32027 91 18261952934639276619
4073 2 18265894842469163357
4144715 1 18260832566724027873
50009960 94 17824518834503400802
5104073 3 18340494378869019273
5385378 56 18342455980553490936
5912855 24 18128526262163767095
59755656 215 18410289246295651148
6086070 43 16988549222510336001
6700243 42 16660362537696006271
8863177 126 18261118478228011739
9962374 69 18341035359389800206

> <PUBCHEM_SHAPE_MULTIPOLES>
623.98
18.49
5.35
1.31
24.79
4.37
0.11
6.95
4.39
-14.45
1.04
2.01
0.25
2.79

> <PUBCHEM_SHAPE_SELFOVERLAP>
1320.258

> <PUBCHEM_SHAPE_VOLUME>
342.1

> <PUBCHEM_COORDINATE_TYPE>
2
5
10

$$$$
