102234393
  -OEChem-03292013293D

 55 57  0     0  0  0  0  0  0999 V2000
   -5.3847    2.8512   -0.1686 O   0  0  0  0  0  0  0  0  0  0  0  0
    0.0125   -2.8187    0.2449 O   0  0  0  0  0  0  0  0  0  0  0  0
   -5.2123   -1.5128   -1.0007 O   0  0  0  0  0  0  0  0  0  0  0  0
   -0.8997    1.1411   -0.2329 O   0  0  0  0  0  0  0  0  0  0  0  0
    1.5584    1.7849    0.2640 O   0  0  0  0  0  0  0  0  0  0  0  0
    4.5439   -1.8190    1.1749 O   0  0  0  0  0  0  0  0  0  0  0  0
   -4.0932    2.8391    0.4434 C   0  0  0  0  0  0  0  0  0  0  0  0
   -3.6322    1.3736    0.5760 C   0  0  0  0  0  0  0  0  0  0  0  0
   -3.4435    0.6322   -0.7602 C   0  0  0  0  0  0  0  0  0  0  0  0
   -2.9714   -0.7737   -0.5569 C   0  0  0  0  0  0  0  0  0  0  0  0
   -1.6487   -1.0960   -0.2422 C   0  0  0  0  0  0  0  0  0  0  0  0
   -4.2264    3.4641    1.8362 C   0  0  0  0  0  0  0  0  0  0  0  0
   -3.1417    3.6752   -0.4152 C   0  0  0  0  0  0  0  0  0  0  0  0
   -1.2662   -2.4253   -0.0648 C   0  0  0  0  0  0  0  0  0  0  0  0
   -0.6331   -0.0426   -0.0914 C   0  0  0  0  0  0  0  0  0  0  0  0
    0.7301   -0.4843    0.2403 C   0  0  0  0  0  0  0  0  0  0  0  0
   -3.9137   -1.7931   -0.6938 C   0  0  0  0  0  0  0  0  0  0  0  0
    0.9743   -1.8492    0.3893 C   0  0  0  0  0  0  0  0  0  0  0  0
    1.7622    0.4436    0.4033 C   0  0  0  0  0  0  0  0  0  0  0  0
   -2.2141   -3.4413   -0.2032 C   0  0  0  0  0  0  0  0  0  0  0  0
   -3.5362   -3.1244   -0.5173 C   0  0  0  0  0  0  0  0  0  0  0  0
    3.0457   -0.0035    0.7176 C   0  0  0  0  0  0  0  0  0  0  0  0
    2.2613   -2.2906    0.7040 C   0  0  0  0  0  0  0  0  0  0  0  0
    3.2951   -1.3679    0.8676 C   0  0  0  0  0  0  0  0  0  0  0  0
    4.1608    0.9775    0.8954 C   0  0  0  0  0  0  0  0  0  0  0  0
    4.6629    1.5343   -0.4126 C   0  0  0  0  0  0  0  0  0  0  0  0
    5.8973    1.4278   -0.9405 C   0  0  0  0  0  0  0  0  0  0  0  0
    6.3319    2.0101   -2.2554 C   0  0  0  0  0  0  0  0  0  0  0  0
    6.9805    0.6877   -0.2014 C   0  0  0  0  0  0  0  0  0  0  0  0
   -4.3990    0.8254    1.1432 H   0  0  0  0  0  0  0  0  0  0  0  0
   -2.7314    1.3328    1.1969 H   0  0  0  0  0  0  0  0  0  0  0  0
   -2.7740    1.1535   -1.4511 H   0  0  0  0  0  0  0  0  0  0  0  0
   -4.3988    0.6524   -1.2995 H   0  0  0  0  0  0  0  0  0  0  0  0
   -4.6075    4.4897    1.7714 H   0  0  0  0  0  0  0  0  0  0  0  0
   -3.4585    4.7249   -0.4312 H   0  0  0  0  0  0  0  0  0  0  0  0
   -2.1160    3.6372   -0.0354 H   0  0  0  0  0  0  0  0  0  0  0  0
   -3.2667    3.4848    2.3628 H   0  0  0  0  0  0  0  0  0  0  0  0
   -4.9464    2.9063    2.4459 H   0  0  0  0  0  0  0  0  0  0  0  0
   -3.1483    3.3504   -1.4606 H   0  0  0  0  0  0  0  0  0  0  0  0
   -1.9304   -4.4817   -0.0678 H   0  0  0  0  0  0  0  0  0  0  0  0
   -4.2618   -3.9268   -0.6216 H   0  0  0  0  0  0  0  0  0  0  0  0
   -5.6733    3.7768   -0.2441 H   0  0  0  0  0  0  0  0  0  0  0  0
    2.4520   -3.3549    0.8203 H   0  0  0  0  0  0  0  0  0  0  0  0
    3.8039    1.8185    1.5057 H   0  0  0  0  0  0  0  0  0  0  0  0
    4.9577    0.5429    1.5037 H   0  0  0  0  0  0  0  0  0  0  0  0
   -5.7140   -2.3442   -1.0529 H   0  0  0  0  0  0  0  0  0  0  0  0
    3.9316    2.1004   -0.9886 H   0  0  0  0  0  0  0  0  0  0  0  0
    0.6325    1.9724    0.0487 H   0  0  0  0  0  0  0  0  0  0  0  0
    4.5255   -2.7894    1.2369 H   0  0  0  0  0  0  0  0  0  0  0  0
    6.9727   -0.3709   -0.4796 H   0  0  0  0  0  0  0  0  0  0  0  0
    7.9651    1.0939   -0.4610 H   0  0  0  0  0  0  0  0  0  0  0  0
    7.1302    2.7440   -2.1051 H   0  0  0  0  0  0  0  0  0  0  0  0
    6.6999    1.2205   -2.9185 H   0  0  0  0  0  0  0  0  0  0  0  0
    5.5048    2.5154   -2.7647 H   0  0  0  0  0  0  0  0  0  0  0  0
    6.9055    0.7757    0.8850 H   0  0  0  0  0  0  0  0  0  0  0  0
  1  7  1  0  0  0  0
  1 42  1  0  0  0  0
  2 14  1  0  0  0  0
  2 18  1  0  0  0  0
  3 17  1  0  0  0  0
  3 46  1  0  0  0  0
  4 15  2  0  0  0  0
  5 19  1  0  0  0  0
  5 48  1  0  0  0  0
  6 24  1  0  0  0  0
  6 49  1  0  0  0  0
  7  8  1  0  0  0  0
  7 12  1  0  0  0  0
  7 13  1  0  0  0  0
  8  9  1  0  0  0  0
  8 30  1  0  0  0  0
  8 31  1  0  0  0  0
  9 10  1  0  0  0  0
  9 32  1  0  0  0  0
  9 33  1  0  0  0  0
 10 11  1  0  0  0  0
 10 17  2  0  0  0  0
 11 14  2  0  0  0  0
 11 15  1  0  0  0  0
 12 34  1  0  0  0  0
 12 37  1  0  0  0  0
 12 38  1  0  0  0  0
 13 35  1  0  0  0  0
 13 36  1  0  0  0  0
 13 39  1  0  0  0  0
 14 20  1  0  0  0  0
 15 16  1  0  0  0  0
 16 18  2  0  0  0  0
 16 19  1  0  0  0  0
 17 21  1  0  0  0  0
 18 23  1  0  0  0  0
 19 22  2  0  0  0  0
 20 21  2  0  0  0  0
 20 40  1  0  0  0  0
 21 41  1  0  0  0  0
 22 24  1  0  0  0  0
 22 25  1  0  0  0  0
 23 24  2  0  0  0  0
 23 43  1  0  0  0  0
 25 26  1  0  0  0  0
 25 44  1  0  0  0  0
 25 45  1  0  0  0  0
 26 27  2  0  0  0  0
 26 47  1  0  0  0  0
 27 28  1  0  0  0  0
 27 29  1  0  0  0  0
 28 52  1  0  0  0  0
 28 53  1  0  0  0  0
 28 54  1  0  0  0  0
 29 50  1  0  0  0  0
 29 51  1  0  0  0  0
 29 55  1  0  0  0  0
M  END
> <PUBCHEM_COMPOUND_CID>
102234393

> <PUBCHEM_CONFORMER_RMSD>
0.8

> <PUBCHEM_CONFORMER_DIVERSEORDER>
1
34
26
17
31
29
36
28
11
3
32
38
22
21
18
16
23
6
27
13
37
25
5
35
30
14
24
33
12
20
19
15
7
8
9
2
10
4

> <PUBCHEM_MMFF94_PARTIAL_CHARGES>
34
1 -0.68
10 -0.14
11 0.09
14 0.08
15 0.4
16 0.09
17 0.08
18 0.08
19 0.08
2 -0.17
20 -0.15
21 -0.15
22 -0.14
23 -0.15
24 0.08
25 0.28
26 -0.29
27 -0.28
28 0.14
29 0.14
3 -0.53
4 -0.57
40 0.15
41 0.15
42 0.4
43 0.15
46 0.45
47 0.15
48 0.45
49 0.45
5 -0.53
6 -0.53
7 0.28
9 0.14

> <PUBCHEM_EFFECTIVE_ROTOR_COUNT>
5

> <PUBCHEM_PHARMACOPHORE_FEATURES>
12
1 1 acceptor
1 1 donor
1 2 acceptor
1 3 donor
1 4 acceptor
1 5 donor
1 6 donor
3 27 28 29 hydrophobe
3 7 12 13 hydrophobe
6 10 11 14 17 20 21 rings
6 16 18 19 22 23 24 rings
6 2 11 14 15 16 18 rings

> <PUBCHEM_HEAVY_ATOM_COUNT>
29

> <PUBCHEM_ATOM_DEF_STEREO_COUNT>
0

> <PUBCHEM_ATOM_UDEF_STEREO_COUNT>
0

> <PUBCHEM_BOND_DEF_STEREO_COUNT>
0

> <PUBCHEM_BOND_UDEF_STEREO_COUNT>
0

> <PUBCHEM_ISOTOPIC_ATOM_COUNT>
0

> <PUBCHEM_COMPONENT_COUNT>
1

> <PUBCHEM_CACTVS_TAUTO_COUNT>
585

> <PUBCHEM_CONFORMER_ID>
0617F91900000001

> <PUBCHEM_MMFF94_ENERGY>
88.8338

> <PUBCHEM_FEATURE_SELFOVERLAP>
60.953

> <PUBCHEM_SHAPE_FINGERPRINT>
10411042 1 17834955648330532079
10670039 82 18410292540799077244
1100329 8 18124870157956200979
11211813 163 18337967722960447052
12107183 9 18121205481722569050
12236239 1 17459178754839740030
12390115 104 18343310244973921801
12788726 201 18341888636858997331
12954195 1 18342464789156413868
13140716 1 18193552269062327011
13540713 5 18262224574093445874
138480 1 16611945268436480379
14790565 3 18266464196008164176
14840074 17 17168147888196300108
15183329 4 18114179783510663910
15196674 1 18409719660443515026
15484559 13 15368340510951368660
16087824 20 18339920516189948551
17844677 252 18270402827522374424
19591789 44 17045138594177321915
21033650 10 16414640341635631089
21267235 1 18120936372051973247
21796203 349 17540845084209973699
22393880 68 18272650177644296688
23536364 44 17846508045072403656
23559900 14 18052809540181993233
23569914 152 16768751144168781900
24771750 20 18128268787079100367
25147074 1 18260820489307380490
283562 15 18411691115653512363
335352 9 18124306117234300878
350125 39 18411978066586359785
4058900 60 18040434399979504858
4258327 124 18040438802378804397
497634 4 18261667160014694149
5104073 3 18335126575564892218
550186 7 18201721764625275629
6034566 193 18337403668325009729
6058803 2 18263346062731726602
7808743 9 18410293596928437304

> <PUBCHEM_SHAPE_MULTIPOLES>
561.59
13.99
4.55
1.21
16.65
0.91
-0.14
9.34
-3.6
-6.67
0.33
0.89
0.6
-3.38

> <PUBCHEM_SHAPE_SELFOVERLAP>
1217.542

> <PUBCHEM_SHAPE_VOLUME>
309.4

> <PUBCHEM_COORDINATE_TYPE>
2
5
10

$$$$
