REMARK  Name = 102225529
REMARK  9 active torsions:
REMARK  status: ('A' for Active; 'I' for Inactive)
REMARK    1  A    between atoms: C_5  and  C_14
REMARK    2  A    between atoms: C_8  and  O_12
REMARK    3  A    between atoms: C_8  and  C_23
REMARK    4  A    between atoms: C_9  and  C_26
REMARK    5  A    between atoms: C_15  and  O_16
REMARK    6  A    between atoms: O_16  and  C_18
REMARK    7  A    between atoms: C_18  and  C_19
REMARK    8  A    between atoms: C_23  and  O_24
REMARK    9  A    between atoms: C_26  and  C_28
REMARK                            x       y       z     vdW  Elec       q    Type
REMARK                         _______ _______ _______ _____ _____    ______ ____
ROOT
ATOM      1  O   UNL     1       3.096  -1.706   1.213  0.00  0.00    -0.294 OA
ATOM      2  C   UNL     1       1.280   2.271   0.533  0.00  0.00    +0.004 C 
ATOM      3  C   UNL     1       3.097   1.358  -0.449  0.00  0.00    +0.034 C 
ATOM      4  C   UNL     1       2.689   1.915   0.924  0.00  0.00    +0.003 C 
ATOM      5  C   UNL     1       0.492   0.855   0.554  0.00  0.00    +0.033 C 
ATOM      6  C   UNL     1       1.569   3.012  -0.855  0.00  0.00    +0.000 C 
ATOM      7  C   UNL     1       3.032   2.593  -1.291  0.00  0.00    +0.003 C 
ATOM      8  C   UNL     1       3.821   0.055  -0.317  0.00  0.00    +0.166 C 
ATOM      9  C   UNL     1       1.186  -0.554   0.116  0.00  0.00    +0.071 C 
ATOM     10  C   UNL     1       0.640   3.253   1.521  0.00  0.00    +0.000 C 
ATOM     11  C   UNL     1       2.740  -0.827   0.425  0.00  0.00    +0.177 C 
ENDROOT
BRANCH   8  12
ATOM     12  O   UNL     1       4.969   0.212   0.491  0.00  0.00    -0.377 OA
ATOM     13  H   UNL     1       4.716   0.609   1.339  0.00  0.00    +0.211 HD
ENDBRANCH   8  12
BRANCH   5  14
ATOM     14  C   UNL     1      -0.830   1.011  -0.148  0.00  0.00    +0.015 C 
ATOM     15  C   UNL     1      -2.011   0.953   0.473  0.00  0.00    +0.179 C 
BRANCH  15  16
ATOM     16  O   UNL     1      -3.204   1.096  -0.179  0.00  0.00    -0.418 OA
BRANCH  16  18
ATOM     17  O   UNL     1      -4.222  -0.294   1.383  0.00  0.00    -0.244 OA
ATOM     18  C   UNL     1      -4.252   0.410   0.386  0.00  0.00    +0.345 C 
BRANCH  18  19
ATOM     19  C   UNL     1      -5.451   0.667  -0.451  0.00  0.00    +0.074 C 
ATOM     20  C   UNL     1      -6.474  -0.188  -0.629  0.00  0.00    -0.037 C 
ATOM     21  C   UNL     1      -6.444  -1.539   0.038  0.00  0.00    +0.027 C 
ATOM     22  C   UNL     1      -7.696   0.051  -1.471  0.00  0.00    +0.027 C 
ENDBRANCH  18  19
ENDBRANCH  16  18
ENDBRANCH  15  16
ENDBRANCH   5  14
BRANCH   8  23
ATOM     23  C   UNL     1       4.213  -0.567  -1.649  0.00  0.00    +0.171 C 
BRANCH  23  24
ATOM     24  O   UNL     1       4.763  -1.851  -1.407  0.00  0.00    -0.379 OA
ATOM     25  H   UNL     1       5.017  -2.258  -2.250  0.00  0.00    +0.211 HD
ENDBRANCH  23  24
ENDBRANCH   8  23
BRANCH   9  26
ATOM     26  C   UNL     1       0.374  -1.724   0.705  0.00  0.00    +0.072 C 
BRANCH  26  28
ATOM     27  O   UNL     1       1.215  -3.174  -1.038  0.00  0.00    -0.296 OA
ATOM     28  C   UNL     1       0.783  -3.048   0.107  0.00  0.00    +0.152 C 
ATOM     29  C   UNL     1       0.627  -4.240   1.014  0.00  0.00    +0.072 C 
ENDBRANCH  26  28
ENDBRANCH   9  26
TORSDOF 9
