REMARK  Name = 102201205
REMARK  5 active torsions:
REMARK  status: ('A' for Active; 'I' for Inactive)
REMARK    1  A    between atoms: S_1  and  C_4
REMARK    2  A    between atoms: S_1  and  N_16
REMARK    3  A    between atoms: C_5  and  N_12
REMARK    4  A    between atoms: C_8  and  N_15
REMARK    5  A    between atoms: N_16  and  C_20
REMARK                            x       y       z     vdW  Elec       q    Type
REMARK                         _______ _______ _______ _____ _____    ______ ____
ROOT
ATOM      1  S   UNL     1       1.365   2.349   1.022  0.00  0.00    +0.075 S 
ATOM      2  O   UNL     1       0.580   2.378   2.242  0.00  0.00    -0.150 OA
ATOM      3  O   UNL     1       2.539   3.192   0.901  0.00  0.00    -0.150 OA
ENDROOT
BRANCH   1   4
ATOM      4  C   UNL     1       1.877   0.672   0.781  0.00  0.00    +0.148 C 
ATOM      5  C   UNL     1       2.731   0.310  -0.262  0.00  0.00    +0.163 C 
ATOM      6  C   UNL     1       1.408  -0.298   1.666  0.00  0.00    +0.024 C 
ATOM      7  C   UNL     1       3.116  -1.021  -0.418  0.00  0.00    +0.050 C 
ATOM      8  C   UNL     1       2.647  -1.991   0.467  0.00  0.00    +0.145 C 
ATOM      9  C   UNL     1       1.793  -1.630   1.510  0.00  0.00    +0.026 C 
BRANCH   5  12
ATOM     10  O   UNL     1       2.570   1.515  -2.221  0.00  0.00    -0.126 OA
ATOM     11  O   UNL     1       4.304   1.862  -0.921  0.00  0.00    -0.126 OA
ATOM     12  N   UNL     1       3.226   1.277  -1.180  0.00  0.00    +0.059 N 
ENDBRANCH   5  12
BRANCH   8  15
ATOM     13  O   UNL     1       2.605  -4.203   1.117  0.00  0.00    -0.126 OA
ATOM     14  O   UNL     1       3.806  -3.652  -0.635  0.00  0.00    -0.126 OA
ATOM     15  N   UNL     1       3.038  -3.347   0.309  0.00  0.00    +0.058 N 
ENDBRANCH   8  15
ENDBRANCH   1   4
BRANCH   1  16
ATOM     16  N   UNL     1       0.319   2.597  -0.325  0.00  0.00    -0.215 N 
ATOM     17  H   UNL     1       0.456   3.359  -0.932  0.00  0.00    +0.174 HD
BRANCH  16  20
ATOM     18  O   UNL     1      -3.728   0.458   1.213  0.00  0.00    -0.421 OA
ATOM     19  O   UNL     1      -5.642  -0.538   1.970  0.00  0.00    -0.244 OA
ATOM     20  C   UNL     1      -0.750   1.676  -0.544  0.00  0.00    +0.068 C 
ATOM     21  C   UNL     1      -2.857  -0.145  -0.988  0.00  0.00    +0.031 C 
ATOM     22  C   UNL     1      -2.766   0.594   0.193  0.00  0.00    +0.150 C 
ATOM     23  C   UNL     1      -1.729   1.499   0.428  0.00  0.00    +0.053 C 
ATOM     24  C   UNL     1      -3.983  -1.075  -1.151  0.00  0.00    -0.012 C 
ATOM     25  C   UNL     1      -0.816   0.952  -1.733  0.00  0.00    +0.016 C 
ATOM     26  C   UNL     1      -1.861   0.049  -1.954  0.00  0.00    +0.004 C 
ATOM     27  C   UNL     1      -4.883  -1.184  -0.164  0.00  0.00    +0.078 C 
ATOM     28  C   UNL     1      -4.109  -1.883  -2.409  0.00  0.00    +0.031 C 
ATOM     29  C   UNL     1      -4.800  -0.412   1.088  0.00  0.00    +0.346 C 
ENDBRANCH  16  20
ENDBRANCH   1  16
TORSDOF 5
