102210151
  -OEChem-03292013293D

 32 32  0     1  0  0  0  0  0999 V2000
   -4.4829   -0.5361    1.2388 S   0  0  0  0  0  0  0  0  0  0  0  0
    0.3414    2.2299    0.5679 O   0  0  0  0  0  0  0  0  0  0  0  0
    0.4795   -2.3078    0.8614 O   0  0  0  0  0  0  0  0  0  0  0  0
    0.8151   -1.7388   -1.3100 O   0  0  0  0  0  0  0  0  0  0  0  0
    2.6025    0.2235    0.1572 N   0  3  0  0  0  0  0  0  0  0  0  0
   -1.9016    0.2723    0.7512 N   0  0  0  0  0  0  0  0  0  0  0  0
   -3.1832    0.1644   -1.0798 N   0  0  0  0  0  0  0  0  0  0  0  0
    1.1599   -0.0641    0.4223 C   0  0  1  0  0  0  0  0  0  0  0  0
    0.2848    1.0322   -0.2037 C   0  0  1  0  0  0  0  0  0  0  0  0
    2.8844    0.2008   -1.3477 C   0  0  0  0  0  0  0  0  0  0  0  0
    3.4898   -0.8254    0.8333 C   0  0  0  0  0  0  0  0  0  0  0  0
    2.9810    1.6036    0.7015 C   0  0  0  0  0  0  0  0  0  0  0  0
   -1.1506    0.6423   -0.3435 C   0  0  0  0  0  0  0  0  0  0  0  0
    0.8090   -1.4336   -0.1247 C   0  0  0  0  0  0  0  0  0  0  0  0
   -1.9233    0.5761   -1.4394 C   0  0  0  0  0  0  0  0  0  0  0  0
   -3.2056   -0.0395    0.3151 C   0  0  0  0  0  0  0  0  0  0  0  0
    1.0331   -0.0634    1.5137 H   0  0  0  0  0  0  0  0  0  0  0  0
    0.6009    1.3119   -1.2077 H   0  0  0  0  0  0  0  0  0  0  0  0
    3.2673   -0.8240    1.9045 H   0  0  0  0  0  0  0  0  0  0  0  0
    2.8085   -0.8126   -1.7423 H   0  0  0  0  0  0  0  0  0  0  0  0
    2.2821    0.9158   -1.9031 H   0  0  0  0  0  0  0  0  0  0  0  0
    3.9319    0.5038   -1.4705 H   0  0  0  0  0  0  0  0  0  0  0  0
    2.6018    1.6996    1.7229 H   0  0  0  0  0  0  0  0  0  0  0  0
    4.0741    1.6729    0.7132 H   0  0  0  0  0  0  0  0  0  0  0  0
    2.6055    2.3825    0.0334 H   0  0  0  0  0  0  0  0  0  0  0  0
    3.2935   -1.8077    0.3955 H   0  0  0  0  0  0  0  0  0  0  0  0
    4.5364   -0.5540    0.6633 H   0  0  0  0  0  0  0  0  0  0  0  0
   -0.2066    2.9003    0.1246 H   0  0  0  0  0  0  0  0  0  0  0  0
   -1.5580    0.2367    1.7031 H   0  0  0  0  0  0  0  0  0  0  0  0
   -1.6788    0.7906   -2.4664 H   0  0  0  0  0  0  0  0  0  0  0  0
   -3.9535    0.0347   -1.7238 H   0  0  0  0  0  0  0  0  0  0  0  0
    0.2535   -3.1929    0.5041 H   0  0  0  0  0  0  0  0  0  0  0  0
  1 16  2  0  0  0  0
  2  9  1  0  0  0  0
  2 28  1  0  0  0  0
  3 14  1  0  0  0  0
  3 32  1  0  0  0  0
  4 14  2  0  0  0  0
  5  8  1  0  0  0  0
  5 10  1  0  0  0  0
  5 11  1  0  0  0  0
  5 12  1  0  0  0  0
  6 13  1  0  0  0  0
  6 16  1  0  0  0  0
  6 29  1  0  0  0  0
  7 15  1  0  0  0  0
  7 16  1  0  0  0  0
  7 31  1  0  0  0  0
  8  9  1  0  0  0  0
  8 14  1  0  0  0  0
  8 17  1  0  0  0  0
  9 13  1  0  0  0  0
  9 18  1  0  0  0  0
 10 20  1  0  0  0  0
 10 21  1  0  0  0  0
 10 22  1  0  0  0  0
 11 19  1  0  0  0  0
 11 26  1  0  0  0  0
 11 27  1  0  0  0  0
 12 23  1  0  0  0  0
 12 24  1  0  0  0  0
 12 25  1  0  0  0  0
 13 15  2  0  0  0  0
 15 30  1  0  0  0  0
M  CHG  1   5   1
M  END
> <PUBCHEM_COMPOUND_CID>
102210151

> <PUBCHEM_CONFORMER_RMSD>
0.6

> <PUBCHEM_CONFORMER_DIVERSEORDER>
1
11
8
13
4
9
10
12
5
14
6
2
7
3

> <PUBCHEM_MMFF94_PARTIAL_CHARGES>
21
1 -0.38
10 0.5
11 0.5
12 0.5
13 -0.03
14 0.66
15 -0.04
16 0.5
2 -0.68
28 0.4
29 0.37
3 -0.65
30 0.15
31 0.37
32 0.5
4 -0.57
5 -1.01
6 -0.54
7 -0.54
8 0.56
9 0.42

> <PUBCHEM_EFFECTIVE_ROTOR_COUNT>
4

> <PUBCHEM_PHARMACOPHORE_FEATURES>
10
1 1 acceptor
1 2 acceptor
1 2 donor
1 3 acceptor
1 4 acceptor
1 5 cation
1 6 donor
1 7 donor
3 3 4 14 anion
5 6 7 13 15 16 rings

> <PUBCHEM_HEAVY_ATOM_COUNT>
16

> <PUBCHEM_ATOM_DEF_STEREO_COUNT>
2

> <PUBCHEM_ATOM_UDEF_STEREO_COUNT>
0

> <PUBCHEM_BOND_DEF_STEREO_COUNT>
0

> <PUBCHEM_BOND_UDEF_STEREO_COUNT>
0

> <PUBCHEM_ISOTOPIC_ATOM_COUNT>
0

> <PUBCHEM_COMPONENT_COUNT>
1

> <PUBCHEM_CACTVS_TAUTO_COUNT>
3

> <PUBCHEM_CONFORMER_ID>
06179A6700000001

> <PUBCHEM_MMFF94_ENERGY>
64.8668

> <PUBCHEM_FEATURE_SELFOVERLAP>
50.873

> <PUBCHEM_SHAPE_FINGERPRINT>
10219947 1 18413100675783576908
11067466 332 18261122867198745982
11132069 177 18339916108081112658
12491281 212 16701455800682227920
13581323 91 16732703865472544907
14115302 16 13840558405835575825
14252887 29 18271540723167054923
15207287 21 17748826349691926659
15219456 202 18113611270830899293
15309172 13 18413386557602396623
15375358 24 18040990740130542997
15375462 6 16950288416189764406
15775835 57 18338789113173757628
16945 1 18201998802921744548
17844478 74 18187365419900543749
18175812 5 17895185593343872172
18186145 218 18202562908200568172
19422 9 16917348155849356901
20201158 50 18114738235889605387
20279233 1 18040433261965502183
20645477 70 18270385110581299175
21061003 4 18410571786471489769
23402539 116 17917136248451109476
23419403 2 15956875069142655416
23557571 272 16950843609769781557
23559900 14 17168411659043463906
2748010 2 18195526132429685068
276578 36 16630254636245511687
474 4 17415263199031686728
568465 68 18335151928825080553
57812782 119 17095235904434503668
633830 44 18060146456794021853
77492 1 17346873477173396029
81228 2 17686048801053858002

> <PUBCHEM_SHAPE_MULTIPOLES>
300.57
6.54
1.76
1.31
4.07
0.34
-0.31
0.38
1.66
-0.92
0.26
0.21
0.03
0.54

> <PUBCHEM_SHAPE_SELFOVERLAP>
600.82

> <PUBCHEM_SHAPE_VOLUME>
182

> <PUBCHEM_COORDINATE_TYPE>
2
5
10

$$$$
