102234583
  -OEChem-03292013293D

 57 57  0     0  0  0  0  0  0999 V2000
   -0.1078   -1.8083    1.4002 O   0  0  0  0  0  0  0  0  0  0  0  0
    2.3083    4.0856   -0.2012 O   0  0  0  0  0  0  0  0  0  0  0  0
   -0.9258   -4.5742   -0.6611 O   0  0  0  0  0  0  0  0  0  0  0  0
   -2.7443    3.0548    0.5906 O   0  0  0  0  0  0  0  0  0  0  0  0
    0.0405    1.6111    0.9178 O   0  0  0  0  0  0  0  0  0  0  0  0
    3.6185   -2.3627    0.5615 O   0  0  0  0  0  0  0  0  0  0  0  0
   -0.8999   -2.7242    0.6969 N   0  0  0  0  0  0  0  0  0  0  0  0
   -3.5323    1.4876   -0.9350 N   0  0  0  0  0  0  0  0  0  0  0  0
    1.7764    3.0701    0.6027 N   0  0  0  0  0  0  0  0  0  0  0  0
    3.4322   -0.9478   -1.2686 N   0  0  0  0  0  0  0  0  0  0  0  0
   -4.4263   -1.2690    0.4818 C   0  0  0  0  0  0  0  0  0  0  0  0
   -2.9344   -1.4137    0.1738 C   0  0  0  0  0  0  0  0  0  0  0  0
   -5.1756   -0.2909   -0.4310 C   0  0  0  0  0  0  0  0  0  0  0  0
   -2.3230   -2.5700    0.9660 C   0  0  0  0  0  0  0  0  0  0  0  0
   -4.7792    1.1746   -0.2645 C   0  0  0  0  0  0  0  0  0  0  0  0
    3.3177    1.1470    0.9504 C   0  0  0  0  0  0  0  0  0  0  0  0
    4.0316    1.2815   -0.3990 C   0  0  0  0  0  0  0  0  0  0  0  0
    2.7658    2.4707    1.4875 C   0  0  0  0  0  0  0  0  0  0  0  0
    4.5341   -0.0603   -0.9343 C   0  0  0  0  0  0  0  0  0  0  0  0
    1.2178   -3.7296   -0.0386 C   0  0  0  0  0  0  0  0  0  0  0  0
   -1.3900    2.4881   -1.3367 C   0  0  0  0  0  0  0  0  0  0  0  0
   -0.2522    3.3210   -0.7536 C   0  0  0  0  0  0  0  0  0  0  0  0
    1.7927   -2.6901   -0.9983 C   0  0  0  0  0  0  0  0  0  0  0  0
   -0.3016   -3.7178   -0.0308 C   0  0  0  0  0  0  0  0  0  0  0  0
   -2.6116    2.3990   -0.4385 C   0  0  0  0  0  0  0  0  0  0  0  0
    0.5278    2.5752    0.3241 C   0  0  0  0  0  0  0  0  0  0  0  0
    3.0406   -2.0075   -0.4621 C   0  0  0  0  0  0  0  0  0  0  0  0
   -4.5565   -0.9671    1.5283 H   0  0  0  0  0  0  0  0  0  0  0  0
   -4.9062   -2.2507    0.3791 H   0  0  0  0  0  0  0  0  0  0  0  0
   -2.7853   -1.5865   -0.8989 H   0  0  0  0  0  0  0  0  0  0  0  0
   -2.4068   -0.4887    0.4279 H   0  0  0  0  0  0  0  0  0  0  0  0
   -5.0635   -0.6012   -1.4771 H   0  0  0  0  0  0  0  0  0  0  0  0
   -6.2431   -0.3763   -0.1913 H   0  0  0  0  0  0  0  0  0  0  0  0
   -2.4502   -2.4153    2.0435 H   0  0  0  0  0  0  0  0  0  0  0  0
   -2.8281   -3.5043    0.6967 H   0  0  0  0  0  0  0  0  0  0  0  0
   -5.5395    1.8112   -0.7302 H   0  0  0  0  0  0  0  0  0  0  0  0
   -4.7182    1.4504    0.7935 H   0  0  0  0  0  0  0  0  0  0  0  0
    2.4912    0.4331    0.8634 H   0  0  0  0  0  0  0  0  0  0  0  0
    4.0152    0.7328    1.6884 H   0  0  0  0  0  0  0  0  0  0  0  0
    3.3562    1.7242   -1.1403 H   0  0  0  0  0  0  0  0  0  0  0  0
    4.8836    1.9627   -0.2887 H   0  0  0  0  0  0  0  0  0  0  0  0
    2.2641    2.2678    2.4406 H   0  0  0  0  0  0  0  0  0  0  0  0
    3.5709    3.1904    1.6713 H   0  0  0  0  0  0  0  0  0  0  0  0
    5.0994    0.1004   -1.8580 H   0  0  0  0  0  0  0  0  0  0  0  0
    5.1967   -0.5432   -0.2085 H   0  0  0  0  0  0  0  0  0  0  0  0
   -3.3649    1.0651   -1.8438 H   0  0  0  0  0  0  0  0  0  0  0  0
    1.5659   -3.5971    0.9918 H   0  0  0  0  0  0  0  0  0  0  0  0
    1.5493   -4.7311   -0.3394 H   0  0  0  0  0  0  0  0  0  0  0  0
   -1.0417    1.4735   -1.5662 H   0  0  0  0  0  0  0  0  0  0  0  0
   -1.7197    2.9472   -2.2769 H   0  0  0  0  0  0  0  0  0  0  0  0
   -0.6171    4.2615   -0.3267 H   0  0  0  0  0  0  0  0  0  0  0  0
    0.4276    3.5643   -1.5778 H   0  0  0  0  0  0  0  0  0  0  0  0
    1.0536   -1.9131   -1.2286 H   0  0  0  0  0  0  0  0  0  0  0  0
    2.0541   -3.1734   -1.9476 H   0  0  0  0  0  0  0  0  0  0  0  0
    2.9115   -0.7515   -2.1185 H   0  0  0  0  0  0  0  0  0  0  0  0
   -0.0918   -1.0659    0.7725 H   0  0  0  0  0  0  0  0  0  0  0  0
    2.1295    4.8620    0.3562 H   0  0  0  0  0  0  0  0  0  0  0  0
  1  7  1  0  0  0  0
  1 56  1  0  0  0  0
  2  9  1  0  0  0  0
  2 57  1  0  0  0  0
  3 24  2  0  0  0  0
  4 25  2  0  0  0  0
  5 26  2  0  0  0  0
  6 27  2  0  0  0  0
  7 14  1  0  0  0  0
  7 24  1  0  0  0  0
  8 15  1  0  0  0  0
  8 25  1  0  0  0  0
  8 46  1  0  0  0  0
  9 18  1  0  0  0  0
  9 26  1  0  0  0  0
 10 19  1  0  0  0  0
 10 27  1  0  0  0  0
 10 55  1  0  0  0  0
 11 12  1  0  0  0  0
 11 13  1  0  0  0  0
 11 28  1  0  0  0  0
 11 29  1  0  0  0  0
 12 14  1  0  0  0  0
 12 30  1  0  0  0  0
 12 31  1  0  0  0  0
 13 15  1  0  0  0  0
 13 32  1  0  0  0  0
 13 33  1  0  0  0  0
 14 34  1  0  0  0  0
 14 35  1  0  0  0  0
 15 36  1  0  0  0  0
 15 37  1  0  0  0  0
 16 17  1  0  0  0  0
 16 18  1  0  0  0  0
 16 38  1  0  0  0  0
 16 39  1  0  0  0  0
 17 19  1  0  0  0  0
 17 40  1  0  0  0  0
 17 41  1  0  0  0  0
 18 42  1  0  0  0  0
 18 43  1  0  0  0  0
 19 44  1  0  0  0  0
 19 45  1  0  0  0  0
 20 23  1  0  0  0  0
 20 24  1  0  0  0  0
 20 47  1  0  0  0  0
 20 48  1  0  0  0  0
 21 22  1  0  0  0  0
 21 25  1  0  0  0  0
 21 49  1  0  0  0  0
 21 50  1  0  0  0  0
 22 26  1  0  0  0  0
 22 51  1  0  0  0  0
 22 52  1  0  0  0  0
 23 27  1  0  0  0  0
 23 53  1  0  0  0  0
 23 54  1  0  0  0  0
M  END
> <PUBCHEM_COMPOUND_CID>
102234583

> <PUBCHEM_CONFORMER_RMSD>
0.8

> <PUBCHEM_CONFORMER_DIVERSEORDER>
3
23
15
14
17
11
7
5
4
25
6
21
22
27
12
2
13
18
28
1
10
26
19
16
24
20
9
8

> <PUBCHEM_MMFF94_PARTIAL_CHARGES>
26
1 -0.44
10 -0.73
14 0.3
15 0.3
18 0.3
19 0.3
2 -0.44
20 0.06
21 0.06
22 0.06
23 0.06
24 0.57
25 0.57
26 0.57
27 0.57
3 -0.57
4 -0.57
46 0.37
5 -0.57
55 0.37
56 0.4
57 0.4
6 -0.57
7 -0.32
8 -0.73
9 -0.32

> <PUBCHEM_EFFECTIVE_ROTOR_COUNT>
3.4

> <PUBCHEM_PHARMACOPHORE_FEATURES>
6
1 10 donor
1 3 acceptor
1 4 acceptor
1 5 acceptor
1 6 acceptor
1 8 donor

> <PUBCHEM_HEAVY_ATOM_COUNT>
27

> <PUBCHEM_ATOM_DEF_STEREO_COUNT>
0

> <PUBCHEM_ATOM_UDEF_STEREO_COUNT>
0

> <PUBCHEM_BOND_DEF_STEREO_COUNT>
0

> <PUBCHEM_BOND_UDEF_STEREO_COUNT>
0

> <PUBCHEM_ISOTOPIC_ATOM_COUNT>
0

> <PUBCHEM_COMPONENT_COUNT>
1

> <PUBCHEM_CACTVS_TAUTO_COUNT>
36

> <PUBCHEM_CONFORMER_ID>
0617F9D700000003

> <PUBCHEM_MMFF94_ENERGY>
30.6813

> <PUBCHEM_FEATURE_SELFOVERLAP>
30.449

> <PUBCHEM_SHAPE_FINGERPRINT>
1100329 8 17473545750729657925
11014199 57 16537921734016428895
11513181 2 17909838969722828908
12038231 1 18338235938344316775
12100795 323 18050564350333506469
12422481 6 17765982184766926912
13122387 1 17834114143497217062
13402501 40 18410857672257884966
14251757 17 18411419505498827545
14251757 5 18119261794071978924
14647877 51 18340482283987496642
14790565 3 17186443439576639273
15110567 62 18340205176655084757
17093844 170 18339077223975576592
19591789 44 18337950086954355969
19930381 70 18194682562261309565
20764821 26 18410007745321679046
21141583 151 17907860604739061631
238918 7 18198888370484154136
25265897 201 17557179308170455295
3014063 31 18410857646314079187
325973 47 18267024040779351757
463206 1 17691687783980985448
5047190 48 17689994961113085320
532947 4 18410848893962059895
550186 83 17823121466956515088
6433294 58 18339079281042904100

> <PUBCHEM_SHAPE_MULTIPOLES>
500.51
8.9
6.59
1.19
3.76
2
0.06
-1.27
-0.98
-0.98
-0.17
-0.45
-0.19
1.61

> <PUBCHEM_SHAPE_SELFOVERLAP>
977.836

> <PUBCHEM_SHAPE_VOLUME>
297.1

> <PUBCHEM_COORDINATE_TYPE>
2
5
10

$$$$
