REMARK  Name = 10228242
REMARK  7 active torsions:
REMARK  status: ('A' for Active; 'I' for Inactive)
REMARK    1  A    between atoms: C_1  and  S_22
REMARK    2  A    between atoms: C_3  and  C_12
REMARK    3  A    between atoms: C_5  and  O_33
REMARK    4  A    between atoms: C_14  and  C_19
REMARK    5  A    between atoms: C_19  and  C_20
REMARK    6  A    between atoms: S_22  and  N_25
REMARK    7  A    between atoms: O_33  and  C_34
REMARK                            x       y       z     vdW  Elec       q    Type
REMARK                         _______ _______ _______ _____ _____    ______ ____
ROOT
ATOM      1  C   UNL     1       2.396   1.016   1.091  0.00  0.00    +0.123 C 
ATOM      2  C   UNL     1       1.303   0.168   1.020  0.00  0.00    +0.027 C 
ATOM      3  C   UNL     1       0.139   0.607   0.389  0.00  0.00    +0.080 C 
ATOM      4  C   UNL     1       2.358   2.290   0.548  0.00  0.00    +0.023 C 
ATOM      5  C   UNL     1       0.084   1.887  -0.162  0.00  0.00    +0.142 C 
ATOM      6  C   UNL     1       1.194   2.729  -0.083  0.00  0.00    +0.038 C 
ENDROOT
BRANCH   3  12
ATOM      7  S   UNL     1      -1.609  -4.193   0.145  0.00  0.00    +0.026 S 
ATOM      8  N   UNL     1      -2.317   0.262   0.300  0.00  0.00    -0.285 N 
ATOM      9  N   UNL     1      -4.373  -2.504   0.115  0.00  0.00    -0.238 N 
ATOM     10  N   UNL     1      -5.369  -1.593   0.121  0.00  0.00    -0.172 NA
ATOM     11  N   UNL     1      -0.781  -1.600   0.275  0.00  0.00    -0.345 NA
ATOM     12  C   UNL     1      -1.042  -0.313   0.316  0.00  0.00    +0.197 C 
ATOM     13  C   UNL     1      -3.342  -0.603   0.228  0.00  0.00    +0.093 A 
ATOM     14  C   UNL     1      -4.725  -0.421   0.193  0.00  0.00    +0.094 A 
ATOM     15  C   UNL     1      -3.123  -1.954   0.179  0.00  0.00    +0.155 A 
ATOM     16  C   UNL     1      -1.806  -2.532   0.203  0.00  0.00    +0.060 C 
ATOM     17  C   UNL     1      -4.754  -3.896   0.042  0.00  0.00    +0.155 C 
ATOM     18  H   UNL     1      -2.454   1.236   0.339  0.00  0.00    +0.155 HD
BRANCH  14  19
ATOM     19  C   UNL     1      -5.488   0.837   0.223  0.00  0.00    +0.049 C 
BRANCH  19  20
ATOM     20  C   UNL     1      -5.759   1.419  -1.178  0.00  0.00    +0.006 C 
ATOM     21  C   UNL     1      -6.581   2.697  -1.127  0.00  0.00    +0.000 C 
ENDBRANCH  19  20
ENDBRANCH  14  19
ENDBRANCH   3  12
BRANCH   1  22
ATOM     22  S   UNL     1       3.870   0.462   1.889  0.00  0.00    +0.063 S 
ATOM     23  O   UNL     1       4.602   1.631   2.329  0.00  0.00    -0.153 OA
ATOM     24  O   UNL     1       3.506  -0.584   2.821  0.00  0.00    -0.153 OA
BRANCH  22  25
ATOM     25  N   UNL     1       4.686  -0.240   0.557  0.00  0.00    -0.160 NA
ATOM     26  N   UNL     1       5.449  -1.109  -2.076  0.00  0.00    +0.387 N 
ATOM     27  C   UNL     1       5.242   0.724  -0.435  0.00  0.00    +0.073 C 
ATOM     28  C   UNL     1       3.970  -1.361  -0.116  0.00  0.00    +0.073 C 
ATOM     29  C   UNL     1       6.165  -0.016  -1.403  0.00  0.00    -0.058 C 
ATOM     30  C   UNL     1       4.917  -2.060  -1.090  0.00  0.00    -0.058 C 
ATOM     31  C   UNL     1       6.328  -1.790  -3.026  0.00  0.00    -0.101 C 
ATOM     32  H   UNL     1       4.666  -0.709  -2.593  0.00  0.00    -0.080 HD
ENDBRANCH  22  25
ENDBRANCH   1  22
BRANCH   5  33
ATOM     33  O   UNL     1      -1.044   2.334  -0.782  0.00  0.00    -0.475 OA
BRANCH  33  34
ATOM     34  C   UNL     1      -1.299   3.736  -0.731  0.00  0.00    +0.206 C 
ATOM     35  C   UNL     1      -2.794   3.968  -0.777  0.00  0.00    +0.051 C 
ENDBRANCH  33  34
ENDBRANCH   5  33
TORSDOF 7
