REMARK  Name = 102204473
REMARK  9 active torsions:
REMARK  status: ('A' for Active; 'I' for Inactive)
REMARK    1  A    between atoms: C_2  and  O_7
REMARK    2  A    between atoms: C_3  and  O_9
REMARK    3  A    between atoms: C_4  and  O_11
REMARK    4  A    between atoms: C_5  and  C_27
REMARK    5  A    between atoms: C_6  and  O_13
REMARK    6  A    between atoms: O_13  and  C_15
REMARK    7  A    between atoms: C_15  and  C_16
REMARK    8  A    between atoms: C_16  and  C_19
REMARK    9  A    between atoms: C_27  and  O_28
REMARK                            x       y       z     vdW  Elec       q    Type
REMARK                         _______ _______ _______ _____ _____    ______ ____
ROOT
ATOM      1  O   UNL     1      -2.212   0.705   0.006  0.00  0.00    -0.316 OA
ATOM      2  C   UNL     1      -4.706  -0.707   0.178  0.00  0.00    +0.173 C 
ATOM      3  C   UNL     1      -4.630   0.818   0.122  0.00  0.00    +0.169 C 
ATOM      4  C   UNL     1      -3.391  -1.310   0.674  0.00  0.00    +0.211 C 
ATOM      5  C   UNL     1      -3.367   1.273  -0.613  0.00  0.00    +0.177 C 
ATOM      6  C   UNL     1      -2.194  -0.718  -0.070  0.00  0.00    +0.320 C 
ENDROOT
BRANCH   2   7
ATOM      7  O   UNL     1      -5.760  -1.065   1.073  0.00  0.00    -0.379 OA
ATOM      8  H   UNL     1      -6.595  -0.683   0.759  0.00  0.00    +0.211 HD
ENDBRANCH   2   7
BRANCH   3   9
ATOM      9  O   UNL     1      -5.777   1.323  -0.555  0.00  0.00    -0.379 OA
ATOM     10  H   UNL     1      -6.579   1.037  -0.091  0.00  0.00    +0.211 HD
ENDBRANCH   3   9
BRANCH   4  11
ATOM     11  O   UNL     1      -3.403  -2.720   0.453  0.00  0.00    -0.377 OA
ATOM     12  H   UNL     1      -4.157  -3.114   0.918  0.00  0.00    +0.211 HD
ENDBRANCH   4  11
BRANCH   6  13
ATOM     13  O   UNL     1      -1.006  -1.219   0.542  0.00  0.00    -0.421 OA
BRANCH  13  15
ATOM     14  O   UNL     1       0.276  -0.030  -0.962  0.00  0.00    -0.250 OA
ATOM     15  C   UNL     1       0.172  -0.790  -0.009  0.00  0.00    +0.324 C 
BRANCH  15  16
ATOM     16  C   UNL     1       1.321  -1.396   0.766  0.00  0.00    +0.149 C 
BRANCH  16  19
ATOM     17  O   UNL     1       2.916  -2.738  -1.363  0.00  0.00    -0.210 OA
ATOM     18  N   UNL     1       4.518  -1.058  -1.151  0.00  0.00    -0.333 NA
ATOM     19  C   UNL     1       2.631  -0.956   0.215  0.00  0.00    +0.086 C 
ATOM     20  C   UNL     1       3.392   0.098   0.515  0.00  0.00    +0.039 C 
ATOM     21  C   UNL     1       4.552  -0.027  -0.373  0.00  0.00    +0.145 C 
ATOM     22  C   UNL     1       3.340  -1.711  -0.854  0.00  0.00    +0.201 C 
ATOM     23  C   UNL     1       3.277   1.185   1.437  0.00  0.00    +0.003 C 
ATOM     24  C   UNL     1       5.596   1.014  -0.276  0.00  0.00    +0.033 C 
ATOM     25  C   UNL     1       4.260   2.099   1.479  0.00  0.00    +0.000 C 
ATOM     26  C   UNL     1       5.423   2.006   0.613  0.00  0.00    +0.003 C 
ENDBRANCH  16  19
ENDBRANCH  15  16
ENDBRANCH  13  15
ENDBRANCH   6  13
BRANCH   5  27
ATOM     27  C   UNL     1      -3.209   2.790  -0.580  0.00  0.00    +0.169 C 
BRANCH  27  28
ATOM     28  O   UNL     1      -2.020   3.134  -1.267  0.00  0.00    -0.379 OA
ATOM     29  H   UNL     1      -1.906   4.097  -1.253  0.00  0.00    +0.211 HD
ENDBRANCH  27  28
ENDBRANCH   5  27
TORSDOF 9
