REMARK  Name = 102212
REMARK  5 active torsions:
REMARK  status: ('A' for Active; 'I' for Inactive)
REMARK    1  A    between atoms: C_2  and  O_15
REMARK    2  A    between atoms: C_3  and  O_17
REMARK    3  A    between atoms: C_4  and  N_8
REMARK    4  A    between atoms: C_5  and  C_19
REMARK    5  A    between atoms: C_19  and  O_20
REMARK                            x       y       z     vdW  Elec       q    Type
REMARK                         _______ _______ _______ _____ _____    ______ ____
ROOT
ATOM      1  O   UNL     1      -1.122  -0.983   1.066  0.00  0.00    -0.333 OA
ATOM      2  C   UNL     1      -1.359   0.787  -0.491  0.00  0.00    +0.191 C 
ATOM      3  C   UNL     1      -2.728   0.209  -0.203  0.00  0.00    +0.171 C 
ATOM      4  C   UNL     1      -0.547   0.279   0.688  0.00  0.00    +0.230 C 
ATOM      5  C   UNL     1      -2.383  -1.153   0.382  0.00  0.00    +0.175 C 
ENDROOT
BRANCH   4   8
ATOM      6  O   UNL     1       1.484   2.194   1.114  0.00  0.00    -0.252 OA
ATOM      7  O   UNL     1       4.724  -0.588  -0.622  0.00  0.00    -0.270 OA
ATOM      8  N   UNL     1       0.835   0.081   0.357  0.00  0.00    -0.217 N 
ATOM      9  N   UNL     1       3.096   0.807   0.249  0.00  0.00    -0.236 N 
ATOM     10  C   UNL     1       1.776   1.107   0.611  0.00  0.00    +0.315 C 
ATOM     11  C   UNL     1       1.248  -1.119  -0.212  0.00  0.00    +0.076 C 
ATOM     12  C   UNL     1       2.510  -1.389  -0.552  0.00  0.00    +0.074 C 
ATOM     13  C   UNL     1       3.554  -0.371  -0.320  0.00  0.00    +0.254 C 
ATOM     14  H   UNL     1       3.768   1.507   0.416  0.00  0.00    +0.159 HD
ENDBRANCH   4   8
BRANCH   2  15
ATOM     15  O   UNL     1      -1.378   2.198  -0.570  0.00  0.00    -0.347 OA
ATOM     16  C   UNL     1      -2.243   2.659  -1.602  0.00  0.00    +0.174 C 
ENDBRANCH   2  15
BRANCH   3  17
ATOM     17  O   UNL     1      -3.383   0.970   0.812  0.00  0.00    -0.379 OA
ATOM     18  H   UNL     1      -3.613   1.845   0.462  0.00  0.00    +0.211 HD
ENDBRANCH   3  17
BRANCH   5  19
ATOM     19  C   UNL     1      -2.206  -2.235  -0.676  0.00  0.00    +0.169 C 
BRANCH  19  20
ATOM     20  O   UNL     1      -1.878  -3.452  -0.030  0.00  0.00    -0.379 OA
ATOM     21  H   UNL     1      -1.762  -4.150  -0.694  0.00  0.00    +0.211 HD
ENDBRANCH  19  20
ENDBRANCH   5  19
TORSDOF 5
