REMARK  Name = 102216447
REMARK  6 active torsions:
REMARK  status: ('A' for Active; 'I' for Inactive)
REMARK    1  A    between atoms: C_6  and  C_31
REMARK    2  A    between atoms: C_9  and  O_25
REMARK    3  A    between atoms: C_11  and  C_28
REMARK    4  A    between atoms: C_28  and  O_29
REMARK    5  A    between atoms: C_31  and  O_32
REMARK    6  A    between atoms: O_32  and  C_34
REMARK                            x       y       z     vdW  Elec       q    Type
REMARK                         _______ _______ _______ _____ _____    ______ ____
ROOT
ATOM      1  O   UNL     1      -0.537   2.759   0.325  0.00  0.00    -0.275 OA
ATOM      2  O   UNL     1       2.077  -1.256  -3.810  0.00  0.00    -0.292 OA
ATOM      3  O   UNL     1      -4.931   0.300   0.579  0.00  0.00    -0.296 OA
ATOM      4  N   UNL     1      -1.922   1.433  -0.966  0.00  0.00    -0.279 N 
ATOM      5  C   UNL     1      -0.030   0.391   0.260  0.00  0.00    +0.090 C 
ATOM      6  C   UNL     1      -0.961  -0.872   0.303  0.00  0.00    +0.054 C 
ATOM      7  C   UNL     1      -1.438  -1.047  -1.175  0.00  0.00    +0.029 C 
ATOM      8  C   UNL     1       1.050   0.317  -0.799  0.00  0.00    -0.013 C 
ATOM      9  C   UNL     1       2.265   1.111  -0.410  0.00  0.00    +0.114 C 
ATOM     10  C   UNL     1       0.819   0.604   1.528  0.00  0.00    +0.026 C 
ATOM     11  C   UNL     1       2.081   1.375   1.097  0.00  0.00    +0.128 C 
ATOM     12  C   UNL     1      -0.252  -1.321  -2.147  0.00  0.00    +0.031 C 
ATOM     13  C   UNL     1       0.968  -0.492  -1.866  0.00  0.00    +0.007 C 
ATOM     14  C   UNL     1      -0.829   1.647  -0.123  0.00  0.00    +0.228 C 
ATOM     15  C   UNL     1      -2.172  -0.824   1.325  0.00  0.00    +0.012 C 
ATOM     16  C   UNL     1      -2.224   0.175  -1.649  0.00  0.00    +0.094 C 
ATOM     17  C   UNL     1       3.523   0.373  -0.868  0.00  0.00    +0.039 C 
ATOM     18  C   UNL     1       3.450   0.072  -2.366  0.00  0.00    +0.072 C 
ATOM     19  C   UNL     1       2.156  -0.620  -2.759  0.00  0.00    +0.169 C 
ATOM     20  C   UNL     1      -2.852   0.478   1.771  0.00  0.00    +0.065 C 
ATOM     21  C   UNL     1      -2.975   2.443  -0.996  0.00  0.00    +0.101 C 
ATOM     22  C   UNL     1      -3.794   2.425   0.309  0.00  0.00    +0.077 C 
ATOM     23  C   UNL     1      -3.958   1.001   0.860  0.00  0.00    +0.152 C 
ATOM     24  C   UNL     1      -5.151   3.094   0.110  0.00  0.00    +0.010 C 
ENDROOT
BRANCH   9  25
ATOM     25  O   UNL     1       2.205   2.374  -1.083  0.00  0.00    -0.382 OA
ATOM     26  H   UNL     1       1.411   2.854  -0.801  0.00  0.00    +0.211 HD
ENDBRANCH   9  25
BRANCH  11  28
ATOM     27  O   UNL     1       3.227   0.131   2.811  0.00  0.00    -0.250 OA
ATOM     28  C   UNL     1       3.263   0.981   1.931  0.00  0.00    +0.319 C 
BRANCH  28  29
ATOM     29  O   UNL     1       4.351   1.709   1.552  0.00  0.00    -0.444 OA
ATOM     30  C   UNL     1       5.557   1.431   2.271  0.00  0.00    +0.256 C 
ENDBRANCH  28  29
ENDBRANCH  11  28
BRANCH   6  31
ATOM     31  C   UNL     1      -0.184  -2.174   0.695  0.00  0.00    +0.209 C 
BRANCH  31  32
ATOM     32  O   UNL     1      -1.080  -3.245   0.554  0.00  0.00    -0.448 OA
BRANCH  32  34
ATOM     33  O   UNL     1       0.545  -4.742   1.227  0.00  0.00    -0.250 OA
ATOM     34  C   UNL     1      -0.593  -4.496   0.853  0.00  0.00    +0.318 C 
ATOM     35  C   UNL     1      -1.656  -5.535   0.658  0.00  0.00    +0.121 C 
ENDBRANCH  32  34
ENDBRANCH  31  32
ENDBRANCH   6  31
TORSDOF 6
