REMARK  Name = 10223013
REMARK  8 active torsions:
REMARK  status: ('A' for Active; 'I' for Inactive)
REMARK    1  A    between atoms: N_1  and  C_27
REMARK    2  A    between atoms: C_10  and  C_15
REMARK    3  A    between atoms: C_12  and  O_21
REMARK    4  A    between atoms: C_15  and  C_18
REMARK    5  A    between atoms: O_21  and  C_22
REMARK    6  A    between atoms: C_22  and  C_24
REMARK    7  A    between atoms: C_24  and  O_25
REMARK    8  A    between atoms: C_27  and  C_28
REMARK                            x       y       z     vdW  Elec       q    Type
REMARK                         _______ _______ _______ _____ _____    ______ ____
ROOT
ATOM      1  N   UNL     1      -1.277  -0.464  -0.845  0.00  0.00    -0.327 N 
ATOM      2  C   UNL     1      -0.896   2.012  -0.584  0.00  0.00    -0.010 C 
ATOM      3  C   UNL     1      -0.559   0.664  -0.527  0.00  0.00    +0.059 A 
ATOM      4  C   UNL     1      -2.155   2.688  -1.043  0.00  0.00    +0.028 C 
ATOM      5  C   UNL     1       0.066   2.956  -0.194  0.00  0.00    -0.022 C 
ATOM      6  C   UNL     1      -1.979   4.084  -0.428  0.00  0.00    +0.009 C 
ATOM      7  C   UNL     1      -0.467   4.347  -0.358  0.00  0.00    +0.027 C 
ATOM      8  C   UNL     1       0.703   0.246  -0.089  0.00  0.00    +0.054 A 
ATOM      9  C   UNL     1      -0.519  -1.582  -0.619  0.00  0.00    +0.041 A 
ATOM     10  C   UNL     1       0.710  -1.175  -0.151  0.00  0.00    +0.060 A 
ATOM     11  C   UNL     1       1.329   2.584   0.235  0.00  0.00    +0.032 C 
ATOM     12  C   UNL     1       1.655   1.222   0.296  0.00  0.00    +0.140 C 
ATOM     13  C   UNL     1      -1.040  -2.943  -0.873  0.00  0.00    +0.050 C 
ENDROOT
BRANCH  10  15
ATOM     14  O   UNL     1       2.649  -1.835   1.051  0.00  0.00    -0.282 OA
ATOM     15  C   UNL     1       1.781  -2.069   0.195  0.00  0.00    +0.249 C 
BRANCH  15  18
ATOM     16  O   UNL     1       1.944  -4.419   0.206  0.00  0.00    -0.267 OA
ATOM     17  N   UNL     1       2.147  -3.308  -1.832  0.00  0.00    -0.323 N 
ATOM     18  C   UNL     1       1.968  -3.409  -0.477  0.00  0.00    +0.282 C 
ATOM     19  H   UNL     1       2.279  -4.120  -2.373  0.00  0.00    +0.145 HD
ATOM     20  H   UNL     1       2.145  -2.424  -2.264  0.00  0.00    +0.145 HD
ENDBRANCH  15  18
ENDBRANCH  10  15
BRANCH  12  21
ATOM     21  O   UNL     1       2.906   0.865   0.727  0.00  0.00    -0.464 OA
BRANCH  21  22
ATOM     22  C   UNL     1       4.007   1.352  -0.031  0.00  0.00    +0.314 C 
BRANCH  22  24
ATOM     23  O   UNL     1       5.399   0.161   1.564  0.00  0.00    -0.246 OA
ATOM     24  C   UNL     1       5.295   0.856   0.565  0.00  0.00    +0.359 C 
BRANCH  24  25
ATOM     25  O   UNL     1       6.349   1.292  -0.170  0.00  0.00    -0.478 OA
ATOM     26  H   UNL     1       6.204   1.823  -0.927  0.00  0.00    +0.295 HD
ENDBRANCH  24  25
ENDBRANCH  22  24
ENDBRANCH  21  22
ENDBRANCH  12  21
BRANCH   1  27
ATOM     27  C   UNL     1      -2.632  -0.483  -1.355  0.00  0.00    +0.132 C 
BRANCH  27  28
ATOM     28  C   UNL     1      -3.639  -0.547  -0.238  0.00  0.00    +0.000 C 
ATOM     29  C   UNL     1      -3.199  -0.579   1.078  0.00  0.00    -0.002 C 
ATOM     30  C   UNL     1      -4.994  -0.574  -0.539  0.00  0.00    -0.002 C 
ATOM     31  C   UNL     1      -4.131  -0.639   2.114  0.00  0.00    -0.000 C 
ATOM     32  C   UNL     1      -5.926  -0.633   0.497  0.00  0.00    -0.000 C 
ATOM     33  C   UNL     1      -5.495  -0.666   1.823  0.00  0.00    -0.000 C 
ENDBRANCH  27  28
ENDBRANCH   1  27
TORSDOF 8
