REMARK  Name = 102264289
REMARK  5 active torsions:
REMARK  status: ('A' for Active; 'I' for Inactive)
REMARK    1  A    between atoms: C_6  and  C_34
REMARK    2  A    between atoms: C_7  and  O_27
REMARK    3  A    between atoms: C_14  and  O_29
REMARK    4  A    between atoms: C_17  and  O_31
REMARK    5  A    between atoms: C_34  and  O_35
REMARK                            x       y       z     vdW  Elec       q    Type
REMARK                         _______ _______ _______ _____ _____    ______ ____
ROOT
ATOM      1  O   UNL     1      -2.115   1.432  -0.577  0.00  0.00    -0.465 OA
ATOM      2  O   UNL     1       5.126   2.194  -0.120  0.00  0.00    -0.333 OA
ATOM      3  O   UNL     1      -4.482  -2.618   0.621  0.00  0.00    -0.291 OA
ATOM      4  O   UNL     1       7.314   1.389  -0.026  0.00  0.00    -0.243 OA
ATOM      5  N   UNL     1       3.893   1.555   0.028  0.00  0.00    -0.187 N 
ATOM      6  C   UNL     1      -3.296   0.689  -0.223  0.00  0.00    +0.269 C 
ATOM      7  C   UNL     1      -4.406   1.095  -1.211  0.00  0.00    +0.162 C 
ATOM      8  C   UNL     1      -3.134  -0.803  -0.126  0.00  0.00    +0.095 C 
ATOM      9  C   UNL     1      -5.709   0.320  -0.990  0.00  0.00    +0.042 C 
ATOM     10  C   UNL     1      -5.497  -1.189  -1.016  0.00  0.00    +0.072 C 
ATOM     11  C   UNL     1      -0.740  -0.545  -0.194  0.00  0.00    +0.101 C 
ATOM     12  C   UNL     1      -4.386  -1.616  -0.084  0.00  0.00    +0.176 C 
ATOM     13  C   UNL     1      -0.897   0.825  -0.427  0.00  0.00    +0.145 C 
ATOM     14  C   UNL     1      -1.930  -1.398  -0.113  0.00  0.00    +0.142 C 
ATOM     15  C   UNL     1       1.696  -0.246  -0.172  0.00  0.00    +0.034 C 
ATOM     16  C   UNL     1       1.508   1.148  -0.408  0.00  0.00    +0.010 C 
ATOM     17  C   UNL     1       0.560  -1.067  -0.067  0.00  0.00    +0.144 C 
ATOM     18  C   UNL     1       0.213   1.663  -0.546  0.00  0.00    +0.035 C 
ATOM     19  C   UNL     1       2.699   2.095  -0.583  0.00  0.00    +0.171 C 
ATOM     20  C   UNL     1       3.073  -0.757  -0.045  0.00  0.00    +0.022 C 
ATOM     21  C   UNL     1       4.071   0.195   0.028  0.00  0.00    +0.100 A 
ATOM     22  C   UNL     1       5.417  -0.087   0.058  0.00  0.00    +0.096 A 
ATOM     23  C   UNL     1       3.512  -2.085  -0.022  0.00  0.00    +0.002 C 
ATOM     24  C   UNL     1       6.112   1.212  -0.019  0.00  0.00    +0.367 A 
ATOM     25  C   UNL     1       5.869  -1.385   0.073  0.00  0.00    +0.008 C 
ATOM     26  C   UNL     1       4.894  -2.392   0.044  0.00  0.00    +0.000 C 
ENDROOT
BRANCH   7  27
ATOM     27  O   UNL     1      -3.942   0.860  -2.544  0.00  0.00    -0.380 OA
ATOM     28  H   UNL     1      -3.116   1.348  -2.689  0.00  0.00    +0.211 HD
ENDBRANCH   7  27
BRANCH  14  29
ATOM     29  O   UNL     1      -1.708  -2.754  -0.052  0.00  0.00    -0.505 OA
ATOM     30  H   UNL     1      -2.433  -3.346   0.001  0.00  0.00    +0.292 HD
ENDBRANCH  14  29
BRANCH  17  31
ATOM     31  O   UNL     1       0.705  -2.389   0.247  0.00  0.00    -0.471 OA
ATOM     32  C   UNL     1       0.682  -2.728   1.631  0.00  0.00    +0.252 C 
ENDBRANCH  17  31
BRANCH   6  34
ATOM     33  O   UNL     1      -3.689   0.478   2.152  0.00  0.00    -0.246 OA
ATOM     34  C   UNL     1      -3.602   1.196   1.164  0.00  0.00    +0.360 C 
BRANCH  34  35
ATOM     35  O   UNL     1      -3.758   2.550   1.131  0.00  0.00    -0.442 OA
ATOM     36  C   UNL     1      -4.054   3.165   2.389  0.00  0.00    +0.256 C 
ENDBRANCH  34  35
ENDBRANCH   6  34
TORSDOF 5
