REMARK  Name = 102205430
REMARK  8 active torsions:
REMARK  status: ('A' for Active; 'I' for Inactive)
REMARK    1  A    between atoms: C_6  and  C_12
REMARK    2  A    between atoms: C_7  and  O_22
REMARK    3  A    between atoms: C_8  and  C_24
REMARK    4  A    between atoms: C_15  and  O_18
REMARK    5  A    between atoms: C_17  and  O_20
REMARK    6  A    between atoms: C_24  and  O_25
REMARK    7  A    between atoms: C_24  and  C_27
REMARK    8  A    between atoms: C_27  and  O_28
REMARK                            x       y       z     vdW  Elec       q    Type
REMARK                         _______ _______ _______ _____ _____    ______ ____
ROOT
ATOM      1  O   UNL     1      -1.792   2.403   0.306  0.00  0.00    -0.442 OA
ATOM      2  O   UNL     1      -1.350  -0.704  -1.166  0.00  0.00    -0.445 OA
ATOM      3  O   UNL     1      -1.169   1.314  -2.234  0.00  0.00    -0.246 OA
ATOM      4  O   UNL     1      -1.344   4.650   0.181  0.00  0.00    -0.250 OA
ATOM      5  C   UNL     1      -1.034   1.192   0.207  0.00  0.00    +0.255 C 
ATOM      6  C   UNL     1       0.383   1.610   0.610  0.00  0.00    +0.083 C 
ATOM      7  C   UNL     1      -1.709   0.085   1.004  0.00  0.00    +0.201 C 
ATOM      8  C   UNL     1      -1.382  -1.154   0.194  0.00  0.00    +0.229 C 
ATOM      9  C   UNL     1       0.459   3.035   0.070  0.00  0.00    +0.118 C 
ATOM     10  C   UNL     1      -1.183   0.656  -1.205  0.00  0.00    +0.357 C 
ATOM     11  C   UNL     1      -0.965   3.489   0.200  0.00  0.00    +0.318 C 
ENDROOT
BRANCH   6  12
ATOM     12  C   UNL     1       1.532   0.704   0.234  0.00  0.00    -0.015 C 
ATOM     13  C   UNL     1       1.960  -0.285   1.119  0.00  0.00    +0.036 C 
ATOM     14  C   UNL     1       2.165   0.857  -1.000  0.00  0.00    -0.001 C 
ATOM     15  C   UNL     1       3.021  -1.122   0.770  0.00  0.00    +0.167 C 
ATOM     16  C   UNL     1       3.225   0.021  -1.349  0.00  0.00    +0.039 C 
ATOM     17  C   UNL     1       3.653  -0.969  -0.463  0.00  0.00    +0.167 C 
BRANCH  15  18
ATOM     18  O   UNL     1       3.427  -2.086   1.643  0.00  0.00    -0.503 OA
ATOM     19  H   UNL     1       2.997  -2.182   2.469  0.00  0.00    +0.292 HD
ENDBRANCH  15  18
BRANCH  17  20
ATOM     20  O   UNL     1       4.689  -1.780  -0.815  0.00  0.00    -0.503 OA
ATOM     21  H   UNL     1       4.983  -2.447  -0.226  0.00  0.00    +0.292 HD
ENDBRANCH  17  20
ENDBRANCH   6  12
BRANCH   7  22
ATOM     22  O   UNL     1      -1.234  -0.052   2.329  0.00  0.00    -0.377 OA
ATOM     23  H   UNL     1      -1.451   0.747   2.834  0.00  0.00    +0.211 HD
ENDBRANCH   7  22
BRANCH   8  24
ATOM     24  C   UNL     1      -2.426  -2.249   0.341  0.00  0.00    +0.182 C 
BRANCH  24  25
ATOM     25  O   UNL     1      -3.697  -1.734  -0.055  0.00  0.00    -0.378 OA
ATOM     26  H   UNL     1      -3.920  -0.967   0.495  0.00  0.00    +0.211 HD
ENDBRANCH  24  25
BRANCH  24  27
ATOM     27  C   UNL     1      -2.104  -3.451  -0.539  0.00  0.00    +0.170 C 
BRANCH  27  28
ATOM     28  O   UNL     1      -3.126  -4.429  -0.382  0.00  0.00    -0.379 OA
ATOM     29  H   UNL     1      -2.927  -5.197  -0.939  0.00  0.00    +0.211 HD
ENDBRANCH  27  28
ENDBRANCH  24  27
ENDBRANCH   8  24
TORSDOF 8
