102210446
  -OEChem-03292013293D

 45 46  0     1  0  0  0  0  0999 V2000
    1.6899    1.2116   -0.7653 O   0  0  0  0  0  0  0  0  0  0  0  0
   -0.4160   -0.8828    1.2438 O   0  0  0  0  0  0  0  0  0  0  0  0
   -4.0258   -2.0026   -0.0345 O   0  0  0  0  0  0  0  0  0  0  0  0
   -3.9497    3.5063   -0.9838 O   0  0  0  0  0  0  0  0  0  0  0  0
   -2.0988    2.8608    0.1618 O   0  0  0  0  0  0  0  0  0  0  0  0
    1.6111   -1.0847   -0.4876 N   0  0  0  0  0  0  0  0  0  0  0  0
    4.3398    1.2392   -0.7614 N   0  0  0  0  0  0  0  0  0  0  0  0
   -1.8748   -0.3304   -0.4843 N   0  0  0  0  0  0  0  0  0  0  0  0
   -4.4138   -0.9097    1.9483 N   0  0  0  0  0  0  0  0  0  0  0  0
    0.2641   -1.2696   -1.0115 C   0  0  1  0  0  0  0  0  0  0  0  0
    0.1488   -2.7686   -1.2631 C   0  0  0  0  0  0  0  0  0  0  0  0
    3.6796    0.1325   -0.0686 C   0  0  2  0  0  0  0  0  0  0  0  0
    2.2265   -2.3662   -0.1526 C   0  0  0  0  0  0  0  0  0  0  0  0
    1.0912   -3.3758   -0.2266 C   0  0  0  0  0  0  0  0  0  0  0  0
    2.2427    0.1491   -0.4760 C   0  0  0  0  0  0  0  0  0  0  0  0
    3.8745    0.3917    1.4225 C   0  0  0  0  0  0  0  0  0  0  0  0
    4.6878    1.6758    1.4901 C   0  0  0  0  0  0  0  0  0  0  0  0
    5.3762    1.7283    0.1425 C   0  0  0  0  0  0  0  0  0  0  0  0
   -0.6897   -0.8081    0.0488 C   0  0  0  0  0  0  0  0  0  0  0  0
   -2.9682    0.1538    0.3270 C   0  0  1  0  0  0  0  0  0  0  0  0
   -3.7959    1.2069   -0.4116 C   0  0  0  0  0  0  0  0  0  0  0  0
   -3.8315   -1.0410    0.7053 C   0  0  0  0  0  0  0  0  0  0  0  0
   -3.1681    2.5836   -0.3631 C   0  0  0  0  0  0  0  0  0  0  0  0
    0.1387   -0.6811   -1.9270 H   0  0  0  0  0  0  0  0  0  0  0  0
    0.5170   -3.0054   -2.2688 H   0  0  0  0  0  0  0  0  0  0  0  0
   -0.8708   -3.1547   -1.1711 H   0  0  0  0  0  0  0  0  0  0  0  0
    4.1808   -0.7913   -0.3681 H   0  0  0  0  0  0  0  0  0  0  0  0
    2.9874   -2.5872   -0.9091 H   0  0  0  0  0  0  0  0  0  0  0  0
    2.6959   -2.3285    0.8342 H   0  0  0  0  0  0  0  0  0  0  0  0
    0.5849   -3.4465    0.7433 H   0  0  0  0  0  0  0  0  0  0  0  0
    1.4364   -4.3767   -0.5005 H   0  0  0  0  0  0  0  0  0  0  0  0
    4.4485   -0.4297    1.8681 H   0  0  0  0  0  0  0  0  0  0  0  0
    2.9381    0.4890    1.9819 H   0  0  0  0  0  0  0  0  0  0  0  0
    4.0176    2.5358    1.6121 H   0  0  0  0  0  0  0  0  0  0  0  0
    5.3958    1.6742    2.3240 H   0  0  0  0  0  0  0  0  0  0  0  0
    5.7032    2.7388   -0.1189 H   0  0  0  0  0  0  0  0  0  0  0  0
    6.2476    1.0642    0.1144 H   0  0  0  0  0  0  0  0  0  0  0  0
    3.6731    1.9989   -0.9078 H   0  0  0  0  0  0  0  0  0  0  0  0
   -2.0213   -0.3940   -1.4878 H   0  0  0  0  0  0  0  0  0  0  0  0
   -2.5432    0.5737    1.2475 H   0  0  0  0  0  0  0  0  0  0  0  0
   -3.9358    0.9273   -1.4624 H   0  0  0  0  0  0  0  0  0  0  0  0
   -4.7851    1.2947    0.0541 H   0  0  0  0  0  0  0  0  0  0  0  0
   -4.2618   -0.0988    2.5394 H   0  0  0  0  0  0  0  0  0  0  0  0
   -5.0245   -1.6318    2.3157 H   0  0  0  0  0  0  0  0  0  0  0  0
   -3.5501    4.4018   -0.9555 H   0  0  0  0  0  0  0  0  0  0  0  0
  1 15  2  0  0  0  0
  2 19  2  0  0  0  0
  3 22  2  0  0  0  0
  4 23  1  0  0  0  0
  4 45  1  0  0  0  0
  5 23  2  0  0  0  0
  6 10  1  0  0  0  0
  6 13  1  0  0  0  0
  6 15  1  0  0  0  0
  7 12  1  0  0  0  0
  7 18  1  0  0  0  0
  7 38  1  0  0  0  0
  8 19  1  0  0  0  0
  8 20  1  0  0  0  0
  8 39  1  0  0  0  0
  9 22  1  0  0  0  0
  9 43  1  0  0  0  0
  9 44  1  0  0  0  0
 10 11  1  0  0  0  0
 10 19  1  0  0  0  0
 10 24  1  0  0  0  0
 11 14  1  0  0  0  0
 11 25  1  0  0  0  0
 11 26  1  0  0  0  0
 12 15  1  0  0  0  0
 12 16  1  0  0  0  0
 12 27  1  0  0  0  0
 13 14  1  0  0  0  0
 13 28  1  0  0  0  0
 13 29  1  0  0  0  0
 14 30  1  0  0  0  0
 14 31  1  0  0  0  0
 16 17  1  0  0  0  0
 16 32  1  0  0  0  0
 16 33  1  0  0  0  0
 17 18  1  0  0  0  0
 17 34  1  0  0  0  0
 17 35  1  0  0  0  0
 18 36  1  0  0  0  0
 18 37  1  0  0  0  0
 20 21  1  0  0  0  0
 20 22  1  0  0  0  0
 20 40  1  0  0  0  0
 21 23  1  0  0  0  0
 21 41  1  0  0  0  0
 21 42  1  0  0  0  0
M  END
> <PUBCHEM_COMPOUND_CID>
102210446

> <PUBCHEM_CONFORMER_RMSD>
1

> <PUBCHEM_CONFORMER_DIVERSEORDER>
1
49
46
29
21
32
31
53
45
7
16
23
18
50
11
27
51
44
10
40
48
13
38
30
41
28
33
8
20
52
42
25
43
26
47
34
14
37
4
22
39
5
35
19
36
6
9
2
15
17
3
24
12

> <PUBCHEM_MMFF94_PARTIAL_CHARGES>
24
1 -0.57
10 0.36
12 0.33
13 0.3
15 0.57
18 0.27
19 0.57
2 -0.57
20 0.36
21 0.06
22 0.57
23 0.66
3 -0.57
38 0.36
39 0.37
4 -0.65
43 0.37
44 0.37
45 0.5
5 -0.57
6 -0.66
7 -0.9
8 -0.73
9 -0.8

> <PUBCHEM_EFFECTIVE_ROTOR_COUNT>
10

> <PUBCHEM_PHARMACOPHORE_FEATURES>
12
1 1 acceptor
1 2 acceptor
1 3 acceptor
1 4 acceptor
1 5 acceptor
1 7 cation
1 7 donor
1 8 donor
1 9 donor
3 4 5 23 anion
5 6 10 11 13 14 rings
5 7 12 16 17 18 rings

> <PUBCHEM_HEAVY_ATOM_COUNT>
23

> <PUBCHEM_ATOM_DEF_STEREO_COUNT>
3

> <PUBCHEM_ATOM_UDEF_STEREO_COUNT>
0

> <PUBCHEM_BOND_DEF_STEREO_COUNT>
0

> <PUBCHEM_BOND_UDEF_STEREO_COUNT>
0

> <PUBCHEM_ISOTOPIC_ATOM_COUNT>
0

> <PUBCHEM_COMPONENT_COUNT>
1

> <PUBCHEM_CACTVS_TAUTO_COUNT>
12

> <PUBCHEM_CONFORMER_ID>
06179B8E00000001

> <PUBCHEM_MMFF94_ENERGY>
45.944

> <PUBCHEM_FEATURE_SELFOVERLAP>
60.956

> <PUBCHEM_SHAPE_FINGERPRINT>
10670039 82 18335715961485313868
11405975 8 18190461549991725763
12107183 9 17826215303872212616
12403259 118 18259977197895504636
12403259 415 18343590633418709028
12549972 3 17680734530749655139
12596602 18 17241041123729736624
12633257 1 16660362584665942836
12892183 10 18040994059744669642
12930653 34 18409730638495546143
13140716 1 17903358448083481126
13690498 29 10159403371182454361
14123255 52 18342733035881837590
14178000 22 18271514386380162110
14178342 30 17895483527083796711
14251764 38 18266736883460701400
17980427 23 17894634789832440013
18186145 218 17632861940562950698
193927 3 11747210230615037240
20645477 56 18058734748820950358
21033648 29 18200865262516619752
21069387 34 12180130929592215651
21279426 13 18199196101250255094
21307412 95 8285937781915976281
21524375 3 18201163268579651318
22393880 68 18270968938101967854
23557571 272 18262535714361387823
23559900 14 18052814741451081787
3117164 225 18118105992940665906
341906 21 18260547818644718396
3459 39 17987213660765299416
469060 322 18266196065879873889
5104073 3 18335708174345212995
59755656 520 17774733059935351830
621550 34 18269572588916693891
7399639 24 18410586076102087651
7808743 9 18124311864538657944
84936 182 18129938954179058080
9709674 26 18124318199388527535
9862522 239 18339067267929804014
9925002 15 17765995382610148479
9981440 41 18408598150045711091

> <PUBCHEM_SHAPE_MULTIPOLES>
424.06
10.31
3.69
1.25
2.61
0.1
0.43
7.23
2.62
-1.69
-0.99
-0.1
-0.01
1.71

> <PUBCHEM_SHAPE_SELFOVERLAP>
875.103

> <PUBCHEM_SHAPE_VOLUME>
242.8

> <PUBCHEM_COORDINATE_TYPE>
2
5
10

$$$$
