REMARK  Name = 102231640
REMARK  8 active torsions:
REMARK  status: ('A' for Active; 'I' for Inactive)
REMARK    1  A    between atoms: C_4  and  S_24
REMARK    2  A    between atoms: C_16  and  O_20
REMARK    3  A    between atoms: C_19  and  O_22
REMARK    4  A    between atoms: S_24  and  C_25
REMARK    5  A    between atoms: C_25  and  C_26
REMARK    6  A    between atoms: C_26  and  O_27
REMARK    7  A    between atoms: C_26  and  C_30
REMARK    8  A    between atoms: C_30  and  O_31
REMARK                            x       y       z     vdW  Elec       q    Type
REMARK                         _______ _______ _______ _____ _____    ______ ____
ROOT
ATOM      1  O   UNL     1      -1.803  -2.393  -0.534  0.00  0.00    -0.452 OA
ATOM      2  O   UNL     1      -0.433   0.522  -2.063  0.00  0.00    -0.291 OA
ATOM      3  O   UNL     1      -3.936  -2.160   0.322  0.00  0.00    -0.250 OA
ATOM      4  C   UNL     1       1.007  -0.576   0.400  0.00  0.00    +0.055 C 
ATOM      5  C   UNL     1       0.139  -1.155   1.534  0.00  0.00    +0.011 C 
ATOM      6  C   UNL     1       0.309  -2.656   1.800  0.00  0.00    +0.005 C 
ATOM      7  C   UNL     1      -0.063  -3.603   0.649  0.00  0.00    +0.044 C 
ATOM      8  C   UNL     1       0.595   0.869   0.080  0.00  0.00    +0.080 C 
ATOM      9  C   UNL     1      -1.550  -3.566   0.269  0.00  0.00    +0.169 C 
ATOM     10  C   UNL     1      -0.570   0.888  -0.898  0.00  0.00    +0.177 C 
ATOM     11  C   UNL     1      -1.890   1.379  -0.432  0.00  0.00    +0.065 C 
ATOM     12  C   UNL     1      -1.921  -4.786  -0.571  0.00  0.00    +0.047 C 
ATOM     13  C   UNL     1      -3.083   0.676  -0.690  0.00  0.00    -0.002 C 
ATOM     14  C   UNL     1      -3.146  -0.658  -1.389  0.00  0.00    +0.136 C 
ATOM     15  C   UNL     1      -3.035  -1.816  -0.432  0.00  0.00    +0.321 C 
ATOM     16  C   UNL     1      -1.922   2.608   0.244  0.00  0.00    +0.139 C 
ATOM     17  C   UNL     1      -4.290   1.225  -0.220  0.00  0.00    +0.033 C 
ATOM     18  C   UNL     1      -3.132   3.134   0.692  0.00  0.00    +0.073 C 
ATOM     19  C   UNL     1      -4.316   2.442   0.463  0.00  0.00    +0.136 C 
ENDROOT
BRANCH  16  20
ATOM     20  O   UNL     1      -0.835   3.406   0.434  0.00  0.00    -0.505 OA
ATOM     21  H   UNL     1       0.012   3.118   0.158  0.00  0.00    +0.292 HD
ENDBRANCH  16  20
BRANCH  19  22
ATOM     22  O   UNL     1      -5.499   2.952   0.900  0.00  0.00    -0.505 OA
ATOM     23  H   UNL     1      -6.297   2.485   0.745  0.00  0.00    +0.292 HD
ENDBRANCH  19  22
BRANCH   4  24
ATOM     24  S   UNL     1       2.773  -0.590   0.889  0.00  0.00    -0.138 S 
BRANCH  24  25
ATOM     25  C   UNL     1       3.480  -0.525  -0.770  0.00  0.00    +0.098 C 
BRANCH  25  26
ATOM     26  C   UNL     1       5.007  -0.443  -0.773  0.00  0.00    +0.221 C 
BRANCH  26  27
ATOM     27  O   UNL     1       5.558  -1.635  -0.234  0.00  0.00    -0.374 OA
ATOM     28  H   UNL     1       5.196  -2.402  -0.706  0.00  0.00    +0.211 HD
ENDBRANCH  26  27
BRANCH  26  30
ATOM     29  O   UNL     1       6.309   0.679   0.943  0.00  0.00    -0.247 OA
ATOM     30  C   UNL     1       5.574   0.755  -0.033  0.00  0.00    +0.345 C 
BRANCH  30  31
ATOM     31  O   UNL     1       5.118   1.908  -0.603  0.00  0.00    -0.443 OA
ATOM     32  C   UNL     1       5.555   3.119   0.021  0.00  0.00    +0.256 C 
ENDBRANCH  30  31
ENDBRANCH  26  30
ENDBRANCH  25  26
ENDBRANCH  24  25
ENDBRANCH   4  24
TORSDOF 8
