102293495
  -OEChem-03292013293D

 66 70  0     1  0  0  0  0  0999 V2000
    0.2136   -0.4481   -2.5695 O   0  0  0  0  0  0  0  0  0  0  0  0
   -1.7286    1.4764   -1.9867 O   0  0  0  0  0  0  0  0  0  0  0  0
    0.6031    2.5770   -1.1994 O   0  0  0  0  0  0  0  0  0  0  0  0
   -3.8902    1.4966    0.1150 O   0  0  0  0  0  0  0  0  0  0  0  0
   -4.2324   -1.6617   -0.0175 O   0  0  0  0  0  0  0  0  0  0  0  0
    3.9672    1.3870   -0.6793 O   0  0  0  0  0  0  0  0  0  0  0  0
    1.6586   -1.8167    2.3036 O   0  0  0  0  0  0  0  0  0  0  0  0
    1.8925   -1.6703   -0.4293 N   0  0  2  0  0  0  0  0  0  0  0  0
    0.8102    0.0239    0.9907 C   0  0  1  0  0  0  0  0  0  0  0  0
   -0.5492    0.6285    1.4603 C   0  0  1  0  0  0  0  0  0  0  0  0
    0.1365    0.0989   -1.2593 C   0  0  1  0  0  0  0  0  0  0  0  0
   -1.4509    1.2641    0.3814 C   0  0  1  0  0  0  0  0  0  0  0  0
   -1.3439    0.5232   -0.9741 C   0  0  1  0  0  0  0  0  0  0  0  0
    0.6248   -0.9394   -0.1967 C   0  0  1  0  0  0  0  0  0  0  0  0
    1.7770    1.0532    0.3089 C   0  0  2  0  0  0  0  0  0  0  0  0
    1.1502    1.2727   -1.1055 C   0  0  2  0  0  0  0  0  0  0  0  0
   -2.8406   -0.3051    1.4265 C   0  0  2  0  0  0  0  0  0  0  0  0
   -2.8481    1.1588    1.0045 C   0  0  2  0  0  0  0  0  0  0  0  0
   -1.4891   -0.4005    2.1517 C   0  0  0  0  0  0  0  0  0  0  0  0
   -2.3611   -0.6451   -1.1025 C   0  0  0  0  0  0  0  0  0  0  0  0
    3.1974    0.4364    0.0760 C   0  0  1  0  0  0  0  0  0  0  0  0
   -2.8788   -1.2535    0.2119 C   0  0  2  0  0  0  0  0  0  0  0  0
    3.0657   -0.8592   -0.7701 C   0  0  0  0  0  0  0  0  0  0  0  0
    1.3962   -0.6211    2.2253 C   0  0  0  0  0  0  0  0  0  0  0  0
    1.7470   -2.8116   -1.3252 C   0  0  0  0  0  0  0  0  0  0  0  0
    3.9808    0.2265    1.3393 C   0  0  0  0  0  0  0  0  0  0  0  0
    1.6075    3.5519   -1.4552 C   0  0  0  0  0  0  0  0  0  0  0  0
    2.9629   -3.7201   -1.2589 C   0  0  0  0  0  0  0  0  0  0  0  0
   -5.1268    1.6942    0.7950 C   0  0  0  0  0  0  0  0  0  0  0  0
    4.2312    1.1890    2.2333 C   0  0  0  0  0  0  0  0  0  0  0  0
   -4.2828   -2.9057   -0.6943 C   0  0  0  0  0  0  0  0  0  0  0  0
   -0.3260    1.4068    2.2059 H   0  0  0  0  0  0  0  0  0  0  0  0
   -1.2223    2.3279    0.2579 H   0  0  0  0  0  0  0  0  0  0  0  0
   -0.1402   -1.6871    0.0230 H   0  0  0  0  0  0  0  0  0  0  0  0
    1.8307    1.9853    0.8817 H   0  0  0  0  0  0  0  0  0  0  0  0
    1.8859    1.1965   -1.9130 H   0  0  0  0  0  0  0  0  0  0  0  0
   -3.6636   -0.5406    2.1099 H   0  0  0  0  0  0  0  0  0  0  0  0
   -2.8894    1.8163    1.8853 H   0  0  0  0  0  0  0  0  0  0  0  0
   -1.1044   -1.4242    2.1685 H   0  0  0  0  0  0  0  0  0  0  0  0
   -1.6198   -0.1012    3.2001 H   0  0  0  0  0  0  0  0  0  0  0  0
   -1.9390   -1.4482   -1.7200 H   0  0  0  0  0  0  0  0  0  0  0  0
   -3.2228   -0.3010   -1.6940 H   0  0  0  0  0  0  0  0  0  0  0  0
   -2.2947   -2.1483    0.4600 H   0  0  0  0  0  0  0  0  0  0  0  0
    3.0649   -0.6089   -1.8388 H   0  0  0  0  0  0  0  0  0  0  0  0
    3.9857   -1.4399   -0.6291 H   0  0  0  0  0  0  0  0  0  0  0  0
    1.5694    0.0491    3.0857 H   0  0  0  0  0  0  0  0  0  0  0  0
    1.1439   -0.5012   -2.8394 H   0  0  0  0  0  0  0  0  0  0  0  0
   -1.5905    1.0551   -2.8525 H   0  0  0  0  0  0  0  0  0  0  0  0
    1.5813   -2.5180   -2.3658 H   0  0  0  0  0  0  0  0  0  0  0  0
    0.8790   -3.4084   -1.0189 H   0  0  0  0  0  0  0  0  0  0  0  0
    4.3776   -0.7652    1.5435 H   0  0  0  0  0  0  0  0  0  0  0  0
    4.7993    0.9587   -0.9451 H   0  0  0  0  0  0  0  0  0  0  0  0
    1.1162    4.5255   -1.5387 H   0  0  0  0  0  0  0  0  0  0  0  0
    2.1179    3.3475   -2.4016 H   0  0  0  0  0  0  0  0  0  0  0  0
    2.3302    3.6083   -0.6371 H   0  0  0  0  0  0  0  0  0  0  0  0
    3.8340   -3.2887   -1.7615 H   0  0  0  0  0  0  0  0  0  0  0  0
    3.2327   -3.9598   -0.2246 H   0  0  0  0  0  0  0  0  0  0  0  0
    2.7425   -4.6658   -1.7666 H   0  0  0  0  0  0  0  0  0  0  0  0
   -5.8832    1.9603    0.0516 H   0  0  0  0  0  0  0  0  0  0  0  0
   -5.0444    2.5157    1.5132 H   0  0  0  0  0  0  0  0  0  0  0  0
   -5.4480    0.7790    1.2999 H   0  0  0  0  0  0  0  0  0  0  0  0
    4.8066    0.9693    3.1262 H   0  0  0  0  0  0  0  0  0  0  0  0
    3.8794    2.2053    2.0974 H   0  0  0  0  0  0  0  0  0  0  0  0
   -5.3344   -3.1749   -0.8289 H   0  0  0  0  0  0  0  0  0  0  0  0
   -3.8222   -2.8457   -1.6843 H   0  0  0  0  0  0  0  0  0  0  0  0
   -3.8064   -3.6930   -0.1015 H   0  0  0  0  0  0  0  0  0  0  0  0
  1 11  1  0  0  0  0
  1 47  1  0  0  0  0
  2 13  1  0  0  0  0
  2 48  1  0  0  0  0
  3 16  1  0  0  0  0
  3 27  1  0  0  0  0
  4 18  1  0  0  0  0
  4 29  1  0  0  0  0
  5 22  1  0  0  0  0
  5 31  1  0  0  0  0
  6 21  1  0  0  0  0
  6 52  1  0  0  0  0
  7 24  2  0  0  0  0
  8 14  1  0  0  0  0
  8 23  1  0  0  0  0
  8 25  1  0  0  0  0
  9 10  1  0  0  0  0
  9 14  1  0  0  0  0
  9 15  1  0  0  0  0
  9 24  1  0  0  0  0
 10 12  1  0  0  0  0
 10 19  1  0  0  0  0
 10 32  1  0  0  0  0
 11 13  1  0  0  0  0
 11 14  1  0  0  0  0
 11 16  1  0  0  0  0
 12 13  1  0  0  0  0
 12 18  1  0  0  0  0
 12 33  1  0  0  0  0
 13 20  1  0  0  0  0
 14 34  1  0  0  0  0
 15 16  1  0  0  0  0
 15 21  1  0  0  0  0
 15 35  1  0  0  0  0
 16 36  1  0  0  0  0
 17 18  1  0  0  0  0
 17 19  1  0  0  0  0
 17 22  1  0  0  0  0
 17 37  1  0  0  0  0
 18 38  1  0  0  0  0
 19 39  1  0  0  0  0
 19 40  1  0  0  0  0
 20 22  1  0  0  0  0
 20 41  1  0  0  0  0
 20 42  1  0  0  0  0
 21 23  1  0  0  0  0
 21 26  1  0  0  0  0
 22 43  1  0  0  0  0
 23 44  1  0  0  0  0
 23 45  1  0  0  0  0
 24 46  1  0  0  0  0
 25 28  1  0  0  0  0
 25 49  1  0  0  0  0
 25 50  1  0  0  0  0
 26 30  2  0  0  0  0
 26 51  1  0  0  0  0
 27 53  1  0  0  0  0
 27 54  1  0  0  0  0
 27 55  1  0  0  0  0
 28 56  1  0  0  0  0
 28 57  1  0  0  0  0
 28 58  1  0  0  0  0
 29 59  1  0  0  0  0
 29 60  1  0  0  0  0
 29 61  1  0  0  0  0
 30 62  1  0  0  0  0
 30 63  1  0  0  0  0
 31 64  1  0  0  0  0
 31 65  1  0  0  0  0
 31 66  1  0  0  0  0
M  END
> <PUBCHEM_COMPOUND_CID>
102293495

> <PUBCHEM_CONFORMER_RMSD>
1

> <PUBCHEM_CONFORMER_DIVERSEORDER>
1

> <PUBCHEM_MMFF94_PARTIAL_CHARGES>
31
1 -0.68
11 0.28
13 0.28
14 0.27
16 0.28
18 0.28
2 -0.68
21 0.42
22 0.28
23 0.27
24 0.45
25 0.27
26 -0.29
27 0.28
29 0.28
3 -0.56
30 -0.3
31 0.28
4 -0.56
46 0.06
47 0.4
48 0.4
5 -0.56
51 0.15
52 0.4
6 -0.68
62 0.15
63 0.15
7 -0.57
8 -0.81
9 0.06

> <PUBCHEM_EFFECTIVE_ROTOR_COUNT>
7.6

> <PUBCHEM_PHARMACOPHORE_FEATURES>
15
1 1 acceptor
1 1 donor
1 2 acceptor
1 2 donor
1 3 acceptor
1 30 hydrophobe
1 4 acceptor
1 5 acceptor
1 6 acceptor
1 6 donor
1 7 acceptor
1 8 cation
8 10 12 13 17 18 19 20 22 rings
8 8 9 11 14 15 16 21 23 rings
8 9 10 11 12 13 14 15 16 rings

> <PUBCHEM_HEAVY_ATOM_COUNT>
31

> <PUBCHEM_ATOM_DEF_STEREO_COUNT>
11

> <PUBCHEM_ATOM_UDEF_STEREO_COUNT>
1

> <PUBCHEM_BOND_DEF_STEREO_COUNT>
0

> <PUBCHEM_BOND_UDEF_STEREO_COUNT>
0

> <PUBCHEM_ISOTOPIC_ATOM_COUNT>
0

> <PUBCHEM_COMPONENT_COUNT>
1

> <PUBCHEM_CACTVS_TAUTO_COUNT>
1

> <PUBCHEM_CONFORMER_ID>
0618DFF700000001

> <PUBCHEM_MMFF94_ENERGY>
168.7

> <PUBCHEM_FEATURE_SELFOVERLAP>
77.088

> <PUBCHEM_SHAPE_FINGERPRINT>
10863032 1 18131357371223088643
10948715 1 18118417351962068424
11370993 70 18201717362025606627
11578080 2 18271811159629642765
12553582 1 17240487987517694737
12633257 1 17749104508611337592
13140716 1 16736902715579831825
13224815 77 16271926021493456225
133893 2 17314524822871681573
13583140 156 17632573851157204521
14178342 30 18413103965707225302
14223421 5 17846222150220969127
14289901 80 18341907297932398105
15238133 3 16589159212436967453
16945 1 18193299565459141108
17349148 13 18262800799336624155
17980427 23 18261667189884877000
20691752 17 17531248326992986323
21033648 29 18055628422288381481
22149856 69 18128559111075135609
23419403 2 16548312178991147667
23559900 14 17987236629507040842
392239 28 17344903242409825058
4340502 62 18131630062954807915
469060 322 17770751779538336615

> <PUBCHEM_SHAPE_MULTIPOLES>
591.9
7.49
3.17
2.24
4.05
1.68
0.44
0.2
1.81
-0.83
-1.68
-0.98
-0.38
0.06

> <PUBCHEM_SHAPE_SELFOVERLAP>
1290.954

> <PUBCHEM_SHAPE_VOLUME>
318.2

> <PUBCHEM_COORDINATE_TYPE>
2
5
10

$$$$
