102216288
  -OEChem-03292013293D

 59 64  0     1  0  0  0  0  0999 V2000
    5.7091    0.4683   -0.0901 O   0  0  0  0  0  0  0  0  0  0  0  0
    5.5583   -1.9168   -1.8494 O   0  0  0  0  0  0  0  0  0  0  0  0
    1.0592   -1.0419   -0.0224 O   0  0  0  0  0  0  0  0  0  0  0  0
    3.7326   -2.5207    1.1915 O   0  0  0  0  0  0  0  0  0  0  0  0
   -1.2332   -0.9371    0.0055 O   0  0  0  0  0  0  0  0  0  0  0  0
   -6.0418   -0.4302    0.0645 O   0  0  0  0  0  0  0  0  0  0  0  0
    4.7726    2.9710   -0.1073 O   0  0  0  0  0  0  0  0  0  0  0  0
   -0.7867    3.1770   -0.0054 O   0  0  0  0  0  0  0  0  0  0  0  0
   -3.3567    3.4395    0.0286 O   0  0  0  0  0  0  0  0  0  0  0  0
    6.2474   -0.8291    0.2283 C   0  0  0  0  0  0  0  0  0  0  0  0
    5.4308   -1.9687   -0.4244 C   0  0  1  0  0  0  0  0  0  0  0  0
    3.9448   -1.9003   -0.0745 C   0  0  2  0  0  0  0  0  0  0  0  0
    3.4558   -0.4800   -0.0514 C   0  0  0  0  0  0  0  0  0  0  0  0
    4.3437    0.6092   -0.0581 C   0  0  0  0  0  0  0  0  0  0  0  0
    2.0941   -0.1417   -0.0359 C   0  0  0  0  0  0  0  0  0  0  0  0
    6.3321   -0.9602    1.7591 C   0  0  0  0  0  0  0  0  0  0  0  0
    7.6838   -0.8241   -0.3252 C   0  0  0  0  0  0  0  0  0  0  0  0
    1.6005    1.1658   -0.0331 C   0  0  0  0  0  0  0  0  0  0  0  0
    0.1911    1.0408   -0.0145 C   0  0  0  0  0  0  0  0  0  0  0  0
    3.8855    1.9325   -0.0680 C   0  0  0  0  0  0  0  0  0  0  0  0
    2.5179    2.2279   -0.0514 C   0  0  0  0  0  0  0  0  0  0  0  0
   -0.0700   -0.3026   -0.0091 C   0  0  0  0  0  0  0  0  0  0  0  0
   -2.2573    1.2929    0.0143 C   0  0  0  0  0  0  0  0  0  0  0  0
   -2.3608   -0.1228    0.0169 C   0  0  0  0  0  0  0  0  0  0  0  0
   -0.9159    1.9617   -0.0025 C   0  0  0  0  0  0  0  0  0  0  0  0
   -3.6211   -0.7419    0.0303 C   0  0  0  0  0  0  0  0  0  0  0  0
   -6.2515   -1.8522   -0.0530 C   0  0  0  0  0  0  0  0  0  0  0  0
   -4.7659    0.0627    0.0412 C   0  0  0  0  0  0  0  0  0  0  0  0
   -4.6596    1.4590    0.0441 C   0  0  0  0  0  0  0  0  0  0  0  0
   -3.4100    2.0768    0.0287 C   0  0  0  0  0  0  0  0  0  0  0  0
   -3.7760   -2.1904    0.0411 C   0  0  0  0  0  0  0  0  0  0  0  0
   -5.0073   -2.7031   -0.0005 C   0  0  0  0  0  0  0  0  0  0  0  0
   -6.9702   -2.0825   -1.3875 C   0  0  0  0  0  0  0  0  0  0  0  0
   -7.1775   -2.2412    1.1057 C   0  0  0  0  0  0  0  0  0  0  0  0
   -5.8977    2.3027    0.0639 C   0  0  0  0  0  0  0  0  0  0  0  0
    5.8515   -2.9329   -0.1117 H   0  0  0  0  0  0  0  0  0  0  0  0
    3.3557   -2.4564   -0.8142 H   0  0  0  0  0  0  0  0  0  0  0  0
    5.3585   -0.8305    2.2411 H   0  0  0  0  0  0  0  0  0  0  0  0
    8.1854   -1.7817   -0.1511 H   0  0  0  0  0  0  0  0  0  0  0  0
    7.6973   -0.6110   -1.4000 H   0  0  0  0  0  0  0  0  0  0  0  0
    6.7403   -1.9321    2.0549 H   0  0  0  0  0  0  0  0  0  0  0  0
    6.9733   -0.1759    2.1788 H   0  0  0  0  0  0  0  0  0  0  0  0
    8.2797   -0.0318    0.1433 H   0  0  0  0  0  0  0  0  0  0  0  0
    2.1678    3.2561   -0.0573 H   0  0  0  0  0  0  0  0  0  0  0  0
    5.1034   -2.6952   -2.2135 H   0  0  0  0  0  0  0  0  0  0  0  0
    4.0041   -3.4511    1.1123 H   0  0  0  0  0  0  0  0  0  0  0  0
   -2.9069   -2.8361    0.0730 H   0  0  0  0  0  0  0  0  0  0  0  0
   -5.1245   -3.7841   -0.0065 H   0  0  0  0  0  0  0  0  0  0  0  0
   -6.3417   -1.7680   -2.2294 H   0  0  0  0  0  0  0  0  0  0  0  0
   -7.2384   -3.1347   -1.5333 H   0  0  0  0  0  0  0  0  0  0  0  0
   -7.4576   -3.2998    1.0709 H   0  0  0  0  0  0  0  0  0  0  0  0
   -6.6976   -2.0436    2.0719 H   0  0  0  0  0  0  0  0  0  0  0  0
   -8.0955   -1.6418    1.0900 H   0  0  0  0  0  0  0  0  0  0  0  0
   -7.8856   -1.4821   -1.4464 H   0  0  0  0  0  0  0  0  0  0  0  0
    4.2811    3.8102   -0.1117 H   0  0  0  0  0  0  0  0  0  0  0  0
   -6.3287    2.3079    1.0704 H   0  0  0  0  0  0  0  0  0  0  0  0
   -5.7161    3.3402   -0.2327 H   0  0  0  0  0  0  0  0  0  0  0  0
   -6.6437    1.9173   -0.6401 H   0  0  0  0  0  0  0  0  0  0  0  0
   -2.4408    3.7539    0.0204 H   0  0  0  0  0  0  0  0  0  0  0  0
  1 10  1  0  0  0  0
  1 14  1  0  0  0  0
  2 11  1  0  0  0  0
  2 45  1  0  0  0  0
  3 15  1  0  0  0  0
  3 22  1  0  0  0  0
  4 12  1  0  0  0  0
  4 46  1  0  0  0  0
  5 22  1  0  0  0  0
  5 24  1  0  0  0  0
  6 27  1  0  0  0  0
  6 28  1  0  0  0  0
  7 20  1  0  0  0  0
  7 55  1  0  0  0  0
  8 25  2  0  0  0  0
  9 30  1  0  0  0  0
  9 59  1  0  0  0  0
 10 11  1  0  0  0  0
 10 16  1  0  0  0  0
 10 17  1  0  0  0  0
 11 12  1  0  0  0  0
 11 36  1  0  0  0  0
 12 13  1  0  0  0  0
 12 37  1  0  0  0  0
 13 14  1  0  0  0  0
 13 15  2  0  0  0  0
 14 20  2  0  0  0  0
 15 18  1  0  0  0  0
 16 38  1  0  0  0  0
 16 41  1  0  0  0  0
 16 42  1  0  0  0  0
 17 39  1  0  0  0  0
 17 40  1  0  0  0  0
 17 43  1  0  0  0  0
 18 19  1  0  0  0  0
 18 21  2  0  0  0  0
 19 22  2  0  0  0  0
 19 25  1  0  0  0  0
 20 21  1  0  0  0  0
 21 44  1  0  0  0  0
 23 24  2  0  0  0  0
 23 25  1  0  0  0  0
 23 30  1  0  0  0  0
 24 26  1  0  0  0  0
 26 28  2  0  0  0  0
 26 31  1  0  0  0  0
 27 32  1  0  0  0  0
 27 33  1  0  0  0  0
 27 34  1  0  0  0  0
 28 29  1  0  0  0  0
 29 30  2  0  0  0  0
 29 35  1  0  0  0  0
 31 32  2  0  0  0  0
 31 47  1  0  0  0  0
 32 48  1  0  0  0  0
 33 49  1  0  0  0  0
 33 50  1  0  0  0  0
 33 54  1  0  0  0  0
 34 51  1  0  0  0  0
 34 52  1  0  0  0  0
 34 53  1  0  0  0  0
 35 56  1  0  0  0  0
 35 57  1  0  0  0  0
 35 58  1  0  0  0  0
M  END
> <PUBCHEM_COMPOUND_CID>
102216288

> <PUBCHEM_CONFORMER_RMSD>
0.8

> <PUBCHEM_CONFORMER_DIVERSEORDER>
1

> <PUBCHEM_MMFF94_PARTIAL_CHARGES>
37
1 -0.36
10 0.28
11 0.28
12 0.42
13 -0.14
14 0.08
15 0.14
19 -0.09
2 -0.68
20 0.08
21 -0.15
22 0.2
23 0.09
24 0.08
25 0.57
26 0.03
27 0.42
28 0.08
29 -0.14
3 -0.28
30 0.08
31 -0.18
32 -0.29
35 0.14
4 -0.68
44 0.15
45 0.4
46 0.4
47 0.15
48 0.15
5 -0.15
55 0.45
59 0.45
6 -0.36
7 -0.53
8 -0.57
9 -0.53

> <PUBCHEM_EFFECTIVE_ROTOR_COUNT>
1.2

> <PUBCHEM_PHARMACOPHORE_FEATURES>
19
1 1 acceptor
1 2 acceptor
1 2 donor
1 3 acceptor
1 4 acceptor
1 4 donor
1 5 acceptor
1 6 acceptor
1 7 donor
1 8 acceptor
1 9 donor
3 10 16 17 hydrophobe
3 27 33 34 hydrophobe
5 3 15 18 19 22 rings
6 1 10 11 12 13 14 rings
6 13 14 15 18 20 21 rings
6 23 24 26 28 29 30 rings
6 5 19 22 23 24 25 rings
6 6 26 27 28 31 32 rings

> <PUBCHEM_HEAVY_ATOM_COUNT>
35

> <PUBCHEM_ATOM_DEF_STEREO_COUNT>
2

> <PUBCHEM_ATOM_UDEF_STEREO_COUNT>
0

> <PUBCHEM_BOND_DEF_STEREO_COUNT>
0

> <PUBCHEM_BOND_UDEF_STEREO_COUNT>
0

> <PUBCHEM_ISOTOPIC_ATOM_COUNT>
0

> <PUBCHEM_COMPONENT_COUNT>
1

> <PUBCHEM_CACTVS_TAUTO_COUNT>
12

> <PUBCHEM_CONFORMER_ID>
0617B26000000001

> <PUBCHEM_MMFF94_ENERGY>
113.1807

> <PUBCHEM_FEATURE_SELFOVERLAP>
96.788

> <PUBCHEM_SHAPE_FINGERPRINT>
10050765 1 18410575088958825748
10319926 262 18341883074264322361
10411042 1 18338517569116126267
10595046 47 18408887347379049984
11524674 6 16630527354000489823
117089 54 17829056743057798195
11963148 33 18121211253958459466
11991303 11 14418426519678839233
12107183 9 17904478502471048369
12107698 1 18409166623284934898
12166972 35 17822292422035173477
12236239 1 18113337505051596060
12760667 363 18341331171868911231
131258 43 17273720697615926220
13533116 47 18341332300669681288
13782708 43 18411700984601576551
13811026 1 18410005559146447457
14068700 675 18333732412201434676
14347332 77 18409445882211417253
15064986 266 18261122906507748489
15082195 135 17823993427286115308
15183329 4 18260545619357575938
15196674 1 18410856568646858325
15320467 1 18410293622772834595
15361156 5 18113914744451148444
15419008 42 17984982583430274332
15439362 3 17907859501829557941
1577012 14 18335145297216870308
15927050 60 17478047623838730636
16087824 20 18337389328822269109
17492 89 18340206276451750414
17844677 252 18410580586516269552
17857418 61 18334293154261772546
18608769 82 18412823591065062242
18681886 176 18413665821129691242
19958102 18 18113891676635365543
20028762 73 18341892991718919902
21033648 29 17487876974728986202
21130935 74 18272369729302004346
21236236 1 18412263935393696425
21267235 1 18410298024918088266
21279426 13 18409164394576736197
21792934 111 18342451561316772361
22149856 69 18059587879116983619
23522609 53 18118434824047986108
23559900 14 18412820261785374256
23569943 247 17096632211393376706
249057 3 18336265648574573125
25025965 108 18271508845841819183
3004659 81 18187362151435530786
335352 9 18410290273520607741
3383291 50 18335420205610994747
350125 39 18410011005729838468
397830 11 17988628736293073160
4073 2 18114187474979647490
439807 62 18408324415127406187
4461854 278 18059302057666284718
5104073 3 18343018895540487025
5109719 28 18057321910945609336
6086070 43 17386547095135607380
9831232 110 18271817765838146470
9996256 80 18411138034621787973
999808 66 18040728004397274043

> <PUBCHEM_SHAPE_MULTIPOLES>
667.46
20.46
3.53
0.9
1.81
1.33
0.02
-11.84
0.03
-2.6
-0.03
0.52
-0.54
-0.12

> <PUBCHEM_SHAPE_SELFOVERLAP>
1521.026

> <PUBCHEM_SHAPE_VOLUME>
349.9

> <PUBCHEM_COORDINATE_TYPE>
2
5
10

$$$$
