102205948
  -OEChem-03292013293D

 42 45  0     1  0  0  0  0  0999 V2000
   -2.0710   -1.2707    1.9484 O   0  0  0  0  0  0  0  0  0  0  0  0
   -1.8165    1.3927    1.4775 O   0  0  0  0  0  0  0  0  0  0  0  0
   -0.3266   -3.1730    0.6110 O   0  0  0  0  0  0  0  0  0  0  0  0
   -1.4239    1.9000   -1.6225 O   0  0  0  0  0  0  0  0  0  0  0  0
    0.4987    2.4831    0.6155 O   0  0  0  0  0  0  0  0  0  0  0  0
    2.1861   -2.3900   -0.7432 O   0  0  0  0  0  0  0  0  0  0  0  0
    4.6268   -1.6698   -0.6243 O   0  0  0  0  0  0  0  0  0  0  0  0
   -2.4189   -0.7710    0.6466 C   0  0  1  0  0  0  0  0  0  0  0  0
   -1.5916    0.5097    0.3766 C   0  0  2  0  0  0  0  0  0  0  0  0
   -2.0753   -1.8503   -0.3973 C   0  0  0  0  0  0  0  0  0  0  0  0
   -3.9311   -0.4740    0.6874 C   0  0  0  0  0  0  0  0  0  0  0  0
   -0.1036    0.2175    0.1766 C   0  0  0  0  0  0  0  0  0  0  0  0
   -0.5790   -2.1878   -0.3951 C   0  0  1  0  0  0  0  0  0  0  0  0
    0.3398   -1.0068   -0.1697 C   0  0  0  0  0  0  0  0  0  0  0  0
   -2.1357    1.2419   -0.8636 C   0  0  0  0  0  0  0  0  0  0  0  0
   -4.4168    0.4323   -0.4088 C   0  0  0  0  0  0  0  0  0  0  0  0
   -3.5963    1.2068   -1.1312 C   0  0  0  0  0  0  0  0  0  0  0  0
    0.8695    1.3424    0.3589 C   0  0  0  0  0  0  0  0  0  0  0  0
    1.7916   -1.2865   -0.3815 C   0  0  0  0  0  0  0  0  0  0  0  0
    2.3083    1.0653    0.2179 C   0  0  0  0  0  0  0  0  0  0  0  0
    2.7536   -0.2019   -0.1409 C   0  0  0  0  0  0  0  0  0  0  0  0
   -5.8986    0.4304   -0.6506 C   0  0  0  0  0  0  0  0  0  0  0  0
    4.1257   -0.4495   -0.2783 C   0  0  0  0  0  0  0  0  0  0  0  0
    3.2361    2.0919    0.4407 C   0  0  0  0  0  0  0  0  0  0  0  0
    5.0466    0.5739   -0.0547 C   0  0  0  0  0  0  0  0  0  0  0  0
    4.6022    1.8435    0.3046 C   0  0  0  0  0  0  0  0  0  0  0  0
   -2.3636   -1.5110   -1.3997 H   0  0  0  0  0  0  0  0  0  0  0  0
   -2.6449   -2.7644   -0.1856 H   0  0  0  0  0  0  0  0  0  0  0  0
   -4.1990   -0.0226    1.6525 H   0  0  0  0  0  0  0  0  0  0  0  0
   -4.4786   -1.4254    0.6519 H   0  0  0  0  0  0  0  0  0  0  0  0
   -0.3514   -2.6570   -1.3604 H   0  0  0  0  0  0  0  0  0  0  0  0
   -3.9653    1.8440   -1.9278 H   0  0  0  0  0  0  0  0  0  0  0  0
   -2.5762   -2.0880    2.0984 H   0  0  0  0  0  0  0  0  0  0  0  0
   -1.3470    2.2269    1.3104 H   0  0  0  0  0  0  0  0  0  0  0  0
   -6.4314    0.7215    0.2605 H   0  0  0  0  0  0  0  0  0  0  0  0
   -6.1896    1.1274   -1.4436 H   0  0  0  0  0  0  0  0  0  0  0  0
   -6.2342   -0.5690   -0.9460 H   0  0  0  0  0  0  0  0  0  0  0  0
    0.5846   -3.4922    0.4958 H   0  0  0  0  0  0  0  0  0  0  0  0
    2.9160    3.0918    0.7218 H   0  0  0  0  0  0  0  0  0  0  0  0
    6.1124    0.3885   -0.1586 H   0  0  0  0  0  0  0  0  0  0  0  0
    5.3187    2.6409    0.4787 H   0  0  0  0  0  0  0  0  0  0  0  0
    3.9196   -2.3293   -0.6818 H   0  0  0  0  0  0  0  0  0  0  0  0
  1  8  1  0  0  0  0
  1 33  1  0  0  0  0
  2  9  1  0  0  0  0
  2 34  1  0  0  0  0
  3 13  1  0  0  0  0
  3 38  1  0  0  0  0
  4 15  2  0  0  0  0
  5 18  2  0  0  0  0
  6 19  2  0  0  0  0
  7 23  1  0  0  0  0
  7 42  1  0  0  0  0
  8  9  1  0  0  0  0
  8 10  1  0  0  0  0
  8 11  1  0  0  0  0
  9 12  1  0  0  0  0
  9 15  1  0  0  0  0
 10 13  1  0  0  0  0
 10 27  1  0  0  0  0
 10 28  1  0  0  0  0
 11 16  1  0  0  0  0
 11 29  1  0  0  0  0
 11 30  1  0  0  0  0
 12 14  2  0  0  0  0
 12 18  1  0  0  0  0
 13 14  1  0  0  0  0
 13 31  1  0  0  0  0
 14 19  1  0  0  0  0
 15 17  1  0  0  0  0
 16 17  2  0  0  0  0
 16 22  1  0  0  0  0
 17 32  1  0  0  0  0
 18 20  1  0  0  0  0
 19 21  1  0  0  0  0
 20 21  2  0  0  0  0
 20 24  1  0  0  0  0
 21 23  1  0  0  0  0
 22 35  1  0  0  0  0
 22 36  1  0  0  0  0
 22 37  1  0  0  0  0
 23 25  2  0  0  0  0
 24 26  2  0  0  0  0
 24 39  1  0  0  0  0
 25 26  1  0  0  0  0
 25 40  1  0  0  0  0
 26 41  1  0  0  0  0
M  END
> <PUBCHEM_COMPOUND_CID>
102205948

> <PUBCHEM_CONFORMER_RMSD>
0.6

> <PUBCHEM_CONFORMER_DIVERSEORDER>
1
2

> <PUBCHEM_MMFF94_PARTIAL_CHARGES>
33
1 -0.68
11 0.14
12 -0.12
13 0.42
14 -0.12
15 0.49
16 -0.28
17 -0.14
18 0.47
19 0.47
2 -0.68
20 0.09
21 0.09
22 0.14
23 0.08
24 -0.15
25 -0.15
26 -0.15
3 -0.68
32 0.15
33 0.4
34 0.4
38 0.4
39 0.15
4 -0.57
40 0.15
41 0.15
42 0.45
5 -0.57
6 -0.57
7 -0.53
8 0.28
9 0.48

> <PUBCHEM_EFFECTIVE_ROTOR_COUNT>
0.6

> <PUBCHEM_PHARMACOPHORE_FEATURES>
14
1 1 acceptor
1 1 donor
1 2 acceptor
1 2 donor
1 3 acceptor
1 3 donor
1 4 acceptor
1 5 acceptor
1 6 acceptor
1 7 donor
6 12 14 18 19 20 21 rings
6 20 21 23 24 25 26 rings
6 8 9 10 12 13 14 rings
6 8 9 11 15 16 17 rings

> <PUBCHEM_HEAVY_ATOM_COUNT>
26

> <PUBCHEM_ATOM_DEF_STEREO_COUNT>
3

> <PUBCHEM_ATOM_UDEF_STEREO_COUNT>
0

> <PUBCHEM_BOND_DEF_STEREO_COUNT>
0

> <PUBCHEM_BOND_UDEF_STEREO_COUNT>
0

> <PUBCHEM_ISOTOPIC_ATOM_COUNT>
0

> <PUBCHEM_COMPONENT_COUNT>
1

> <PUBCHEM_CACTVS_TAUTO_COUNT>
25

> <PUBCHEM_CONFORMER_ID>
061789FC00000001

> <PUBCHEM_MMFF94_ENERGY>
67.7873

> <PUBCHEM_FEATURE_SELFOVERLAP>
71.163

> <PUBCHEM_SHAPE_FINGERPRINT>
10 15 18262508317366880864
10411042 1 17764309440496374398
107951 10 17603302669925171091
10863032 1 18201715197905142031
10948715 1 18335414647748180815
10967382 1 18342179977332985986
11112241 14 16843020182133174432
11370993 70 18410570699665000100
11578080 2 16484423273374274178
12011746 2 18411703183661840092
12035758 1 18260837033416000705
12236239 1 17060619984468827141
12403259 415 18260546680467673365
12403814 3 18188490288788316933
12592029 89 18262230028216309883
12788726 201 17060343985659893561
12969540 114 18261656139413572567
13140716 1 17836375113060850314
13224815 77 17917146199837333448
13402501 40 18408321085868498725
13533116 47 17917710188835327680
14787075 74 18343013424242430471
14790565 3 18341900628197009529
15099037 51 18411135844399463653
15196674 1 18341049713222652798
15375358 24 18409448102456139272
15840311 113 17985002401586407265
16945 1 18199206137655018875
17349148 13 17989485195642388098
19591789 44 18410573976683238630
200 152 17918270948434633701
20645477 70 18273496745709985214
21033648 29 18337378409522433472
21267235 1 18271254841538145782
21521239 73 18201422702200657943
21521721 280 18413108386146360473
22182313 1 18335436672388363243
23227448 37 18339077210831978294
23557571 272 17894631418103959181
23559900 14 18200591523034478272
238 59 17903883735489692821
2748010 2 18338246993706389134
335352 9 18412826876636059190
3380486 145 18266753556882096571
34934 24 18340762741167643354
350125 39 18410579465693465596
3524813 1 18334851688888554501
3680242 22 18265612091871471994
495365 180 17560224938552342200
5104073 3 18412265077132707858
59755656 215 18412267225259667214
9709674 26 18340772662500282374

> <PUBCHEM_SHAPE_MULTIPOLES>
493.98
9.65
2.65
1.09
0.62
0.95
-0.14
-2.4
1.33
1.01
0.02
-0.8
-0.11
1.2

> <PUBCHEM_SHAPE_SELFOVERLAP>
1113.28

> <PUBCHEM_SHAPE_VOLUME>
254.3

> <PUBCHEM_COORDINATE_TYPE>
2
5
10

$$$$
