REMARK  Name = 102293494
REMARK  7 active torsions:
REMARK  status: ('A' for Active; 'I' for Inactive)
REMARK    1  A    between atoms: N_2  and  C_34
REMARK    2  A    between atoms: C_5  and  O_22
REMARK    3  A    between atoms: C_8  and  O_24
REMARK    4  A    between atoms: C_10  and  O_26
REMARK    5  A    between atoms: C_13  and  O_28
REMARK    6  A    between atoms: C_14  and  O_30
REMARK    7  A    between atoms: C_16  and  O_32
REMARK                            x       y       z     vdW  Elec       q    Type
REMARK                         _______ _______ _______ _____ _____    ______ ____
ROOT
ATOM      1  O   UNL     1       3.377  -1.890   1.644  0.00  0.00    -0.296 OA
ATOM      2  N   UNL     1       2.527   1.333  -0.162  0.00  0.00    +0.390 N 
ATOM      3  C   UNL     1       0.857  -0.620  -0.802  0.00  0.00    +0.019 C 
ATOM      4  C   UNL     1      -0.694  -1.010  -1.020  0.00  0.00    +0.006 C 
ATOM      5  C   UNL     1       0.253   1.009   0.881  0.00  0.00    +0.119 C 
ATOM      6  C   UNL     1       1.142   0.896  -0.467  0.00  0.00    -0.025 C 
ATOM      7  C   UNL     1      -1.473  -0.715   0.224  0.00  0.00    +0.054 C 
ATOM      8  C   UNL     1      -1.227   0.836   0.447  0.00  0.00    +0.115 C 
ATOM      9  C   UNL     1       1.310  -1.226   0.598  0.00  0.00    +0.087 C 
ATOM     10  C   UNL     1       0.923  -0.142   1.680  0.00  0.00    +0.147 C 
ATOM     11  C   UNL     1      -3.147  -0.210  -1.234  0.00  0.00    +0.055 C 
ATOM     12  C   UNL     1      -1.735  -0.395  -2.046  0.00  0.00    +0.005 C 
ATOM     13  C   UNL     1      -2.906  -1.170  -0.102  0.00  0.00    +0.120 C 
ATOM     14  C   UNL     1       1.595  -1.170  -2.044  0.00  0.00    +0.109 C 
ATOM     15  C   UNL     1      -2.575   1.362   0.885  0.00  0.00    +0.059 C 
ATOM     16  C   UNL     1      -3.504   1.124  -0.426  0.00  0.00    +0.120 C 
ATOM     17  C   UNL     1       3.616  -0.957  -0.555  0.00  0.00    +0.039 C 
ATOM     18  C   UNL     1       2.822  -1.416   0.653  0.00  0.00    +0.150 C 
ATOM     19  C   UNL     1       3.017  -1.641  -1.773  0.00  0.00    +0.034 C 
ATOM     20  C   UNL     1       3.648   0.567  -0.707  0.00  0.00    -0.070 C 
ATOM     21  H   UNL     1       2.569   1.128   0.837  0.00  0.00    -0.079 HD
ENDROOT
BRANCH   5  22
ATOM     22  O   UNL     1       0.403   2.245   1.553  0.00  0.00    -0.384 OA
ATOM     23  H   UNL     1      -0.022   2.948   1.037  0.00  0.00    +0.210 HD
ENDBRANCH   5  22
BRANCH   8  24
ATOM     24  O   UNL     1      -1.195   1.848  -0.625  0.00  0.00    -0.384 OA
ATOM     25  H   UNL     1      -0.372   1.758  -1.130  0.00  0.00    +0.210 HD
ENDBRANCH   8  24
BRANCH  10  26
ATOM     26  O   UNL     1       0.126  -0.662   2.727  0.00  0.00    -0.351 OA
ATOM     27  C   UNL     1       0.909  -1.353   3.693  0.00  0.00    +0.174 C 
ENDBRANCH  10  26
BRANCH  13  28
ATOM     28  O   UNL     1      -2.979  -2.520  -0.536  0.00  0.00    -0.353 OA
ATOM     29  C   UNL     1      -3.210  -3.406   0.552  0.00  0.00    +0.174 C 
ENDBRANCH  13  28
BRANCH  14  30
ATOM     30  O   UNL     1       1.627  -0.189  -3.081  0.00  0.00    -0.385 OA
ATOM     31  H   UNL     1       0.726   0.119  -3.263  0.00  0.00    +0.210 HD
ENDBRANCH  14  30
BRANCH  16  32
ATOM     32  O   UNL     1      -4.859   1.070   0.025  0.00  0.00    -0.353 OA
ATOM     33  C   UNL     1      -5.380   2.371   0.243  0.00  0.00    +0.174 C 
ENDBRANCH  16  32
BRANCH   2  34
ATOM     34  C   UNL     1       2.725   2.762  -0.431  0.00  0.00    -0.077 C 
ATOM     35  C   UNL     1       4.008   3.268   0.205  0.00  0.00    -0.025 C 
ENDBRANCH   2  34
TORSDOF 7
