102212
  -OEChem-03292013323D

 32 33  0     1  0  0  0  0  0999 V2000
   -1.1221   -0.9830    1.0660 O   0  0  0  0  0  0  0  0  0  0  0  0
   -1.3776    2.1979   -0.5699 O   0  0  0  0  0  0  0  0  0  0  0  0
   -3.3828    0.9700    0.8121 O   0  0  0  0  0  0  0  0  0  0  0  0
   -1.8777   -3.4520   -0.0297 O   0  0  0  0  0  0  0  0  0  0  0  0
    1.4842    2.1936    1.1140 O   0  0  0  0  0  0  0  0  0  0  0  0
    4.7237   -0.5882   -0.6217 O   0  0  0  0  0  0  0  0  0  0  0  0
    0.8352    0.0806    0.3571 N   0  0  0  0  0  0  0  0  0  0  0  0
    3.0958    0.8071    0.2486 N   0  0  0  0  0  0  0  0  0  0  0  0
   -1.3588    0.7874   -0.4913 C   0  0  2  0  0  0  0  0  0  0  0  0
   -2.7282    0.2094   -0.2029 C   0  0  1  0  0  0  0  0  0  0  0  0
   -0.5473    0.2785    0.6876 C   0  0  1  0  0  0  0  0  0  0  0  0
   -2.3826   -1.1534    0.3815 C   0  0  1  0  0  0  0  0  0  0  0  0
   -2.2056   -2.2347   -0.6761 C   0  0  0  0  0  0  0  0  0  0  0  0
    1.7758    1.1065    0.6109 C   0  0  0  0  0  0  0  0  0  0  0  0
    1.2478   -1.1187   -0.2119 C   0  0  0  0  0  0  0  0  0  0  0  0
   -2.2434    2.6593   -1.6021 C   0  0  0  0  0  0  0  0  0  0  0  0
    2.5097   -1.3893   -0.5519 C   0  0  0  0  0  0  0  0  0  0  0  0
    3.5539   -0.3711   -0.3204 C   0  0  0  0  0  0  0  0  0  0  0  0
   -0.9677    0.3775   -1.4321 H   0  0  0  0  0  0  0  0  0  0  0  0
   -3.3931    0.1605   -1.0694 H   0  0  0  0  0  0  0  0  0  0  0  0
   -0.6198    0.9572    1.5458 H   0  0  0  0  0  0  0  0  0  0  0  0
   -3.1086   -1.4815    1.1342 H   0  0  0  0  0  0  0  0  0  0  0  0
   -1.4163   -1.9993   -1.3941 H   0  0  0  0  0  0  0  0  0  0  0  0
   -3.1404   -2.3806   -1.2274 H   0  0  0  0  0  0  0  0  0  0  0  0
   -2.8590    0.9258    1.6291 H   0  0  0  0  0  0  0  0  0  0  0  0
    0.5012   -1.8785   -0.3873 H   0  0  0  0  0  0  0  0  0  0  0  0
   -3.2943    2.5384   -1.3263 H   0  0  0  0  0  0  0  0  0  0  0  0
   -2.0340    2.1526   -2.5495 H   0  0  0  0  0  0  0  0  0  0  0  0
   -2.0589    3.7287   -1.7392 H   0  0  0  0  0  0  0  0  0  0  0  0
   -1.7821   -4.1278   -0.7223 H   0  0  0  0  0  0  0  0  0  0  0  0
    3.7887    1.5300    0.4219 H   0  0  0  0  0  0  0  0  0  0  0  0
    2.7949   -2.3366   -0.9930 H   0  0  0  0  0  0  0  0  0  0  0  0
  1 11  1  0  0  0  0
  1 12  1  0  0  0  0
  2  9  1  0  0  0  0
  2 16  1  0  0  0  0
  3 10  1  0  0  0  0
  3 25  1  0  0  0  0
  4 13  1  0  0  0  0
  4 30  1  0  0  0  0
  5 14  2  0  0  0  0
  6 18  2  0  0  0  0
  7 11  1  0  0  0  0
  7 14  1  0  0  0  0
  7 15  1  0  0  0  0
  8 14  1  0  0  0  0
  8 18  1  0  0  0  0
  8 31  1  0  0  0  0
  9 10  1  0  0  0  0
  9 11  1  0  0  0  0
  9 19  1  0  0  0  0
 10 12  1  0  0  0  0
 10 20  1  0  0  0  0
 11 21  1  0  0  0  0
 12 13  1  0  0  0  0
 12 22  1  0  0  0  0
 13 23  1  0  0  0  0
 13 24  1  0  0  0  0
 15 17  2  0  0  0  0
 15 26  1  0  0  0  0
 16 27  1  0  0  0  0
 16 28  1  0  0  0  0
 16 29  1  0  0  0  0
 17 18  1  0  0  0  0
 17 32  1  0  0  0  0
M  END
> <PUBCHEM_COMPOUND_CID>
102212

> <PUBCHEM_CONFORMER_RMSD>
0.6

> <PUBCHEM_CONFORMER_DIVERSEORDER>
1
12
17
10
11
2
6
15
14
9
5
8
16
7
3
13
4

> <PUBCHEM_MMFF94_PARTIAL_CHARGES>
23
1 -0.56
10 0.28
11 0.58
12 0.28
13 0.28
14 0.69
15 -0.04
16 0.28
17 -0.14
18 0.62
2 -0.56
25 0.4
26 0.15
3 -0.68
30 0.4
31 0.37
32 0.15
4 -0.68
5 -0.57
6 -0.57
7 -0.47
8 -0.49
9 0.28

> <PUBCHEM_EFFECTIVE_ROTOR_COUNT>
4

> <PUBCHEM_PHARMACOPHORE_FEATURES>
11
1 1 acceptor
1 2 acceptor
1 3 acceptor
1 3 donor
1 4 acceptor
1 4 donor
1 5 acceptor
1 6 acceptor
1 8 donor
5 1 9 10 11 12 rings
6 7 8 14 15 17 18 rings

> <PUBCHEM_HEAVY_ATOM_COUNT>
18

> <PUBCHEM_ATOM_DEF_STEREO_COUNT>
4

> <PUBCHEM_ATOM_UDEF_STEREO_COUNT>
0

> <PUBCHEM_BOND_DEF_STEREO_COUNT>
0

> <PUBCHEM_BOND_UDEF_STEREO_COUNT>
0

> <PUBCHEM_ISOTOPIC_ATOM_COUNT>
0

> <PUBCHEM_COMPONENT_COUNT>
1

> <PUBCHEM_CACTVS_TAUTO_COUNT>
3

> <PUBCHEM_CONFORMER_ID>
00018F4400000001

> <PUBCHEM_MMFF94_ENERGY>
52.3807

> <PUBCHEM_FEATURE_SELFOVERLAP>
55.835

> <PUBCHEM_SHAPE_FINGERPRINT>
10608611 8 18410288112434619744
12138202 97 18263073327817297012
12500047 106 18263638481336848036
12670546 177 18269294481362655404
12932764 1 18261105262254400426
12969540 114 18115849859857913301
15219456 202 18342455988726343392
15490181 7 18190163621253396587
16945 1 18337376176186210681
19868273 325 18262797513797353813
200 152 17418089914461023982
20201158 50 18342742884020424578
20645477 56 18336829693221967068
21339142 51 18342459201699354284
21501502 16 18340207508890618832
21524375 3 17609199174828313613
221490 88 18198911507705495154
22802520 49 18411416258434908257
2334 1 18050003590860761979
23388829 49 17547569744199617813
23402539 116 17749106703655668894
23557571 272 18118949519874141529
23559900 14 18129091389284915424
238 59 17832956401072244149
25 1 17978785714595715477
2748010 2 18122617512086400251
2871803 45 18267857474798840439
3084891 72 17907002985674632168
559249 180 17898284997192209194
57210444 14 18048594815939326173
69090 78 18411698751630162719
81228 2 18262230157513461633
8809292 202 18412267246233629306

> <PUBCHEM_SHAPE_MULTIPOLES>
325.25
6.08
2.86
1.05
5.24
0.66
0.09
0.36
0.97
-2.39
0.65
-0.33
-0.45
0.98

> <PUBCHEM_SHAPE_SELFOVERLAP>
681.2

> <PUBCHEM_SHAPE_VOLUME>
184.3

> <PUBCHEM_COORDINATE_TYPE>
2
5
10

$$$$
