102231363
  -OEChem-03292013293D

 53 57  0     1  0  0  0  0  0999 V2000
    0.7499    0.9753    1.2261 O   0  0  0  0  0  0  0  0  0  0  0  0
   -1.9461    1.8624    1.3553 O   0  0  0  0  0  0  0  0  0  0  0  0
   -1.4992   -1.3498    2.9892 O   0  0  0  0  0  0  0  0  0  0  0  0
    0.0590   -3.0499    1.6151 O   0  0  0  0  0  0  0  0  0  0  0  0
   -3.9809   -2.0966   -1.8251 O   0  0  0  0  0  0  0  0  0  0  0  0
   -4.7619    0.1643   -2.1103 O   0  0  0  0  0  0  0  0  0  0  0  0
    4.3194   -2.5576   -1.0654 O   0  0  0  0  0  0  0  0  0  0  0  0
    4.7157    0.1708   -1.2420 O   0  0  0  0  0  0  0  0  0  0  0  0
   -0.8473   -0.8182    1.8346 C   0  0  2  0  0  0  0  0  0  0  0  0
   -0.1244    0.4661    2.2439 C   0  0  2  0  0  0  0  0  0  0  0  0
   -1.8943   -0.5284    0.7791 C   0  0  0  0  0  0  0  0  0  0  0  0
   -1.1630    1.5530    2.5132 C   0  0  0  0  0  0  0  0  0  0  0  0
    0.1905   -1.8456    1.4224 C   0  0  0  0  0  0  0  0  0  0  0  0
    1.3959   -1.3248    0.7502 C   0  0  0  0  0  0  0  0  0  0  0  0
   -2.3833    0.7907    0.6182 C   0  0  0  0  0  0  0  0  0  0  0  0
    1.5985    0.0527    0.6839 C   0  0  0  0  0  0  0  0  0  0  0  0
   -2.4228   -1.5541   -0.0259 C   0  0  0  0  0  0  0  0  0  0  0  0
    2.7091    0.5557    0.0032 C   0  0  0  0  0  0  0  0  0  0  0  0
   -3.3470    1.0924   -0.3529 C   0  0  0  0  0  0  0  0  0  0  0  0
   -3.3778   -1.2281   -0.9679 C   0  0  0  0  0  0  0  0  0  0  0  0
    2.3145   -2.2033    0.1675 C   0  0  0  0  0  0  0  0  0  0  0  0
   -3.8248    0.0599   -1.1295 C   0  0  0  0  0  0  0  0  0  0  0  0
    3.6257   -0.3174   -0.5832 C   0  0  0  0  0  0  0  0  0  0  0  0
    2.9292    2.0327   -0.0950 C   0  0  0  0  0  0  0  0  0  0  0  0
    3.4306   -1.6952   -0.4972 C   0  0  0  0  0  0  0  0  0  0  0  0
   -4.8561   -1.2068   -2.5472 C   0  0  0  0  0  0  0  0  0  0  0  0
    2.0082    2.6949   -1.0878 C   0  0  0  0  0  0  0  0  0  0  0  0
    1.1225    3.6848   -0.8655 C   0  0  0  0  0  0  0  0  0  0  0  0
    4.0761   -2.9407   -2.4175 C   0  0  0  0  0  0  0  0  0  0  0  0
    0.9529    4.2591    0.5162 C   0  0  0  0  0  0  0  0  0  0  0  0
    0.2314    4.3015   -1.9059 C   0  0  0  0  0  0  0  0  0  0  0  0
    0.4638    0.3135    3.1595 H   0  0  0  0  0  0  0  0  0  0  0  0
   -1.8379    1.2800    3.3330 H   0  0  0  0  0  0  0  0  0  0  0  0
   -0.6582    2.4822    2.7997 H   0  0  0  0  0  0  0  0  0  0  0  0
   -2.0984   -2.5836    0.0804 H   0  0  0  0  0  0  0  0  0  0  0  0
   -2.0902   -2.0690    2.7078 H   0  0  0  0  0  0  0  0  0  0  0  0
   -3.7108    2.1058   -0.4870 H   0  0  0  0  0  0  0  0  0  0  0  0
    2.1673   -3.2791    0.2161 H   0  0  0  0  0  0  0  0  0  0  0  0
    2.8612    2.4489    0.9134 H   0  0  0  0  0  0  0  0  0  0  0  0
    3.9570    2.2844   -0.3794 H   0  0  0  0  0  0  0  0  0  0  0  0
   -4.6034   -1.2539   -3.6127 H   0  0  0  0  0  0  0  0  0  0  0  0
   -5.8896   -1.5471   -2.4152 H   0  0  0  0  0  0  0  0  0  0  0  0
    2.0948    2.3235   -2.1087 H   0  0  0  0  0  0  0  0  0  0  0  0
    4.4584    0.9635   -1.7411 H   0  0  0  0  0  0  0  0  0  0  0  0
    4.8746   -3.6190   -2.7304 H   0  0  0  0  0  0  0  0  0  0  0  0
    4.0833   -2.0650   -3.0741 H   0  0  0  0  0  0  0  0  0  0  0  0
    3.1188   -3.4650   -2.5008 H   0  0  0  0  0  0  0  0  0  0  0  0
    0.4203    5.3771   -1.9812 H   0  0  0  0  0  0  0  0  0  0  0  0
    1.4006    3.6880    1.3282 H   0  0  0  0  0  0  0  0  0  0  0  0
   -0.1146    4.3297    0.7553 H   0  0  0  0  0  0  0  0  0  0  0  0
    0.4021    3.8615   -2.8938 H   0  0  0  0  0  0  0  0  0  0  0  0
   -0.8213    4.1465   -1.6483 H   0  0  0  0  0  0  0  0  0  0  0  0
    1.3695    5.2716    0.5484 H   0  0  0  0  0  0  0  0  0  0  0  0
  1 10  1  0  0  0  0
  1 16  1  0  0  0  0
  2 12  1  0  0  0  0
  2 15  1  0  0  0  0
  3  9  1  0  0  0  0
  3 36  1  0  0  0  0
  4 13  2  0  0  0  0
  5 20  1  0  0  0  0
  5 26  1  0  0  0  0
  6 22  1  0  0  0  0
  6 26  1  0  0  0  0
  7 25  1  0  0  0  0
  7 29  1  0  0  0  0
  8 23  1  0  0  0  0
  8 44  1  0  0  0  0
  9 10  1  0  0  0  0
  9 11  1  0  0  0  0
  9 13  1  0  0  0  0
 10 12  1  0  0  0  0
 10 32  1  0  0  0  0
 11 15  1  0  0  0  0
 11 17  2  0  0  0  0
 12 33  1  0  0  0  0
 12 34  1  0  0  0  0
 13 14  1  0  0  0  0
 14 16  1  0  0  0  0
 14 21  2  0  0  0  0
 15 19  2  0  0  0  0
 16 18  2  0  0  0  0
 17 20  1  0  0  0  0
 17 35  1  0  0  0  0
 18 23  1  0  0  0  0
 18 24  1  0  0  0  0
 19 22  1  0  0  0  0
 19 37  1  0  0  0  0
 20 22  2  0  0  0  0
 21 25  1  0  0  0  0
 21 38  1  0  0  0  0
 23 25  2  0  0  0  0
 24 27  1  0  0  0  0
 24 39  1  0  0  0  0
 24 40  1  0  0  0  0
 26 41  1  0  0  0  0
 26 42  1  0  0  0  0
 27 28  2  0  0  0  0
 27 43  1  0  0  0  0
 28 30  1  0  0  0  0
 28 31  1  0  0  0  0
 29 45  1  0  0  0  0
 29 46  1  0  0  0  0
 29 47  1  0  0  0  0
 30 49  1  0  0  0  0
 30 50  1  0  0  0  0
 30 53  1  0  0  0  0
 31 48  1  0  0  0  0
 31 51  1  0  0  0  0
 31 52  1  0  0  0  0
M  END
> <PUBCHEM_COMPOUND_CID>
102231363

> <PUBCHEM_CONFORMER_RMSD>
0.8

> <PUBCHEM_CONFORMER_DIVERSEORDER>
3
5
2
8
7
4
6
1

> <PUBCHEM_MMFF94_PARTIAL_CHARGES>
37
1 -0.36
10 0.28
11 -0.14
12 0.28
13 0.42
14 0.09
15 0.08
16 0.08
17 -0.15
18 -0.14
19 -0.15
2 -0.36
20 0.08
21 -0.15
22 0.08
23 0.08
24 0.28
25 0.08
26 0.56
27 -0.29
28 -0.28
29 0.28
3 -0.68
30 0.14
31 0.14
35 0.15
36 0.4
37 0.15
38 0.15
4 -0.57
43 0.15
44 0.45
5 -0.36
6 -0.36
7 -0.36
8 -0.53
9 0.48

> <PUBCHEM_EFFECTIVE_ROTOR_COUNT>
4.2

> <PUBCHEM_PHARMACOPHORE_FEATURES>
15
1 1 acceptor
1 2 acceptor
1 3 acceptor
1 3 donor
1 4 acceptor
1 5 acceptor
1 6 acceptor
1 7 acceptor
1 8 donor
3 28 30 31 hydrophobe
5 5 6 20 22 26 rings
6 1 9 10 13 14 16 rings
6 11 15 17 19 20 22 rings
6 14 16 18 21 23 25 rings
6 2 9 10 11 12 15 rings

> <PUBCHEM_HEAVY_ATOM_COUNT>
31

> <PUBCHEM_ATOM_DEF_STEREO_COUNT>
2

> <PUBCHEM_ATOM_UDEF_STEREO_COUNT>
0

> <PUBCHEM_BOND_DEF_STEREO_COUNT>
0

> <PUBCHEM_BOND_UDEF_STEREO_COUNT>
0

> <PUBCHEM_ISOTOPIC_ATOM_COUNT>
0

> <PUBCHEM_COMPONENT_COUNT>
1

> <PUBCHEM_CACTVS_TAUTO_COUNT>
4

> <PUBCHEM_CONFORMER_ID>
0617ED4300000003

> <PUBCHEM_MMFF94_ENERGY>
103.8774

> <PUBCHEM_FEATURE_SELFOVERLAP>
76.457

> <PUBCHEM_SHAPE_FINGERPRINT>
10165383 225 16517685480410594867
10930396 42 17829566800725658280
11285246 1 18412551980864275127
11370993 70 17757818297349377429
11477941 20 17545370373721850302
12156800 1 17467589799601279648
12160290 23 17686350767889101000
12788726 201 17972039146092528512
12892183 10 9511187390844546887
13583140 156 17097208574576856432
13911987 19 17696753637830446824
14289585 56 18046071454313653885
14468879 13 17173766546927394465
14537116 161 17610861688492848301
15210252 30 17531804649885859932
17349148 13 18413389860922845354
17909252 39 17774999132858898786
20775438 99 17836057333000588479
21304303 94 18053362578015663735
21857420 4 16529123648477517213
21860390 5 18335692901420370516
23419403 2 15324505787049835905
238 59 18192991745179404092
25222932 49 15695158642789917943
26353 1 18338234860439660964
3493558 16 13777182825550597854
35225 105 17394728372047407196
46194498 28 18192135196105462719
7808743 9 13768510655282954734

> <PUBCHEM_SHAPE_MULTIPOLES>
591.01
8.01
4.53
2.61
2.35
4.42
-0.29
-4.81
7.47
-3.49
1.7
1.73
-0.65
0

> <PUBCHEM_SHAPE_SELFOVERLAP>
1322.347

> <PUBCHEM_SHAPE_VOLUME>
311.7

> <PUBCHEM_COORDINATE_TYPE>
2
5
10

$$$$
