REMARK  Name = 102234583
REMARK  2 active torsions:
REMARK  status: ('A' for Active; 'I' for Inactive)
REMARK    1  A    between atoms: N_5  and  O_28
REMARK    2  A    between atoms: N_7  and  O_30
REMARK                            x       y       z     vdW  Elec       q    Type
REMARK                         _______ _______ _______ _____ _____    ______ ____
ROOT
ATOM      1  O   UNL     1      -0.926  -4.574  -0.661  0.00  0.00    -0.273 OA
ATOM      2  O   UNL     1      -2.744   3.055   0.591  0.00  0.00    -0.275 OA
ATOM      3  O   UNL     1       0.041   1.611   0.918  0.00  0.00    -0.273 OA
ATOM      4  O   UNL     1       3.619  -2.363   0.561  0.00  0.00    -0.275 OA
ATOM      5  N   UNL     1      -0.900  -2.724   0.697  0.00  0.00    -0.172 N 
ATOM      6  N   UNL     1      -3.532   1.488  -0.935  0.00  0.00    -0.304 N 
ATOM      7  N   UNL     1       1.776   3.070   0.603  0.00  0.00    -0.172 N 
ATOM      8  N   UNL     1       3.432  -0.948  -1.269  0.00  0.00    -0.304 N 
ATOM      9  C   UNL     1      -4.426  -1.269   0.482  0.00  0.00    +0.004 C 
ATOM     10  C   UNL     1      -2.934  -1.414   0.174  0.00  0.00    +0.024 C 
ATOM     11  C   UNL     1      -5.176  -0.291  -0.431  0.00  0.00    +0.021 C 
ATOM     12  C   UNL     1      -2.323  -2.570   0.966  0.00  0.00    +0.124 C 
ATOM     13  C   UNL     1      -4.779   1.175  -0.265  0.00  0.00    +0.089 C 
ATOM     14  C   UNL     1       3.318   1.147   0.950  0.00  0.00    +0.026 C 
ATOM     15  C   UNL     1       4.032   1.282  -0.399  0.00  0.00    +0.023 C 
ATOM     16  C   UNL     1       2.766   2.471   1.488  0.00  0.00    +0.124 C 
ATOM     17  C   UNL     1       4.534  -0.060  -0.934  0.00  0.00    +0.089 C 
ATOM     18  C   UNL     1       1.218  -3.730  -0.039  0.00  0.00    +0.097 C 
ATOM     19  C   UNL     1      -1.390   2.488  -1.337  0.00  0.00    +0.095 C 
ATOM     20  C   UNL     1      -0.252   3.321  -0.754  0.00  0.00    +0.097 C 
ATOM     21  C   UNL     1       1.793  -2.690  -0.998  0.00  0.00    +0.095 C 
ATOM     22  C   UNL     1      -0.302  -3.718  -0.031  0.00  0.00    +0.248 C 
ATOM     23  C   UNL     1      -2.612   2.399  -0.439  0.00  0.00    +0.223 C 
ATOM     24  C   UNL     1       0.528   2.575   0.324  0.00  0.00    +0.248 C 
ATOM     25  C   UNL     1       3.041  -2.007  -0.462  0.00  0.00    +0.223 C 
ATOM     26  H   UNL     1      -3.329   1.031  -1.783  0.00  0.00    +0.149 HD
ATOM     27  H   UNL     1       2.940  -0.790  -2.107  0.00  0.00    +0.149 HD
ENDROOT
BRANCH   5  28
ATOM     28  O   UNL     1      -0.108  -1.808   1.400  0.00  0.00    -0.292 OA
ATOM     29  H   UNL     1      -0.679  -1.174   1.861  0.00  0.00    +0.242 HD
ENDBRANCH   5  28
BRANCH   7  30
ATOM     30  O   UNL     1       2.308   4.086  -0.201  0.00  0.00    -0.292 OA
ATOM     31  H   UNL     1       3.191   4.325   0.122  0.00  0.00    +0.242 HD
ENDBRANCH   7  30
TORSDOF 2
