REMARK  Name = 102226338
REMARK  7 active torsions:
REMARK  status: ('A' for Active; 'I' for Inactive)
REMARK    1  A    between atoms: C_6  and  O_20
REMARK    2  A    between atoms: C_7  and  C_24
REMARK    3  A    between atoms: C_14  and  C_27
REMARK    4  A    between atoms: C_17  and  O_22
REMARK    5  A    between atoms: C_24  and  C_25
REMARK    6  A    between atoms: C_27  and  C_29
REMARK    7  A    between atoms: C_29  and  O_30
REMARK                            x       y       z     vdW  Elec       q    Type
REMARK                         _______ _______ _______ _____ _____    ______ ____
ROOT
ATOM      1  O   UNL     1       1.680  -0.919  -0.501  0.00  0.00    -0.353 OA
ATOM      2  O   UNL     1      -0.961  -1.613   2.015  0.00  0.00    -0.291 OA
ATOM      3  O   UNL     1       0.208   4.068   1.413  0.00  0.00    -0.296 OA
ATOM      4  C   UNL     1       0.099   0.340   0.896  0.00  0.00    +0.105 C 
ATOM      5  C   UNL     1      -0.401   0.884  -0.372  0.00  0.00    -0.009 C 
ATOM      6  C   UNL     1      -1.793   1.499  -0.131  0.00  0.00    +0.129 C 
ATOM      7  C   UNL     1       1.541  -0.200   0.731  0.00  0.00    +0.126 C 
ATOM      8  C   UNL     1       0.093   1.621   1.815  0.00  0.00    +0.078 C 
ATOM      9  C   UNL     1      -1.379   2.948  -0.100  0.00  0.00    +0.099 C 
ATOM     10  C   UNL     1      -1.008  -0.803   1.093  0.00  0.00    +0.181 C 
ATOM     11  C   UNL     1      -2.599   0.346  -0.582  0.00  0.00    +0.011 C 
ATOM     12  C   UNL     1       0.225   0.726  -1.552  0.00  0.00    -0.002 C 
ATOM     13  C   UNL     1      -0.292   2.998   1.065  0.00  0.00    +0.154 C 
ATOM     14  C   UNL     1       1.467  -0.110  -1.670  0.00  0.00    +0.148 C 
ATOM     15  C   UNL     1      -2.211  -0.875   0.097  0.00  0.00    +0.067 C 
ATOM     16  C   UNL     1      -3.646   0.352  -1.486  0.00  0.00    -0.001 C 
ATOM     17  C   UNL     1      -2.901  -2.055  -0.136  0.00  0.00    +0.136 C 
ATOM     18  C   UNL     1      -4.320  -0.849  -1.721  0.00  0.00    +0.003 C 
ATOM     19  C   UNL     1      -3.955  -2.033  -1.054  0.00  0.00    +0.037 C 
ENDROOT
BRANCH   6  20
ATOM     20  O   UNL     1      -2.408   1.474   1.214  0.00  0.00    -0.378 OA
ATOM     21  H   UNL     1      -2.029   2.184   1.756  0.00  0.00    +0.211 HD
ENDBRANCH   6  20
BRANCH  17  22
ATOM     22  O   UNL     1      -2.572  -3.224   0.472  0.00  0.00    -0.505 OA
ATOM     23  H   UNL     1      -1.867  -3.249   1.089  0.00  0.00    +0.292 HD
ENDBRANCH  17  22
BRANCH   7  24
ATOM     24  C   UNL     1       1.996  -1.112   1.864  0.00  0.00    +0.030 C 
BRANCH  24  25
ATOM     25  C   UNL     1       3.516  -1.243   1.896  0.00  0.00    +0.003 C 
ATOM     26  C   UNL     1       3.971  -2.131   3.043  0.00  0.00    +0.000 C 
ENDBRANCH  24  25
ENDBRANCH   7  24
BRANCH  14  27
ATOM     27  C   UNL     1       2.699   0.725  -1.998  0.00  0.00    +0.143 C 
BRANCH  27  29
ATOM     28  O   UNL     1       3.988  -1.288  -2.474  0.00  0.00    -0.250 OA
ATOM     29  C   UNL     1       3.937  -0.124  -2.107  0.00  0.00    +0.317 C 
BRANCH  29  30
ATOM     30  O   UNL     1       5.025   0.598  -1.732  0.00  0.00    -0.480 OA
ATOM     31  H   UNL     1       4.925   1.488  -1.459  0.00  0.00    +0.295 HD
ENDBRANCH  29  30
ENDBRANCH  27  29
ENDBRANCH  14  27
TORSDOF 7
