REMARK  Name = 10220554
REMARK  6 active torsions:
REMARK  status: ('A' for Active; 'I' for Inactive)
REMARK    1  A    between atoms: N_2  and  CA_12
REMARK    2  A    between atoms: C_3  and  CA_7
REMARK    3  A    between atoms: CA_12  and  C_14
REMARK    4  A    between atoms: CA_12  and  CB_17
REMARK    5  A    between atoms: C_14  and  O_15
REMARK    6  A    between atoms: CB_17  and  SG_18
REMARK                            x       y       z     vdW  Elec       q    Type
REMARK                         _______ _______ _______ _____ _____    ______ ____
ROOT
ATOM      1  O   UNL     1      -0.662   1.157  -1.190  0.00  0.00    -0.273 OA
ATOM      2  N   UNL     1       0.823   0.120   0.272  0.00  0.00    -0.295 N 
ATOM      3  C   ACE A   1      -0.413   0.605  -0.122  0.00  0.00    +0.241 C 
ATOM      4  H   UNL     1       0.899  -0.305   1.157  0.00  0.00    +0.150 HD
ENDROOT
BRANCH   3   7
ATOM      5  S   UNL     1      -4.996   0.151  -0.848  0.00  0.00    -0.040 S 
ATOM      6  N   UNL     1      -2.693   0.896   0.376  0.00  0.00    -0.325 N 
ATOM      7  CA  UNL     1      -1.470   0.363   0.907  0.00  0.00    +0.147 C 
ATOM      8  C   UNL     1      -1.772  -1.114   1.103  0.00  0.00    +0.035 C 
ATOM      9  C   UNL     1      -2.854  -1.423   0.066  0.00  0.00    +0.050 C 
ATOM     10  C   UNL     1      -3.526  -0.091  -0.124  0.00  0.00    +0.058 C 
ATOM     11  H   UNL     1      -2.915   1.855   0.368  0.00  0.00    +0.147 HD
ENDBRANCH   3   7
BRANCH   2  12
ATOM     12  CA  UNL     1       2.006   0.208  -0.552  0.00  0.00    +0.182 C 
BRANCH  12  14
ATOM     13  OXT UNL     1       3.911  -1.204  -1.057  0.00  0.00    -0.248 OA
ATOM     14  C   UNL     1       2.905  -1.006  -0.387  0.00  0.00    +0.333 C 
BRANCH  14  15
ATOM     15  O   UNL     1       2.475  -1.863   0.569  0.00  0.00    -0.479 OA
ATOM     16  H   UNL     1       1.699  -1.670   1.058  0.00  0.00    +0.295 HD
ENDBRANCH  14  15
ENDBRANCH  12  14
BRANCH  12  17
ATOM     17  CB  UNL     1       2.759   1.524  -0.335  0.00  0.00    +0.084 C 
BRANCH  17  18
ATOM     18  SG  UNL     1       3.506   1.678   1.321  0.00  0.00    -0.166 S 
ATOM     19  HG  UNL     1       4.149   2.872   1.418  0.00  0.00    +0.102 HD
ENDBRANCH  17  18
ENDBRANCH  12  17
ENDBRANCH   2  12
TORSDOF 6
