REMARK  Name = 102325298
REMARK  11 active torsions:
REMARK  status: ('A' for Active; 'I' for Inactive)
REMARK    1  A    between atoms: C_4  and  O_10
REMARK    2  A    between atoms: C_4  and  C_12
REMARK    3  A    between atoms: C_5  and  C_23
REMARK    4  A    between atoms: C_12  and  C_14
REMARK    5  A    between atoms: C_14  and  C_15
REMARK    6  A    between atoms: C_15  and  C_17
REMARK    7  A    between atoms: C_17  and  C_18
REMARK    8  A    between atoms: C_20  and  C_21
REMARK    9  A    between atoms: C_23  and  C_24
REMARK   10  A    between atoms: C_23  and  O_32
REMARK   11  A    between atoms: C_29  and  O_30
REMARK                            x       y       z     vdW  Elec       q    Type
REMARK                         _______ _______ _______ _____ _____    ______ ____
ROOT
ATOM      1  O   UNL     1       0.411  -2.180  -0.989  0.00  0.00    -0.289 OA
ATOM      2  O   UNL     1       0.487   2.528  -0.838  0.00  0.00    -0.270 OA
ATOM      3  N   UNL     1       2.133   0.844  -0.867  0.00  0.00    -0.294 N 
ATOM      4  C   UNL     1      -1.368   0.194  -0.941  0.00  0.00    +0.118 C 
ATOM      5  C   UNL     1       2.273  -0.610  -0.921  0.00  0.00    +0.166 C 
ATOM      6  C   UNL     1      -0.028   0.178  -0.922  0.00  0.00    +0.119 C 
ATOM      7  C   UNL     1       0.821  -1.032  -0.951  0.00  0.00    +0.200 C 
ATOM      8  C   UNL     1       0.842   1.365  -0.869  0.00  0.00    +0.252 C 
ATOM      9  H   UNL     1       2.921   1.432  -0.830  0.00  0.00    +0.150 HD
ENDROOT
BRANCH   4  10
ATOM     10  O   UNL     1      -2.107  -0.974  -0.989  0.00  0.00    -0.510 OA
ATOM     11  H   UNL     1      -3.043  -0.936  -1.001  0.00  0.00    +0.292 HD
ENDBRANCH   4  10
BRANCH   4  12
ATOM     12  C   UNL     1      -2.182   1.473  -0.909  0.00  0.00    +0.057 C 
ATOM     13  C   UNL     1      -2.384   2.007  -2.330  0.00  0.00    +0.008 C 
BRANCH  12  14
ATOM     14  C   UNL     1      -3.521   1.234  -0.175  0.00  0.00    +0.008 C 
BRANCH  14  15
ATOM     15  C   UNL     1      -3.414   0.828   1.314  0.00  0.00    +0.004 C 
ATOM     16  C   UNL     1      -2.649   1.870   2.138  0.00  0.00    +0.000 C 
BRANCH  15  17
ATOM     17  C   UNL     1      -4.816   0.626   1.943  0.00  0.00    +0.022 C 
BRANCH  17  18
ATOM     18  C   UNL     1      -5.668  -0.444   1.283  0.00  0.00    -0.048 C 
ATOM     19  C   UNL     1      -5.055  -1.817   1.240  0.00  0.00    +0.026 C 
ATOM     20  C   UNL     1      -6.886  -0.129   0.801  0.00  0.00    -0.035 C 
BRANCH  20  21
ATOM     21  C   UNL     1      -7.885  -1.031   0.134  0.00  0.00    +0.025 C 
ATOM     22  C   UNL     1      -7.674  -1.063  -1.371  0.00  0.00    +0.005 C 
ENDBRANCH  20  21
ENDBRANCH  17  18
ENDBRANCH  15  17
ENDBRANCH  14  15
ENDBRANCH  12  14
ENDBRANCH   4  12
BRANCH   5  23
ATOM     23  C   UNL     1       2.999  -1.155   0.291  0.00  0.00    +0.158 C 
BRANCH  23  24
ATOM     24  C   UNL     1       4.416  -0.634   0.400  0.00  0.00    +0.007 C 
ATOM     25  C   UNL     1       5.317  -0.843  -0.644  0.00  0.00    +0.001 C 
ATOM     26  C   UNL     1       4.821   0.055   1.543  0.00  0.00    +0.001 C 
ATOM     27  C   UNL     1       6.623  -0.363  -0.544  0.00  0.00    +0.036 C 
ATOM     28  C   UNL     1       6.127   0.535   1.643  0.00  0.00    +0.036 C 
ATOM     29  C   UNL     1       7.028   0.326   0.599  0.00  0.00    +0.134 C 
BRANCH  29  30
ATOM     30  O   UNL     1       8.302   0.794   0.697  0.00  0.00    -0.506 OA
ATOM     31  H   UNL     1       8.908   0.653  -0.005  0.00  0.00    +0.292 HD
ENDBRANCH  29  30
ENDBRANCH  23  24
BRANCH  23  32
ATOM     32  O   UNL     1       3.035  -2.583   0.234  0.00  0.00    -0.378 OA
ATOM     33  H   UNL     1       2.131  -2.927   0.164  0.00  0.00    +0.211 HD
ENDBRANCH  23  32
ENDBRANCH   5  23
TORSDOF 11
