REMARK  Name = 102345055
REMARK  5 active torsions:
REMARK  status: ('A' for Active; 'I' for Inactive)
REMARK    1  A    between atoms: C_1  and  O_26
REMARK    2  A    between atoms: C_15  and  O_22
REMARK    3  A    between atoms: C_17  and  O_20
REMARK    4  A    between atoms: C_18  and  O_24
REMARK    5  A    between atoms: O_26  and  S_27
REMARK                            x       y       z     vdW  Elec       q    Type
REMARK                         _______ _______ _______ _____ _____    ______ ____
ROOT
ATOM      1  C   UNL     1      -2.348   0.579   0.673  0.00  0.00    +0.148 C 
ATOM      2  C   UNL     1      -1.793   1.996   0.937  0.00  0.00    +0.032 C 
ATOM      3  C   UNL     1      -2.239  -0.338   1.920  0.00  0.00    +0.037 C 
ATOM      4  C   UNL     1      -1.746   2.875  -0.328  0.00  0.00    +0.003 C 
ATOM      5  C   UNL     1      -0.736   4.040  -0.221  0.00  0.00    +0.005 C 
ATOM      6  C   UNL     1      -1.688  -1.763   1.628  0.00  0.00    +0.029 C 
ATOM      7  C   UNL     1       0.522   3.918  -1.114  0.00  0.00    +0.026 C 
ATOM      8  C   UNL     1      -0.310  -1.847   1.004  0.00  0.00    -0.019 C 
ATOM      9  C   UNL     1       1.582   2.968  -0.612  0.00  0.00    -0.022 C 
ATOM     10  C   UNL     1       1.693  -0.677   0.217  0.00  0.00    +0.039 C 
ATOM     11  C   UNL     1       0.566  -0.766   1.054  0.00  0.00    -0.001 C 
ATOM     12  C   UNL     1       2.220   0.671  -0.013  0.00  0.00    +0.036 C 
ATOM     13  C   UNL     1       1.340   1.596  -0.614  0.00  0.00    -0.001 C 
ATOM     14  C   UNL     1       0.098  -2.976   0.289  0.00  0.00    +0.036 C 
ATOM     15  C   UNL     1       2.084  -1.807  -0.496  0.00  0.00    +0.168 C 
ATOM     16  C   UNL     1       2.809   3.411  -0.111  0.00  0.00    -0.001 C 
ATOM     17  C   UNL     1       1.303  -2.966  -0.428  0.00  0.00    +0.172 C 
ATOM     18  C   UNL     1       3.443   1.130   0.470  0.00  0.00    +0.134 C 
ATOM     19  C   UNL     1       3.740   2.495   0.403  0.00  0.00    +0.036 C 
ENDROOT
BRANCH  17  20
ATOM     20  O   UNL     1       1.667  -4.082  -1.124  0.00  0.00    -0.468 OA
ATOM     21  C   UNL     1       2.520  -5.009  -0.458  0.00  0.00    +0.253 C 
ENDBRANCH  17  20
BRANCH  15  22
ATOM     22  O   UNL     1       3.180  -1.775  -1.306  0.00  0.00    -0.503 OA
ATOM     23  H   UNL     1       3.705  -1.001  -1.354  0.00  0.00    +0.292 HD
ENDBRANCH  15  22
BRANCH  18  24
ATOM     24  O   UNL     1       4.333   0.284   1.059  0.00  0.00    -0.506 OA
ATOM     25  H   UNL     1       4.145  -0.632   1.110  0.00  0.00    +0.292 HD
ENDBRANCH  18  24
BRANCH   1  26
ATOM     26  O   UNL     1      -3.719   0.694   0.295  0.00  0.00    -0.203 OA
BRANCH  26  27
ATOM     27  S   UNL     1      -4.421  -0.503  -0.563  0.00  0.00    +0.239 S 
ATOM     28  O   UNL     1      -5.616   0.256  -1.374  0.00  0.00    -0.116 OA
ATOM     29  O   UNL     1      -3.451  -0.960  -1.541  0.00  0.00    -0.116 OA
ATOM     30  O   UNL     1      -5.033  -1.447   0.353  0.00  0.00    -0.022 OA
ENDBRANCH  26  27
ENDBRANCH   1  26
TORSDOF 5
