REMARK  Name = 102302608
REMARK  8 active torsions:
REMARK  status: ('A' for Active; 'I' for Inactive)
REMARK    1  A    between atoms: C_14  and  C_20
REMARK    2  A    between atoms: C_20  and  O_21
REMARK    3  A    between atoms: C_20  and  C_34
REMARK    4  A    between atoms: O_21  and  C_23
REMARK    5  A    between atoms: C_24  and  O_28
REMARK    6  A    between atoms: C_25  and  O_30
REMARK    7  A    between atoms: C_26  and  O_32
REMARK    8  A    between atoms: C_34  and  O_35
REMARK                            x       y       z     vdW  Elec       q    Type
REMARK                         _______ _______ _______ _____ _____    ______ ____
ROOT
ATOM      1  O   UNL     1      -0.470  -1.786  -1.080  0.00  0.00    -0.361 OA
ATOM      2  C   UNL     1      -3.065   0.810   0.172  0.00  0.00    +0.002 C 
ATOM      3  C   UNL     1      -4.288  -0.115  -0.169  0.00  0.00    +0.000 C 
ATOM      4  C   UNL     1      -1.785   0.192  -0.509  0.00  0.00    +0.025 C 
ATOM      5  C   UNL     1      -1.490  -1.297  -0.181  0.00  0.00    +0.093 C 
ATOM      6  C   UNL     1      -5.683   0.409   0.344  0.00  0.00    +0.000 C 
ATOM      7  C   UNL     1      -4.023  -1.600   0.155  0.00  0.00    +0.002 C 
ATOM      8  C   UNL     1      -3.330   2.223  -0.448  0.00  0.00    +0.000 C 
ATOM      9  C   UNL     1      -2.751  -2.121  -0.518  0.00  0.00    +0.027 C 
ATOM     10  C   UNL     1      -0.493   1.019  -0.397  0.00  0.00    +0.005 C 
ATOM     11  C   UNL     1      -5.723   1.959   0.382  0.00  0.00    +0.000 C 
ATOM     12  C   UNL     1      -4.803   2.590  -0.650  0.00  0.00    +0.000 C 
ATOM     13  C   UNL     1      -2.854   0.994   1.691  0.00  0.00    +0.000 C 
ATOM     14  C   UNL     1       0.757  -1.055  -1.224  0.00  0.00    +0.120 C 
ATOM     15  C   UNL     1       0.533   0.459  -1.380  0.00  0.00    +0.030 C 
ATOM     16  C   UNL     1      -1.071  -1.625   1.263  0.00  0.00    +0.030 C 
ATOM     17  C   UNL     1      -6.781  -0.076  -0.638  0.00  0.00    +0.000 C 
ATOM     18  C   UNL     1      -6.075  -0.122   1.738  0.00  0.00    +0.000 C 
ATOM     19  C   UNL     1       1.383  -1.597  -2.522  0.00  0.00    +0.032 C 
ENDROOT
BRANCH  14  20
ATOM     20  C   UNL     1       1.741  -1.362  -0.086  0.00  0.00    +0.172 C 
BRANCH  20  21
ATOM     21  O   UNL     1       2.966  -0.693  -0.361  0.00  0.00    -0.326 OA
BRANCH  21  23
ATOM     22  O   UNL     1       3.209   0.970   1.307  0.00  0.00    -0.326 OA
ATOM     23  C   UNL     1       3.635  -0.314   0.838  0.00  0.00    +0.266 C 
ATOM     24  C   UNL     1       5.155  -0.363   0.625  0.00  0.00    +0.196 C 
ATOM     25  C   UNL     1       5.658   0.809  -0.225  0.00  0.00    +0.172 C 
ATOM     26  C   UNL     1       5.095   2.127   0.311  0.00  0.00    +0.169 C 
ATOM     27  C   UNL     1       3.580   2.047   0.449  0.00  0.00    +0.176 C 
BRANCH  24  28
ATOM     28  O   UNL     1       5.782  -0.320   1.906  0.00  0.00    -0.378 OA
ATOM     29  H   UNL     1       5.465  -1.061   2.446  0.00  0.00    +0.211 HD
ENDBRANCH  24  28
BRANCH  25  30
ATOM     30  O   UNL     1       5.237   0.633  -1.577  0.00  0.00    -0.379 OA
ATOM     31  H   UNL     1       5.593  -0.202  -1.920  0.00  0.00    +0.211 HD
ENDBRANCH  25  30
BRANCH  26  32
ATOM     32  O   UNL     1       5.458   3.194  -0.554  0.00  0.00    -0.379 OA
ATOM     33  H   UNL     1       6.424   3.232  -0.633  0.00  0.00    +0.211 HD
ENDBRANCH  26  32
ENDBRANCH  21  23
ENDBRANCH  20  21
BRANCH  20  34
ATOM     34  C   UNL     1       2.009  -2.853   0.014  0.00  0.00    +0.169 C 
BRANCH  34  35
ATOM     35  O   UNL     1       2.489  -3.138   1.323  0.00  0.00    -0.379 OA
ATOM     36  H   UNL     1       2.665  -4.089   1.403  0.00  0.00    +0.211 HD
ENDBRANCH  34  35
ENDBRANCH  20  34
ENDBRANCH  14  20
TORSDOF 8
