REMARK  Name = 102314453
REMARK  5 active torsions:
REMARK  status: ('A' for Active; 'I' for Inactive)
REMARK    1  A    between atoms: C_6  and  C_28
REMARK    2  A    between atoms: C_19  and  O_24
REMARK    3  A    between atoms: C_21  and  O_26
REMARK    4  A    between atoms: C_29  and  C_31
REMARK    5  A    between atoms: C_31  and  O_32
REMARK                            x       y       z     vdW  Elec       q    Type
REMARK                         _______ _______ _______ _____ _____    ______ ____
ROOT
ATOM      1  O   UNL     1      -1.782  -2.523  -1.546  0.00  0.00    -0.327 OA
ATOM      2  O   UNL     1      -0.969  -2.038   0.621  0.00  0.00    -0.458 OA
ATOM      3  O   UNL     1      -0.312   1.461  -1.704  0.00  0.00    -0.444 OA
ATOM      4  O   UNL     1       1.105   3.021  -2.529  0.00  0.00    -0.245 OA
ATOM      5  C   UNL     1      -1.954  -1.686  -0.376  0.00  0.00    +0.236 C 
ATOM      6  C   UNL     1      -1.885  -0.200  -0.806  0.00  0.00    +0.131 C 
ATOM      7  C   UNL     1      -3.323  -2.085   0.182  0.00  0.00    +0.073 C 
ATOM      8  C   UNL     1      -0.469   0.078  -1.332  0.00  0.00    +0.204 C 
ATOM      9  C   UNL     1      -3.366  -3.565  -0.122  0.00  0.00    +0.036 C 
ATOM     10  C   UNL     1      -2.716  -3.614  -1.492  0.00  0.00    +0.119 C 
ATOM     11  C   UNL     1       0.543  -0.388  -0.339  0.00  0.00    +0.052 C 
ATOM     12  C   UNL     1       0.265  -1.457   0.516  0.00  0.00    +0.143 C 
ATOM     13  C   UNL     1       1.798   0.221  -0.336  0.00  0.00    +0.014 C 
ATOM     14  C   UNL     1      -1.994  -4.918  -1.770  0.00  0.00    +0.032 C 
ATOM     15  C   UNL     1       2.824  -0.298   0.484  0.00  0.00    +0.030 C 
ATOM     16  C   UNL     1       2.034   1.347  -1.133  0.00  0.00    +0.109 C 
ATOM     17  C   UNL     1       1.263  -1.949   1.354  0.00  0.00    +0.074 C 
ATOM     18  C   UNL     1       0.925   2.004  -1.872  0.00  0.00    +0.344 C 
ATOM     19  C   UNL     1       2.541  -1.387   1.324  0.00  0.00    +0.141 C 
ATOM     20  C   UNL     1       4.095   0.296   0.441  0.00  0.00    -0.016 C 
ATOM     21  C   UNL     1       3.307   1.926  -1.165  0.00  0.00    +0.140 C 
ATOM     22  C   UNL     1       4.335   1.394  -0.387  0.00  0.00    +0.033 C 
ATOM     23  C   UNL     1       5.262  -0.179   1.249  0.00  0.00    +0.031 C 
ENDROOT
BRANCH  19  24
ATOM     24  O   UNL     1       3.467  -1.943   2.159  0.00  0.00    -0.471 OA
ATOM     25  C   UNL     1       3.554  -1.403   3.475  0.00  0.00    +0.252 C 
ENDBRANCH  19  24
BRANCH  21  26
ATOM     26  O   UNL     1       3.603   3.017  -1.928  0.00  0.00    -0.505 OA
ATOM     27  H   UNL     1       2.941   3.406  -2.465  0.00  0.00    +0.292 HD
ENDBRANCH  21  26
BRANCH   6  28
ATOM     28  C   UNL     1      -2.284   0.750   0.291  0.00  0.00    -0.010 C 
ATOM     29  C   UNL     1      -3.311   1.604   0.188  0.00  0.00    +0.078 C 
BRANCH  29  31
ATOM     30  O   UNL     1      -3.040   2.555   2.377  0.00  0.00    -0.245 OA
ATOM     31  C   UNL     1      -3.637   2.506   1.314  0.00  0.00    +0.341 C 
BRANCH  31  32
ATOM     32  O   UNL     1      -4.710   3.256   0.943  0.00  0.00    -0.441 OA
ATOM     33  C   UNL     1      -5.170   4.196   1.919  0.00  0.00    +0.256 C 
ENDBRANCH  31  32
ENDBRANCH  29  31
ENDBRANCH   6  28
TORSDOF 5
