102368938
  -OEChem-03292013293D

 52 53  0     1  0  0  0  0  0999 V2000
    5.3201    0.1155    1.0149 O   0  0  0  0  0  0  0  0  0  0  0  0
    2.4578   -0.8622    1.3898 O   0  0  0  0  0  0  0  0  0  0  0  0
    3.8578   -2.9857   -1.1817 O   0  0  0  0  0  0  0  0  0  0  0  0
   -0.2917    1.9978   -0.3071 O   0  0  0  0  0  0  0  0  0  0  0  0
    0.1498    0.9889    1.7342 O   0  0  0  0  0  0  0  0  0  0  0  0
   -2.9680    2.4159    0.2230 O   0  0  0  0  0  0  0  0  0  0  0  0
   -5.2343   -1.7196   -0.3405 O   0  0  0  0  0  0  0  0  0  0  0  0
    4.3149   -0.1140    0.0155 C   0  0  2  0  0  0  0  0  0  0  0  0
    3.5762    1.2291   -0.1388 C   0  0  0  0  0  0  0  0  0  0  0  0
    3.4559   -1.3120    0.4819 C   0  0  2  0  0  0  0  0  0  0  0  0
    2.4993    1.2542   -1.2232 C   0  0  0  0  0  0  0  0  0  0  0  0
    2.8412   -2.1031   -0.6918 C   0  0  2  0  0  0  0  0  0  0  0  0
    1.8106    2.6198   -1.3491 C   0  0  0  0  0  0  0  0  0  0  0  0
    0.8214    2.9167   -0.2123 C   0  0  1  0  0  0  0  0  0  0  0  0
    1.5982   -2.9306   -0.3236 C   0  0  0  0  0  0  0  0  0  0  0  0
    0.2461    4.3222   -0.3496 C   0  0  0  0  0  0  0  0  0  0  0  0
    0.3337   -2.1243   -0.4348 C   0  0  0  0  0  0  0  0  0  0  0  0
   -0.4797   -1.8407    0.5928 C   0  0  0  0  0  0  0  0  0  0  0  0
   -1.7000   -1.0509    0.3989 C   0  0  0  0  0  0  0  0  0  0  0  0
   -1.7176    0.3548    0.4101 C   0  0  0  0  0  0  0  0  0  0  0  0
   -0.5076    1.1388    0.7195 C   0  0  0  0  0  0  0  0  0  0  0  0
   -2.9092    1.0541    0.1754 C   0  0  0  0  0  0  0  0  0  0  0  0
   -2.8964   -1.7372    0.1422 C   0  0  0  0  0  0  0  0  0  0  0  0
   -4.0819   -1.0380   -0.0939 C   0  0  0  0  0  0  0  0  0  0  0  0
   -4.0877    0.3549   -0.0784 C   0  0  0  0  0  0  0  0  0  0  0  0
   -6.4092   -0.9446   -0.5735 C   0  0  0  0  0  0  0  0  0  0  0  0
    4.8487   -0.3695   -0.9069 H   0  0  0  0  0  0  0  0  0  0  0  0
    4.3186    2.0062   -0.3670 H   0  0  0  0  0  0  0  0  0  0  0  0
    3.1558    1.5265    0.8290 H   0  0  0  0  0  0  0  0  0  0  0  0
    4.0986   -1.9978    1.0502 H   0  0  0  0  0  0  0  0  0  0  0  0
    2.9667    1.0111   -2.1851 H   0  0  0  0  0  0  0  0  0  0  0  0
    1.7401    0.4930   -1.0330 H   0  0  0  0  0  0  0  0  0  0  0  0
    2.6026   -1.4385   -1.5268 H   0  0  0  0  0  0  0  0  0  0  0  0
    2.5692    3.4093   -1.4079 H   0  0  0  0  0  0  0  0  0  0  0  0
    1.2629    2.6242   -2.3005 H   0  0  0  0  0  0  0  0  0  0  0  0
    1.3185    2.8423    0.7606 H   0  0  0  0  0  0  0  0  0  0  0  0
    1.7145   -3.3686    0.6755 H   0  0  0  0  0  0  0  0  0  0  0  0
    1.5047   -3.7843   -1.0070 H   0  0  0  0  0  0  0  0  0  0  0  0
    5.9250    0.7961    0.6733 H   0  0  0  0  0  0  0  0  0  0  0  0
   -0.2915    4.4368   -1.2974 H   0  0  0  0  0  0  0  0  0  0  0  0
    1.0327    5.0810   -0.2969 H   0  0  0  0  0  0  0  0  0  0  0  0
   -0.4790    4.5157    0.4484 H   0  0  0  0  0  0  0  0  0  0  0  0
    2.9118   -0.4441    2.1412 H   0  0  0  0  0  0  0  0  0  0  0  0
    0.0844   -1.7641   -1.4313 H   0  0  0  0  0  0  0  0  0  0  0  0
    3.5045   -3.4308   -1.9708 H   0  0  0  0  0  0  0  0  0  0  0  0
   -0.2718   -2.1868    1.5997 H   0  0  0  0  0  0  0  0  0  0  0  0
   -2.9103   -2.8255    0.1197 H   0  0  0  0  0  0  0  0  0  0  0  0
   -4.9837    0.9422   -0.2497 H   0  0  0  0  0  0  0  0  0  0  0  0
   -3.8767    2.7097    0.0407 H   0  0  0  0  0  0  0  0  0  0  0  0
   -7.2291   -1.6479   -0.7530 H   0  0  0  0  0  0  0  0  0  0  0  0
   -6.3144   -0.3296   -1.4750 H   0  0  0  0  0  0  0  0  0  0  0  0
   -6.6837   -0.3539    0.3071 H   0  0  0  0  0  0  0  0  0  0  0  0
  1  8  1  0  0  0  0
  1 39  1  0  0  0  0
  2 10  1  0  0  0  0
  2 43  1  0  0  0  0
  3 12  1  0  0  0  0
  3 45  1  0  0  0  0
  4 14  1  0  0  0  0
  4 21  1  0  0  0  0
  5 21  2  0  0  0  0
  6 22  1  0  0  0  0
  6 49  1  0  0  0  0
  7 24  1  0  0  0  0
  7 26  1  0  0  0  0
  8  9  1  0  0  0  0
  8 10  1  0  0  0  0
  8 27  1  0  0  0  0
  9 11  1  0  0  0  0
  9 28  1  0  0  0  0
  9 29  1  0  0  0  0
 10 12  1  0  0  0  0
 10 30  1  0  0  0  0
 11 13  1  0  0  0  0
 11 31  1  0  0  0  0
 11 32  1  0  0  0  0
 12 15  1  0  0  0  0
 12 33  1  0  0  0  0
 13 14  1  0  0  0  0
 13 34  1  0  0  0  0
 13 35  1  0  0  0  0
 14 16  1  0  0  0  0
 14 36  1  0  0  0  0
 15 17  1  0  0  0  0
 15 37  1  0  0  0  0
 15 38  1  0  0  0  0
 16 40  1  0  0  0  0
 16 41  1  0  0  0  0
 16 42  1  0  0  0  0
 17 18  2  0  0  0  0
 17 44  1  0  0  0  0
 18 19  1  0  0  0  0
 18 46  1  0  0  0  0
 19 20  2  0  0  0  0
 19 23  1  0  0  0  0
 20 21  1  0  0  0  0
 20 22  1  0  0  0  0
 22 25  2  0  0  0  0
 23 24  2  0  0  0  0
 23 47  1  0  0  0  0
 24 25  1  0  0  0  0
 25 48  1  0  0  0  0
 26 50  1  0  0  0  0
 26 51  1  0  0  0  0
 26 52  1  0  0  0  0
M  END
> <PUBCHEM_COMPOUND_CID>
102368938

> <PUBCHEM_CONFORMER_RMSD>
0.6

> <PUBCHEM_CONFORMER_DIVERSEORDER>
1
10
3
4
17
15
8
14
5
16
2
7
9
13
12
6
11

> <PUBCHEM_MMFF94_PARTIAL_CHARGES>
30
1 -0.68
10 0.28
12 0.28
14 0.28
15 0.14
17 -0.29
18 -0.18
19 0.03
2 -0.68
20 0.09
21 0.63
22 0.08
23 -0.15
24 0.08
25 -0.15
26 0.28
3 -0.68
39 0.4
4 -0.43
43 0.4
44 0.15
45 0.4
46 0.15
47 0.15
48 0.15
49 0.45
5 -0.57
6 -0.53
7 -0.36
8 0.28

> <PUBCHEM_EFFECTIVE_ROTOR_COUNT>
2.8

> <PUBCHEM_PHARMACOPHORE_FEATURES>
10
1 1 acceptor
1 1 donor
1 2 acceptor
1 2 donor
1 3 acceptor
1 3 donor
1 5 acceptor
1 6 donor
1 7 acceptor
6 19 20 22 23 24 25 rings

> <PUBCHEM_HEAVY_ATOM_COUNT>
26

> <PUBCHEM_ATOM_DEF_STEREO_COUNT>
4

> <PUBCHEM_ATOM_UDEF_STEREO_COUNT>
0

> <PUBCHEM_BOND_DEF_STEREO_COUNT>
1

> <PUBCHEM_BOND_UDEF_STEREO_COUNT>
0

> <PUBCHEM_ISOTOPIC_ATOM_COUNT>
0

> <PUBCHEM_COMPONENT_COUNT>
1

> <PUBCHEM_CACTVS_TAUTO_COUNT>
18

> <PUBCHEM_CONFORMER_ID>
061A06AA00000001

> <PUBCHEM_MMFF94_ENERGY>
83.7135

> <PUBCHEM_FEATURE_SELFOVERLAP>
50.752

> <PUBCHEM_SHAPE_FINGERPRINT>
10498660 4 18264770965412984198
10838868 158 16669101752366716859
1100329 8 18192991741016779826
11135609 187 18265616666144056121
11370993 70 17978512258370490676
12403259 226 18052819152846705470
12553582 1 18263948621052340608
12838862 33 18266443486166551348
13140716 1 18264499394377391010
13642711 20 16893971134589928573
138480 1 18410017632605621220
14117953 113 18411981364631075022
14790565 3 17404585477101601321
15196674 1 18341613659619185746
17492 54 18116164423009607108
17492 89 18269838614342646727
18785283 64 18118135885954658937
19930381 70 18409451422598007341
20691752 17 17968389930759772298
20715895 44 17972870363544934701
20905425 154 18268997475314632020
21285901 2 17822003237713498981
22113638 7 18267862959740414366
23227448 37 18195245508078077869
23559900 14 18194679495792330089
25147074 1 18131080325333463507
3004659 81 18114181960505461180
350125 39 18410856547773337249
3680242 22 18261114011171666187
46194498 28 17822007661814494573
463206 1 18127688438518799031
484985 159 15438712571297576106
6443956 14 18408605872228344284
9709674 26 18409456877132808562
9981440 41 17037257852975173728

> <PUBCHEM_SHAPE_MULTIPOLES>
493.98
9.89
4.14
1.07
7.78
2.51
-0.08
-4.59
1.02
-2.18
1.06
-0.7
0.06
-0.26

> <PUBCHEM_SHAPE_SELFOVERLAP>
1022.06

> <PUBCHEM_SHAPE_VOLUME>
281.1

> <PUBCHEM_COORDINATE_TYPE>
2
5
10

$$$$
