REMARK  Name = 102316721
REMARK  9 active torsions:
REMARK  status: ('A' for Active; 'I' for Inactive)
REMARK    1  A    between atoms: O_1  and  C_7
REMARK    2  A    between atoms: O_1  and  C_18
REMARK    3  A    between atoms: C_5  and  C_13
REMARK    4  A    between atoms: C_13  and  O_15
REMARK    5  A    between atoms: C_19  and  O_23
REMARK    6  A    between atoms: C_20  and  O_25
REMARK    7  A    between atoms: C_21  and  O_27
REMARK    8  A    between atoms: C_22  and  C_29
REMARK    9  A    between atoms: C_29  and  O_30
REMARK                            x       y       z     vdW  Elec       q    Type
REMARK                         _______ _______ _______ _____ _____    ______ ____
ROOT
ATOM      1  O   UNL     1      -0.607  -0.519   1.024  0.00  0.00    -0.293 OA
ENDROOT
BRANCH   1   7
ATOM      2  O   UNL     1       1.068  -1.773  -0.010  0.00  0.00    -0.449 OA
ATOM      3  O   UNL     1       5.179   0.114  -1.333  0.00  0.00    -0.446 OA
ATOM      4  O   UNL     1       5.074  -2.144  -1.238  0.00  0.00    -0.245 OA
ATOM      5  C   UNL     1       1.663   0.283   1.208  0.00  0.00    +0.102 C 
ATOM      6  C   UNL     1       3.043   0.343   0.513  0.00  0.00    +0.044 C 
ATOM      7  C   UNL     1       0.634  -0.445   0.324  0.00  0.00    +0.292 C 
ATOM      8  C   UNL     1       3.269   1.490  -0.463  0.00  0.00    +0.052 C 
ATOM      9  C   UNL     1       3.295  -0.902  -0.276  0.00  0.00    +0.090 C 
ATOM     10  C   UNL     1       4.710   1.434  -0.960  0.00  0.00    +0.209 C 
ATOM     11  C   UNL     1       2.362  -1.846  -0.452  0.00  0.00    +0.177 C 
ATOM     12  C   UNL     1       4.586  -1.053  -0.970  0.00  0.00    +0.340 C 
BRANCH   5  13
ATOM     13  C   UNL     1       1.164   1.649   1.682  0.00  0.00    +0.117 C 
ATOM     14  C   UNL     1       2.100   2.254   2.709  0.00  0.00    +0.032 C 
BRANCH  13  15
ATOM     15  O   UNL     1      -0.129   1.490   2.247  0.00  0.00    -0.384 OA
ATOM     16  H   UNL     1      -0.725   1.102   1.586  0.00  0.00    +0.210 HD
ENDBRANCH  13  15
ENDBRANCH   5  13
ENDBRANCH   1   7
BRANCH   1  18
ATOM     17  O   UNL     1      -2.133   0.804  -0.144  0.00  0.00    -0.326 OA
ATOM     18  C   UNL     1      -1.710  -0.532   0.118  0.00  0.00    +0.268 C 
ATOM     19  C   UNL     1      -2.840  -1.334   0.764  0.00  0.00    +0.197 C 
ATOM     20  C   UNL     1      -4.116  -1.272  -0.075  0.00  0.00    +0.172 C 
ATOM     21  C   UNL     1      -4.448   0.167  -0.472  0.00  0.00    +0.169 C 
ATOM     22  C   UNL     1      -3.222   0.863  -1.067  0.00  0.00    +0.176 C 
BRANCH  19  23
ATOM     23  O   UNL     1      -2.415  -2.692   0.879  0.00  0.00    -0.378 OA
ATOM     24  H   UNL     1      -1.605  -2.733   1.412  0.00  0.00    +0.211 HD
ENDBRANCH  19  23
BRANCH  20  25
ATOM     25  O   UNL     1      -5.211  -1.785   0.685  0.00  0.00    -0.379 OA
ATOM     26  H   UNL     1      -5.022  -2.699   0.948  0.00  0.00    +0.211 HD
ENDBRANCH  20  25
BRANCH  21  27
ATOM     27  O   UNL     1      -5.500   0.160  -1.434  0.00  0.00    -0.379 OA
ATOM     28  H   UNL     1      -6.278  -0.281  -1.059  0.00  0.00    +0.211 HD
ENDBRANCH  21  27
BRANCH  22  29
ATOM     29  C   UNL     1      -3.496   2.334  -1.362  0.00  0.00    +0.169 C 
BRANCH  29  30
ATOM     30  O   UNL     1      -2.320   2.913  -1.897  0.00  0.00    -0.379 OA
ATOM     31  H   UNL     1      -2.480   3.850  -2.090  0.00  0.00    +0.211 HD
ENDBRANCH  29  30
ENDBRANCH  22  29
ENDBRANCH   1  18
TORSDOF 9
