REMARK  Name = 102397297
REMARK  13 active torsions:
REMARK  status: ('A' for Active; 'I' for Inactive)
REMARK    1  A    between atoms: C_1  and  C_3
REMARK    2  A    between atoms: C_1  and  C_6
REMARK    3  A    between atoms: C_1  and  C_21
REMARK    4  A    between atoms: C_3  and  O_4
REMARK    5  A    between atoms: C_6  and  C_7
REMARK    6  A    between atoms: C_6  and  C_18
REMARK    7  A    between atoms: C_7  and  C_8
REMARK    8  A    between atoms: C_11  and  O_14
REMARK    9  A    between atoms: C_13  and  O_16
REMARK   10  A    between atoms: C_18  and  O_19
REMARK   11  A    between atoms: C_21  and  C_22
REMARK   12  A    between atoms: C_25  and  O_28
REMARK   13  A    between atoms: C_27  and  O_30
REMARK                            x       y       z     vdW  Elec       q    Type
REMARK                         _______ _______ _______ _____ _____    ______ ____
ROOT
ATOM      1  C   UNL     1       0.486   1.376  -0.109  0.00  0.00    +0.106 C 
ENDROOT
BRANCH   1   3
ATOM      2  O   UNL     1       1.608   2.772   1.559  0.00  0.00    -0.250 OA
ATOM      3  C   UNL     1       1.063   1.718   1.262  0.00  0.00    +0.314 C 
BRANCH   3   4
ATOM      4  O   UNL     1       0.875   0.716   2.162  0.00  0.00    -0.480 OA
ATOM      5  H   UNL     1       0.453  -0.078   1.897  0.00  0.00    +0.295 HD
ENDBRANCH   3   4
ENDBRANCH   1   3
BRANCH   1   6
ATOM      6  C   UNL     1      -0.718   2.280  -0.526  0.00  0.00    +0.045 C 
BRANCH   6   7
ATOM      7  C   UNL     1      -1.943   2.181   0.422  0.00  0.00    +0.029 C 
BRANCH   7   8
ATOM      8  C   UNL     1      -2.801   0.952   0.223  0.00  0.00    -0.019 C 
ATOM      9  C   UNL     1      -2.525  -0.215   0.936  0.00  0.00    +0.036 C 
ATOM     10  C   UNL     1      -3.869   0.985  -0.673  0.00  0.00    -0.001 C 
ATOM     11  C   UNL     1      -3.317  -1.348   0.754  0.00  0.00    +0.172 C 
ATOM     12  C   UNL     1      -4.661  -0.149  -0.857  0.00  0.00    +0.040 C 
ATOM     13  C   UNL     1      -4.385  -1.315  -0.143  0.00  0.00    +0.172 C 
BRANCH  11  14
ATOM     14  O   UNL     1      -3.039  -2.480   1.458  0.00  0.00    -0.468 OA
ATOM     15  C   UNL     1      -1.930  -2.430   2.354  0.00  0.00    +0.253 C 
ENDBRANCH  11  14
BRANCH  13  16
ATOM     16  O   UNL     1      -5.166  -2.416  -0.330  0.00  0.00    -0.468 OA
ATOM     17  C   UNL     1      -6.238  -2.299  -1.264  0.00  0.00    +0.253 C 
ENDBRANCH  13  16
ENDBRANCH   7   8
ENDBRANCH   6   7
BRANCH   6  18
ATOM     18  C   UNL     1      -0.242   3.740  -0.698  0.00  0.00    +0.138 C 
BRANCH  18  19
ATOM     19  O   UNL     1      -1.274   4.540  -1.259  0.00  0.00    -0.382 OA
ATOM     20  H   UNL     1      -0.958   5.451  -1.360  0.00  0.00    +0.210 HD
ENDBRANCH  18  19
ENDBRANCH   6  18
ENDBRANCH   1   6
BRANCH   1  21
ATOM     21  C   UNL     1       1.653   1.346  -1.119  0.00  0.00    +0.038 C 
BRANCH  21  22
ATOM     22  C   UNL     1       2.537   0.128  -1.022  0.00  0.00    -0.018 C 
ATOM     23  C   UNL     1       3.650   0.139  -0.181  0.00  0.00    +0.036 C 
ATOM     24  C   UNL     1       2.242  -1.010  -1.773  0.00  0.00    -0.001 C 
ATOM     25  C   UNL     1       4.468  -0.988  -0.091  0.00  0.00    +0.172 C 
ATOM     26  C   UNL     1       3.059  -2.137  -1.683  0.00  0.00    +0.039 C 
ATOM     27  C   UNL     1       4.172  -2.126  -0.842  0.00  0.00    +0.168 C 
BRANCH  25  28
ATOM     28  O   UNL     1       5.550  -0.965   0.736  0.00  0.00    -0.468 OA
ATOM     29  C   UNL     1       5.781   0.237   1.468  0.00  0.00    +0.253 C 
ENDBRANCH  25  28
BRANCH  27  30
ATOM     30  O   UNL     1       4.963  -3.232  -0.762  0.00  0.00    -0.503 OA
ATOM     31  H   UNL     1       5.712  -3.232  -0.199  0.00  0.00    +0.292 HD
ENDBRANCH  27  30
ENDBRANCH  21  22
ENDBRANCH   1  21
TORSDOF 13
