REMARK  Name = 102316550
REMARK  11 active torsions:
REMARK  status: ('A' for Active; 'I' for Inactive)
REMARK    1  A    between atoms: C_1  and  O_2
REMARK    2  A    between atoms: C_1  and  C_4
REMARK    3  A    between atoms: C_1  and  C_17
REMARK    4  A    between atoms: C_5  and  C_6
REMARK    5  A    between atoms: C_6  and  C_7
REMARK    6  A    between atoms: C_6  and  O_13
REMARK    7  A    between atoms: C_7  and  O_9
REMARK    8  A    between atoms: O_9  and  C_11
REMARK    9  A    between atoms: O_13  and  C_15
REMARK   10  A    between atoms: C_17  and  C_20
REMARK   11  A    between atoms: C_17  and  O_25
REMARK                            x       y       z     vdW  Elec       q    Type
REMARK                         _______ _______ _______ _____ _____    ______ ____
ROOT
ATOM      1  C   UNL     1       1.352   2.160  -0.750  0.00  0.00    +0.163 C 
ENDROOT
BRANCH   1   2
ATOM      2  O   UNL     1       1.318   3.573  -0.957  0.00  0.00    -0.377 OA
ATOM      3  H   UNL     1       2.081   3.841  -1.491  0.00  0.00    +0.211 HD
ENDBRANCH   1   2
BRANCH   1   4
ATOM      4  C   UNL     1       0.153   1.796   0.081  0.00  0.00    +0.004 C 
ATOM      5  C   UNL     1      -0.845   1.014  -0.356  0.00  0.00    +0.018 C 
BRANCH   5   6
ATOM      6  C   UNL     1      -2.044   0.650   0.475  0.00  0.00    +0.230 C 
BRANCH   6   7
ATOM      7  C   UNL     1      -2.255  -0.865   0.640  0.00  0.00    +0.213 C 
ATOM      8  C   UNL     1      -1.066  -1.571   1.278  0.00  0.00    +0.052 C 
BRANCH   7   9
ATOM      9  O   UNL     1      -2.510  -1.474  -0.625  0.00  0.00    -0.448 OA
BRANCH   9  11
ATOM     10  O   UNL     1      -3.851  -3.055   0.393  0.00  0.00    -0.250 OA
ATOM     11  C   UNL     1      -3.329  -2.565  -0.600  0.00  0.00    +0.318 C 
ATOM     12  C   UNL     1      -3.506  -3.096  -1.990  0.00  0.00    +0.121 C 
ENDBRANCH   9  11
ENDBRANCH   7   9
ENDBRANCH   6   7
BRANCH   6  13
ATOM     13  O   UNL     1      -3.193   1.210  -0.164  0.00  0.00    -0.444 OA
BRANCH  13  15
ATOM     14  O   UNL     1      -4.210   1.494   1.891  0.00  0.00    -0.250 OA
ATOM     15  C   UNL     1      -4.203   1.589   0.671  0.00  0.00    +0.318 C 
ATOM     16  C   UNL     1      -5.335   2.155  -0.132  0.00  0.00    +0.121 C 
ENDBRANCH  13  15
ENDBRANCH   6  13
ENDBRANCH   5   6
ENDBRANCH   1   4
BRANCH   1  17
ATOM     17  C   UNL     1       2.703   1.775  -0.119  0.00  0.00    +0.182 C 
BRANCH  17  20
ATOM     18  O   UNL     1       4.156   0.058   0.713  0.00  0.00    -0.446 OA
ATOM     19  O   UNL     1       5.556  -1.488   1.602  0.00  0.00    -0.245 OA
ATOM     20  C   UNL     1       2.861   0.279   0.111  0.00  0.00    +0.203 C 
ATOM     21  C   UNL     1       2.736  -0.502  -1.190  0.00  0.00    +0.072 C 
ATOM     22  C   UNL     1       3.129  -1.919  -0.941  0.00  0.00    -0.016 C 
ATOM     23  C   UNL     1       4.622  -1.212   0.857  0.00  0.00    +0.341 C 
ATOM     24  C   UNL     1       3.976  -2.253   0.037  0.00  0.00    +0.077 C 
ENDBRANCH  17  20
BRANCH  17  25
ATOM     25  O   UNL     1       3.782   2.246  -0.926  0.00  0.00    -0.378 OA
ATOM     26  H   UNL     1       4.625   1.996  -0.517  0.00  0.00    +0.211 HD
ENDBRANCH  17  25
ENDBRANCH   1  17
TORSDOF 11
