REMARK  Name = 102366241
REMARK  2 active torsions:
REMARK  status: ('A' for Active; 'I' for Inactive)
REMARK    1  A    between atoms: C_9  and  O_24
REMARK    2  A    between atoms: C_13  and  O_26
REMARK                            x       y       z     vdW  Elec       q    Type
REMARK                         _______ _______ _______ _____ _____    ______ ____
ROOT
ATOM      1  O   UNL     1       2.780  -1.112   1.361  0.00  0.00    -0.450 OA
ATOM      2  O   UNL     1       1.228   3.027   0.580  0.00  0.00    -0.291 OA
ATOM      3  O   UNL     1       2.869   1.000   2.278  0.00  0.00    -0.250 OA
ATOM      4  O   UNL     1      -4.197  -1.999   1.198  0.00  0.00    -0.294 OA
ATOM      5  C   UNL     1       0.320  -0.377  -0.037  0.00  0.00    +0.044 C 
ATOM      6  C   UNL     1       1.152   0.867  -0.528  0.00  0.00    +0.068 C 
ATOM      7  C   UNL     1      -1.241  -0.303  -0.333  0.00  0.00    +0.050 C 
ATOM      8  C   UNL     1       2.658   0.692  -0.144  0.00  0.00    +0.109 C 
ATOM      9  C   UNL     1       1.078  -1.727  -0.259  0.00  0.00    +0.151 C 
ATOM     10  C   UNL     1       3.257  -0.538  -0.828  0.00  0.00    +0.054 C 
ATOM     11  C   UNL     1       2.595  -1.609   0.021  0.00  0.00    +0.196 C 
ATOM     12  C   UNL     1      -1.742   1.121  -0.014  0.00  0.00    -0.039 C 
ATOM     13  C   UNL     1      -1.976  -1.253   0.671  0.00  0.00    +0.171 C 
ATOM     14  C   UNL     1       0.553   2.085   0.170  0.00  0.00    +0.172 C 
ATOM     15  C   UNL     1       1.071   1.203  -2.033  0.00  0.00    +0.008 C 
ATOM     16  C   UNL     1       2.795   0.264   1.308  0.00  0.00    +0.317 C 
ATOM     17  C   UNL     1      -1.585  -0.705  -1.786  0.00  0.00    +0.007 C 
ATOM     18  C   UNL     1      -3.246   1.351   0.132  0.00  0.00    +0.026 C 
ATOM     19  C   UNL     1      -0.928   2.158   0.268  0.00  0.00    +0.029 C 
ATOM     20  C   UNL     1       4.787  -0.572  -0.740  0.00  0.00    +0.004 C 
ATOM     21  C   UNL     1      -4.121   0.096   0.077  0.00  0.00    +0.071 C 
ATOM     22  C   UNL     1      -3.489  -1.117   0.706  0.00  0.00    +0.178 C 
ATOM     23  C   UNL     1      -3.768   2.360  -0.903  0.00  0.00    +0.005 C 
ENDROOT
BRANCH   9  24
ATOM     24  O   UNL     1       0.874  -2.289  -1.544  0.00  0.00    -0.381 OA
ATOM     25  H   UNL     1      -0.078  -2.362  -1.718  0.00  0.00    +0.210 HD
ENDBRANCH   9  24
BRANCH  13  26
ATOM     26  O   UNL     1      -1.723  -2.621   0.380  0.00  0.00    -0.377 OA
ATOM     27  H   UNL     1      -0.766  -2.773   0.344  0.00  0.00    +0.211 HD
ENDBRANCH  13  26
TORSDOF 2
