102311155
  -OEChem-03292013293D

 71 76  0     1  0  0  0  0  0999 V2000
   -3.2749   -0.6959   -1.1702 O   0  0  0  0  0  0  0  0  0  0  0  0
    0.0386    1.7955   -1.5309 O   0  0  0  0  0  0  0  0  0  0  0  0
   -2.1177   -2.3067    0.0670 O   0  0  0  0  0  0  0  0  0  0  0  0
   -0.5609   -0.9664    2.3500 O   0  0  0  0  0  0  0  0  0  0  0  0
   -0.1899    2.2986    2.1333 O   0  0  0  0  0  0  0  0  0  0  0  0
    3.5483    2.8157   -0.4319 O   0  0  0  0  0  0  0  0  0  0  0  0
    1.7112    2.4972    0.8810 N   0  0  0  0  0  0  0  0  0  0  0  0
   -1.9078    0.9835   -0.3172 C   0  0  2  0  0  0  0  0  0  0  0  0
   -0.4423    0.6763   -0.7863 C   0  0  2  0  0  0  0  0  0  0  0  0
   -2.1668    0.0035    0.8301 C   0  0  1  0  0  0  0  0  0  0  0  0
    0.3080    0.4948    0.5807 C   0  0  2  0  0  0  0  0  0  0  0  0
   -3.1301    0.7296   -1.2098 C   0  0  2  0  0  0  0  0  0  0  0  0
   -2.9439   -1.1474    0.1665 C   0  0  1  0  0  0  0  0  0  0  0  0
    1.6390   -0.2967    0.4735 C   0  0  1  0  0  0  0  0  0  0  0  0
   -0.7755   -0.2705    1.3643 C   0  0  0  0  0  0  0  0  0  0  0  0
   -4.4114    1.3964   -0.6047 C   0  0  0  0  0  0  0  0  0  0  0  0
   -4.2613   -1.5194    0.8859 C   0  0  2  0  0  0  0  0  0  0  0  0
    1.3535   -1.7018   -0.1659 C   0  0  1  0  0  0  0  0  0  0  0  0
   -0.2422   -0.5233   -1.6903 C   0  0  0  0  0  0  0  0  0  0  0  0
   -5.5692    0.4431   -0.2428 C   0  0  1  0  0  0  0  0  0  0  0  0
    0.5739    1.8275    1.2899 C   0  0  0  0  0  0  0  0  0  0  0  0
    2.7261    0.5466   -0.2788 C   0  0  1  0  0  0  0  0  0  0  0  0
   -5.2801   -0.3698    1.0329 C   0  0  0  0  0  0  0  0  0  0  0  0
   -2.9980    1.2099   -2.6554 C   0  0  0  0  0  0  0  0  0  0  0  0
    0.5400   -1.5906   -1.4429 C   0  0  0  0  0  0  0  0  0  0  0  0
   -4.0088   -2.1512    2.2627 C   0  0  0  0  0  0  0  0  0  0  0  0
    2.7075    2.0461    0.0399 C   0  0  0  0  0  0  0  0  0  0  0  0
    2.5976   -2.5871   -0.3006 C   0  0  0  0  0  0  0  0  0  0  0  0
   -6.8449    1.2700   -0.0255 C   0  0  0  0  0  0  0  0  0  0  0  0
    4.1603    0.0725   -0.0543 C   0  0  0  0  0  0  0  0  0  0  0  0
    0.5608   -2.7438   -2.4104 C   0  0  0  0  0  0  0  0  0  0  0  0
    5.0780    0.1041   -1.1043 C   0  0  0  0  0  0  0  0  0  0  0  0
    4.5525   -0.3921    1.2009 C   0  0  0  0  0  0  0  0  0  0  0  0
    6.3880   -0.3290   -0.8990 C   0  0  0  0  0  0  0  0  0  0  0  0
    5.8623   -0.8254    1.4063 C   0  0  0  0  0  0  0  0  0  0  0  0
    6.7801   -0.7938    0.3564 C   0  0  0  0  0  0  0  0  0  0  0  0
   -1.9296    2.0265    0.0280 H   0  0  0  0  0  0  0  0  0  0  0  0
   -2.7331    0.5104    1.6175 H   0  0  0  0  0  0  0  0  0  0  0  0
    1.9562   -0.4820    1.5055 H   0  0  0  0  0  0  0  0  0  0  0  0
   -4.7867    2.1472   -1.3141 H   0  0  0  0  0  0  0  0  0  0  0  0
   -4.1521    1.9932    0.2803 H   0  0  0  0  0  0  0  0  0  0  0  0
   -4.7492   -2.2911    0.2726 H   0  0  0  0  0  0  0  0  0  0  0  0
    0.7169   -2.2565    0.5366 H   0  0  0  0  0  0  0  0  0  0  0  0
   -0.7759   -0.5232   -2.6330 H   0  0  0  0  0  0  0  0  0  0  0  0
   -5.7663   -0.2384   -1.0797 H   0  0  0  0  0  0  0  0  0  0  0  0
    2.5137    0.4808   -1.3545 H   0  0  0  0  0  0  0  0  0  0  0  0
   -4.9679    0.3117    1.8349 H   0  0  0  0  0  0  0  0  0  0  0  0
   -6.2213   -0.8168    1.3825 H   0  0  0  0  0  0  0  0  0  0  0  0
   -2.2491    0.6698   -3.2316 H   0  0  0  0  0  0  0  0  0  0  0  0
   -2.7713    2.2802   -2.7006 H   0  0  0  0  0  0  0  0  0  0  0  0
   -3.9371    1.0388   -3.1968 H   0  0  0  0  0  0  0  0  0  0  0  0
   -0.4950    1.8888   -2.3368 H   0  0  0  0  0  0  0  0  0  0  0  0
   -1.6792   -2.4569    0.9202 H   0  0  0  0  0  0  0  0  0  0  0  0
   -3.4917   -1.4593    2.9350 H   0  0  0  0  0  0  0  0  0  0  0  0
   -3.4090   -3.0630    2.1818 H   0  0  0  0  0  0  0  0  0  0  0  0
   -4.9557   -2.4316    2.7372 H   0  0  0  0  0  0  0  0  0  0  0  0
    1.8088    3.4516    1.2164 H   0  0  0  0  0  0  0  0  0  0  0  0
    3.2635   -2.2531   -1.1003 H   0  0  0  0  0  0  0  0  0  0  0  0
    2.3141   -3.6199   -0.5357 H   0  0  0  0  0  0  0  0  0  0  0  0
    3.1477   -2.6396    0.6427 H   0  0  0  0  0  0  0  0  0  0  0  0
   -6.7237    1.9790    0.8007 H   0  0  0  0  0  0  0  0  0  0  0  0
   -7.6961    0.6207    0.2055 H   0  0  0  0  0  0  0  0  0  0  0  0
   -7.0997    1.8379   -0.9267 H   0  0  0  0  0  0  0  0  0  0  0  0
    0.2890   -3.6732   -1.8995 H   0  0  0  0  0  0  0  0  0  0  0  0
    1.5541   -2.8586   -2.8552 H   0  0  0  0  0  0  0  0  0  0  0  0
   -0.1497   -2.6091   -3.2332 H   0  0  0  0  0  0  0  0  0  0  0  0
    4.7859    0.4639   -2.0872 H   0  0  0  0  0  0  0  0  0  0  0  0
    3.8866   -0.3972    2.0563 H   0  0  0  0  0  0  0  0  0  0  0  0
    7.1027   -0.3040   -1.7164 H   0  0  0  0  0  0  0  0  0  0  0  0
    6.1707   -1.1788    2.3859 H   0  0  0  0  0  0  0  0  0  0  0  0
    7.8005   -1.1291    0.5169 H   0  0  0  0  0  0  0  0  0  0  0  0
  1 12  1  0  0  0  0
  1 13  1  0  0  0  0
  2  9  1  0  0  0  0
  2 52  1  0  0  0  0
  3 13  1  0  0  0  0
  3 53  1  0  0  0  0
  4 15  2  0  0  0  0
  5 21  2  0  0  0  0
  6 27  2  0  0  0  0
  7 21  1  0  0  0  0
  7 27  1  0  0  0  0
  7 57  1  0  0  0  0
  8  9  1  0  0  0  0
  8 10  1  0  0  0  0
  8 12  1  0  0  0  0
  8 37  1  0  0  0  0
  9 11  1  0  0  0  0
  9 19  1  0  0  0  0
 10 13  1  0  0  0  0
 10 15  1  0  0  0  0
 10 38  1  0  0  0  0
 11 14  1  0  0  0  0
 11 15  1  0  0  0  0
 11 21  1  0  0  0  0
 12 16  1  0  0  0  0
 12 24  1  0  0  0  0
 13 17  1  0  0  0  0
 14 18  1  0  0  0  0
 14 22  1  0  0  0  0
 14 39  1  0  0  0  0
 16 20  1  0  0  0  0
 16 40  1  0  0  0  0
 16 41  1  0  0  0  0
 17 23  1  0  0  0  0
 17 26  1  0  0  0  0
 17 42  1  0  0  0  0
 18 25  1  0  0  0  0
 18 28  1  0  0  0  0
 18 43  1  0  0  0  0
 19 25  2  0  0  0  0
 19 44  1  0  0  0  0
 20 23  1  0  0  0  0
 20 29  1  0  0  0  0
 20 45  1  0  0  0  0
 22 27  1  0  0  0  0
 22 30  1  0  0  0  0
 22 46  1  0  0  0  0
 23 47  1  0  0  0  0
 23 48  1  0  0  0  0
 24 49  1  0  0  0  0
 24 50  1  0  0  0  0
 24 51  1  0  0  0  0
 25 31  1  0  0  0  0
 26 54  1  0  0  0  0
 26 55  1  0  0  0  0
 26 56  1  0  0  0  0
 28 58  1  0  0  0  0
 28 59  1  0  0  0  0
 28 60  1  0  0  0  0
 29 61  1  0  0  0  0
 29 62  1  0  0  0  0
 29 63  1  0  0  0  0
 30 32  2  0  0  0  0
 30 33  1  0  0  0  0
 31 64  1  0  0  0  0
 31 65  1  0  0  0  0
 31 66  1  0  0  0  0
 32 34  1  0  0  0  0
 32 67  1  0  0  0  0
 33 35  2  0  0  0  0
 33 68  1  0  0  0  0
 34 36  2  0  0  0  0
 34 69  1  0  0  0  0
 35 36  1  0  0  0  0
 35 70  1  0  0  0  0
 36 71  1  0  0  0  0
M  END
> <PUBCHEM_COMPOUND_CID>
102311155

> <PUBCHEM_CONFORMER_RMSD>
0.8

> <PUBCHEM_CONFORMER_DIVERSEORDER>
1
3
4
2

> <PUBCHEM_MMFF94_PARTIAL_CHARGES>
35
1 -0.56
10 0.06
11 0.12
12 0.28
13 0.56
15 0.45
18 0.14
19 -0.29
2 -0.68
21 0.57
22 0.2
25 -0.28
27 0.57
3 -0.68
30 -0.14
31 0.14
32 -0.15
33 -0.15
34 -0.15
35 -0.15
36 -0.15
4 -0.57
44 0.15
5 -0.57
52 0.4
53 0.4
57 0.37
6 -0.57
67 0.15
68 0.15
69 0.15
7 -0.49
70 0.15
71 0.15
9 0.42

> <PUBCHEM_EFFECTIVE_ROTOR_COUNT>
2.6

> <PUBCHEM_PHARMACOPHORE_FEATURES>
15
1 1 acceptor
1 2 acceptor
1 2 donor
1 3 acceptor
1 3 donor
1 4 acceptor
1 5 acceptor
1 6 acceptor
1 7 donor
5 1 8 10 12 13 rings
5 8 9 10 11 15 rings
6 30 32 33 34 35 36 rings
6 7 11 14 21 22 27 rings
6 9 11 14 18 19 25 rings
7 1 12 13 16 17 20 23 rings

> <PUBCHEM_HEAVY_ATOM_COUNT>
36

> <PUBCHEM_ATOM_DEF_STEREO_COUNT>
11

> <PUBCHEM_ATOM_UDEF_STEREO_COUNT>
0

> <PUBCHEM_BOND_DEF_STEREO_COUNT>
0

> <PUBCHEM_BOND_UDEF_STEREO_COUNT>
0

> <PUBCHEM_ISOTOPIC_ATOM_COUNT>
0

> <PUBCHEM_COMPONENT_COUNT>
1

> <PUBCHEM_CACTVS_TAUTO_COUNT>
256

> <PUBCHEM_CONFORMER_ID>
061924F300000001

> <PUBCHEM_MMFF94_ENERGY>
142.8143

> <PUBCHEM_FEATURE_SELFOVERLAP>
78.008

> <PUBCHEM_SHAPE_FINGERPRINT>
10165383 225 18040997294298369201
10675989 125 17112683796689903341
10863032 1 17894620461583883585
10906281 52 18200606786836077433
1100329 8 17988074612418453174
11578080 2 16517634855567845183
11828532 37 13541879379660464365
12107698 1 18187081767275219813
12236239 1 16343980312538048565
12422481 6 18336830882859388295
12633257 1 18341900739544230627
12788726 201 17916021252938821825
13140716 1 18057879337454295602
13583140 156 18187633704848286614
13782708 43 18265337381637518771
13911987 19 18200605794909843260
14840074 17 17417811725350683134
14856354 85 17894639153788211479
14955137 171 18272654550110466328
15131766 46 13828405512762613682
15183329 4 18260830379984177176
15849732 13 16773791498469513549
16090146 7 16343703257505043271
16945 1 18410004420974988632
17349148 13 17489309715715691316
20511986 3 15626220170135311777
21033648 29 18337948016659060264
23522609 53 17605865588437854420
23559900 14 18040714817956130992
23569943 247 13480514372699028296
3178227 256 18343309183905736912
350125 39 18186521007565117700
3633792 109 15769495318864800473
404807 14 16379710884751966570
4098825 35 17894915169956837172
5104073 3 18261393398746915353
5265222 85 17895769499091882262
57527293 21 18120393183279712019
59755656 215 18409168774936767911
6086070 43 17988076807384274145

> <PUBCHEM_SHAPE_MULTIPOLES>
700.67
13.24
2.55
2.02
4.68
0.05
0.23
0.25
-1.35
0.11
0.05
-0.8
0.4
1.3

> <PUBCHEM_SHAPE_SELFOVERLAP>
1549.987

> <PUBCHEM_SHAPE_VOLUME>
368.9

> <PUBCHEM_COORDINATE_TYPE>
2
5
10

$$$$
