REMARK  Name = 102333322
REMARK  4 active torsions:
REMARK  status: ('A' for Active; 'I' for Inactive)
REMARK    1  A    between atoms: C_8  and  O_25
REMARK    2  A    between atoms: C_11  and  O_27
REMARK    3  A    between atoms: C_13  and  O_29
REMARK    4  A    between atoms: C_18  and  C_23
REMARK                            x       y       z     vdW  Elec       q    Type
REMARK                         _______ _______ _______ _____ _____    ______ ____
ROOT
ATOM      1  O   UNL     1      -0.754  -0.510  -2.118  0.00  0.00    -0.331 OA
ATOM      2  O   UNL     1      -0.059  -2.037   1.054  0.00  0.00    -0.447 OA
ATOM      3  O   UNL     1       2.018  -1.320   1.701  0.00  0.00    -0.250 OA
ATOM      4  C   UNL     1      -1.357   0.832  -0.151  0.00  0.00    +0.056 C 
ATOM      5  C   UNL     1       0.918  -0.350  -0.284  0.00  0.00    +0.165 C 
ATOM      6  C   UNL     1       0.180   0.945   0.222  0.00  0.00    +0.022 C 
ATOM      7  C   UNL     1      -1.858  -0.490   0.543  0.00  0.00    +0.050 C 
ATOM      8  C   UNL     1      -0.074  -1.222  -1.098  0.00  0.00    +0.233 C 
ATOM      9  C   UNL     1      -1.002  -1.670   0.022  0.00  0.00    +0.220 C 
ATOM     10  C   UNL     1      -3.402  -0.745   0.550  0.00  0.00    +0.004 C 
ATOM     11  C   UNL     1      -2.192   2.037   0.347  0.00  0.00    +0.113 C 
ATOM     12  C   UNL     1      -1.401   0.678  -1.682  0.00  0.00    +0.147 C 
ATOM     13  C   UNL     1       2.230  -0.047  -1.037  0.00  0.00    +0.132 C 
ATOM     14  C   UNL     1       0.896   2.231  -0.225  0.00  0.00    +0.001 C 
ATOM     15  C   UNL     1       1.077  -1.271   0.927  0.00  0.00    +0.323 C 
ATOM     16  C   UNL     1      -4.118   0.535   1.043  0.00  0.00    +0.003 C 
ATOM     17  C   UNL     1      -3.703   1.793   0.290  0.00  0.00    +0.029 C 
ATOM     18  C   UNL     1       3.138   1.013  -0.385  0.00  0.00    +0.085 C 
ATOM     19  C   UNL     1       2.365   2.207   0.184  0.00  0.00    +0.010 C 
ATOM     20  C   UNL     1      -4.000  -1.189  -0.800  0.00  0.00    +0.000 C 
ATOM     21  C   UNL     1      -3.719  -1.873   1.566  0.00  0.00    +0.000 C 
ENDROOT
BRANCH  18  23
ATOM     22  O   UNL     1       3.757   0.460   1.858  0.00  0.00    -0.296 OA
ATOM     23  C   UNL     1       4.061   0.457   0.666  0.00  0.00    +0.153 C 
ATOM     24  C   UNL     1       5.374  -0.101   0.186  0.00  0.00    +0.072 C 
ENDBRANCH  18  23
BRANCH   8  25
ATOM     25  O   UNL     1       0.575  -2.355  -1.671  0.00  0.00    -0.361 OA
ATOM     26  H   UNL     1       1.165  -2.064  -2.384  0.00  0.00    +0.213 HD
ENDBRANCH   8  25
BRANCH  11  27
ATOM     27  O   UNL     1      -1.916   3.226  -0.389  0.00  0.00    -0.384 OA
ATOM     28  H   UNL     1      -0.962   3.404  -0.369  0.00  0.00    +0.210 HD
ENDBRANCH  11  27
BRANCH  13  29
ATOM     29  O   UNL     1       2.966  -1.234  -1.321  0.00  0.00    -0.383 OA
ATOM     30  H   UNL     1       2.379  -1.889  -1.730  0.00  0.00    +0.210 HD
ENDBRANCH  13  29
TORSDOF 4
