REMARK  Name = 102363035
REMARK  7 active torsions:
REMARK  status: ('A' for Active; 'I' for Inactive)
REMARK    1  A    between atoms: C_5  and  C_14
REMARK    2  A    between atoms: C_6  and  O_24
REMARK    3  A    between atoms: C_13  and  O_26
REMARK    4  A    between atoms: C_13  and  C_28
REMARK    5  A    between atoms: C_17  and  O_20
REMARK    6  A    between atoms: C_19  and  O_22
REMARK    7  A    between atoms: C_29  and  C_30
REMARK                            x       y       z     vdW  Elec       q    Type
REMARK                         _______ _______ _______ _____ _____    ______ ____
ROOT
ATOM      1  O   UNL     1       1.377  -3.615   1.862  0.00  0.00    -0.293 OA
ATOM      2  O   UNL     1      -0.778   0.031   1.549  0.00  0.00    -0.291 OA
ATOM      3  C   UNL     1       1.204  -1.313   1.039  0.00  0.00    +0.112 C 
ATOM      4  C   UNL     1       0.172  -2.118  -1.260  0.00  0.00    +0.060 C 
ATOM      5  C   UNL     1       2.131  -0.911  -0.162  0.00  0.00    +0.036 C 
ATOM      6  C   UNL     1       0.511  -3.358  -0.388  0.00  0.00    +0.143 C 
ATOM      7  C   UNL     1       1.436  -1.267  -1.514  0.00  0.00    +0.013 C 
ATOM      8  C   UNL     1       1.078  -2.853   0.946  0.00  0.00    +0.181 C 
ATOM      9  C   UNL     1      -0.792  -1.226  -0.497  0.00  0.00    +0.049 C 
ATOM     10  C   UNL     1      -0.199  -0.738   0.792  0.00  0.00    +0.178 C 
ATOM     11  C   UNL     1       1.762  -0.898   2.400  0.00  0.00    +0.016 C 
ATOM     12  C   UNL     1       1.504  -4.306  -1.059  0.00  0.00    +0.037 C 
ATOM     13  C   UNL     1      -2.024  -0.877  -0.877  0.00  0.00    +0.132 C 
ENDROOT
BRANCH   5  14
ATOM     14  C   UNL     1       2.497   0.540  -0.157  0.00  0.00    -0.018 C 
ATOM     15  C   UNL     1       1.499   1.512  -0.231  0.00  0.00    +0.036 C 
ATOM     16  C   UNL     1       3.837   0.921  -0.078  0.00  0.00    -0.001 C 
ATOM     17  C   UNL     1       1.840   2.864  -0.226  0.00  0.00    +0.172 C 
ATOM     18  C   UNL     1       4.178   2.274  -0.072  0.00  0.00    +0.039 C 
ATOM     19  C   UNL     1       3.179   3.245  -0.146  0.00  0.00    +0.168 C 
BRANCH  17  20
ATOM     20  O   UNL     1       0.855   3.804  -0.296  0.00  0.00    -0.468 OA
ATOM     21  C   UNL     1      -0.487   3.329  -0.375  0.00  0.00    +0.253 C 
ENDBRANCH  17  20
BRANCH  19  22
ATOM     22  O   UNL     1       3.525   4.563  -0.140  0.00  0.00    -0.503 OA
ATOM     23  H   UNL     1       2.860   5.222  -0.189  0.00  0.00    +0.292 HD
ENDBRANCH  19  22
ENDBRANCH   5  14
BRANCH   6  24
ATOM     24  O   UNL     1      -0.685  -4.079  -0.117  0.00  0.00    -0.379 OA
ATOM     25  H   UNL     1      -1.327  -3.490   0.309  0.00  0.00    +0.211 HD
ENDBRANCH   6  24
BRANCH  13  26
ATOM     26  O   UNL     1      -2.577  -1.323  -2.064  0.00  0.00    -0.506 OA
ATOM     27  H   UNL     1      -2.085  -1.886  -2.628  0.00  0.00    +0.292 HD
ENDBRANCH  13  26
BRANCH  13  28
ATOM     28  C   UNL     1      -2.873  -0.008  -0.078  0.00  0.00    +0.036 C 
ATOM     29  C   UNL     1      -4.117   0.381  -0.400  0.00  0.00    +0.003 C 
BRANCH  29  30
ATOM     30  C   UNL     1      -4.912   1.249   0.442  0.00  0.00    -0.004 C 
ATOM     31  C   UNL     1      -6.155   1.641   0.126  0.00  0.00    -0.026 C 
ATOM     32  C   UNL     1      -6.985   2.536   0.986  0.00  0.00    +0.031 C 
ENDBRANCH  29  30
ENDBRANCH  13  28
TORSDOF 7
