REMARK  Name = 102301804
REMARK  13 active torsions:
REMARK  status: ('A' for Active; 'I' for Inactive)
REMARK    1  A    between atoms: C_1  and  C_4
REMARK    2  A    between atoms: C_1  and  N_17
REMARK    3  A    between atoms: C_1  and  C_32
REMARK    4  A    between atoms: N_3  and  C_6
REMARK    5  A    between atoms: C_11  and  N_13
REMARK    6  A    between atoms: N_13  and  O_14
REMARK    7  A    between atoms: C_18  and  C_20
REMARK    8  A    between atoms: C_20  and  N_23
REMARK    9  A    between atoms: C_24  and  C_26
REMARK   10  A    between atoms: C_26  and  C_27
REMARK   11  A    between atoms: C_27  and  C_29
REMARK   12  A    between atoms: C_29  and  O_30
REMARK   13  A    between atoms: C_32  and  C_33
REMARK                            x       y       z     vdW  Elec       q    Type
REMARK                         _______ _______ _______ _____ _____    ______ ____
ROOT
ATOM      1  C   UNL     1       0.565  -0.583  -0.468  0.00  0.00    +0.153 C 
ENDROOT
BRANCH   1   4
ATOM      2  O   UNL     1       2.200   0.624  -1.768  0.00  0.00    -0.273 OA
ATOM      3  N   UNL     1       2.869  -0.404   0.233  0.00  0.00    -0.283 N 
ATOM      4  C   UNL     1       1.970  -0.057  -0.772  0.00  0.00    +0.244 C 
ATOM      5  H   UNL     1       2.501  -0.925   0.983  0.00  0.00    +0.155 HD
BRANCH   3   6
ATOM      6  C   UNL     1       4.248  -0.098   0.303  0.00  0.00    +0.050 C 
ATOM      7  C   UNL     1       5.004  -0.530   1.393  0.00  0.00    +0.016 C 
ATOM      8  C   UNL     1       4.852   0.636  -0.718  0.00  0.00    +0.016 C 
ATOM      9  C   UNL     1       6.364  -0.228   1.462  0.00  0.00    +0.023 C 
ATOM     10  C   UNL     1       6.212   0.938  -0.649  0.00  0.00    +0.023 C 
ATOM     11  C   UNL     1       6.968   0.506   0.441  0.00  0.00    +0.115 C 
BRANCH  11  13
ATOM     12  O   UNL     1       9.108   0.441   1.484  0.00  0.00    -0.057 OA
ATOM     13  N   UNL     1       8.356   0.811   0.510  0.00  0.00    -0.092 N 
BRANCH  13  14
ATOM     14  O   UNL     1       8.972   1.566  -0.540  0.00  0.00    -0.260 OA
ATOM     15  H   UNL     1       9.886   1.769  -0.498  0.00  0.00    +0.247 HD
ENDBRANCH  13  14
ENDBRANCH  11  13
ENDBRANCH   3   6
ENDBRANCH   1   4
BRANCH   1  17
ATOM     16  O   UNL     1      -1.281   0.892   1.172  0.00  0.00    -0.273 OA
ATOM     17  N   UNL     1      -0.363   0.432  -0.909  0.00  0.00    -0.297 N 
ATOM     18  C   UNL     1      -1.219   1.093  -0.039  0.00  0.00    +0.241 C 
ATOM     19  H   UNL     1      -0.389   0.665  -1.865  0.00  0.00    +0.150 HD
BRANCH  18  20
ATOM     20  C   UNL     1      -2.057   2.147  -0.751  0.00  0.00    +0.149 C 
ATOM     21  C   UNL     1      -1.349   3.493  -0.754  0.00  0.00    +0.031 C 
BRANCH  20  23
ATOM     22  O   UNL     1      -4.416   0.561  -1.289  0.00  0.00    -0.275 OA
ATOM     23  N   UNL     1      -3.336   2.227  -0.082  0.00  0.00    -0.298 N 
ATOM     24  C   UNL     1      -4.415   1.420  -0.412  0.00  0.00    +0.223 C 
ATOM     25  H   UNL     1      -3.446   2.885   0.641  0.00  0.00    +0.150 HD
BRANCH  24  26
ATOM     26  C   UNL     1      -5.624   1.726   0.453  0.00  0.00    +0.097 C 
BRANCH  26  27
ATOM     27  C   UNL     1      -6.824   0.849   0.108  0.00  0.00    +0.119 C 
BRANCH  27  29
ATOM     28  O   UNL     1      -8.054   2.006   1.861  0.00  0.00    -0.250 OA
ATOM     29  C   UNL     1      -8.023   1.168   0.971  0.00  0.00    +0.314 C 
BRANCH  29  30
ATOM     30  O   UNL     1      -9.093   0.399   0.637  0.00  0.00    -0.480 OA
ATOM     31  H   UNL     1      -9.020  -0.231  -0.053  0.00  0.00    +0.295 HD
ENDBRANCH  29  30
ENDBRANCH  27  29
ENDBRANCH  26  27
ENDBRANCH  24  26
ENDBRANCH  20  23
ENDBRANCH  18  20
ENDBRANCH   1  17
BRANCH   1  32
ATOM     32  C   UNL     1       0.292  -1.909  -1.187  0.00  0.00    +0.055 C 
BRANCH  32  33
ATOM     33  C   UNL     1      -0.892  -2.660  -0.630  0.00  0.00    -0.020 C 
ATOM     34  C   UNL     1      -0.713  -3.578   0.405  0.00  0.00    -0.004 C 
ATOM     35  C   UNL     1      -2.167  -2.436  -1.150  0.00  0.00    -0.004 C 
ATOM     36  C   UNL     1      -1.808  -4.272   0.919  0.00  0.00    -0.000 C 
ATOM     37  C   UNL     1      -3.262  -3.130  -0.635  0.00  0.00    -0.000 C 
ATOM     38  C   UNL     1      -3.083  -4.048   0.399  0.00  0.00    -0.000 C 
ENDBRANCH  32  33
ENDBRANCH   1  32
TORSDOF 13
