REMARK  Name = 102313697
REMARK  4 active torsions:
REMARK  status: ('A' for Active; 'I' for Inactive)
REMARK    1  A    between atoms: C_2  and  C_17
REMARK    2  A    between atoms: C_4  and  C_27
REMARK    3  A    between atoms: C_8  and  O_25
REMARK    4  A    between atoms: C_17  and  O_23
REMARK                            x       y       z     vdW  Elec       q    Type
REMARK                         _______ _______ _______ _____ _____    ______ ____
ROOT
ATOM      1  O   UNL     1      -2.880  -2.589  -0.442  0.00  0.00    -0.296 OA
ATOM      2  C   UNL     1       0.278  -0.050   0.434  0.00  0.00    +0.052 C 
ATOM      3  C   UNL     1      -1.134   0.493   0.013  0.00  0.00    +0.021 C 
ATOM      4  C   UNL     1       0.454  -1.528  -0.056  0.00  0.00    +0.014 C 
ATOM      5  C   UNL     1      -2.301  -0.413   0.467  0.00  0.00    +0.089 C 
ATOM      6  C   UNL     1      -0.678  -2.427   0.456  0.00  0.00    +0.065 C 
ATOM      7  C   UNL     1      -1.409   1.940   0.484  0.00  0.00    +0.026 C 
ATOM      8  C   UNL     1      -3.645   0.077  -0.125  0.00  0.00    +0.135 C 
ATOM      9  C   UNL     1      -2.028  -1.866   0.074  0.00  0.00    +0.153 C 
ATOM     10  C   UNL     1       0.476   0.005   1.969  0.00  0.00    +0.008 C 
ATOM     11  C   UNL     1      -3.812   1.580  -0.133  0.00  0.00    -0.021 C 
ATOM     12  C   UNL     1      -2.796   2.407   0.162  0.00  0.00    -0.032 C 
ATOM     13  C   UNL     1      -5.164   2.115  -0.516  0.00  0.00    +0.028 C 
ENDROOT
BRANCH   2  17
ATOM     14  O   UNL     1       2.625  -1.359   1.429  0.00  0.00    -0.289 OA
ATOM     15  O   UNL     1       3.669   2.378  -1.245  0.00  0.00    -0.270 OA
ATOM     16  N   UNL     1       4.928   0.776  -0.063  0.00  0.00    -0.294 N 
ATOM     17  C   UNL     1       1.371   0.811  -0.164  0.00  0.00    +0.117 C 
ATOM     18  C   UNL     1       2.677   0.588   0.025  0.00  0.00    +0.119 C 
ATOM     19  C   UNL     1       3.258  -0.507   0.828  0.00  0.00    +0.200 C 
ATOM     20  C   UNL     1       3.774   1.396  -0.535  0.00  0.00    +0.252 C 
ATOM     21  C   UNL     1       4.758  -0.399   0.782  0.00  0.00    +0.160 C 
ATOM     22  H   UNL     1       5.823   1.117  -0.291  0.00  0.00    +0.150 HD
BRANCH  17  23
ATOM     23  O   UNL     1       0.954   1.873  -0.942  0.00  0.00    -0.510 OA
ATOM     24  H   UNL     1       0.039   2.028  -1.072  0.00  0.00    +0.292 HD
ENDBRANCH  17  23
ENDBRANCH   2  17
BRANCH   8  25
ATOM     25  O   UNL     1      -4.707  -0.487   0.650  0.00  0.00    -0.380 OA
ATOM     26  H   UNL     1      -4.617  -1.453   0.667  0.00  0.00    +0.211 HD
ENDBRANCH   8  25
BRANCH   4  27
ATOM     27  C   UNL     1       0.575  -1.682  -1.584  0.00  0.00    +0.001 C 
ATOM     28  C   UNL     1       0.759  -3.132  -1.968  0.00  0.00    +0.000 C 
ENDBRANCH   4  27
TORSDOF 4
