102377823
  -OEChem-03292013293D

 54 56  0     1  0  0  0  0  0999 V2000
    1.1778    1.0110    0.0420 O   0  0  0  0  0  0  0  0  0  0  0  0
    4.6351    1.9197    1.0378 O   0  0  0  0  0  0  0  0  0  0  0  0
    4.2005   -0.7696    0.5057 O   0  0  0  0  0  0  0  0  0  0  0  0
    0.3464   -0.6304   -1.3882 O   0  0  0  0  0  0  0  0  0  0  0  0
    2.9883   -1.5483   -1.8717 O   0  0  0  0  0  0  0  0  0  0  0  0
    5.6543   -1.8168   -0.9400 O   0  0  0  0  0  0  0  0  0  0  0  0
   -4.1825    0.8803   -1.0740 O   0  0  0  0  0  0  0  0  0  0  0  0
   -4.9526   -1.8056    2.0313 O   0  0  0  0  0  0  0  0  0  0  0  0
   -6.2991    1.7016   -0.9103 O   0  0  0  0  0  0  0  0  0  0  0  0
    5.2926   -2.6181    1.1845 N   0  0  0  0  0  0  0  0  0  0  0  0
   -6.9970    0.0101    1.0898 N   0  0  0  0  0  0  0  0  0  0  0  0
    2.2011    1.5308    0.9077 C   0  0  0  0  0  0  0  0  0  0  0  0
    3.5676    1.5449    0.1744 C   0  0  2  0  0  0  0  0  0  0  0  0
    3.9124    0.2101   -0.4908 C   0  0  2  0  0  0  0  0  0  0  0  0
    2.7364   -0.2475   -1.3512 C   0  0  2  0  0  0  0  0  0  0  0  0
    1.4388   -0.2655   -0.5409 C   0  0  1  0  0  0  0  0  0  0  0  0
    2.2046    0.7691    2.2428 C   0  0  0  0  0  0  0  0  0  0  0  0
    1.7699    2.9780    1.2123 C   0  0  0  0  0  0  0  0  0  0  0  0
    5.7092    2.5025    0.3136 C   0  0  0  0  0  0  0  0  0  0  0  0
   -0.8863   -0.6946   -0.8006 C   0  0  0  0  0  0  0  0  0  0  0  0
    5.0969   -1.7376    0.1496 C   0  0  0  0  0  0  0  0  0  0  0  0
   -1.9297    0.1147   -1.2345 C   0  0  0  0  0  0  0  0  0  0  0  0
   -1.0943   -1.5817    0.2533 C   0  0  0  0  0  0  0  0  0  0  0  0
   -3.1731    0.0182   -0.6062 C   0  0  0  0  0  0  0  0  0  0  0  0
   -3.4171   -0.8686    0.4410 C   0  0  0  0  0  0  0  0  0  0  0  0
   -2.3481   -1.6665    0.8714 C   0  0  0  0  0  0  0  0  0  0  0  0
   -1.7154    1.0781   -2.3562 C   0  0  0  0  0  0  0  0  0  0  0  0
   -4.7647   -0.8852    1.0211 C   0  0  0  0  0  0  0  0  0  0  0  0
   -5.7236   -0.0473    0.5930 C   0  0  0  0  0  0  0  0  0  0  0  0
   -5.4486    0.9141   -0.5067 C   0  0  0  0  0  0  0  0  0  0  0  0
    3.4738    2.2844   -0.6356 H   0  0  0  0  0  0  0  0  0  0  0  0
    4.7898    0.3439   -1.1338 H   0  0  0  0  0  0  0  0  0  0  0  0
    2.6139    0.4321   -2.2039 H   0  0  0  0  0  0  0  0  0  0  0  0
    1.5274   -1.0253    0.2436 H   0  0  0  0  0  0  0  0  0  0  0  0
    2.4425   -0.2905    2.1266 H   0  0  0  0  0  0  0  0  0  0  0  0
    2.4785    3.4825    1.8771 H   0  0  0  0  0  0  0  0  0  0  0  0
    1.6848    3.5620    0.2885 H   0  0  0  0  0  0  0  0  0  0  0  0
    0.7782    3.0011    1.6794 H   0  0  0  0  0  0  0  0  0  0  0  0
    2.9182    1.2002    2.9526 H   0  0  0  0  0  0  0  0  0  0  0  0
    1.2085    0.7974    2.7008 H   0  0  0  0  0  0  0  0  0  0  0  0
    3.7923   -1.4941   -2.4161 H   0  0  0  0  0  0  0  0  0  0  0  0
    6.4555    2.8417    1.0378 H   0  0  0  0  0  0  0  0  0  0  0  0
    5.3730    3.3743   -0.2566 H   0  0  0  0  0  0  0  0  0  0  0  0
    6.1929    1.7776   -0.3456 H   0  0  0  0  0  0  0  0  0  0  0  0
   -0.3002   -2.2366    0.6015 H   0  0  0  0  0  0  0  0  0  0  0  0
   -2.4746   -2.3740    1.6876 H   0  0  0  0  0  0  0  0  0  0  0  0
   -1.6425    2.0978   -1.9642 H   0  0  0  0  0  0  0  0  0  0  0  0
   -0.8041    0.8692   -2.9254 H   0  0  0  0  0  0  0  0  0  0  0  0
   -2.5423    1.0302   -3.0731 H   0  0  0  0  0  0  0  0  0  0  0  0
    5.9284   -3.4038    1.0971 H   0  0  0  0  0  0  0  0  0  0  0  0
    4.8069   -2.5101    2.0686 H   0  0  0  0  0  0  0  0  0  0  0  0
   -5.8678   -1.7381    2.3481 H   0  0  0  0  0  0  0  0  0  0  0  0
   -7.2925   -0.6000    1.8398 H   0  0  0  0  0  0  0  0  0  0  0  0
   -7.6552    0.6750    0.7020 H   0  0  0  0  0  0  0  0  0  0  0  0
  1 12  1  0  0  0  0
  1 16  1  0  0  0  0
  2 13  1  0  0  0  0
  2 19  1  0  0  0  0
  3 14  1  0  0  0  0
  3 21  1  0  0  0  0
  4 16  1  0  0  0  0
  4 20  1  0  0  0  0
  5 15  1  0  0  0  0
  5 41  1  0  0  0  0
  6 21  2  0  0  0  0
  7 24  1  0  0  0  0
  7 30  1  0  0  0  0
  8 28  1  0  0  0  0
  8 52  1  0  0  0  0
  9 30  2  0  0  0  0
 10 21  1  0  0  0  0
 10 50  1  0  0  0  0
 10 51  1  0  0  0  0
 11 29  1  0  0  0  0
 11 53  1  0  0  0  0
 11 54  1  0  0  0  0
 12 13  1  0  0  0  0
 12 17  1  0  0  0  0
 12 18  1  0  0  0  0
 13 14  1  0  0  0  0
 13 31  1  0  0  0  0
 14 15  1  0  0  0  0
 14 32  1  0  0  0  0
 15 16  1  0  0  0  0
 15 33  1  0  0  0  0
 16 34  1  0  0  0  0
 17 35  1  0  0  0  0
 17 39  1  0  0  0  0
 17 40  1  0  0  0  0
 18 36  1  0  0  0  0
 18 37  1  0  0  0  0
 18 38  1  0  0  0  0
 19 42  1  0  0  0  0
 19 43  1  0  0  0  0
 19 44  1  0  0  0  0
 20 22  2  0  0  0  0
 20 23  1  0  0  0  0
 22 24  1  0  0  0  0
 22 27  1  0  0  0  0
 23 26  2  0  0  0  0
 23 45  1  0  0  0  0
 24 25  2  0  0  0  0
 25 26  1  0  0  0  0
 25 28  1  0  0  0  0
 26 46  1  0  0  0  0
 27 47  1  0  0  0  0
 27 48  1  0  0  0  0
 27 49  1  0  0  0  0
 28 29  2  0  0  0  0
 29 30  1  0  0  0  0
M  END
> <PUBCHEM_COMPOUND_CID>
102377823

> <PUBCHEM_CONFORMER_RMSD>
0.8

> <PUBCHEM_CONFORMER_DIVERSEORDER>
1
39
14
30
11
20
41
17
45
6
8
31
24
16
34
23
48
19
47
9
53
46
29
27
40
36
10
18
33
42
13
26
44
43
32
37
35
50
7
21
38
28
51
25
49
2
5
15
52
3
22
4
12

> <PUBCHEM_MMFF94_PARTIAL_CHARGES>
36
1 -0.56
10 -0.8
11 -0.9
12 0.28
13 0.28
14 0.28
15 0.28
16 0.56
19 0.28
2 -0.56
20 0.08
21 0.78
22 -0.14
23 -0.15
24 0.08
25 0.03
26 -0.15
27 0.14
28 0.05
29 0.11
3 -0.43
30 0.71
4 -0.36
41 0.4
45 0.15
46 0.15
5 -0.68
50 0.37
51 0.37
52 0.45
53 0.4
54 0.4
6 -0.57
7 -0.23
8 -0.53
9 -0.57

> <PUBCHEM_EFFECTIVE_ROTOR_COUNT>
6.2

> <PUBCHEM_PHARMACOPHORE_FEATURES>
15
1 1 acceptor
1 10 donor
1 11 cation
1 11 donor
1 2 acceptor
1 4 acceptor
1 5 acceptor
1 5 donor
1 6 acceptor
1 8 donor
1 9 acceptor
3 12 17 18 hydrophobe
6 1 12 13 14 15 16 rings
6 20 22 23 24 25 26 rings
6 7 24 25 28 29 30 rings

> <PUBCHEM_HEAVY_ATOM_COUNT>
30

> <PUBCHEM_ATOM_DEF_STEREO_COUNT>
4

> <PUBCHEM_ATOM_UDEF_STEREO_COUNT>
0

> <PUBCHEM_BOND_DEF_STEREO_COUNT>
0

> <PUBCHEM_BOND_UDEF_STEREO_COUNT>
0

> <PUBCHEM_ISOTOPIC_ATOM_COUNT>
0

> <PUBCHEM_COMPONENT_COUNT>
1

> <PUBCHEM_CACTVS_TAUTO_COUNT>
8

> <PUBCHEM_CONFORMER_ID>
061A295F00000001

> <PUBCHEM_MMFF94_ENERGY>
114.1579

> <PUBCHEM_FEATURE_SELFOVERLAP>
76.202

> <PUBCHEM_SHAPE_FINGERPRINT>
10319926 262 17968094209893317043
10369192 42 17900540387688523876
10673678 19 17898585421670502036
11045977 3 18335139791564064637
11135609 12 18261663823384826208
11370993 144 18408881867058562209
11545043 162 18259991483141100859
12236239 1 15841550756433358015
12403259 415 18260543411712406277
12422481 6 17130998555204539152
12633257 1 18060419127209153798
12788726 201 17418104212813692432
13150687 139 11386663867305108146
13782708 43 18335422357109761903
14341114 176 18335140899191198093
14790565 3 17693370449648343776
14863182 85 14635133630822643432
15183329 4 16487256582227842137
15348495 7 18408606993552217235
15475509 35 17894906292354343450
1577012 14 17060340743012370921
19377110 9 14923937960006331852
20511986 3 15194991701094693927
21033648 29 18408327688087826761
21315759 148 17968101979082993659
21344244 181 14346082950229310754
21792961 116 18339931394898601846
22122407 14 17703242745525851393
23522609 53 12685660936778643359
23559900 14 17968098590570347551
2838139 119 17632293437792225313
3411729 13 18270118041478981504
350125 39 17895756188497615103
474 4 17131840879974979687
5104073 3 18260548913554962929
5265222 85 17969523635387687310
57724786 102 18272368715288893120
8509985 295 18131631192752674698

> <PUBCHEM_SHAPE_MULTIPOLES>
554.6
15.62
2.48
1.78
9.13
0.45
0.1
0.18
-3.26
-3.61
-0.72
0.45
-0.01
2.21

> <PUBCHEM_SHAPE_SELFOVERLAP>
1189.697

> <PUBCHEM_SHAPE_VOLUME>
304.8

> <PUBCHEM_COORDINATE_TYPE>
2
5
10

$$$$
