REMARK  Name = 102376082
REMARK  5 active torsions:
REMARK  status: ('A' for Active; 'I' for Inactive)
REMARK    1  A    between atoms: C_5  and  O_24
REMARK    2  A    between atoms: C_9  and  O_26
REMARK    3  A    between atoms: C_13  and  O_30
REMARK    4  A    between atoms: O_26  and  C_28
REMARK    5  A    between atoms: O_30  and  C_32
REMARK                            x       y       z     vdW  Elec       q    Type
REMARK                         _______ _______ _______ _____ _____    ______ ____
ROOT
ATOM      1  O   UNL     1      -1.105  -0.870  -0.459  0.00  0.00    -0.353 OA
ATOM      2  O   UNL     1       1.997   0.870   1.984  0.00  0.00    -0.445 OA
ATOM      3  O   UNL     1       4.011   0.278   2.932  0.00  0.00    -0.245 OA
ATOM      4  C   UNL     1      -0.338  -2.009  -0.874  0.00  0.00    +0.140 C 
ATOM      5  C   UNL     1      -0.967  -3.330  -0.353  0.00  0.00    +0.113 C 
ATOM      6  C   UNL     1      -2.470  -0.861  -0.921  0.00  0.00    +0.152 C 
ATOM      7  C   UNL     1       1.166  -1.833  -0.510  0.00  0.00    +0.040 C 
ATOM      8  C   UNL     1       1.491  -1.104   0.807  0.00  0.00    +0.075 C 
ATOM      9  C   UNL     1      -3.160   0.478  -0.497  0.00  0.00    +0.161 C 
ATOM     10  C   UNL     1      -2.442  -3.375  -0.768  0.00  0.00    +0.032 C 
ATOM     11  C   UNL     1      -3.184  -2.107  -0.374  0.00  0.00    +0.036 C 
ATOM     12  C   UNL     1       1.212   0.401   0.863  0.00  0.00    +0.213 C 
ATOM     13  C   UNL     1       1.554   1.246  -0.390  0.00  0.00    +0.209 C 
ATOM     14  C   UNL     1      -2.742   1.705  -1.359  0.00  0.00    +0.043 C 
ATOM     15  C   UNL     1       0.951   2.675  -0.335  0.00  0.00    +0.044 C 
ATOM     16  C   UNL     1      -1.254   2.017  -1.528  0.00  0.00    +0.004 C 
ATOM     17  C   UNL     1      -0.598   2.666  -0.302  0.00  0.00    +0.004 C 
ATOM     18  C   UNL     1      -0.844  -3.528   1.162  0.00  0.00    +0.032 C 
ATOM     19  C   UNL     1       2.905  -1.111   1.288  0.00  0.00    +0.057 C 
ATOM     20  C   UNL     1      -4.698   0.388  -0.591  0.00  0.00    +0.046 C 
ATOM     21  C   UNL     1       3.086   0.064   2.170  0.00  0.00    +0.337 C 
ATOM     22  C   UNL     1       1.454   3.551  -1.492  0.00  0.00    +0.004 C 
ATOM     23  C   UNL     1       3.916  -1.940   1.020  0.00  0.00    +0.002 C 
ENDROOT
BRANCH   5  24
ATOM     24  O   UNL     1      -0.341  -4.446  -0.997  0.00  0.00    -0.384 OA
ATOM     25  H   UNL     1      -0.406  -4.343  -1.959  0.00  0.00    +0.210 HD
ENDBRANCH   5  24
BRANCH   9  26
ATOM     26  O   UNL     1      -2.854   0.719   0.878  0.00  0.00    -0.453 OA
BRANCH  26  28
ATOM     27  O   UNL     1      -3.807   2.824   0.856  0.00  0.00    -0.250 OA
ATOM     28  C   UNL     1      -3.471   1.800   1.436  0.00  0.00    +0.317 C 
ATOM     29  C   UNL     1      -3.686   1.556   2.899  0.00  0.00    +0.121 C 
ENDBRANCH  26  28
ENDBRANCH   9  26
BRANCH  13  30
ATOM     30  O   UNL     1       2.973   1.314  -0.541  0.00  0.00    -0.448 OA
BRANCH  30  32
ATOM     31  O   UNL     1       2.816   0.259  -2.591  0.00  0.00    -0.250 OA
ATOM     32  C   UNL     1       3.468   0.780  -1.695  0.00  0.00    +0.318 C 
ATOM     33  C   UNL     1       4.960   0.922  -1.717  0.00  0.00    +0.121 C 
ENDBRANCH  30  32
ENDBRANCH  13  30
TORSDOF 5
