102345055
  -OEChem-03292013293D

 52 54  0     1  0  0  0  0  0999 V2000
   -4.4208   -0.5027   -0.5633 S   0  0  0  0  0  0  0  0  0  0  0  0
   -3.7188    0.6942    0.2947 O   0  0  0  0  0  0  0  0  0  0  0  0
    1.6673   -4.0815   -1.1241 O   0  0  0  0  0  0  0  0  0  0  0  0
    3.1796   -1.7752   -1.3063 O   0  0  0  0  0  0  0  0  0  0  0  0
    4.3331    0.2842    1.0591 O   0  0  0  0  0  0  0  0  0  0  0  0
   -5.6161    0.2559   -1.3740 O   0  0  0  0  0  0  0  0  0  0  0  0
   -3.4512   -0.9596   -1.5413 O   0  0  0  0  0  0  0  0  0  0  0  0
   -5.0326   -1.4470    0.3529 O   0  0  0  0  0  0  0  0  0  0  0  0
   -2.3476    0.5789    0.6729 C   0  0  1  0  0  0  0  0  0  0  0  0
   -1.7929    1.9959    0.9374 C   0  0  0  0  0  0  0  0  0  0  0  0
   -2.2386   -0.3379    1.9196 C   0  0  0  0  0  0  0  0  0  0  0  0
   -1.7464    2.8749   -0.3281 C   0  0  0  0  0  0  0  0  0  0  0  0
   -0.7363    4.0400   -0.2214 C   0  0  0  0  0  0  0  0  0  0  0  0
   -1.6878   -1.7627    1.6281 C   0  0  0  0  0  0  0  0  0  0  0  0
    0.5219    3.9185   -1.1136 C   0  0  0  0  0  0  0  0  0  0  0  0
   -0.3104   -1.8465    1.0039 C   0  0  0  0  0  0  0  0  0  0  0  0
    1.5821    2.9684   -0.6116 C   0  0  0  0  0  0  0  0  0  0  0  0
    1.6928   -0.6770    0.2175 C   0  0  0  0  0  0  0  0  0  0  0  0
    0.5662   -0.7659    1.0535 C   0  0  0  0  0  0  0  0  0  0  0  0
    2.2197    0.6710   -0.0126 C   0  0  0  0  0  0  0  0  0  0  0  0
    1.3397    1.5964   -0.6135 C   0  0  0  0  0  0  0  0  0  0  0  0
    0.0977   -2.9759    0.2889 C   0  0  0  0  0  0  0  0  0  0  0  0
    2.0844   -1.8071   -0.4960 C   0  0  0  0  0  0  0  0  0  0  0  0
    2.8091    3.4106   -0.1106 C   0  0  0  0  0  0  0  0  0  0  0  0
    1.3034   -2.9661   -0.4280 C   0  0  0  0  0  0  0  0  0  0  0  0
    3.4428    1.1298    0.4701 C   0  0  0  0  0  0  0  0  0  0  0  0
    3.7400    2.4955    0.4032 C   0  0  0  0  0  0  0  0  0  0  0  0
    2.5197   -5.0093   -0.4576 C   0  0  0  0  0  0  0  0  0  0  0  0
   -1.7793    0.1630   -0.1646 H   0  0  0  0  0  0  0  0  0  0  0  0
   -0.7895    1.9276    1.3652 H   0  0  0  0  0  0  0  0  0  0  0  0
   -2.4199    2.5018    1.6827 H   0  0  0  0  0  0  0  0  0  0  0  0
   -3.2260   -0.4506    2.3853 H   0  0  0  0  0  0  0  0  0  0  0  0
   -1.6032    0.1279    2.6825 H   0  0  0  0  0  0  0  0  0  0  0  0
   -2.7496    3.2964   -0.4739 H   0  0  0  0  0  0  0  0  0  0  0  0
   -1.5458    2.2751   -1.2218 H   0  0  0  0  0  0  0  0  0  0  0  0
   -0.4478    4.2166    0.8218 H   0  0  0  0  0  0  0  0  0  0  0  0
   -1.2625    4.9461   -0.5506 H   0  0  0  0  0  0  0  0  0  0  0  0
   -2.3982   -2.2780    0.9714 H   0  0  0  0  0  0  0  0  0  0  0  0
   -1.6608   -2.3207    2.5722 H   0  0  0  0  0  0  0  0  0  0  0  0
    0.9670    4.9182   -1.2034 H   0  0  0  0  0  0  0  0  0  0  0  0
    0.2354    3.6311   -2.1332 H   0  0  0  0  0  0  0  0  0  0  0  0
    0.3143    0.1020    1.6547 H   0  0  0  0  0  0  0  0  0  0  0  0
    0.4019    1.2297   -1.0260 H   0  0  0  0  0  0  0  0  0  0  0  0
   -0.5387   -3.8574    0.2569 H   0  0  0  0  0  0  0  0  0  0  0  0
    3.0518    4.4702   -0.1043 H   0  0  0  0  0  0  0  0  0  0  0  0
    4.6849    2.8722    0.7883 H   0  0  0  0  0  0  0  0  0  0  0  0
    3.6312   -0.9194   -1.2328 H   0  0  0  0  0  0  0  0  0  0  0  0
    5.1142    0.7909    1.3402 H   0  0  0  0  0  0  0  0  0  0  0  0
   -6.1611   -0.3212   -1.9588 H   0  0  0  0  0  0  0  0  0  0  0  0
    2.7164   -5.8435   -1.1365 H   0  0  0  0  0  0  0  0  0  0  0  0
    2.0334   -5.3978    0.4429 H   0  0  0  0  0  0  0  0  0  0  0  0
    3.4726   -4.5382   -0.1964 H   0  0  0  0  0  0  0  0  0  0  0  0
  1  2  1  0  0  0  0
  1  6  1  0  0  0  0
  1  7  2  0  0  0  0
  1  8  2  0  0  0  0
  2  9  1  0  0  0  0
  3 25  1  0  0  0  0
  3 28  1  0  0  0  0
  4 23  1  0  0  0  0
  4 47  1  0  0  0  0
  5 26  1  0  0  0  0
  5 48  1  0  0  0  0
  6 49  1  0  0  0  0
  9 10  1  0  0  0  0
  9 11  1  0  0  0  0
  9 29  1  0  0  0  0
 10 12  1  0  0  0  0
 10 30  1  0  0  0  0
 10 31  1  0  0  0  0
 11 14  1  0  0  0  0
 11 32  1  0  0  0  0
 11 33  1  0  0  0  0
 12 13  1  0  0  0  0
 12 34  1  0  0  0  0
 12 35  1  0  0  0  0
 13 15  1  0  0  0  0
 13 36  1  0  0  0  0
 13 37  1  0  0  0  0
 14 16  1  0  0  0  0
 14 38  1  0  0  0  0
 14 39  1  0  0  0  0
 15 17  1  0  0  0  0
 15 40  1  0  0  0  0
 15 41  1  0  0  0  0
 16 19  2  0  0  0  0
 16 22  1  0  0  0  0
 17 21  2  0  0  0  0
 17 24  1  0  0  0  0
 18 19  1  0  0  0  0
 18 20  1  0  0  0  0
 18 23  2  0  0  0  0
 19 42  1  0  0  0  0
 20 21  1  0  0  0  0
 20 26  2  0  0  0  0
 21 43  1  0  0  0  0
 22 25  2  0  0  0  0
 22 44  1  0  0  0  0
 23 25  1  0  0  0  0
 24 27  2  0  0  0  0
 24 45  1  0  0  0  0
 26 27  1  0  0  0  0
 27 46  1  0  0  0  0
 28 50  1  0  0  0  0
 28 51  1  0  0  0  0
 28 52  1  0  0  0  0
M  END
> <PUBCHEM_COMPOUND_CID>
102345055

> <PUBCHEM_CONFORMER_RMSD>
0.8

> <PUBCHEM_CONFORMER_DIVERSEORDER>
1
14
15
6
12
2
16
10
3
8
9
13
7
18
11
5
17
4

> <PUBCHEM_MMFF94_PARTIAL_CHARGES>
30
1 1.67
14 0.14
15 0.14
16 -0.14
17 -0.14
19 -0.15
2 -0.46
21 -0.15
22 -0.15
23 0.08
24 -0.15
25 0.08
26 0.08
27 -0.15
28 0.28
3 -0.36
4 -0.53
42 0.15
43 0.15
44 0.15
45 0.15
46 0.15
47 0.45
48 0.45
49 0.5
5 -0.53
6 -0.68
7 -0.65
8 -0.65
9 0.28

> <PUBCHEM_EFFECTIVE_ROTOR_COUNT>
4.4

> <PUBCHEM_PHARMACOPHORE_FEATURES>
9
1 3 acceptor
1 4 donor
1 5 donor
1 6 acceptor
1 7 acceptor
1 8 acceptor
4 1 6 7 8 anion
6 16 18 19 22 23 25 rings
6 17 20 21 24 26 27 rings

> <PUBCHEM_HEAVY_ATOM_COUNT>
28

> <PUBCHEM_ATOM_DEF_STEREO_COUNT>
1

> <PUBCHEM_ATOM_UDEF_STEREO_COUNT>
0

> <PUBCHEM_BOND_DEF_STEREO_COUNT>
0

> <PUBCHEM_BOND_UDEF_STEREO_COUNT>
0

> <PUBCHEM_ISOTOPIC_ATOM_COUNT>
0

> <PUBCHEM_COMPONENT_COUNT>
1

> <PUBCHEM_CACTVS_TAUTO_COUNT>
975

> <PUBCHEM_CONFORMER_ID>
0619A95F00000001

> <PUBCHEM_MMFF94_ENERGY>
100.1748

> <PUBCHEM_FEATURE_SELFOVERLAP>
45.73

> <PUBCHEM_SHAPE_FINGERPRINT>
11370993 70 18191583253852689377
12553582 1 18262539051166458929
12788726 201 16895410390899908482
13140716 1 18263375848302868752
13402501 40 18114454682317970397
1361 2 18339920549657513151
13899415 180 18121210974674737518
14117953 113 18339082704195279117
14251757 5 17041770781434352606
15403338 16 17241861299126524144
19930381 70 18409452513883365945
20028762 73 18272080639105301702
20642791 105 17621026990785959282
20715895 44 18261098695766746049
20775438 99 17616486772436612117
21141583 151 17113826185328817336
22113638 7 18049438437579042460
23559900 14 18410575076173709291
238 59 18410301336538502507
238918 7 18195507230911722648
23929065 36 17327729601609360450
4017518 198 18059857312219362238
474 4 18410853304307962227
484985 159 14861668020794294400
5171179 24 18053656976591250426
57527358 35 15984276123457634114
57527585 103 17678204636325153761
59554788 191 18047751791120838915
6287921 2 18270697376015069697
70251023 43 18267586797918083427

> <PUBCHEM_SHAPE_MULTIPOLES>
538.99
7.62
6.16
1.34
7.98
1.96
0.15
-0.53
-1.11
-5.06
-1.97
0.72
0.36
0.87

> <PUBCHEM_SHAPE_SELFOVERLAP>
1131.11

> <PUBCHEM_SHAPE_VOLUME>
304.4

> <PUBCHEM_COORDINATE_TYPE>
2
5
10

$$$$
