REMARK  Name = 102367614
REMARK  13 active torsions:
REMARK  status: ('A' for Active; 'I' for Inactive)
REMARK    1  A    between atoms: C_1  and  C_36
REMARK    2  A    between atoms: C_2  and  C_24
REMARK    3  A    between atoms: C_3  and  C_9
REMARK    4  A    between atoms: C_11  and  O_20
REMARK    5  A    between atoms: C_18  and  O_22
REMARK    6  A    between atoms: C_24  and  C_26
REMARK    7  A    between atoms: C_26  and  C_27
REMARK    8  A    between atoms: C_27  and  C_28
REMARK    9  A    between atoms: C_28  and  C_29
REMARK   10  A    between atoms: C_28  and  O_34
REMARK   11  A    between atoms: C_29  and  O_32
REMARK   12  A    between atoms: C_36  and  C_37
REMARK   13  A    between atoms: C_37  and  O_38
REMARK                            x       y       z     vdW  Elec       q    Type
REMARK                         _______ _______ _______ _____ _____    ______ ____
ROOT
ATOM      1  C   UNL     1       0.415  -0.453  -0.356  0.00  0.00    +0.006 C 
ATOM      2  C   UNL     1       1.714  -0.388   0.490  0.00  0.00    +0.000 C 
ATOM      3  C   UNL     1      -0.618   0.040   0.695  0.00  0.00    +0.025 C 
ATOM      4  C   UNL     1       1.589   0.920   1.284  0.00  0.00    +0.000 C 
ATOM      5  C   UNL     1       0.089   1.204   1.404  0.00  0.00    +0.004 C 
ATOM      6  C   UNL     1       0.472   0.451  -1.604  0.00  0.00    +0.000 C 
ENDROOT
BRANCH   3   9
ATOM      7  O   UNL     1      -2.727  -1.791   0.632  0.00  0.00    -0.292 OA
ATOM      8  O   UNL     1      -3.804   3.069  -1.285  0.00  0.00    -0.289 OA
ATOM      9  C   UNL     1      -1.973   0.398   0.178  0.00  0.00    +0.015 C 
ATOM     10  C   UNL     1      -4.323  -0.438  -0.597  0.00  0.00    +0.084 C 
ATOM     11  C   UNL     1      -4.772   1.031  -0.409  0.00  0.00    +0.151 C 
ATOM     12  C   UNL     1      -2.995  -0.694   0.138  0.00  0.00    +0.171 C 
ATOM     13  C   UNL     1      -5.421  -1.406  -0.087  0.00  0.00    +0.012 C 
ATOM     14  C   UNL     1      -5.280   1.323   1.021  0.00  0.00    +0.064 C 
ATOM     15  C   UNL     1      -2.272   1.629  -0.250  0.00  0.00    +0.038 C 
ATOM     16  C   UNL     1      -3.631   1.993  -0.715  0.00  0.00    +0.197 C 
ATOM     17  C   UNL     1      -5.881  -1.104   1.340  0.00  0.00    +0.030 C 
ATOM     18  C   UNL     1      -6.347   0.339   1.498  0.00  0.00    +0.113 C 
ATOM     19  C   UNL     1      -4.062  -0.778  -2.083  0.00  0.00    +0.010 C 
BRANCH  11  20
ATOM     20  O   UNL     1      -5.812   1.329  -1.341  0.00  0.00    -0.379 OA
ATOM     21  H   UNL     1      -6.565   0.737  -1.184  0.00  0.00    +0.211 HD
ENDBRANCH  11  20
BRANCH  18  22
ATOM     22  O   UNL     1      -7.548   0.547   0.760  0.00  0.00    -0.384 OA
ATOM     23  H   UNL     1      -7.837   1.467   0.866  0.00  0.00    +0.210 HD
ENDBRANCH  18  22
ENDBRANCH   3   9
BRANCH   2  24
ATOM     24  C   UNL     1       3.030  -0.480  -0.272  0.00  0.00    +0.000 C 
ATOM     25  C   UNL     1       3.297  -1.933  -0.679  0.00  0.00    +0.000 C 
BRANCH  24  26
ATOM     26  C   UNL     1       4.226   0.058   0.540  0.00  0.00    +0.003 C 
BRANCH  26  27
ATOM     27  C   UNL     1       5.571  -0.091  -0.189  0.00  0.00    +0.032 C 
BRANCH  27  28
ATOM     28  C   UNL     1       6.734   0.498   0.625  0.00  0.00    +0.135 C 
BRANCH  28  29
ATOM     29  C   UNL     1       8.113   0.443  -0.081  0.00  0.00    +0.113 C 
ATOM     30  C   UNL     1       8.590  -0.985  -0.359  0.00  0.00    +0.032 C 
ATOM     31  C   UNL     1       9.191   1.215   0.685  0.00  0.00    +0.032 C 
BRANCH  29  32
ATOM     32  O   UNL     1       7.968   1.078  -1.361  0.00  0.00    -0.384 OA
ATOM     33  H   UNL     1       7.290   0.614  -1.877  0.00  0.00    +0.210 HD
ENDBRANCH  29  32
ENDBRANCH  28  29
BRANCH  28  34
ATOM     34  O   UNL     1       6.415   1.859   0.932  0.00  0.00    -0.382 OA
ATOM     35  H   UNL     1       5.552   1.897   1.374  0.00  0.00    +0.210 HD
ENDBRANCH  28  34
ENDBRANCH  27  28
ENDBRANCH  26  27
ENDBRANCH  24  26
ENDBRANCH   2  24
BRANCH   1  36
ATOM     36  C   UNL     1       0.110  -1.889  -0.807  0.00  0.00    +0.032 C 
BRANCH  36  37
ATOM     37  C   UNL     1       0.105  -2.843   0.370  0.00  0.00    +0.137 C 
BRANCH  37  38
ATOM     38  O   UNL     1      -0.163  -4.150  -0.119  0.00  0.00    -0.382 OA
ATOM     39  H   UNL     1      -0.170  -4.777   0.621  0.00  0.00    +0.210 HD
ENDBRANCH  37  38
ENDBRANCH  36  37
ENDBRANCH   1  36
TORSDOF 13
