REMARK  Name = 102366115
REMARK  4 active torsions:
REMARK  status: ('A' for Active; 'I' for Inactive)
REMARK    1  A    between atoms: C_6  and  C_20
REMARK    2  A    between atoms: C_15  and  O_28
REMARK    3  A    between atoms: C_16  and  O_30
REMARK    4  A    between atoms: C_25  and  O_26
REMARK                            x       y       z     vdW  Elec       q    Type
REMARK                         _______ _______ _______ _____ _____    ______ ____
ROOT
ATOM      1  O   UNL     1       0.804   2.274  -0.054  0.00  0.00    -0.284 OA
ATOM      2  O   UNL     1       3.388  -2.398   0.096  0.00  0.00    -0.283 OA
ATOM      3  N   UNL     1      -1.760  -3.442   0.069  0.00  0.00    -0.247 N 
ATOM      4  N   UNL     1      -2.857  -1.511   0.009  0.00  0.00    -0.376 NA
ATOM      5  N   UNL     1      -4.108  -3.564   0.048  0.00  0.00    -0.321 N 
ATOM      6  C   UNL     1      -0.797  -0.060  -0.008  0.00  0.00    +0.101 C 
ATOM      7  C   UNL     1      -0.792  -2.471   0.054  0.00  0.00    +0.081 C 
ATOM      8  C   UNL     1       0.609  -0.097   0.007  0.00  0.00    +0.034 C 
ATOM      9  C   UNL     1      -1.502  -1.276   0.016  0.00  0.00    +0.133 C 
ATOM     10  C   UNL     1       1.294  -1.315   0.046  0.00  0.00    +0.043 C 
ATOM     11  C   UNL     1       0.602  -2.537   0.070  0.00  0.00    +0.020 C 
ATOM     12  C   UNL     1       1.352   1.179  -0.018  0.00  0.00    +0.229 C 
ATOM     13  C   UNL     1      -2.977  -2.820   0.041  0.00  0.00    +0.239 C 
ATOM     14  C   UNL     1       2.771  -1.340   0.062  0.00  0.00    +0.232 C 
ATOM     15  C   UNL     1       2.834   1.122   0.000  0.00  0.00    +0.214 C 
ATOM     16  C   UNL     1       3.490  -0.043   0.037  0.00  0.00    +0.214 C 
ATOM     17  C   UNL     1      -1.520  -4.869   0.108  0.00  0.00    +0.121 C 
ATOM     18  H   UNL     1      -4.050  -4.546   0.074  0.00  0.00    +0.146 HD
ATOM     19  H   UNL     1      -4.987  -3.123   0.028  0.00  0.00    +0.146 HD
ENDROOT
BRANCH   6  20
ATOM     20  C   UNL     1      -1.615   1.133  -0.045  0.00  0.00    -0.011 C 
ATOM     21  C   UNL     1      -1.998   1.679  -1.271  0.00  0.00    -0.000 C 
ATOM     22  C   UNL     1      -2.021   1.738   1.144  0.00  0.00    -0.000 C 
ATOM     23  C   UNL     1      -2.785   2.829  -1.307  0.00  0.00    +0.036 C 
ATOM     24  C   UNL     1      -2.808   2.889   1.109  0.00  0.00    +0.036 C 
ATOM     25  C   UNL     1      -3.190   3.435  -0.117  0.00  0.00    +0.134 C 
BRANCH  25  26
ATOM     26  O   UNL     1      -3.957   4.558  -0.152  0.00  0.00    -0.506 OA
ATOM     27  H   UNL     1      -4.214   4.925  -0.976  0.00  0.00    +0.292 HD
ENDBRANCH  25  26
ENDBRANCH   6  20
BRANCH  15  28
ATOM     28  O   UNL     1       3.524   2.319  -0.022  0.00  0.00    -0.465 OA
ATOM     29  C   UNL     1       3.759   2.785   1.292  0.00  0.00    +0.253 C 
ENDBRANCH  15  28
BRANCH  16  30
ATOM     30  O   UNL     1       4.871  -0.075   0.052  0.00  0.00    -0.465 OA
ATOM     31  C   UNL     1       5.385  -0.121  -1.264  0.00  0.00    +0.253 C 
ENDBRANCH  16  30
TORSDOF 4
