REMARK  Name = 102363036
REMARK  7 active torsions:
REMARK  status: ('A' for Active; 'I' for Inactive)
REMARK    1  A    between atoms: C_5  and  C_14
REMARK    2  A    between atoms: C_6  and  O_24
REMARK    3  A    between atoms: C_13  and  O_26
REMARK    4  A    between atoms: C_13  and  C_28
REMARK    5  A    between atoms: C_17  and  O_20
REMARK    6  A    between atoms: C_19  and  O_22
REMARK    7  A    between atoms: C_29  and  C_30
REMARK                            x       y       z     vdW  Elec       q    Type
REMARK                         _______ _______ _______ _____ _____    ______ ____
ROOT
ATOM      1  O   UNL     1      -1.920   3.502  -1.764  0.00  0.00    -0.293 OA
ATOM      2  O   UNL     1       0.750   0.126  -1.603  0.00  0.00    -0.291 OA
ATOM      3  C   UNL     1      -1.363   1.230  -1.037  0.00  0.00    +0.112 C 
ATOM      4  C   UNL     1      -0.377   2.108   1.252  0.00  0.00    +0.060 C 
ATOM      5  C   UNL     1      -2.227   0.716   0.165  0.00  0.00    +0.036 C 
ATOM      6  C   UNL     1      -0.834   3.320   0.396  0.00  0.00    +0.143 C 
ATOM      7  C   UNL     1      -1.577   1.162   1.513  0.00  0.00    +0.013 C 
ATOM      8  C   UNL     1      -1.419   2.771  -0.913  0.00  0.00    +0.181 C 
ATOM      9  C   UNL     1       0.649   1.302   0.486  0.00  0.00    +0.049 C 
ATOM     10  C   UNL     1       0.098   0.801  -0.816  0.00  0.00    +0.178 C 
ATOM     11  C   UNL     1      -1.889   0.777  -2.398  0.00  0.00    +0.016 C 
ATOM     12  C   UNL     1       0.294   4.309   0.105  0.00  0.00    +0.037 C 
ATOM     13  C   UNL     1       1.900   1.032   0.871  0.00  0.00    +0.132 C 
ENDROOT
BRANCH   5  14
ATOM     14  C   UNL     1      -2.403  -0.771   0.160  0.00  0.00    -0.018 C 
ATOM     15  C   UNL     1      -1.287  -1.605   0.230  0.00  0.00    +0.036 C 
ATOM     16  C   UNL     1      -3.682  -1.321   0.086  0.00  0.00    -0.001 C 
ATOM     17  C   UNL     1      -1.451  -2.990   0.226  0.00  0.00    +0.172 C 
ATOM     18  C   UNL     1      -3.846  -2.707   0.082  0.00  0.00    +0.039 C 
ATOM     19  C   UNL     1      -2.731  -3.541   0.152  0.00  0.00    +0.168 C 
BRANCH  17  20
ATOM     20  O   UNL     1      -0.354  -3.795   0.297  0.00  0.00    -0.468 OA
ATOM     21  C   UNL     1       0.917  -3.152   0.371  0.00  0.00    +0.253 C 
ENDBRANCH  17  20
BRANCH  19  22
ATOM     22  O   UNL     1      -2.904  -4.892   0.148  0.00  0.00    -0.503 OA
ATOM     23  H   UNL     1      -2.159  -5.460   0.195  0.00  0.00    +0.292 HD
ENDBRANCH  19  22
ENDBRANCH   5  14
BRANCH   6  24
ATOM     24  O   UNL     1      -1.880   4.004   1.074  0.00  0.00    -0.379 OA
ATOM     25  H   UNL     1      -2.602   3.384   1.263  0.00  0.00    +0.211 HD
ENDBRANCH   6  24
BRANCH  13  26
ATOM     26  O   UNL     1       2.412   1.492   2.071  0.00  0.00    -0.506 OA
ATOM     27  H   UNL     1       1.878   2.010   2.640  0.00  0.00    +0.292 HD
ENDBRANCH  13  26
BRANCH  13  28
ATOM     28  C   UNL     1       2.812   0.239   0.064  0.00  0.00    +0.036 C 
ATOM     29  C   UNL     1       4.078  -0.070   0.390  0.00  0.00    +0.003 C 
BRANCH  29  30
ATOM     30  C   UNL     1       4.936  -0.867  -0.460  0.00  0.00    -0.004 C 
ATOM     31  C   UNL     1       6.201  -1.179  -0.140  0.00  0.00    -0.026 C 
ATOM     32  C   UNL     1       7.096  -2.000  -1.007  0.00  0.00    +0.031 C 
ENDBRANCH  29  30
ENDBRANCH  13  28
TORSDOF 7
