REMARK  Name = 102340775
REMARK  4 active torsions:
REMARK  status: ('A' for Active; 'I' for Inactive)
REMARK    1  A    between atoms: C_4  and  C_17
REMARK    2  A    between atoms: C_8  and  O_24
REMARK    3  A    between atoms: O_24  and  C_25
REMARK    4  A    between atoms: C_25  and  C_30
REMARK                            x       y       z     vdW  Elec       q    Type
REMARK                         _______ _______ _______ _____ _____    ______ ____
ROOT
ATOM      1  O   UNL     1       0.460   0.783  -0.482  0.00  0.00    -0.455 OA
ATOM      2  N   UNL     1       3.675   3.206   0.189  0.00  0.00    -0.253 NA
ATOM      3  N   UNL     1       5.233   1.526  -0.430  0.00  0.00    -0.344 N 
ATOM      4  C   UNL     1      -0.562   1.620  -0.164  0.00  0.00    +0.141 C 
ATOM      5  C   UNL     1       1.615   1.482  -0.298  0.00  0.00    +0.155 C 
ATOM      6  C   UNL     1       1.331   2.771   0.140  0.00  0.00    +0.038 C 
ATOM      7  C   UNL     1      -0.083   2.849   0.223  0.00  0.00    +0.038 C 
ATOM      8  C   UNL     1       2.898   1.002  -0.509  0.00  0.00    +0.225 C 
ATOM      9  C   UNL     1       2.402   3.633   0.382  0.00  0.00    +0.156 C 
ATOM     10  C   UNL     1       3.886   1.936  -0.240  0.00  0.00    +0.132 C 
ATOM     11  H   UNL     1       5.969   2.155  -0.252  0.00  0.00    +0.143 HD
ATOM     12  H   UNL     1       5.430   0.613  -0.740  0.00  0.00    +0.143 HD
ENDROOT
BRANCH   4  17
ATOM     13  O   UNL     1      -6.861   0.948   0.526  0.00  0.00    -0.253 OA
ATOM     14  N   UNL     1      -4.733   0.439  -0.274  0.00  0.00    -0.260 N 
ATOM     15  N   UNL     1      -6.345  -1.230   0.152  0.00  0.00    -0.313 N 
ATOM     16  C   UNL     1      -3.044   2.188   0.147  0.00  0.00    +0.051 C 
ATOM     17  C   UNL     1      -1.980   1.196  -0.247  0.00  0.00    +0.011 C 
ATOM     18  C   UNL     1      -4.389   1.845  -0.487  0.00  0.00    +0.100 C 
ATOM     19  C   UNL     1      -3.739  -0.552  -0.709  0.00  0.00    +0.121 C 
ATOM     20  C   UNL     1      -2.328  -0.043  -0.643  0.00  0.00    -0.006 C 
ATOM     21  C   UNL     1      -6.028   0.114   0.161  0.00  0.00    +0.301 C 
ATOM     22  H   UNL     1      -7.236  -1.528   0.444  0.00  0.00    +0.146 HD
ATOM     23  H   UNL     1      -5.679  -1.891  -0.147  0.00  0.00    +0.146 HD
ENDBRANCH   4  17
BRANCH   8  24
ATOM     24  O   UNL     1       3.148  -0.263  -0.937  0.00  0.00    -0.340 OA
BRANCH  24  25
ATOM     25  C   UNL     1       3.317  -1.268   0.063  0.00  0.00    +0.140 C 
ATOM     26  C   UNL     1       4.299  -2.322  -0.436  0.00  0.00    +0.037 C 
BRANCH  25  30
ATOM     27 CL   UNL     1       1.852  -2.738  -2.177  0.00  0.00    -0.080 Cl
ATOM     28 CL   UNL     1       2.319  -0.887   2.928  0.00  0.00    -0.082 Cl
ATOM     29  F   UNL     1      -0.710  -3.761  -1.180  0.00  0.00    -0.203 F 
ATOM     30  C   UNL     1       1.971  -1.863   0.403  0.00  0.00    +0.028 C 
ATOM     31  C   UNL     1       1.245  -2.549  -0.571  0.00  0.00    +0.084 C 
ATOM     32  C   UNL     1       1.454  -1.726   1.691  0.00  0.00    +0.057 C 
ATOM     33  C   UNL     1       0.002  -3.098  -0.257  0.00  0.00    +0.150 C 
ATOM     34  C   UNL     1       0.211  -2.275   2.006  0.00  0.00    +0.014 C 
ATOM     35  C   UNL     1      -0.515  -2.961   1.032  0.00  0.00    +0.031 C 
ENDBRANCH  25  30
ENDBRANCH  24  25
ENDBRANCH   8  24
TORSDOF 4
