102357769
  -OEChem-03292013293D

 37 37  0     1  0  0  0  0  0999 V2000
   -0.3508   -0.1035    0.1601 O   0  0  0  0  0  0  0  0  0  0  0  0
   -3.9131    0.6414   -0.2497 O   0  0  0  0  0  0  0  0  0  0  0  0
   -3.9019   -2.1125    0.6287 O   0  0  0  0  0  0  0  0  0  0  0  0
    0.8599   -2.0980    0.1405 O   0  0  0  0  0  0  0  0  0  0  0  0
   -1.5272   -3.5159   -0.4065 O   0  0  0  0  0  0  0  0  0  0  0  0
   -0.1577    2.5880   -0.3632 O   0  0  0  0  0  0  0  0  0  0  0  0
   -0.5550    4.6145    0.6727 O   0  0  0  0  0  0  0  0  0  0  0  0
    4.4734    0.7512    0.3139 N   0  0  0  0  0  0  0  0  0  0  0  0
   -2.7711   -0.0336    0.2711 C   0  0  1  0  0  0  0  0  0  0  0  0
   -2.8390   -1.5118   -0.1127 C   0  0  1  0  0  0  0  0  0  0  0  0
   -1.5020    0.6148   -0.2870 C   0  0  1  0  0  0  0  0  0  0  0  0
   -1.5268   -2.2277    0.2081 C   0  0  2  0  0  0  0  0  0  0  0  0
   -0.3236   -1.4459   -0.3192 C   0  0  1  0  0  0  0  0  0  0  0  0
   -1.3533    2.0591    0.1807 C   0  0  0  0  0  0  0  0  0  0  0  0
    1.9854   -1.7387   -0.6455 C   0  0  0  0  0  0  0  0  0  0  0  0
    0.1273    3.8879   -0.0371 C   0  0  0  0  0  0  0  0  0  0  0  0
    3.1878   -2.4508   -0.1165 C   0  0  0  0  0  0  0  0  0  0  0  0
    1.4137    4.3100   -0.6797 C   0  0  0  0  0  0  0  0  0  0  0  0
    4.2866   -1.8227    0.3234 C   0  0  0  0  0  0  0  0  0  0  0  0
    4.3873   -0.4060    0.3177 C   0  0  0  0  0  0  0  0  0  0  0  0
   -2.8027    0.0652    1.3631 H   0  0  0  0  0  0  0  0  0  0  0  0
   -3.1008   -1.6292   -1.1708 H   0  0  0  0  0  0  0  0  0  0  0  0
   -1.5087    0.6135   -1.3856 H   0  0  0  0  0  0  0  0  0  0  0  0
   -1.4334   -2.3927    1.2881 H   0  0  0  0  0  0  0  0  0  0  0  0
   -0.3330   -1.4484   -1.4183 H   0  0  0  0  0  0  0  0  0  0  0  0
   -1.2856    2.0932    1.2750 H   0  0  0  0  0  0  0  0  0  0  0  0
   -2.2062    2.6623   -0.1503 H   0  0  0  0  0  0  0  0  0  0  0  0
   -3.8872    0.5714   -1.2193 H   0  0  0  0  0  0  0  0  0  0  0  0
   -3.6897   -2.0396    1.5749 H   0  0  0  0  0  0  0  0  0  0  0  0
   -1.6091   -3.3916   -1.3675 H   0  0  0  0  0  0  0  0  0  0  0  0
    1.8250   -2.0712   -1.6785 H   0  0  0  0  0  0  0  0  0  0  0  0
    2.0889   -0.6497   -0.6599 H   0  0  0  0  0  0  0  0  0  0  0  0
    3.1609   -3.5371   -0.0951 H   0  0  0  0  0  0  0  0  0  0  0  0
    1.6346    5.3453   -0.4045 H   0  0  0  0  0  0  0  0  0  0  0  0
    1.3213    4.2499   -1.7669 H   0  0  0  0  0  0  0  0  0  0  0  0
    2.2297    3.6742   -0.3268 H   0  0  0  0  0  0  0  0  0  0  0  0
    5.1273   -2.3992    0.6943 H   0  0  0  0  0  0  0  0  0  0  0  0
  1 11  1  0  0  0  0
  1 13  1  0  0  0  0
  2  9  1  0  0  0  0
  2 28  1  0  0  0  0
  3 10  1  0  0  0  0
  3 29  1  0  0  0  0
  4 13  1  0  0  0  0
  4 15  1  0  0  0  0
  5 12  1  0  0  0  0
  5 30  1  0  0  0  0
  6 14  1  0  0  0  0
  6 16  1  0  0  0  0
  7 16  2  0  0  0  0
  8 20  3  0  0  0  0
  9 10  1  0  0  0  0
  9 11  1  0  0  0  0
  9 21  1  0  0  0  0
 10 12  1  0  0  0  0
 10 22  1  0  0  0  0
 11 14  1  0  0  0  0
 11 23  1  0  0  0  0
 12 13  1  0  0  0  0
 12 24  1  0  0  0  0
 13 25  1  0  0  0  0
 14 26  1  0  0  0  0
 14 27  1  0  0  0  0
 15 17  1  0  0  0  0
 15 31  1  0  0  0  0
 15 32  1  0  0  0  0
 16 18  1  0  0  0  0
 17 19  2  0  0  0  0
 17 33  1  0  0  0  0
 18 34  1  0  0  0  0
 18 35  1  0  0  0  0
 18 36  1  0  0  0  0
 19 20  1  0  0  0  0
 19 37  1  0  0  0  0
M  END
> <PUBCHEM_COMPOUND_CID>
102357769

> <PUBCHEM_CONFORMER_RMSD>
1

> <PUBCHEM_CONFORMER_DIVERSEORDER>
1
91
83
62
114
140
21
4
45
56
82
55
131
85
109
74
47
128
116
12
125
130
88
115
96
129
143
101
90
52
33
124
76
2
139
118
57
134
84
75
20
138
17
107
46
133
122
113
60
32
19
104
66
121
37
6
73
102
119
71
111
28
135
97
137
10
103
99
23
86
108
110
49
117
34
38
26
42
14
53
63
36
39
50
77
87
69
142
54
98
61
106
79
29
41
3
43
18
78
136
40
67
127
112
58
22
95
13
68
44
93
27
126
25
132
5
59
8
100
81
123
65
31
92
64
105
7
141
30
80
48
120
15
51
9
24
16
70
72
89
94
35
11

> <PUBCHEM_MMFF94_PARTIAL_CHARGES>
25
1 -0.56
10 0.28
11 0.28
12 0.28
13 0.56
14 0.28
15 0.42
16 0.66
17 -0.29
18 0.06
19 -0.09
2 -0.68
20 0.49
28 0.4
29 0.4
3 -0.68
30 0.4
33 0.15
37 0.15
4 -0.56
5 -0.68
6 -0.43
7 -0.57
8 -0.56
9 0.28

> <PUBCHEM_EFFECTIVE_ROTOR_COUNT>
7.2

> <PUBCHEM_PHARMACOPHORE_FEATURES>
11
1 1 acceptor
1 2 acceptor
1 2 donor
1 3 acceptor
1 3 donor
1 4 acceptor
1 5 acceptor
1 5 donor
1 7 acceptor
1 8 acceptor
6 1 9 10 11 12 13 rings

> <PUBCHEM_HEAVY_ATOM_COUNT>
20

> <PUBCHEM_ATOM_DEF_STEREO_COUNT>
5

> <PUBCHEM_ATOM_UDEF_STEREO_COUNT>
0

> <PUBCHEM_BOND_DEF_STEREO_COUNT>
1

> <PUBCHEM_BOND_UDEF_STEREO_COUNT>
0

> <PUBCHEM_ISOTOPIC_ATOM_COUNT>
0

> <PUBCHEM_COMPONENT_COUNT>
1

> <PUBCHEM_CACTVS_TAUTO_COUNT>
2

> <PUBCHEM_CONFORMER_ID>
0619DB0900000001

> <PUBCHEM_MMFF94_ENERGY>
40.9848

> <PUBCHEM_FEATURE_SELFOVERLAP>
55.88

> <PUBCHEM_SHAPE_FINGERPRINT>
10670039 82 18336278860420964180
1100329 8 18410017650075478225
12173636 292 17834111944389578766
13140716 1 18337119951633833443
138480 1 15023866644868575820
14790565 3 18052260596555371737
15420108 30 16467591009201285498
15927050 60 17115236317523729406
167882 2 18049154764153602191
18785283 64 17974862975098589715
19930381 70 18049719917267055544
20510252 161 18053662477747738475
22182937 141 17694501447221859312
23402539 116 18270669879693106231
23419403 2 17899110970388748815
23558518 356 17614012785116260811
23845131 108 17183917861272478441
25147074 1 17627240288499275871
3524813 1 17988069098001971688
43471831 8 17329712531620596415
532947 4 17835239322050150492

> <PUBCHEM_SHAPE_MULTIPOLES>
365.52
7.09
5.97
0.71
7.51
7.92
-0.02
-3.76
1.01
-1.83
-0.26
0.04
0.09
0.05

> <PUBCHEM_SHAPE_SELFOVERLAP>
730.096

> <PUBCHEM_SHAPE_VOLUME>
211.5

> <PUBCHEM_COORDINATE_TYPE>
2
5
10

$$$$
