REMARK  Name = 10234
REMARK  7 active torsions:
REMARK  status: ('A' for Active; 'I' for Inactive)
REMARK    1  A    between atoms: C_1  and  C_13
REMARK    2  A    between atoms: C_2  and  O_17
REMARK    3  A    between atoms: C_4  and  N_9
REMARK    4  A    between atoms: C_5  and  N_12
REMARK    5  A    between atoms: C_13  and  C_15
REMARK    6  A    between atoms: O_17  and  C_19
REMARK    7  A    between atoms: C_19  and  C_20
REMARK                            x       y       z     vdW  Elec       q    Type
REMARK                         _______ _______ _______ _____ _____    ______ ____
ROOT
ATOM      1  C   UNL     1       0.920   1.055  -0.001  0.00  0.00    +0.015 C 
ATOM      2  C   UNL     1       0.113   0.006   0.387  0.00  0.00    +0.167 C 
ATOM      3  C   UNL     1       2.248   0.794  -0.336  0.00  0.00    +0.023 C 
ATOM      4  C   UNL     1       0.574  -1.292   0.456  0.00  0.00    +0.179 C 
ATOM      5  C   UNL     1       2.740  -0.510  -0.275  0.00  0.00    +0.144 C 
ATOM      6  C   UNL     1       1.903  -1.553   0.121  0.00  0.00    +0.051 C 
ENDROOT
BRANCH   4   9
ATOM      7  O   UNL     1       0.215  -3.526   0.899  0.00  0.00    -0.126 OA
ATOM      8  O   UNL     1      -1.458  -2.127   1.157  0.00  0.00    -0.126 OA
ATOM      9  N   UNL     1      -0.265  -2.368   0.857  0.00  0.00    +0.061 N 
ENDBRANCH   4   9
BRANCH   5  12
ATOM     10  O   UNL     1       4.828   0.178  -0.970  0.00  0.00    -0.126 OA
ATOM     11  O   UNL     1       4.515  -1.955  -0.554  0.00  0.00    -0.126 OA
ATOM     12  N   UNL     1       4.093  -0.775  -0.616  0.00  0.00    +0.058 N 
ENDBRANCH   5  12
BRANCH   1  13
ATOM     13  C   UNL     1       0.413   2.458  -0.073  0.00  0.00    +0.025 C 
ATOM     14  C   UNL     1       0.462   3.006  -1.514  0.00  0.00    +0.005 C 
BRANCH  13  15
ATOM     15  C   UNL     1       1.156   3.453   0.859  0.00  0.00    +0.004 C 
ATOM     16  C   UNL     1       1.107   3.037   2.324  0.00  0.00    +0.000 C 
ENDBRANCH  13  15
ENDBRANCH   1  13
BRANCH   2  17
ATOM     17  O   UNL     1      -1.217   0.275   0.721  0.00  0.00    -0.420 OA
BRANCH  17  19
ATOM     18  O   UNL     1      -1.779  -0.093  -1.518  0.00  0.00    -0.245 OA
ATOM     19  C   UNL     1      -2.071   0.193  -0.368  0.00  0.00    +0.345 C 
BRANCH  19  20
ATOM     20  C   UNL     1      -3.433   0.500   0.135  0.00  0.00    +0.074 C 
ATOM     21  C   UNL     1      -4.575  -0.020  -0.349  0.00  0.00    -0.037 C 
ATOM     22  C   UNL     1      -5.964   0.275   0.143  0.00  0.00    +0.027 C 
ATOM     23  C   UNL     1      -4.523  -1.012  -1.482  0.00  0.00    +0.027 C 
ENDBRANCH  19  20
ENDBRANCH  17  19
ENDBRANCH   2  17
TORSDOF 7
