REMARK  Name = 102357769
REMARK  10 active torsions:
REMARK  status: ('A' for Active; 'I' for Inactive)
REMARK    1  A    between atoms: C_2  and  O_7
REMARK    2  A    between atoms: C_3  and  O_9
REMARK    3  A    between atoms: C_4  and  C_19
REMARK    4  A    between atoms: C_5  and  O_11
REMARK    5  A    between atoms: C_6  and  O_13
REMARK    6  A    between atoms: O_13  and  C_14
REMARK    7  A    between atoms: C_14  and  C_15
REMARK    8  A    between atoms: C_16  and  C_18
REMARK    9  A    between atoms: C_19  and  O_20
REMARK   10  A    between atoms: O_20  and  C_22
REMARK                            x       y       z     vdW  Elec       q    Type
REMARK                         _______ _______ _______ _____ _____    ______ ____
ROOT
ATOM      1  O   UNL     1      -0.351  -0.103   0.160  0.00  0.00    -0.325 OA
ATOM      2  C   UNL     1      -2.771  -0.034   0.271  0.00  0.00    +0.171 C 
ATOM      3  C   UNL     1      -2.839  -1.512  -0.113  0.00  0.00    +0.172 C 
ATOM      4  C   UNL     1      -1.502   0.615  -0.287  0.00  0.00    +0.190 C 
ATOM      5  C   UNL     1      -1.527  -2.228   0.208  0.00  0.00    +0.196 C 
ATOM      6  C   UNL     1      -0.324  -1.446  -0.319  0.00  0.00    +0.266 C 
ENDROOT
BRANCH   2   7
ATOM      7  O   UNL     1      -3.913   0.641  -0.250  0.00  0.00    -0.379 OA
ATOM      8  H   UNL     1      -4.719   0.232   0.103  0.00  0.00    +0.211 HD
ENDBRANCH   2   7
BRANCH   3   9
ATOM      9  O   UNL     1      -3.902  -2.112   0.629  0.00  0.00    -0.379 OA
ATOM     10  H   UNL     1      -4.735  -1.659   0.425  0.00  0.00    +0.211 HD
ENDBRANCH   3   9
BRANCH   5  11
ATOM     11  O   UNL     1      -1.527  -3.516  -0.406  0.00  0.00    -0.378 OA
ATOM     12  H   UNL     1      -2.285  -4.028  -0.084  0.00  0.00    +0.211 HD
ENDBRANCH   5  11
BRANCH   6  13
ATOM     13  O   UNL     1       0.860  -2.098   0.141  0.00  0.00    -0.324 OA
BRANCH  13  14
ATOM     14  C   UNL     1       1.985  -1.739  -0.645  0.00  0.00    +0.172 C 
BRANCH  14  15
ATOM     15  C   UNL     1       3.188  -2.451  -0.117  0.00  0.00    +0.017 C 
ATOM     16  C   UNL     1       4.287  -1.823   0.323  0.00  0.00    +0.076 C 
BRANCH  16  18
ATOM     17  N   UNL     1       4.473   0.751   0.314  0.00  0.00    -0.191 NA
ATOM     18  C   UNL     1       4.387  -0.406   0.318  0.00  0.00    +0.101 C 
ENDBRANCH  16  18
ENDBRANCH  14  15
ENDBRANCH  13  14
ENDBRANCH   6  13
BRANCH   4  19
ATOM     19  C   UNL     1      -1.353   2.059   0.181  0.00  0.00    +0.240 C 
BRANCH  19  20
ATOM     20  O   UNL     1      -0.158   2.588  -0.363  0.00  0.00    -0.446 OA
BRANCH  20  22
ATOM     21  O   UNL     1      -0.555   4.614   0.673  0.00  0.00    -0.250 OA
ATOM     22  C   UNL     1       0.127   3.888  -0.037  0.00  0.00    +0.318 C 
ATOM     23  C   UNL     1       1.414   4.310  -0.680  0.00  0.00    +0.121 C 
ENDBRANCH  20  22
ENDBRANCH  19  20
ENDBRANCH   4  19
TORSDOF 10
