REMARK  Name = 102394760
REMARK  4 active torsions:
REMARK  status: ('A' for Active; 'I' for Inactive)
REMARK    1  A    between atoms: C_8  and  O_23
REMARK    2  A    between atoms: C_9  and  O_25
REMARK    3  A    between atoms: C_10  and  O_27
REMARK    4  A    between atoms: C_17  and  O_29
REMARK                            x       y       z     vdW  Elec       q    Type
REMARK                         _______ _______ _______ _____ _____    ______ ____
ROOT
ATOM      1  O   UNL     1       2.332   0.684  -0.712  0.00  0.00    -0.450 OA
ATOM      2  O   UNL     1       4.059  -0.359  -1.745  0.00  0.00    -0.245 OA
ATOM      3  C   UNL     1       2.251   1.137   0.675  0.00  0.00    +0.161 C 
ATOM      4  C   UNL     1       1.036  -1.591   0.062  0.00  0.00    +0.031 C 
ATOM      5  C   UNL     1       2.327  -0.031   1.694  0.00  0.00    +0.043 C 
ATOM      6  C   UNL     1       1.271  -1.136   1.516  0.00  0.00    +0.008 C 
ATOM      7  C   UNL     1       0.141  -2.852  -0.013  0.00  0.00    +0.036 C 
ATOM      8  C   UNL     1      -1.248  -2.828   0.674  0.00  0.00    +0.135 C 
ATOM      9  C   UNL     1      -2.392  -1.946   0.065  0.00  0.00    +0.113 C 
ATOM     10  C   UNL     1       0.908   1.915   0.819  0.00  0.00    +0.147 C 
ATOM     11  C   UNL     1      -2.121  -0.440   0.266  0.00  0.00    +0.032 C 
ATOM     12  C   UNL     1       0.716   3.059  -0.197  0.00  0.00    +0.037 C 
ATOM     13  C   UNL     1       2.372  -1.693  -0.658  0.00  0.00    +0.053 C 
ATOM     14  C   UNL     1       3.457   2.063   0.906  0.00  0.00    +0.046 C 
ATOM     15  C   UNL     1      -3.251   0.542  -0.079  0.00  0.00    +0.036 C 
ATOM     16  C   UNL     1      -0.744   3.546  -0.329  0.00  0.00    +0.027 C 
ATOM     17  C   UNL     1      -2.786   2.009   0.073  0.00  0.00    +0.129 C 
ATOM     18  C   UNL     1      -3.749  -2.335   0.680  0.00  0.00    +0.032 C 
ATOM     19  C   UNL     1       3.047  -0.418  -1.060  0.00  0.00    +0.337 C 
ATOM     20  C   UNL     1      -1.708   2.507  -0.875  0.00  0.00    -0.018 C 
ATOM     21  C   UNL     1       3.003  -2.828  -0.996  0.00  0.00    +0.002 C 
ATOM     22  C   UNL     1      -1.599   2.094  -2.150  0.00  0.00    -0.007 C 
ENDROOT
BRANCH   8  23
ATOM     23  O   UNL     1      -1.701  -4.196   0.652  0.00  0.00    -0.382 OA
ATOM     24  H   UNL     1      -1.014  -4.770   1.024  0.00  0.00    +0.210 HD
ENDBRANCH   8  23
BRANCH   9  25
ATOM     25  O   UNL     1      -2.499  -2.212  -1.336  0.00  0.00    -0.384 OA
ATOM     26  H   UNL     1      -1.665  -1.982  -1.774  0.00  0.00    +0.210 HD
ENDBRANCH   9  25
BRANCH  10  27
ATOM     27  O   UNL     1       0.792   2.434   2.143  0.00  0.00    -0.381 OA
ATOM     28  H   UNL     1       0.913   1.715   2.783  0.00  0.00    +0.210 HD
ENDBRANCH  10  27
BRANCH  17  29
ATOM     29  O   UNL     1      -3.913   2.875  -0.075  0.00  0.00    -0.380 OA
ATOM     30  H   UNL     1      -4.623   2.585   0.519  0.00  0.00    +0.211 HD
ENDBRANCH  17  29
TORSDOF 4
