REMARK  Name = 102368938
REMARK  5 active torsions:
REMARK  status: ('A' for Active; 'I' for Inactive)
REMARK    1  A    between atoms: C_3  and  O_21
REMARK    2  A    between atoms: C_5  and  O_23
REMARK    3  A    between atoms: C_7  and  O_25
REMARK    4  A    between atoms: C_17  and  O_27
REMARK    5  A    between atoms: C_19  and  O_29
REMARK                            x       y       z     vdW  Elec       q    Type
REMARK                         _______ _______ _______ _____ _____    ______ ____
ROOT
ATOM      1  O   UNL     1      -0.292   1.998  -0.307  0.00  0.00    -0.449 OA
ATOM      2  O   UNL     1       0.150   0.989   1.734  0.00  0.00    -0.245 OA
ATOM      3  C   UNL     1       4.315  -0.114   0.015  0.00  0.00    +0.140 C 
ATOM      4  C   UNL     1       3.576   1.229  -0.139  0.00  0.00    +0.032 C 
ATOM      5  C   UNL     1       3.456  -1.312   0.482  0.00  0.00    +0.164 C 
ATOM      6  C   UNL     1       2.499   1.254  -1.223  0.00  0.00    +0.006 C 
ATOM      7  C   UNL     1       2.841  -2.103  -0.692  0.00  0.00    +0.144 C 
ATOM      8  C   UNL     1       1.811   2.620  -1.349  0.00  0.00    +0.044 C 
ATOM      9  C   UNL     1       0.821   2.917  -0.212  0.00  0.00    +0.169 C 
ATOM     10  C   UNL     1       1.598  -2.931  -0.324  0.00  0.00    +0.058 C 
ATOM     11  C   UNL     1       0.246   4.322  -0.350  0.00  0.00    +0.047 C 
ATOM     12  C   UNL     1       0.334  -2.124  -0.435  0.00  0.00    -0.024 C 
ATOM     13  C   UNL     1      -0.480  -1.841   0.593  0.00  0.00    -0.004 C 
ATOM     14  C   UNL     1      -1.700  -1.051   0.399  0.00  0.00    +0.012 C 
ATOM     15  C   UNL     1      -1.718   0.355   0.410  0.00  0.00    +0.109 C 
ATOM     16  C   UNL     1      -0.508   1.139   0.720  0.00  0.00    +0.344 C 
ATOM     17  C   UNL     1      -2.909   1.054   0.175  0.00  0.00    +0.143 C 
ATOM     18  C   UNL     1      -2.896  -1.737   0.142  0.00  0.00    +0.037 C 
ATOM     19  C   UNL     1      -4.082  -1.038  -0.094  0.00  0.00    +0.142 C 
ATOM     20  C   UNL     1      -4.088   0.355  -0.078  0.00  0.00    +0.074 C 
ENDROOT
BRANCH   3  21
ATOM     21  O   UNL     1       5.320   0.116   1.015  0.00  0.00    -0.382 OA
ATOM     22  H   UNL     1       5.876   0.864   0.748  0.00  0.00    +0.210 HD
ENDBRANCH   3  21
BRANCH   5  23
ATOM     23  O   UNL     1       2.458  -0.862   1.390  0.00  0.00    -0.380 OA
ATOM     24  H   UNL     1       2.877  -0.370   2.113  0.00  0.00    +0.211 HD
ENDBRANCH   5  23
BRANCH   7  25
ATOM     25  O   UNL     1       3.858  -2.986  -1.182  0.00  0.00    -0.382 OA
ATOM     26  H   UNL     1       4.646  -2.472  -1.417  0.00  0.00    +0.210 HD
ENDBRANCH   7  25
BRANCH  17  27
ATOM     27  O   UNL     1      -2.968   2.416   0.223  0.00  0.00    -0.505 OA
ATOM     28  H   UNL     1      -2.192   2.913   0.392  0.00  0.00    +0.292 HD
ENDBRANCH  17  27
BRANCH  19  29
ATOM     29  O   UNL     1      -5.234  -1.720  -0.341  0.00  0.00    -0.471 OA
ATOM     30  C   UNL     1      -6.409  -0.945  -0.574  0.00  0.00    +0.252 C 
ENDBRANCH  19  29
TORSDOF 5
