102333322
  -OEChem-03292013293D

 55 59  0     1  0  0  0  0  0999 V2000
   -0.7540   -0.5103   -2.1184 O   0  0  0  0  0  0  0  0  0  0  0  0
   -0.0586   -2.0365    1.0543 O   0  0  0  0  0  0  0  0  0  0  0  0
    0.5751   -2.3554   -1.6707 O   0  0  0  0  0  0  0  0  0  0  0  0
   -1.9157    3.2261   -0.3893 O   0  0  0  0  0  0  0  0  0  0  0  0
    2.9662   -1.2344   -1.3207 O   0  0  0  0  0  0  0  0  0  0  0  0
    2.0182   -1.3201    1.7010 O   0  0  0  0  0  0  0  0  0  0  0  0
    3.7573    0.4596    1.8577 O   0  0  0  0  0  0  0  0  0  0  0  0
   -1.3573    0.8324   -0.1512 C   0  0  1  0  0  0  0  0  0  0  0  0
    0.9176   -0.3498   -0.2836 C   0  0  1  0  0  0  0  0  0  0  0  0
    0.1798    0.9445    0.2223 C   0  0  1  0  0  0  0  0  0  0  0  0
   -1.8584   -0.4898    0.5432 C   0  0  2  0  0  0  0  0  0  0  0  0
   -0.0742   -1.2220   -1.0981 C   0  0  1  0  0  0  0  0  0  0  0  0
   -1.0019   -1.6698    0.0223 C   0  0  1  0  0  0  0  0  0  0  0  0
   -3.4022   -0.7454    0.5497 C   0  0  0  0  0  0  0  0  0  0  0  0
   -2.1925    2.0369    0.3474 C   0  0  2  0  0  0  0  0  0  0  0  0
   -1.4008    0.6780   -1.6817 C   0  0  0  0  0  0  0  0  0  0  0  0
    2.2302   -0.0474   -1.0368 C   0  0  1  0  0  0  0  0  0  0  0  0
    0.8958    2.2308   -0.2247 C   0  0  0  0  0  0  0  0  0  0  0  0
    1.0771   -1.2706    0.9269 C   0  0  0  0  0  0  0  0  0  0  0  0
   -4.1177    0.5354    1.0428 C   0  0  0  0  0  0  0  0  0  0  0  0
   -3.7028    1.7932    0.2900 C   0  0  0  0  0  0  0  0  0  0  0  0
    3.1375    1.0133   -0.3853 C   0  0  1  0  0  0  0  0  0  0  0  0
    2.3652    2.2071    0.1845 C   0  0  0  0  0  0  0  0  0  0  0  0
   -4.0002   -1.1894   -0.7998 C   0  0  0  0  0  0  0  0  0  0  0  0
   -3.7185   -1.8729    1.5661 C   0  0  0  0  0  0  0  0  0  0  0  0
    4.0610    0.4572    0.6657 C   0  0  0  0  0  0  0  0  0  0  0  0
    5.3739   -0.1008    0.1864 C   0  0  0  0  0  0  0  0  0  0  0  0
    0.2304    0.9667    1.3224 H   0  0  0  0  0  0  0  0  0  0  0  0
   -1.6118   -0.3598    1.6105 H   0  0  0  0  0  0  0  0  0  0  0  0
   -1.5762   -2.5630   -0.2321 H   0  0  0  0  0  0  0  0  0  0  0  0
   -1.9169    2.2401    1.3904 H   0  0  0  0  0  0  0  0  0  0  0  0
   -2.4151    0.6689   -2.0786 H   0  0  0  0  0  0  0  0  0  0  0  0
   -0.9172    1.5172   -2.1909 H   0  0  0  0  0  0  0  0  0  0  0  0
    1.9477    0.3509   -2.0206 H   0  0  0  0  0  0  0  0  0  0  0  0
    0.4360    3.1040    0.2490 H   0  0  0  0  0  0  0  0  0  0  0  0
    0.8264    2.3806   -1.3066 H   0  0  0  0  0  0  0  0  0  0  0  0
   -3.9015    0.6891    2.1089 H   0  0  0  0  0  0  0  0  0  0  0  0
   -5.2059    0.4145    0.9679 H   0  0  0  0  0  0  0  0  0  0  0  0
   -4.0429    1.7557   -0.7513 H   0  0  0  0  0  0  0  0  0  0  0  0
   -4.2230    2.6573    0.7234 H   0  0  0  0  0  0  0  0  0  0  0  0
    3.7936    1.4034   -1.1765 H   0  0  0  0  0  0  0  0  0  0  0  0
    2.8391    3.1329   -0.1675 H   0  0  0  0  0  0  0  0  0  0  0  0
    2.4139    2.2633    1.2781 H   0  0  0  0  0  0  0  0  0  0  0  0
   -3.3008   -2.8343    1.2502 H   0  0  0  0  0  0  0  0  0  0  0  0
   -3.4512   -2.0248   -1.2429 H   0  0  0  0  0  0  0  0  0  0  0  0
   -4.8004   -2.0083    1.6811 H   0  0  0  0  0  0  0  0  0  0  0  0
   -3.3122   -1.6425    2.5575 H   0  0  0  0  0  0  0  0  0  0  0  0
   -4.0428   -0.3865   -1.5353 H   0  0  0  0  0  0  0  0  0  0  0  0
   -5.0367   -1.5250   -0.6686 H   0  0  0  0  0  0  0  0  0  0  0  0
   -0.0804   -3.0675   -1.7568 H   0  0  0  0  0  0  0  0  0  0  0  0
   -2.4219    3.9503    0.0165 H   0  0  0  0  0  0  0  0  0  0  0  0
    3.0886   -1.7263   -0.4920 H   0  0  0  0  0  0  0  0  0  0  0  0
    5.8579    0.6077   -0.4906 H   0  0  0  0  0  0  0  0  0  0  0  0
    5.2372   -1.0618   -0.3095 H   0  0  0  0  0  0  0  0  0  0  0  0
    6.0350   -0.2464    1.0463 H   0  0  0  0  0  0  0  0  0  0  0  0
  1 12  1  0  0  0  0
  1 16  1  0  0  0  0
  2 13  1  0  0  0  0
  2 19  1  0  0  0  0
  3 12  1  0  0  0  0
  3 50  1  0  0  0  0
  4 15  1  0  0  0  0
  4 51  1  0  0  0  0
  5 17  1  0  0  0  0
  5 52  1  0  0  0  0
  6 19  2  0  0  0  0
  7 26  2  0  0  0  0
  8 10  1  0  0  0  0
  8 11  1  0  0  0  0
  8 15  1  0  0  0  0
  8 16  1  0  0  0  0
  9 10  1  0  0  0  0
  9 12  1  0  0  0  0
  9 17  1  0  0  0  0
  9 19  1  0  0  0  0
 10 18  1  0  0  0  0
 10 28  1  0  0  0  0
 11 13  1  0  0  0  0
 11 14  1  0  0  0  0
 11 29  1  0  0  0  0
 12 13  1  0  0  0  0
 13 30  1  0  0  0  0
 14 20  1  0  0  0  0
 14 24  1  0  0  0  0
 14 25  1  0  0  0  0
 15 21  1  0  0  0  0
 15 31  1  0  0  0  0
 16 32  1  0  0  0  0
 16 33  1  0  0  0  0
 17 22  1  0  0  0  0
 17 34  1  0  0  0  0
 18 23  1  0  0  0  0
 18 35  1  0  0  0  0
 18 36  1  0  0  0  0
 20 21  1  0  0  0  0
 20 37  1  0  0  0  0
 20 38  1  0  0  0  0
 21 39  1  0  0  0  0
 21 40  1  0  0  0  0
 22 23  1  0  0  0  0
 22 26  1  0  0  0  0
 22 41  1  0  0  0  0
 23 42  1  0  0  0  0
 23 43  1  0  0  0  0
 24 45  1  0  0  0  0
 24 48  1  0  0  0  0
 24 49  1  0  0  0  0
 25 44  1  0  0  0  0
 25 46  1  0  0  0  0
 25 47  1  0  0  0  0
 26 27  1  0  0  0  0
 27 53  1  0  0  0  0
 27 54  1  0  0  0  0
 27 55  1  0  0  0  0
M  END
> <PUBCHEM_COMPOUND_CID>
102333322

> <PUBCHEM_CONFORMER_RMSD>
0.8

> <PUBCHEM_CONFORMER_DIVERSEORDER>
1
2

> <PUBCHEM_MMFF94_PARTIAL_CHARGES>
20
1 -0.56
12 0.56
13 0.28
15 0.28
16 0.28
17 0.28
19 0.66
2 -0.43
22 0.06
26 0.45
27 0.06
3 -0.68
4 -0.68
5 -0.68
50 0.4
51 0.4
52 0.4
6 -0.57
7 -0.57
9 0.06

> <PUBCHEM_EFFECTIVE_ROTOR_COUNT>
3.2

> <PUBCHEM_PHARMACOPHORE_FEATURES>
13
1 1 acceptor
1 3 acceptor
1 3 donor
1 4 acceptor
1 4 donor
1 5 acceptor
1 5 donor
1 6 acceptor
1 7 acceptor
10 1 2 8 9 10 11 12 13 16 19 rings
3 14 24 25 hydrophobe
6 8 11 14 15 20 21 rings
6 9 10 17 18 22 23 rings

> <PUBCHEM_HEAVY_ATOM_COUNT>
27

> <PUBCHEM_ATOM_DEF_STEREO_COUNT>
9

> <PUBCHEM_ATOM_UDEF_STEREO_COUNT>
0

> <PUBCHEM_BOND_DEF_STEREO_COUNT>
0

> <PUBCHEM_BOND_UDEF_STEREO_COUNT>
0

> <PUBCHEM_ISOTOPIC_ATOM_COUNT>
0

> <PUBCHEM_COMPONENT_COUNT>
1

> <PUBCHEM_CACTVS_TAUTO_COUNT>
3

> <PUBCHEM_CONFORMER_ID>
06197B8A00000001

> <PUBCHEM_MMFF94_ENERGY>
117.012

> <PUBCHEM_FEATURE_SELFOVERLAP>
66.078

> <PUBCHEM_SHAPE_FINGERPRINT>
10646746 165 18411423886254705824
10863032 1 18268437845070373279
10948715 1 18201441410471413756
11132069 177 18342745108918972481
12011746 2 18259979388175487503
12035759 4 17986648528720474383
12403814 3 17988922309928860039
12422481 6 18056743353070107602
12633257 1 18261402143506064633
13140716 1 18119536684826739259
13224815 77 18343016683911585325
13583140 156 17895459397498403549
14081887 123 18334299747326546993
14223421 5 18408610244842239241
14251751 93 18271805700726112141
14787075 74 17538577903653202579
14955137 171 18272094894318391840
15209289 33 18187364359096180938
16945 1 18338530749284353823
17349148 13 18339919428127658439
1813 80 15213307382880787462
18186145 218 16845025566624135404
18981168 100 17846207813688342957
20028762 73 18126009510028467471
20691752 17 17822017475529642729
20905425 154 18266746774706924572
21033648 29 17775272855719944512
21069387 34 13334740167251525115
21756936 100 18411128161262322368
22182313 1 18129671794275597692
23402539 116 18412821408393468477
23419403 2 16169731135571195590
23559900 14 18266753393531089838
2748010 2 18271532970381775356
3286 77 18114463473815032952
34934 24 18339078182043336353
350125 39 18260551147091437444
392239 28 18188786066343682315
4340502 62 18263367989119566305
5265222 85 18271536394557198972
7097593 13 17824251597121074027

> <PUBCHEM_SHAPE_MULTIPOLES>
514.56
7.64
2.57
1.54
2.99
0.97
-0.22
0.21
2.35
-1.16
0.01
0.08
-0.64
0.32

> <PUBCHEM_SHAPE_SELFOVERLAP>
1138.091

> <PUBCHEM_SHAPE_VOLUME>
268.1

> <PUBCHEM_COORDINATE_TYPE>
2
5
10

$$$$
