102363035
  -OEChem-03292013293D

 55 57  0     1  0  0  0  0  0999 V2000
   -0.6848   -4.0785   -0.1175 O   0  0  0  0  0  0  0  0  0  0  0  0
    1.3766   -3.6152    1.8620 O   0  0  0  0  0  0  0  0  0  0  0  0
   -0.7783    0.0306    1.5489 O   0  0  0  0  0  0  0  0  0  0  0  0
   -2.5774   -1.3229   -2.0643 O   0  0  0  0  0  0  0  0  0  0  0  0
    0.8554    3.8035   -0.2963 O   0  0  0  0  0  0  0  0  0  0  0  0
    3.5245    4.5631   -0.1399 O   0  0  0  0  0  0  0  0  0  0  0  0
    1.2044   -1.3127    1.0389 C   0  0  2  0  0  0  0  0  0  0  0  0
    0.1718   -2.1182   -1.2604 C   0  0  2  0  0  0  0  0  0  0  0  0
    2.1310   -0.9115   -0.1619 C   0  0  1  0  0  0  0  0  0  0  0  0
    0.5112   -3.3581   -0.3883 C   0  0  1  0  0  0  0  0  0  0  0  0
    1.4364   -1.2673   -1.5145 C   0  0  0  0  0  0  0  0  0  0  0  0
    1.0779   -2.8529    0.9462 C   0  0  0  0  0  0  0  0  0  0  0  0
   -0.7919   -1.2256   -0.4970 C   0  0  0  0  0  0  0  0  0  0  0  0
   -0.1994   -0.7376    0.7921 C   0  0  0  0  0  0  0  0  0  0  0  0
    1.7616   -0.8980    2.3997 C   0  0  0  0  0  0  0  0  0  0  0  0
    2.4972    0.5403   -0.1572 C   0  0  0  0  0  0  0  0  0  0  0  0
    1.5043   -4.3063   -1.0587 C   0  0  0  0  0  0  0  0  0  0  0  0
   -2.0243   -0.8767   -0.8771 C   0  0  0  0  0  0  0  0  0  0  0  0
    1.4988    1.5117   -0.2314 C   0  0  0  0  0  0  0  0  0  0  0  0
    3.8366    0.9215   -0.0778 C   0  0  0  0  0  0  0  0  0  0  0  0
   -2.8725   -0.0082   -0.0784 C   0  0  0  0  0  0  0  0  0  0  0  0
    1.8399    2.8643   -0.2258 C   0  0  0  0  0  0  0  0  0  0  0  0
    4.1776    2.2740   -0.0725 C   0  0  0  0  0  0  0  0  0  0  0  0
    3.1793    3.2455   -0.1465 C   0  0  0  0  0  0  0  0  0  0  0  0
   -4.1171    0.3807   -0.4003 C   0  0  0  0  0  0  0  0  0  0  0  0
   -4.9116    1.2488    0.4416 C   0  0  0  0  0  0  0  0  0  0  0  0
   -0.4875    3.3295   -0.3750 C   0  0  0  0  0  0  0  0  0  0  0  0
   -6.1547    1.6406    0.1256 C   0  0  0  0  0  0  0  0  0  0  0  0
   -6.9849    2.5357    0.9858 C   0  0  0  0  0  0  0  0  0  0  0  0
   -0.2248   -2.4533   -2.2215 H   0  0  0  0  0  0  0  0  0  0  0  0
    3.0479   -1.5152   -0.0970 H   0  0  0  0  0  0  0  0  0  0  0  0
    1.1692   -0.3824   -2.1069 H   0  0  0  0  0  0  0  0  0  0  0  0
    2.1459   -1.8202   -2.1429 H   0  0  0  0  0  0  0  0  0  0  0  0
    2.7766   -1.2838    2.5461 H   0  0  0  0  0  0  0  0  0  0  0  0
    1.1411   -1.2920    3.2134 H   0  0  0  0  0  0  0  0  0  0  0  0
    1.7884    0.1897    2.5222 H   0  0  0  0  0  0  0  0  0  0  0  0
    1.1411   -4.6136   -2.0455 H   0  0  0  0  0  0  0  0  0  0  0  0
    1.6240   -5.2247   -0.4716 H   0  0  0  0  0  0  0  0  0  0  0  0
    2.4981   -3.8629   -1.1710 H   0  0  0  0  0  0  0  0  0  0  0  0
   -0.4541   -4.8639    0.4073 H   0  0  0  0  0  0  0  0  0  0  0  0
    0.4775    1.2038   -0.3701 H   0  0  0  0  0  0  0  0  0  0  0  0
    4.6261    0.1771   -0.0188 H   0  0  0  0  0  0  0  0  0  0  0  0
   -2.5697    0.3957    0.8688 H   0  0  0  0  0  0  0  0  0  0  0  0
    5.2250    2.5571   -0.0100 H   0  0  0  0  0  0  0  0  0  0  0  0
   -1.9773   -1.9317   -2.5170 H   0  0  0  0  0  0  0  0  0  0  0  0
   -4.5751    0.0500   -1.3292 H   0  0  0  0  0  0  0  0  0  0  0  0
    4.4925    4.6365   -0.0800 H   0  0  0  0  0  0  0  0  0  0  0  0
   -4.4667    1.5923    1.3722 H   0  0  0  0  0  0  0  0  0  0  0  0
   -1.1367    4.2107   -0.4114 H   0  0  0  0  0  0  0  0  0  0  0  0
   -0.7723    2.7668    0.5205 H   0  0  0  0  0  0  0  0  0  0  0  0
   -0.6665    2.7695   -1.2993 H   0  0  0  0  0  0  0  0  0  0  0  0
   -6.6126    1.3051   -0.8019 H   0  0  0  0  0  0  0  0  0  0  0  0
   -7.9095    2.0247    1.2715 H   0  0  0  0  0  0  0  0  0  0  0  0
   -6.4633    2.8338    1.9008 H   0  0  0  0  0  0  0  0  0  0  0  0
   -7.2495    3.4424    0.4333 H   0  0  0  0  0  0  0  0  0  0  0  0
  1 10  1  0  0  0  0
  1 40  1  0  0  0  0
  2 12  2  0  0  0  0
  3 14  2  0  0  0  0
  4 18  1  0  0  0  0
  4 45  1  0  0  0  0
  5 22  1  0  0  0  0
  5 27  1  0  0  0  0
  6 24  1  0  0  0  0
  6 47  1  0  0  0  0
  7  9  1  0  0  0  0
  7 12  1  0  0  0  0
  7 14  1  0  0  0  0
  7 15  1  0  0  0  0
  8 10  1  0  0  0  0
  8 11  1  0  0  0  0
  8 13  1  0  0  0  0
  8 30  1  0  0  0  0
  9 11  1  0  0  0  0
  9 16  1  0  0  0  0
  9 31  1  0  0  0  0
 10 12  1  0  0  0  0
 10 17  1  0  0  0  0
 11 32  1  0  0  0  0
 11 33  1  0  0  0  0
 13 14  1  0  0  0  0
 13 18  2  0  0  0  0
 15 34  1  0  0  0  0
 15 35  1  0  0  0  0
 15 36  1  0  0  0  0
 16 19  2  0  0  0  0
 16 20  1  0  0  0  0
 17 37  1  0  0  0  0
 17 38  1  0  0  0  0
 17 39  1  0  0  0  0
 18 21  1  0  0  0  0
 19 22  1  0  0  0  0
 19 41  1  0  0  0  0
 20 23  2  0  0  0  0
 20 42  1  0  0  0  0
 21 25  2  0  0  0  0
 21 43  1  0  0  0  0
 22 24  2  0  0  0  0
 23 24  1  0  0  0  0
 23 44  1  0  0  0  0
 25 26  1  0  0  0  0
 25 46  1  0  0  0  0
 26 28  2  0  0  0  0
 26 48  1  0  0  0  0
 27 49  1  0  0  0  0
 27 50  1  0  0  0  0
 27 51  1  0  0  0  0
 28 29  1  0  0  0  0
 28 52  1  0  0  0  0
 29 53  1  0  0  0  0
 29 54  1  0  0  0  0
 29 55  1  0  0  0  0
M  END
> <PUBCHEM_COMPOUND_CID>
102363035

> <PUBCHEM_CONFORMER_RMSD>
0.8

> <PUBCHEM_CONFORMER_DIVERSEORDER>
1
3
11
18
15
5
9
8
16
2
10
4
7
6
17
12
14
13

> <PUBCHEM_MMFF94_PARTIAL_CHARGES>
36
1 -0.68
10 0.34
12 0.45
13 -0.12
14 0.49
16 -0.14
18 0.08
19 -0.15
2 -0.57
20 -0.15
21 -0.15
22 0.08
23 -0.15
24 0.08
25 -0.15
26 -0.15
27 0.28
28 -0.29
29 0.14
3 -0.57
4 -0.53
40 0.4
41 0.15
42 0.15
43 0.15
44 0.15
45 0.45
46 0.15
47 0.45
48 0.15
5 -0.36
52 0.15
6 -0.53
7 0.12
8 0.14
9 0.14

> <PUBCHEM_EFFECTIVE_ROTOR_COUNT>
4.6

> <PUBCHEM_PHARMACOPHORE_FEATURES>
10
1 1 acceptor
1 1 donor
1 2 acceptor
1 29 hydrophobe
1 3 acceptor
1 4 donor
1 5 acceptor
1 6 donor
6 16 19 20 22 23 24 rings
8 7 8 9 10 11 12 13 14 rings

> <PUBCHEM_HEAVY_ATOM_COUNT>
29

> <PUBCHEM_ATOM_DEF_STEREO_COUNT>
1

> <PUBCHEM_ATOM_UDEF_STEREO_COUNT>
3

> <PUBCHEM_BOND_DEF_STEREO_COUNT>
3

> <PUBCHEM_BOND_UDEF_STEREO_COUNT>
0

> <PUBCHEM_ISOTOPIC_ATOM_COUNT>
0

> <PUBCHEM_COMPONENT_COUNT>
1

> <PUBCHEM_CACTVS_TAUTO_COUNT>
215

> <PUBCHEM_CONFORMER_ID>
0619EF9B00000001

> <PUBCHEM_MMFF94_ENERGY>
104.6126

> <PUBCHEM_FEATURE_SELFOVERLAP>
50.749

> <PUBCHEM_SHAPE_FINGERPRINT>
10411042 1 17691130335902386527
10483366 6 18269010699941137886
10675989 125 18342748411586319561
10937287 8 18268710678842221605
10948715 1 18265613363092276158
1100329 8 18336536231529623112
12107183 9 18264190574246396280
12293681 160 17703517691298074152
12788726 201 17471840880515175994
13140716 1 18335136535324694008
138480 1 18123191195184362341
13878862 14 18117822323699975357
13965767 371 18187078460150135975
14790565 3 18338519758732724789
14955137 171 18261667057268561346
15082195 135 18270379652295031463
15420108 30 18340755035463505811
15439362 3 18341057393204790780
15664445 248 18198635328048615687
16728300 4 17462257181354757706
21421861 104 18263360291978827473
21716022 299 14762687871180634013
23558518 356 17830453147812914492
23559900 14 18196659497702383959
23845131 108 18187643656841503403
3411729 13 18335989701268329413
38695281 34 18411701027910296537
394222 165 18336536192152588755
474 4 18411698803238290133
5283268 108 17978509733240482737

> <PUBCHEM_SHAPE_MULTIPOLES>
561.59
8.91
5.98
1.46
22.61
0.91
-0.45
9.6
-1.47
-5.78
0.68
-0.22
-1.14
-1.19

> <PUBCHEM_SHAPE_SELFOVERLAP>
1213.071

> <PUBCHEM_SHAPE_VOLUME>
305.1

> <PUBCHEM_COORDINATE_TYPE>
2
5
10

$$$$
