REMARK  Name = 102322501
REMARK  5 active torsions:
REMARK  status: ('A' for Active; 'I' for Inactive)
REMARK    1  A    between atoms: N_2  and  C_21
REMARK    2  A    between atoms: C_3  and  C_12
REMARK    3  A    between atoms: C_14  and  N_20
REMARK    4  A    between atoms: C_23  and  C_31
REMARK    5  A    between atoms: C_31  and  O_32
REMARK                            x       y       z     vdW  Elec       q    Type
REMARK                         _______ _______ _______ _____ _____    ______ ____
ROOT
ATOM      1  O   UNL     1       2.013   1.845   0.830  0.00  0.00    -0.421 OA
ATOM      2  O   UNL     1       6.463   1.124  -0.549  0.00  0.00    -0.285 OA
ATOM      3  O   UNL     1      -0.146   2.182   1.498  0.00  0.00    -0.244 OA
ATOM      4  C   UNL     1       2.725  -0.378   0.149  0.00  0.00    +0.037 C 
ATOM      5  C   UNL     1       3.011   0.967   0.365  0.00  0.00    +0.148 C 
ATOM      6  C   UNL     1       4.279   1.494   0.131  0.00  0.00    +0.053 C 
ATOM      7  C   UNL     1       1.379  -0.862   0.413  0.00  0.00    +0.014 C 
ATOM      8  C   UNL     1       0.435  -0.023   0.856  0.00  0.00    +0.130 C 
ATOM      9  C   UNL     1       3.742  -1.217  -0.313  0.00  0.00    +0.030 C 
ATOM     10  C   UNL     1       5.020  -0.702  -0.551  0.00  0.00    +0.181 C 
ATOM     11  C   UNL     1       5.287   0.650  -0.330  0.00  0.00    +0.217 C 
ATOM     12  C   UNL     1       0.716   1.411   1.092  0.00  0.00    +0.350 C 
ATOM     13  C   UNL     1       4.517   2.954   0.385  0.00  0.00    +0.038 C 
ENDROOT
BRANCH   8  16
ATOM     14  O   UNL     1      -1.022  -1.518   1.905  0.00  0.00    -0.270 OA
ATOM     15  N   UNL     1      -1.871  -0.008   0.310  0.00  0.00    -0.280 N 
ATOM     16  C   UNL     1      -0.891  -0.606   1.090  0.00  0.00    +0.256 C 
ATOM     17  H   UNL     1      -1.570   0.713  -0.289  0.00  0.00    +0.155 HD
BRANCH  15  18
ATOM     18  C   UNL     1      -3.254  -0.314   0.274  0.00  0.00    +0.051 C 
ATOM     19  C   UNL     1      -4.103   0.393  -0.576  0.00  0.00    +0.021 C 
ATOM     20  C   UNL     1      -5.465   0.091  -0.611  0.00  0.00    +0.077 C 
ATOM     21  C   UNL     1      -3.765  -1.323   1.091  0.00  0.00    +0.015 C 
ATOM     22  C   UNL     1      -5.976  -0.917   0.206  0.00  0.00    +0.007 C 
ATOM     23  C   UNL     1      -5.127  -1.625   1.056  0.00  0.00    +0.001 C 
BRANCH  20  25
ATOM     24  O   UNL     1      -7.518   1.096  -1.318  0.00  0.00    -0.245 OA
ATOM     25  C   UNL     1      -6.325   0.850  -1.511  0.00  0.00    +0.338 C 
BRANCH  25  26
ATOM     26  O   UNL     1      -5.665   1.275  -2.621  0.00  0.00    -0.477 OA
ATOM     27  H   UNL     1      -4.757   1.069  -2.734  0.00  0.00    +0.295 HD
ENDBRANCH  25  26
ENDBRANCH  20  25
ENDBRANCH  15  18
ENDBRANCH   8  16
BRANCH  10  30
ATOM     28  O   UNL     1       6.149  -1.768  -2.255  0.00  0.00    -0.126 OA
ATOM     29  O   UNL     1       6.717  -2.220  -0.183  0.00  0.00    -0.126 OA
ATOM     30  N   UNL     1       6.016  -1.613  -1.022  0.00  0.00    +0.061 N 
ENDBRANCH  10  30
TORSDOF 5
REMARK  Name = 102322501
REMARK  5 active torsions:
REMARK  status: ('A' for Active; 'I' for Inactive)
REMARK    1  A    between atoms: N_2  and  C_21
REMARK    2  A    between atoms: C_3  and  C_12
REMARK    3  A    between atoms: C_14  and  N_20
REMARK    4  A    between atoms: C_23  and  C_31
REMARK    5  A    between atoms: C_31  and  O_32
REMARK                            x       y       z     vdW  Elec       q    Type
REMARK                         _______ _______ _______ _____ _____    ______ ____
ROOT
ATOM      1  O   UNL     1      -7.341  -1.236   0.188  0.00  0.00    -0.410 OA
ATOM      2  H   UNL     1      -7.924  -0.769  -0.379  0.00  0.00    +0.205 HD
ATOM      3  H   UNL     1      -7.671  -1.915   0.742  0.00  0.00    +0.205 HD
ENDROOT
TORSDOF 0
