REMARK  Name = 102376881
REMARK  11 active torsions:
REMARK  status: ('A' for Active; 'I' for Inactive)
REMARK    1  A    between atoms: C_1  and  C_12
REMARK    2  A    between atoms: C_1  and  N_21
REMARK    3  A    between atoms: C_1  and  C_36
REMARK    4  A    between atoms: C_7  and  C_15
REMARK    5  A    between atoms: C_10  and  O_18
REMARK    6  A    between atoms: C_22  and  C_24
REMARK    7  A    between atoms: C_24  and  O_25
REMARK    8  A    between atoms: C_24  and  C_27
REMARK    9  A    between atoms: C_27  and  C_28
REMARK   10  A    between atoms: C_33  and  O_34
REMARK   11  A    between atoms: C_36  and  C_37
REMARK                            x       y       z     vdW  Elec       q    Type
REMARK                         _______ _______ _______ _____ _____    ______ ____
ROOT
ATOM      1  C   UNL     1      -0.671  -1.073  -0.254  0.00  0.00    +0.149 C 
ENDROOT
BRANCH   1  12
ATOM      2  O   UNL     1      -0.385   1.251  -0.631  0.00  0.00    -0.273 OA
ATOM      3  N   UNL     1      -2.319   0.606   0.485  0.00  0.00    -0.273 N 
ATOM      4  C   UNL     1      -4.207   1.780   1.376  0.00  0.00    +0.021 C 
ATOM      5  C   UNL     1      -2.974   1.923   0.459  0.00  0.00    +0.078 C 
ATOM      6  C   UNL     1      -3.764   0.699   2.370  0.00  0.00    +0.031 C 
ATOM      7  C   UNL     1      -2.869  -0.230   1.550  0.00  0.00    +0.152 C 
ATOM      8  C   UNL     1      -5.524   1.390   0.684  0.00  0.00    +0.004 C 
ATOM      9  C   UNL     1      -3.294   2.490  -0.928  0.00  0.00    +0.049 C 
ATOM     10  C   UNL     1      -4.553   1.907  -1.557  0.00  0.00    +0.112 C 
ATOM     11  C   UNL     1      -5.745   2.111  -0.633  0.00  0.00    +0.029 C 
ATOM     12  C   UNL     1      -1.105   0.370  -0.157  0.00  0.00    +0.244 C 
BRANCH   7  15
ATOM     13  O   UNL     1      -3.729  -1.533  -0.259  0.00  0.00    -0.274 OA
ATOM     14  N   UNL     1      -4.209  -2.201   1.890  0.00  0.00    -0.327 N 
ATOM     15  C   UNL     1      -3.630  -1.375   0.956  0.00  0.00    +0.237 C 
ATOM     16  H   UNL     1      -4.732  -2.983   1.599  0.00  0.00    +0.145 HD
ATOM     17  H   UNL     1      -4.102  -2.010   2.850  0.00  0.00    +0.145 HD
ENDBRANCH   7  15
BRANCH  10  18
ATOM     18  O   UNL     1      -4.788   2.576  -2.792  0.00  0.00    -0.384 OA
ATOM     19  H   UNL     1      -4.028   2.446  -3.381  0.00  0.00    +0.210 HD
ENDBRANCH  10  18
ENDBRANCH   1  12
BRANCH   1  21
ATOM     20  O   UNL     1       0.866  -0.972   2.195  0.00  0.00    -0.272 OA
ATOM     21  N   UNL     1       0.754  -1.006  -0.127  0.00  0.00    -0.296 N 
ATOM     22  C   UNL     1       1.418  -0.960   1.097  0.00  0.00    +0.250 C 
ATOM     23  H   UNL     1       1.295  -0.992  -0.950  0.00  0.00    +0.150 HD
BRANCH  22  24
ATOM     24  C   UNL     1       2.931  -0.874   0.943  0.00  0.00    +0.191 C 
BRANCH  24  25
ATOM     25  O   UNL     1       3.529  -1.542   2.045  0.00  0.00    -0.376 OA
ATOM     26  H   UNL     1       3.243  -2.469   2.055  0.00  0.00    +0.211 HD
ENDBRANCH  24  25
BRANCH  24  27
ATOM     27  C   UNL     1       3.390   0.588   0.939  0.00  0.00    +0.065 C 
BRANCH  27  28
ATOM     28  C   UNL     1       4.774   0.746   0.358  0.00  0.00    -0.019 C 
ATOM     29  C   UNL     1       5.893   0.672   1.188  0.00  0.00    -0.001 C 
ATOM     30  C   UNL     1       4.935   0.966  -1.010  0.00  0.00    -0.001 C 
ATOM     31  C   UNL     1       7.171   0.819   0.651  0.00  0.00    +0.036 C 
ATOM     32  C   UNL     1       6.214   1.113  -1.548  0.00  0.00    +0.036 C 
ATOM     33  C   UNL     1       7.332   1.039  -0.717  0.00  0.00    +0.134 C 
BRANCH  33  34
ATOM     34  O   UNL     1       8.580   1.181  -1.241  0.00  0.00    -0.506 OA
ATOM     35  H   UNL     1       9.331   1.131  -0.683  0.00  0.00    +0.292 HD
ENDBRANCH  33  34
ENDBRANCH  27  28
ENDBRANCH  24  27
ENDBRANCH  22  24
ENDBRANCH   1  21
BRANCH   1  36
ATOM     36  C   UNL     1      -1.123  -1.669  -1.581  0.00  0.00    +0.029 C 
BRANCH  36  37
ATOM     37  C   UNL     1      -1.238  -3.207  -1.573  0.00  0.00    +0.002 C 
ATOM     38  C   UNL     1       0.092  -3.890  -1.252  0.00  0.00    +0.000 C 
ATOM     39  C   UNL     1      -1.753  -3.694  -2.930  0.00  0.00    +0.000 C 
ENDBRANCH  36  37
ENDBRANCH   1  36
TORSDOF 11
