REMARK  Name = 102311155
REMARK  3 active torsions:
REMARK  status: ('A' for Active; 'I' for Inactive)
REMARK    1  A    between atoms: C_7  and  O_36
REMARK    2  A    between atoms: C_11  and  O_38
REMARK    3  A    between atoms: C_20  and  C_30
REMARK                            x       y       z     vdW  Elec       q    Type
REMARK                         _______ _______ _______ _____ _____    ______ ____
ROOT
ATOM      1  O   UNL     1      -3.275  -0.696  -1.170  0.00  0.00    -0.339 OA
ATOM      2  O   UNL     1      -0.561  -0.966   2.350  0.00  0.00    -0.295 OA
ATOM      3  O   UNL     1      -0.190   2.299   2.133  0.00  0.00    -0.274 OA
ATOM      4  O   UNL     1       3.548   2.816  -0.432  0.00  0.00    -0.274 OA
ATOM      5  N   UNL     1       1.711   2.497   0.881  0.00  0.00    -0.255 N 
ATOM      6  C   UNL     1      -1.908   0.984  -0.317  0.00  0.00    +0.066 C 
ATOM      7  C   UNL     1      -0.442   0.676  -0.786  0.00  0.00    +0.123 C 
ATOM      8  C   UNL     1      -2.167   0.004   0.830  0.00  0.00    +0.114 C 
ATOM      9  C   UNL     1       0.308   0.495   0.581  0.00  0.00    +0.147 C 
ATOM     10  C   UNL     1      -3.130   0.730  -1.210  0.00  0.00    +0.098 C 
ATOM     11  C   UNL     1      -2.944  -1.147   0.167  0.00  0.00    +0.190 C 
ATOM     12  C   UNL     1       1.639  -0.297   0.473  0.00  0.00    +0.034 C 
ATOM     13  C   UNL     1      -0.775  -0.271   1.364  0.00  0.00    +0.165 C 
ATOM     14  C   UNL     1      -4.411   1.396  -0.605  0.00  0.00    +0.027 C 
ATOM     15  C   UNL     1      -4.261  -1.519   0.886  0.00  0.00    +0.052 C 
ATOM     16  C   UNL     1       1.353  -1.702  -0.166  0.00  0.00    +0.020 C 
ATOM     17  C   UNL     1      -0.242  -0.523  -1.690  0.00  0.00    -0.008 C 
ATOM     18  C   UNL     1      -5.569   0.443  -0.243  0.00  0.00    +0.002 C 
ATOM     19  C   UNL     1       0.574   1.827   1.290  0.00  0.00    +0.236 C 
ATOM     20  C   UNL     1       2.726   0.547  -0.279  0.00  0.00    +0.100 C 
ATOM     21  C   UNL     1      -5.280  -0.370   1.033  0.00  0.00    +0.005 C 
ATOM     22  C   UNL     1      -2.998   1.210  -2.655  0.00  0.00    +0.030 C 
ATOM     23  C   UNL     1       0.540  -1.591  -1.443  0.00  0.00    -0.046 C 
ATOM     24  C   UNL     1      -4.009  -2.151   2.263  0.00  0.00    +0.005 C 
ATOM     25  C   UNL     1       2.708   2.046   0.040  0.00  0.00    +0.232 C 
ATOM     26  C   UNL     1       2.598  -2.587  -0.301  0.00  0.00    +0.004 C 
ATOM     27  C   UNL     1      -6.845   1.270  -0.025  0.00  0.00    +0.000 C 
ATOM     28  C   UNL     1       0.561  -2.744  -2.410  0.00  0.00    +0.026 C 
ATOM     29  H   UNL     1       1.825   3.409   1.234  0.00  0.00    +0.158 HD
ENDROOT
BRANCH  20  30
ATOM     30  C   UNL     1       4.160   0.072  -0.054  0.00  0.00    -0.014 C 
ATOM     31  C   UNL     1       5.078   0.104  -1.104  0.00  0.00    -0.004 C 
ATOM     32  C   UNL     1       4.553  -0.392   1.201  0.00  0.00    -0.004 C 
ATOM     33  C   UNL     1       6.388  -0.329  -0.899  0.00  0.00    -0.000 C 
ATOM     34  C   UNL     1       5.862  -0.825   1.406  0.00  0.00    -0.000 C 
ATOM     35  C   UNL     1       6.780  -0.794   0.356  0.00  0.00    -0.000 C 
ENDBRANCH  20  30
BRANCH   7  36
ATOM     36  O   UNL     1       0.039   1.796  -1.531  0.00  0.00    -0.382 OA
ATOM     37  H   UNL     1      -0.062   2.603  -1.003  0.00  0.00    +0.211 HD
ENDBRANCH   7  36
BRANCH  11  38
ATOM     38  O   UNL     1      -2.118  -2.307   0.067  0.00  0.00    -0.363 OA
ATOM     39  H   UNL     1      -1.290  -2.076  -0.384  0.00  0.00    +0.213 HD
ENDBRANCH  11  38
TORSDOF 3
