REMARK  Name = 102317091
REMARK  8 active torsions:
REMARK  status: ('A' for Active; 'I' for Inactive)
REMARK    1  A    between atoms: C_6  and  C_25
REMARK    2  A    between atoms: C_13  and  O_21
REMARK    3  A    between atoms: C_14  and  O_23
REMARK    4  A    between atoms: C_25  and  C_28
REMARK    5  A    between atoms: C_25  and  C_37
REMARK    6  A    between atoms: C_32  and  C_34
REMARK    7  A    between atoms: C_34  and  O_35
REMARK    8  A    between atoms: C_37  and  O_38
REMARK                            x       y       z     vdW  Elec       q    Type
REMARK                         _______ _______ _______ _____ _____    ______ ____
ROOT
ATOM      1  O   UNL     1      -4.315  -2.794   0.735  0.00  0.00    -0.291 OA
ATOM      2  C   UNL     1      -0.015   0.080  -0.815  0.00  0.00    +0.000 C 
ATOM      3  C   UNL     1      -0.831   1.082   0.030  0.00  0.00    +0.000 C 
ATOM      4  C   UNL     1      -2.333   1.042  -0.281  0.00  0.00    +0.003 C 
ATOM      5  C   UNL     1      -2.870  -0.394   0.052  0.00  0.00    +0.009 C 
ATOM      6  C   UNL     1       1.403   0.409  -0.286  0.00  0.00    +0.006 C 
ATOM      7  C   UNL     1      -4.431  -0.503  -0.153  0.00  0.00    +0.080 C 
ATOM      8  C   UNL     1      -0.517  -1.331  -0.483  0.00  0.00    +0.000 C 
ATOM      9  C   UNL     1      -0.064   2.391  -0.131  0.00  0.00    +0.000 C 
ATOM     10  C   UNL     1      -2.034  -1.461  -0.717  0.00  0.00    +0.001 C 
ATOM     11  C   UNL     1       1.411   1.954  -0.203  0.00  0.00    +0.000 C 
ATOM     12  C   UNL     1      -3.087   2.137   0.486  0.00  0.00    +0.032 C 
ATOM     13  C   UNL     1      -5.144   0.663   0.624  0.00  0.00    +0.123 C 
ATOM     14  C   UNL     1      -4.599   2.062   0.266  0.00  0.00    +0.136 C 
ATOM     15  C   UNL     1      -0.104   0.319  -2.344  0.00  0.00    +0.000 C 
ATOM     16  C   UNL     1      -4.776  -0.545  -1.661  0.00  0.00    +0.010 C 
ATOM     17  C   UNL     1      -6.681   0.597   0.482  0.00  0.00    +0.056 C 
ATOM     18  C   UNL     1      -4.999  -1.811   0.461  0.00  0.00    +0.174 C 
ATOM     19  C   UNL     1      -7.218  -0.791   0.681  0.00  0.00    -0.021 C 
ATOM     20  C   UNL     1      -6.467  -1.897   0.697  0.00  0.00    +0.033 C 
ENDROOT
BRANCH  13  21
ATOM     21  O   UNL     1      -4.925   0.502   2.048  0.00  0.00    -0.384 OA
ATOM     22  H   UNL     1      -3.974   0.531   2.234  0.00  0.00    +0.210 HD
ENDBRANCH  13  21
BRANCH  14  23
ATOM     23  O   UNL     1      -4.879   2.426  -1.080  0.00  0.00    -0.382 OA
ATOM     24  H   UNL     1      -4.519   3.309  -1.257  0.00  0.00    +0.210 HD
ENDBRANCH  14  23
BRANCH   6  25
ATOM     25  C   UNL     1       2.575  -0.148  -1.081  0.00  0.00    +0.070 C 
BRANCH  25  28
ATOM     26  O   UNL     1       4.958  -0.215  -1.294  0.00  0.00    -0.449 OA
ATOM     27  O   UNL     1       7.185  -0.317  -1.634  0.00  0.00    -0.245 OA
ATOM     28  C   UNL     1       3.896   0.293  -0.468  0.00  0.00    +0.175 C 
ATOM     29  C   UNL     1       4.057  -0.232   0.948  0.00  0.00    +0.066 C 
ATOM     30  C   UNL     1       5.441   0.092   1.439  0.00  0.00    -0.036 C 
ATOM     31  C   UNL     1       6.245  -0.122  -0.869  0.00  0.00    +0.339 C 
ATOM     32  C   UNL     1       6.469   0.197   0.572  0.00  0.00    +0.075 C 
ATOM     33  C   UNL     1       5.547   0.257   2.929  0.00  0.00    +0.026 C 
BRANCH  32  34
ATOM     34  C   UNL     1       7.880   0.564   0.931  0.00  0.00    +0.169 C 
BRANCH  34  35
ATOM     35  O   UNL     1       8.617  -0.608   1.221  0.00  0.00    -0.377 OA
ATOM     36  H   UNL     1       9.528  -0.368   1.452  0.00  0.00    +0.211 HD
ENDBRANCH  34  35
ENDBRANCH  32  34
ENDBRANCH  25  28
BRANCH  25  37
ATOM     37  C   UNL     1       2.521  -1.679  -1.171  0.00  0.00    +0.141 C 
BRANCH  37  38
ATOM     38  O   UNL     1       2.085  -2.219   0.070  0.00  0.00    -0.382 OA
ATOM     39  H   UNL     1       2.053  -3.186   0.007  0.00  0.00    +0.210 HD
ENDBRANCH  37  38
ENDBRANCH  25  37
ENDBRANCH   6  25
TORSDOF 8
