REMARK  Name = 102369225
REMARK  15 active torsions:
REMARK  status: ('A' for Active; 'I' for Inactive)
REMARK    1  A    between atoms: C_2  and  C_3
REMARK    2  A    between atoms: C_2  and  C_22
REMARK    3  A    between atoms: C_5  and  O_9
REMARK    4  A    between atoms: C_6  and  C_15
REMARK    5  A    between atoms: C_7  and  C_14
REMARK    6  A    between atoms: C_8  and  O_11
REMARK    7  A    between atoms: C_15  and  C_16
REMARK    8  A    between atoms: C_15  and  O_19
REMARK    9  A    between atoms: O_19  and  C_20
REMARK   10  A    between atoms: C_22  and  C_30
REMARK   11  A    between atoms: C_22  and  C_37
REMARK   12  A    between atoms: C_26  and  C_35
REMARK   13  A    between atoms: C_27  and  O_31
REMARK   14  A    between atoms: C_28  and  O_33
REMARK   15  A    between atoms: C_37  and  C_38
REMARK                            x       y       z     vdW  Elec       q    Type
REMARK                         _______ _______ _______ _____ _____    ______ ____
ROOT
ATOM      1  O   UNL     1      -1.018   0.161   2.107  0.00  0.00    -0.291 OA
ATOM      2  C   UNL     1      -0.365   0.508   1.125  0.00  0.00    +0.178 C 
ENDROOT
BRANCH   2   3
ATOM      3  C   UNL     1       0.831  -0.291   0.740  0.00  0.00    +0.068 C 
ATOM      4  C   UNL     1       1.894   0.346   0.101  0.00  0.00    +0.007 C 
ATOM      5  C   UNL     1       0.897  -1.659   1.009  0.00  0.00    +0.142 C 
ATOM      6  C   UNL     1       3.023  -0.384  -0.270  0.00  0.00    +0.039 C 
ATOM      7  C   UNL     1       2.026  -2.388   0.639  0.00  0.00    +0.109 C 
ATOM      8  C   UNL     1       3.090  -1.751  -0.001  0.00  0.00    +0.138 C 
BRANCH   5   9
ATOM      9  O   UNL     1      -0.144  -2.281   1.635  0.00  0.00    -0.505 OA
ATOM     10  H   UNL     1      -0.903  -1.790   1.883  0.00  0.00    +0.292 HD
ENDBRANCH   5   9
BRANCH   8  11
ATOM     11  O   UNL     1       4.198  -2.460  -0.364  0.00  0.00    -0.506 OA
ATOM     12  H   UNL     1       4.910  -2.029  -0.794  0.00  0.00    +0.292 HD
ENDBRANCH   8  11
BRANCH   7  14
ATOM     13  O   UNL     1       3.068  -4.513   0.615  0.00  0.00    -0.283 OA
ATOM     14  C   UNL     1       2.097  -3.819   0.919  0.00  0.00    +0.240 C 
ENDBRANCH   7  14
BRANCH   6  15
ATOM     15  C   UNL     1       4.151   0.316  -0.954  0.00  0.00    +0.140 C 
BRANCH  15  16
ATOM     16  C   UNL     1       5.234   0.963  -0.038  0.00  0.00    +0.032 C 
ATOM     17  C   UNL     1       6.000  -0.054   0.814  0.00  0.00    +0.003 C 
ATOM     18  C   UNL     1       4.657   2.068   0.848  0.00  0.00    +0.003 C 
ENDBRANCH  15  16
BRANCH  15  19
ATOM     19  O   UNL     1       3.641   1.337  -1.828  0.00  0.00    -0.352 OA
BRANCH  19  20
ATOM     20  C   UNL     1       3.192   0.780  -3.048  0.00  0.00    +0.143 C 
ATOM     21  C   UNL     1       2.665   1.890  -3.933  0.00  0.00    +0.035 C 
ENDBRANCH  19  20
ENDBRANCH  15  19
ENDBRANCH   6  15
ENDBRANCH   2   3
BRANCH   2  22
ATOM     22  C   UNL     1      -0.758   1.730   0.292  0.00  0.00    +0.089 C 
BRANCH  22  30
ATOM     23  O   UNL     1      -5.944  -0.313  -0.695  0.00  0.00    -0.349 OA
ATOM     24  O   UNL     1      -3.054   1.409   0.854  0.00  0.00    -0.331 OA
ATOM     25  C   UNL     1      -4.577   0.010  -0.390  0.00  0.00    +0.193 C 
ATOM     26  C   UNL     1      -5.286  -1.203   0.213  0.00  0.00    +0.147 C 
ATOM     27  C   UNL     1      -3.659  -0.004  -1.587  0.00  0.00    +0.145 C 
ATOM     28  C   UNL     1      -4.427   1.239   0.477  0.00  0.00    +0.262 C 
ATOM     29  C   UNL     1      -2.225   0.249  -1.117  0.00  0.00    +0.062 C 
ATOM     30  C   UNL     1      -2.160   1.516  -0.261  0.00  0.00    +0.128 C 
BRANCH  27  31
ATOM     31  O   UNL     1      -3.714  -1.210  -2.338  0.00  0.00    -0.382 OA
ATOM     32  H   UNL     1      -4.625  -1.365  -2.633  0.00  0.00    +0.210 HD
ENDBRANCH  27  31
BRANCH  28  33
ATOM     33  O   UNL     1      -4.950   2.378  -0.203  0.00  0.00    -0.358 OA
ATOM     34  H   UNL     1      -4.851   3.163   0.358  0.00  0.00    +0.213 HD
ENDBRANCH  28  33
BRANCH  26  35
ATOM     35  C   UNL     1      -5.180  -2.605  -0.267  0.00  0.00    +0.032 C 
ATOM     36  C   UNL     1      -3.960  -3.322   0.259  0.00  0.00    +0.003 C 
ENDBRANCH  26  35
ENDBRANCH  22  30
BRANCH  22  37
ATOM     37  C   UNL     1      -0.705   3.013   1.145  0.00  0.00    +0.010 C 
BRANCH  37  38
ATOM     38  C   UNL     1       0.721   3.544   1.320  0.00  0.00    +0.001 C 
ATOM     39  C   UNL     1       0.745   4.797   2.182  0.00  0.00    +0.000 C 
ENDBRANCH  37  38
ENDBRANCH  22  37
ENDBRANCH   2  22
TORSDOF 15
