REMARK  Name = 102377823
REMARK  8 active torsions:
REMARK  status: ('A' for Active; 'I' for Inactive)
REMARK    1  A    between atoms: O_1  and  C_4
REMARK    2  A    between atoms: O_1  and  C_24
REMARK    3  A    between atoms: C_11  and  O_17
REMARK    4  A    between atoms: C_12  and  N_14
REMARK    5  A    between atoms: C_21  and  O_27
REMARK    6  A    between atoms: C_22  and  O_31
REMARK    7  A    between atoms: C_23  and  O_29
REMARK    8  A    between atoms: O_31  and  C_34
REMARK                            x       y       z     vdW  Elec       q    Type
REMARK                         _______ _______ _______ _____ _____    ______ ____
ROOT
ATOM      1  O   UNL     1       0.346  -0.630  -1.388  0.00  0.00    -0.451 OA
ENDROOT
BRANCH   1   4
ATOM      2  O   UNL     1      -4.183   0.880  -1.074  0.00  0.00    -0.420 OA
ATOM      3  O   UNL     1      -6.299   1.702  -0.910  0.00  0.00    -0.243 OA
ATOM      4  C   UNL     1      -0.886  -0.695  -0.801  0.00  0.00    +0.140 C 
ATOM      5  C   UNL     1      -1.930   0.115  -1.234  0.00  0.00    +0.047 C 
ATOM      6  C   UNL     1      -1.094  -1.582   0.253  0.00  0.00    +0.037 C 
ATOM      7  C   UNL     1      -3.173   0.018  -0.606  0.00  0.00    +0.151 A 
ATOM      8  C   UNL     1      -3.417  -0.869   0.441  0.00  0.00    +0.070 A 
ATOM      9  C   UNL     1      -2.348  -1.667   0.871  0.00  0.00    +0.009 C 
ATOM     10  C   UNL     1      -1.715   1.078  -2.356  0.00  0.00    +0.037 C 
ATOM     11  C   UNL     1      -4.765  -0.885   1.021  0.00  0.00    +0.156 A 
ATOM     12  C   UNL     1      -5.724  -0.047   0.593  0.00  0.00    +0.153 A 
ATOM     13  C   UNL     1      -5.449   0.914  -0.507  0.00  0.00    +0.362 A 
BRANCH  12  14
ATOM     14  N   UNL     1      -6.997   0.010   1.090  0.00  0.00    -0.350 N 
ATOM     15  H   UNL     1      -7.268  -0.591   1.821  0.00  0.00    +0.143 HD
ATOM     16  H   UNL     1      -7.643   0.653   0.716  0.00  0.00    +0.143 HD
ENDBRANCH  12  14
BRANCH  11  17
ATOM     17  O   UNL     1      -4.953  -1.806   2.031  0.00  0.00    -0.504 OA
ATOM     18  H   UNL     1      -4.248  -2.367   2.291  0.00  0.00    +0.292 HD
ENDBRANCH  11  17
ENDBRANCH   1   4
BRANCH   1  24
ATOM     19  O   UNL     1       1.178   1.011   0.042  0.00  0.00    -0.321 OA
ATOM     20  C   UNL     1       2.201   1.531   0.908  0.00  0.00    +0.125 C 
ATOM     21  C   UNL     1       3.568   1.545   0.174  0.00  0.00    +0.183 C 
ATOM     22  C   UNL     1       3.912   0.210  -0.491  0.00  0.00    +0.232 C 
ATOM     23  C   UNL     1       2.736  -0.247  -1.351  0.00  0.00    +0.224 C 
ATOM     24  C   UNL     1       1.439  -0.266  -0.541  0.00  0.00    +0.319 C 
ATOM     25  C   UNL     1       2.205   0.769   2.243  0.00  0.00    +0.032 C 
ATOM     26  C   UNL     1       1.770   2.978   1.212  0.00  0.00    +0.032 C 
BRANCH  21  27
ATOM     27  O   UNL     1       4.635   1.920   1.038  0.00  0.00    -0.347 OA
ATOM     28  C   UNL     1       5.709   2.502   0.314  0.00  0.00    +0.174 C 
ENDBRANCH  21  27
BRANCH  23  29
ATOM     29  O   UNL     1       2.988  -1.548  -1.872  0.00  0.00    -0.376 OA
ATOM     30  H   UNL     1       3.811  -1.537  -2.386  0.00  0.00    +0.211 HD
ENDBRANCH  23  29
BRANCH  22  31
ATOM     31  O   UNL     1       4.200  -0.770   0.506  0.00  0.00    -0.433 OA
BRANCH  31  34
ATOM     32  O   UNL     1       5.654  -1.817  -0.940  0.00  0.00    -0.227 OA
ATOM     33  N   UNL     1       5.293  -2.618   1.185  0.00  0.00    -0.295 N 
ATOM     34  C   UNL     1       5.097  -1.738   0.150  0.00  0.00    +0.399 C 
ATOM     35  H   UNL     1       4.811  -2.494   2.034  0.00  0.00    +0.148 HD
ATOM     36  H   UNL     1       5.915  -3.374   1.077  0.00  0.00    +0.148 HD
ENDBRANCH  31  34
ENDBRANCH  22  31
ENDBRANCH   1  24
TORSDOF 8
