REMARK  Name = 102340761
REMARK  9 active torsions:
REMARK  status: ('A' for Active; 'I' for Inactive)
REMARK    1  A    between atoms: N_1  and  S_2
REMARK    2  A    between atoms: N_1  and  C_17
REMARK    3  A    between atoms: N_1  and  C_31
REMARK    4  A    between atoms: S_2  and  C_14
REMARK    5  A    between atoms: C_17  and  C_18
REMARK    6  A    between atoms: C_23  and  O_24
REMARK    7  A    between atoms: O_24  and  C_25
REMARK    8  A    between atoms: C_31  and  C_33
REMARK    9  A    between atoms: C_33  and  O_34
REMARK                            x       y       z     vdW  Elec       q    Type
REMARK                         _______ _______ _______ _____ _____    ______ ____
ROOT
ATOM      1  N   UNL     1      -0.152  -1.070  -0.302  0.00  0.00    -0.140 NA
ENDROOT
BRANCH   1   2
ATOM      2  S   UNL     1      -1.391  -1.785  -1.274  0.00  0.00    +0.064 S 
ATOM      3  O   UNL     1      -1.384  -3.228  -1.057  0.00  0.00    -0.153 OA
ATOM      4  O   UNL     1      -1.263  -1.288  -2.640  0.00  0.00    -0.153 OA
BRANCH   2  14
ATOM      5  O   UNL     1      -6.391   0.312   1.065  0.00  0.00    -0.483 OA
ATOM      6  C   UNL     1      -7.094   1.397   0.430  0.00  0.00    +0.134 C 
ATOM      7  C   UNL     1      -6.127   2.465  -0.108  0.00  0.00    +0.045 C 
ATOM      8  C   UNL     1      -5.130   1.867  -1.091  0.00  0.00    +0.033 C 
ATOM      9  C   UNL     1      -4.572   0.586  -0.547  0.00  0.00    +0.013 C 
ATOM     10  C   UNL     1      -5.228  -0.109   0.476  0.00  0.00    +0.134 C 
ATOM     11  C   UNL     1      -7.969   2.027   1.523  0.00  0.00    +0.044 C 
ATOM     12  C   UNL     1      -8.012   0.825  -0.661  0.00  0.00    +0.044 C 
ATOM     13  C   UNL     1      -3.393   0.055  -1.087  0.00  0.00    +0.019 C 
ATOM     14  C   UNL     1      -2.864  -1.138  -0.596  0.00  0.00    +0.122 C 
ATOM     15  C   UNL     1      -4.690  -1.300   0.974  0.00  0.00    +0.038 C 
ATOM     16  C   UNL     1      -3.510  -1.813   0.437  0.00  0.00    +0.023 C 
ENDBRANCH   2  14
ENDBRANCH   1   2
BRANCH   1  17
ATOM     17  C   UNL     1      -0.063   0.412  -0.285  0.00  0.00    +0.123 C 
BRANCH  17  18
ATOM     18  C   UNL     1       1.349   0.896  -0.110  0.00  0.00    -0.004 C 
ATOM     19  C   UNL     1       1.680   1.707   0.975  0.00  0.00    +0.000 C 
ATOM     20  C   UNL     1       2.330   0.533  -1.034  0.00  0.00    +0.000 C 
ATOM     21  C   UNL     1       2.991   2.155   1.137  0.00  0.00    +0.037 C 
ATOM     22  C   UNL     1       3.640   0.981  -0.872  0.00  0.00    +0.037 C 
ATOM     23  C   UNL     1       3.971   1.792   0.213  0.00  0.00    +0.145 C 
BRANCH  23  24
ATOM     24  O   UNL     1       5.251   2.229   0.371  0.00  0.00    -0.453 OA
BRANCH  24  25
ATOM     25  C   UNL     1       6.271   1.309   0.196  0.00  0.00    +0.145 C 
ATOM     26  C   UNL     1       6.174   0.041   0.768  0.00  0.00    +0.037 C 
ATOM     27  C   UNL     1       7.397   1.651  -0.554  0.00  0.00    +0.037 C 
ATOM     28  C   UNL     1       7.202  -0.885   0.591  0.00  0.00    +0.003 C 
ATOM     29  C   UNL     1       8.425   0.726  -0.731  0.00  0.00    +0.003 C 
ATOM     30  C   UNL     1       8.327  -0.543  -0.158  0.00  0.00    +0.000 C 
ENDBRANCH  24  25
ENDBRANCH  23  24
ENDBRANCH  17  18
ENDBRANCH   1  17
BRANCH   1  31
ATOM     31  C   UNL     1       0.092  -1.657   1.040  0.00  0.00    +0.205 C 
BRANCH  31  33
ATOM     32  O   UNL     1       1.678  -3.091  -0.119  0.00  0.00    -0.249 OA
ATOM     33  C   UNL     1       1.114  -2.745   0.909  0.00  0.00    +0.332 C 
BRANCH  33  34
ATOM     34  O   UNL     1       1.341  -3.316   2.120  0.00  0.00    -0.479 OA
ATOM     35  H   UNL     1       0.879  -3.010   2.876  0.00  0.00    +0.295 HD
ENDBRANCH  33  34
ENDBRANCH  31  33
ENDBRANCH   1  31
TORSDOF 9
