REMARK  Name = 102333891
REMARK  4 active torsions:
REMARK  status: ('A' for Active; 'I' for Inactive)
REMARK    1  A    between atoms: C_7  and  O_19
REMARK    2  A    between atoms: C_13  and  C_16
REMARK    3  A    between atoms: C_16  and  O_17
REMARK    4  A    between atoms: O_19  and  S_20
REMARK                            x       y       z     vdW  Elec       q    Type
REMARK                         _______ _______ _______ _____ _____    ______ ____
ROOT
ATOM      1  N   UNL     1      -0.323   2.923   0.281  0.00  0.00    -0.355 N 
ATOM      2  N   UNL     1       3.005   1.332   0.242  0.00  0.00    -0.262 NA
ATOM      3  C   UNL     1      -1.142   0.902  -0.189  0.00  0.00    +0.050 A 
ATOM      4  C   UNL     1       0.283   0.808  -0.090  0.00  0.00    +0.002 A 
ATOM      5  C   UNL     1      -1.489   2.232   0.048  0.00  0.00    +0.059 A 
ATOM      6  C   UNL     1       0.762   2.084   0.205  0.00  0.00    +0.055 A 
ATOM      7  C   UNL     1      -2.169  -0.026  -0.459  0.00  0.00    +0.177 C 
ATOM      8  C   UNL     1       1.208  -0.239  -0.222  0.00  0.00    +0.080 C 
ATOM      9  C   UNL     1      -2.814   2.683   0.030  0.00  0.00    +0.017 C 
ATOM     10  C   UNL     1       2.116   2.345   0.369  0.00  0.00    +0.168 C 
ATOM     11  C   UNL     1      -3.499   0.410  -0.481  0.00  0.00    +0.040 C 
ATOM     12  C   UNL     1      -3.814   1.745  -0.240  0.00  0.00    +0.005 C 
ATOM     13  C   UNL     1       2.544   0.093  -0.044  0.00  0.00    +0.134 C 
ATOM     14  H   UNL     1      -0.273   3.886   0.476  0.00  0.00    +0.166 HD
ENDROOT
BRANCH  13  16
ATOM     15  O   UNL     1       3.332  -2.125  -0.420  0.00  0.00    -0.244 OA
ATOM     16  C   UNL     1       3.563  -0.936  -0.164  0.00  0.00    +0.355 C 
BRANCH  16  17
ATOM     17  O   UNL     1       4.818  -0.429   0.042  0.00  0.00    -0.441 OA
ATOM     18  C   UNL     1       5.911  -1.349  -0.050  0.00  0.00    +0.256 C 
ENDBRANCH  16  17
ENDBRANCH  13  16
BRANCH   7  19
ATOM     19  O   UNL     1      -1.901  -1.348  -0.701  0.00  0.00    -0.322 OA
BRANCH  19  20
ATOM     20  S   UNL     1      -2.549  -2.478   0.294  0.00  0.00    +0.282 S 
ATOM     21  O   UNL     1      -1.532  -3.749   0.163  0.00  0.00    -0.105 OA
ATOM     22  O   UNL     1      -2.489  -1.998   1.663  0.00  0.00    -0.012 OA
ATOM     23  O   UNL     1      -3.821  -2.881  -0.277  0.00  0.00    -0.105 OA
ENDBRANCH  19  20
ENDBRANCH   7  19
TORSDOF 4
