REMARK  Name = 102362414
REMARK  6 active torsions:
REMARK  status: ('A' for Active; 'I' for Inactive)
REMARK    1  A    between atoms: C_5  and  C_25
REMARK    2  A    between atoms: C_7  and  O_17
REMARK    3  A    between atoms: C_9  and  O_19
REMARK    4  A    between atoms: C_11  and  O_21
REMARK    5  A    between atoms: C_13  and  O_23
REMARK    6  A    between atoms: C_25  and  O_26
REMARK                            x       y       z     vdW  Elec       q    Type
REMARK                         _______ _______ _______ _____ _____    ______ ____
ROOT
ATOM      1  O   UNL     1       2.744  -0.684   1.769  0.00  0.00    -0.351 OA
ATOM      2  O   UNL     1       0.371   1.850   0.646  0.00  0.00    -0.349 OA
ATOM      3  C   UNL     1       1.169  -0.769  -0.178  0.00  0.00    +0.062 C 
ATOM      4  C   UNL     1       1.586  -0.124   1.130  0.00  0.00    +0.150 C 
ATOM      5  C   UNL     1      -0.363  -0.321  -0.406  0.00  0.00    +0.088 C 
ATOM      6  C   UNL     1       1.692   1.332   0.831  0.00  0.00    +0.172 C 
ATOM      7  C   UNL     1       2.117   0.021  -1.187  0.00  0.00    +0.142 C 
ATOM      8  C   UNL     1       1.520  -0.716   2.517  0.00  0.00    +0.172 C 
ATOM      9  C   UNL     1       2.531   1.321  -0.453  0.00  0.00    +0.167 C 
ATOM     10  C   UNL     1      -0.420   1.254  -0.400  0.00  0.00    +0.141 C 
ATOM     11  C   UNL     1      -1.337  -0.812   0.728  0.00  0.00    +0.146 C 
ATOM     12  C   UNL     1       1.410  -2.283  -0.233  0.00  0.00    +0.005 C 
ATOM     13  C   UNL     1      -2.786  -0.294   0.591  0.00  0.00    +0.155 C 
ATOM     14  C   UNL     1      -1.799   1.837  -0.234  0.00  0.00    -0.003 C 
ATOM     15  C   UNL     1      -2.872   1.154   0.196  0.00  0.00    -0.017 C 
ATOM     16  C   UNL     1      -4.220   1.806   0.320  0.00  0.00    +0.029 C 
ENDROOT
BRANCH   7  17
ATOM     17  O   UNL     1       3.316  -0.697  -1.479  0.00  0.00    -0.382 OA
ATOM     18  H   UNL     1       3.095  -1.520  -1.941  0.00  0.00    +0.210 HD
ENDBRANCH   7  17
BRANCH   9  19
ATOM     19  O   UNL     1       2.324   2.480  -1.236  0.00  0.00    -0.379 OA
ATOM     20  H   UNL     1       2.598   3.263  -0.733  0.00  0.00    +0.211 HD
ENDBRANCH   9  19
BRANCH  11  21
ATOM     21  O   UNL     1      -1.376  -2.232   0.817  0.00  0.00    -0.381 OA
ATOM     22  H   UNL     1      -0.473  -2.576   0.904  0.00  0.00    +0.210 HD
ENDBRANCH  11  21
BRANCH  13  23
ATOM     23  O   UNL     1      -3.518  -1.060  -0.366  0.00  0.00    -0.378 OA
ATOM     24  H   UNL     1      -3.476  -1.999  -0.130  0.00  0.00    +0.211 HD
ENDBRANCH  13  23
BRANCH   5  25
ATOM     25  C   UNL     1      -0.865  -0.858  -1.776  0.00  0.00    +0.142 C 
BRANCH  25  26
ATOM     26  O   UNL     1      -1.225  -2.206  -1.595  0.00  0.00    -0.382 OA
ATOM     27  H   UNL     1      -1.544  -2.571  -2.436  0.00  0.00    +0.210 HD
ENDBRANCH  25  26
ENDBRANCH   5  25
TORSDOF 6
