102366241
  -OEChem-03292013293D

 49 52  0     1  0  0  0  0  0999 V2000
    2.7800   -1.1124    1.3608 O   0  0  0  0  0  0  0  0  0  0  0  0
    0.8738   -2.2890   -1.5439 O   0  0  0  0  0  0  0  0  0  0  0  0
   -1.7233   -2.6209    0.3799 O   0  0  0  0  0  0  0  0  0  0  0  0
    1.2282    3.0266    0.5796 O   0  0  0  0  0  0  0  0  0  0  0  0
    2.8691    0.9995    2.2781 O   0  0  0  0  0  0  0  0  0  0  0  0
   -4.1966   -1.9987    1.1976 O   0  0  0  0  0  0  0  0  0  0  0  0
    0.3199   -0.3774   -0.0367 C   0  0  1  0  0  0  0  0  0  0  0  0
    1.1516    0.8667   -0.5282 C   0  0  2  0  0  0  0  0  0  0  0  0
   -1.2412   -0.3032   -0.3327 C   0  0  2  0  0  0  0  0  0  0  0  0
    2.6575    0.6915   -0.1441 C   0  0  2  0  0  0  0  0  0  0  0  0
    1.0778   -1.7266   -0.2590 C   0  0  2  0  0  0  0  0  0  0  0  0
    3.2566   -0.5377   -0.8276 C   0  0  2  0  0  0  0  0  0  0  0  0
    2.5953   -1.6094    0.0214 C   0  0  1  0  0  0  0  0  0  0  0  0
   -1.7424    1.1210   -0.0142 C   0  0  0  0  0  0  0  0  0  0  0  0
   -1.9755   -1.2528    0.6710 C   0  0  1  0  0  0  0  0  0  0  0  0
    0.5528    2.0847    0.1699 C   0  0  0  0  0  0  0  0  0  0  0  0
    1.0705    1.2030   -2.0328 C   0  0  0  0  0  0  0  0  0  0  0  0
    2.7951    0.2635    1.3079 C   0  0  0  0  0  0  0  0  0  0  0  0
   -1.5846   -0.7047   -1.7858 C   0  0  0  0  0  0  0  0  0  0  0  0
   -3.2463    1.3511    0.1316 C   0  0  2  0  0  0  0  0  0  0  0  0
   -0.9276    2.1577    0.2678 C   0  0  0  0  0  0  0  0  0  0  0  0
    4.7865   -0.5717   -0.7402 C   0  0  0  0  0  0  0  0  0  0  0  0
   -4.1208    0.0956    0.0769 C   0  0  0  0  0  0  0  0  0  0  0  0
   -3.4886   -1.1167    0.7055 C   0  0  0  0  0  0  0  0  0  0  0  0
   -3.7679    2.3601   -0.9029 C   0  0  0  0  0  0  0  0  0  0  0  0
    0.3479   -0.2780    1.0634 H   0  0  0  0  0  0  0  0  0  0  0  0
    3.2551    1.5903   -0.3298 H   0  0  0  0  0  0  0  0  0  0  0  0
    0.6839   -2.4460    0.4675 H   0  0  0  0  0  0  0  0  0  0  0  0
    2.9909   -0.6297   -1.8838 H   0  0  0  0  0  0  0  0  0  0  0  0
    3.0958   -2.5777   -0.0864 H   0  0  0  0  0  0  0  0  0  0  0  0
   -1.6287   -1.0529    1.6936 H   0  0  0  0  0  0  0  0  0  0  0  0
    1.2141    0.3193   -2.6605 H   0  0  0  0  0  0  0  0  0  0  0  0
    1.8435    1.9312   -2.3086 H   0  0  0  0  0  0  0  0  0  0  0  0
    0.1182    1.6641   -2.3150 H   0  0  0  0  0  0  0  0  0  0  0  0
   -1.4642   -1.7783   -1.9562 H   0  0  0  0  0  0  0  0  0  0  0  0
   -0.9729   -0.1935   -2.5270 H   0  0  0  0  0  0  0  0  0  0  0  0
   -2.6169   -0.4732   -2.0559 H   0  0  0  0  0  0  0  0  0  0  0  0
   -3.4017    1.7884    1.1294 H   0  0  0  0  0  0  0  0  0  0  0  0
   -1.3269    3.1211    0.5708 H   0  0  0  0  0  0  0  0  0  0  0  0
    5.1578   -0.5131    0.2879 H   0  0  0  0  0  0  0  0  0  0  0  0
    5.2167    0.2658   -1.2995 H   0  0  0  0  0  0  0  0  0  0  0  0
    5.1692   -1.5000   -1.1777 H   0  0  0  0  0  0  0  0  0  0  0  0
   -4.3911   -0.1685   -0.9509 H   0  0  0  0  0  0  0  0  0  0  0  0
   -5.0625    0.2968    0.6034 H   0  0  0  0  0  0  0  0  0  0  0  0
    1.3539   -3.1337   -1.5785 H   0  0  0  0  0  0  0  0  0  0  0  0
   -3.2799    3.3351   -0.8020 H   0  0  0  0  0  0  0  0  0  0  0  0
   -4.8441    2.5222   -0.7763 H   0  0  0  0  0  0  0  0  0  0  0  0
   -3.5980    2.0045   -1.9254 H   0  0  0  0  0  0  0  0  0  0  0  0
   -2.0478   -3.1475    1.1305 H   0  0  0  0  0  0  0  0  0  0  0  0
  1 13  1  0  0  0  0
  1 18  1  0  0  0  0
  2 11  1  0  0  0  0
  2 45  1  0  0  0  0
  3 15  1  0  0  0  0
  3 49  1  0  0  0  0
  4 16  2  0  0  0  0
  5 18  2  0  0  0  0
  6 24  2  0  0  0  0
  7  8  1  0  0  0  0
  7  9  1  0  0  0  0
  7 11  1  0  0  0  0
  7 26  1  0  0  0  0
  8 10  1  0  0  0  0
  8 16  1  0  0  0  0
  8 17  1  0  0  0  0
  9 14  1  0  0  0  0
  9 15  1  0  0  0  0
  9 19  1  0  0  0  0
 10 12  1  0  0  0  0
 10 18  1  0  0  0  0
 10 27  1  0  0  0  0
 11 13  1  0  0  0  0
 11 28  1  0  0  0  0
 12 13  1  0  0  0  0
 12 22  1  0  0  0  0
 12 29  1  0  0  0  0
 13 30  1  0  0  0  0
 14 20  1  0  0  0  0
 14 21  2  0  0  0  0
 15 24  1  0  0  0  0
 15 31  1  0  0  0  0
 16 21  1  0  0  0  0
 17 32  1  0  0  0  0
 17 33  1  0  0  0  0
 17 34  1  0  0  0  0
 19 35  1  0  0  0  0
 19 36  1  0  0  0  0
 19 37  1  0  0  0  0
 20 23  1  0  0  0  0
 20 25  1  0  0  0  0
 20 38  1  0  0  0  0
 21 39  1  0  0  0  0
 22 40  1  0  0  0  0
 22 41  1  0  0  0  0
 22 42  1  0  0  0  0
 23 24  1  0  0  0  0
 23 43  1  0  0  0  0
 23 44  1  0  0  0  0
 25 46  1  0  0  0  0
 25 47  1  0  0  0  0
 25 48  1  0  0  0  0
M  END
> <PUBCHEM_COMPOUND_CID>
102366241

> <PUBCHEM_CONFORMER_RMSD>
0.6

> <PUBCHEM_CONFORMER_DIVERSEORDER>
1
2

> <PUBCHEM_MMFF94_PARTIAL_CHARGES>
22
1 -0.43
10 0.06
11 0.28
13 0.28
14 -0.28
15 0.34
16 0.49
18 0.66
2 -0.68
20 0.14
21 -0.14
23 0.06
24 0.45
3 -0.68
39 0.15
4 -0.57
45 0.4
49 0.4
5 -0.57
6 -0.57
8 0.06
9 0.14

> <PUBCHEM_EFFECTIVE_ROTOR_COUNT>
1.2

> <PUBCHEM_PHARMACOPHORE_FEATURES>
10
1 2 acceptor
1 2 donor
1 3 acceptor
1 3 donor
1 4 acceptor
1 5 acceptor
1 6 acceptor
6 7 8 9 14 16 21 rings
6 9 14 15 20 23 24 rings
8 1 7 8 10 11 12 13 18 rings

> <PUBCHEM_HEAVY_ATOM_COUNT>
25

> <PUBCHEM_ATOM_DEF_STEREO_COUNT>
8

> <PUBCHEM_ATOM_UDEF_STEREO_COUNT>
1

> <PUBCHEM_BOND_DEF_STEREO_COUNT>
0

> <PUBCHEM_BOND_UDEF_STEREO_COUNT>
0

> <PUBCHEM_ISOTOPIC_ATOM_COUNT>
0

> <PUBCHEM_COMPONENT_COUNT>
1

> <PUBCHEM_CACTVS_TAUTO_COUNT>
24

> <PUBCHEM_CONFORMER_ID>
0619FC2100000001

> <PUBCHEM_MMFF94_ENERGY>
93.8825

> <PUBCHEM_FEATURE_SELFOVERLAP>
50.778

> <PUBCHEM_SHAPE_FINGERPRINT>
10366900 7 18058443214477210937
10759866 29 17968104066822389590
10863032 1 18262239915146362404
10967382 1 18194404385924938303
11578080 2 17058624461301353201
11640471 11 14189277318693259392
12011746 2 18200311000986320532
12382932 28 18410572842827294131
12403259 226 18338802342037000043
12553582 1 18265336290636365935
12633257 1 18339378421847792587
12788726 201 18052818048649759632
13140716 1 18051417563104388347
13224815 77 18342450461055869535
13538477 17 18187366472067206912
14178342 30 18187631514377756746
14223421 5 18265053720289871169
14790565 3 18123196963626855088
1601671 61 18336270050620204276
16752209 62 18334293167426145235
16945 1 18335969956712156966
17349148 13 18337101294527709445
17804303 29 18408611378650379797
20559304 39 18336836406150251689
20600515 1 18115308852333205316
20905425 154 18120389901623530239
21033648 29 17703779297866310465
21267235 1 18335999613408952043
21731516 1 16877935027538012828
22182313 1 18343575257446527304
2334 1 18124591139790505981
23419403 2 16543471368580752580
23493267 7 18261395498906450426
23559900 14 18266461997301277038
2748010 2 18343291570445523732
296302 2 16226058764280069924
34934 24 18338793403661580340
350125 39 18262249884404006837
495365 180 17773291488110549169
5104073 3 18409731729295920552
7364860 26 18268438017011808192
9709674 26 18340491041325670919

> <PUBCHEM_SHAPE_MULTIPOLES>
479.27
7.16
2.72
1.48
1.02
0.35
0.07
-1.01
-0.76
1.28
-0.17
-0.72
0.04
1.02

> <PUBCHEM_SHAPE_SELFOVERLAP>
1048.463

> <PUBCHEM_SHAPE_VOLUME>
253

> <PUBCHEM_COORDINATE_TYPE>
2
5
10

$$$$
