102414639
  -OEChem-03292013293D

 46 48  0     1  0  0  0  0  0999 V2000
    3.0125   -0.3099   -1.3862 O   0  0  0  0  0  0  0  0  0  0  0  0
    2.0432    1.6294    0.8248 O   0  0  0  0  0  0  0  0  0  0  0  0
    3.9295    0.0561    2.0888 O   0  0  0  0  0  0  0  0  0  0  0  0
   -1.3483   -1.4710   -0.0277 O   0  0  0  0  0  0  0  0  0  0  0  0
    0.0359    2.6732    0.8393 O   0  0  0  0  0  0  0  0  0  0  0  0
   -0.7085   -3.7043   -1.6213 O   0  0  0  0  0  0  0  0  0  0  0  0
   -0.9838   -0.2280    1.8753 O   0  0  0  0  0  0  0  0  0  0  0  0
    3.3202    1.4678    0.1702 C   0  0  1  0  0  0  0  0  0  0  0  0
    3.9991    0.2147    0.6896 C   0  0  2  0  0  0  0  0  0  0  0  0
    3.1892    1.1182   -1.3009 C   0  0  2  0  0  0  0  0  0  0  0  0
    3.3146   -0.8978   -0.1016 C   0  0  1  0  0  0  0  0  0  0  0  0
    2.0494    1.8132   -1.9483 C   0  0  0  0  0  0  0  0  0  0  0  0
    2.0435   -1.4314    0.4790 C   0  0  0  0  0  0  0  0  0  0  0  0
    1.0702    2.3880   -1.2470 C   0  0  0  0  0  0  0  0  0  0  0  0
    0.9907   -1.8172   -0.2568 C   0  0  0  0  0  0  0  0  0  0  0  0
    1.0099    2.2629    0.2169 C   0  0  0  0  0  0  0  0  0  0  0  0
   -0.2876   -2.3544    0.3309 C   0  0  2  0  0  0  0  0  0  0  0  0
   -0.6009   -3.7613   -0.1998 C   0  0  1  0  0  0  0  0  0  0  0  0
   -1.9104   -4.3113    0.3594 C   0  0  0  0  0  0  0  0  0  0  0  0
   -1.5877   -0.4496    0.8372 C   0  0  0  0  0  0  0  0  0  0  0  0
   -2.7102    0.3929    0.3524 C   0  0  0  0  0  0  0  0  0  0  0  0
   -3.5287    1.0577    1.2653 C   0  0  0  0  0  0  0  0  0  0  0  0
   -2.9448    0.5206   -1.0166 C   0  0  0  0  0  0  0  0  0  0  0  0
   -4.5822    1.8503    0.8094 C   0  0  0  0  0  0  0  0  0  0  0  0
   -3.9982    1.3131   -1.4727 C   0  0  0  0  0  0  0  0  0  0  0  0
   -4.8169    1.9779   -0.5597 C   0  0  0  0  0  0  0  0  0  0  0  0
    3.9044    2.3737    0.3623 H   0  0  0  0  0  0  0  0  0  0  0  0
    5.0587    0.2524    0.4038 H   0  0  0  0  0  0  0  0  0  0  0  0
    4.1217    1.3566   -1.8263 H   0  0  0  0  0  0  0  0  0  0  0  0
    4.0065   -1.7351   -0.2468 H   0  0  0  0  0  0  0  0  0  0  0  0
    2.0307    1.8677   -3.0326 H   0  0  0  0  0  0  0  0  0  0  0  0
    1.9983   -1.5606    1.5572 H   0  0  0  0  0  0  0  0  0  0  0  0
    4.3453   -0.7952    2.3078 H   0  0  0  0  0  0  0  0  0  0  0  0
    0.2541    2.8989   -1.7452 H   0  0  0  0  0  0  0  0  0  0  0  0
    1.0226   -1.7248   -1.3394 H   0  0  0  0  0  0  0  0  0  0  0  0
   -0.2071   -2.4335    1.4236 H   0  0  0  0  0  0  0  0  0  0  0  0
    0.2201   -4.4446    0.0478 H   0  0  0  0  0  0  0  0  0  0  0  0
   -2.7673   -3.7101    0.0368 H   0  0  0  0  0  0  0  0  0  0  0  0
   -2.0855   -5.3261   -0.0143 H   0  0  0  0  0  0  0  0  0  0  0  0
   -1.8918   -4.3439    1.4529 H   0  0  0  0  0  0  0  0  0  0  0  0
   -0.8806   -4.6071   -1.9389 H   0  0  0  0  0  0  0  0  0  0  0  0
   -3.3601    0.9666    2.3352 H   0  0  0  0  0  0  0  0  0  0  0  0
   -2.3149    0.0249   -1.7505 H   0  0  0  0  0  0  0  0  0  0  0  0
   -5.2198    2.3678    1.5202 H   0  0  0  0  0  0  0  0  0  0  0  0
   -4.1792    1.4154   -2.5387 H   0  0  0  0  0  0  0  0  0  0  0  0
   -5.6366    2.5955   -0.9149 H   0  0  0  0  0  0  0  0  0  0  0  0
  1 10  1  0  0  0  0
  1 11  1  0  0  0  0
  2  8  1  0  0  0  0
  2 16  1  0  0  0  0
  3  9  1  0  0  0  0
  3 33  1  0  0  0  0
  4 17  1  0  0  0  0
  4 20  1  0  0  0  0
  5 16  2  0  0  0  0
  6 18  1  0  0  0  0
  6 41  1  0  0  0  0
  7 20  2  0  0  0  0
  8  9  1  0  0  0  0
  8 10  1  0  0  0  0
  8 27  1  0  0  0  0
  9 11  1  0  0  0  0
  9 28  1  0  0  0  0
 10 12  1  0  0  0  0
 10 29  1  0  0  0  0
 11 13  1  0  0  0  0
 11 30  1  0  0  0  0
 12 14  2  0  0  0  0
 12 31  1  0  0  0  0
 13 15  2  0  0  0  0
 13 32  1  0  0  0  0
 14 16  1  0  0  0  0
 14 34  1  0  0  0  0
 15 17  1  0  0  0  0
 15 35  1  0  0  0  0
 17 18  1  0  0  0  0
 17 36  1  0  0  0  0
 18 19  1  0  0  0  0
 18 37  1  0  0  0  0
 19 38  1  0  0  0  0
 19 39  1  0  0  0  0
 19 40  1  0  0  0  0
 20 21  1  0  0  0  0
 21 22  2  0  0  0  0
 21 23  1  0  0  0  0
 22 24  1  0  0  0  0
 22 42  1  0  0  0  0
 23 25  2  0  0  0  0
 23 43  1  0  0  0  0
 24 26  2  0  0  0  0
 24 44  1  0  0  0  0
 25 26  1  0  0  0  0
 25 45  1  0  0  0  0
 26 46  1  0  0  0  0
M  END
> <PUBCHEM_COMPOUND_CID>
102414639

> <PUBCHEM_CONFORMER_RMSD>
1

> <PUBCHEM_CONFORMER_DIVERSEORDER>
8
3
95
19
31
75
89
71
52
79
17
44
35
73
40
33
59
67
27
57
94
51
26
91
90
42
25
69
70
5
64
38
46
24
37
20
12
16
1
65
48
15
83
86
63
78
87
22
82
74
85
29
84
11
34
62
2
49
93
68
13
88
80
81
53
30
36
4
32
28
92
47
56
60
66
45
61
50
39
21
54
58
23
6
14
43
55
10
77
76
9
18
7
72
41

> <PUBCHEM_MMFF94_PARTIAL_CHARGES>
36
1 -0.56
10 0.42
11 0.42
12 -0.29
13 -0.29
14 -0.14
15 -0.29
16 0.71
17 0.42
18 0.28
2 -0.43
20 0.63
21 0.09
22 -0.15
23 -0.15
24 -0.15
25 -0.15
26 -0.15
3 -0.68
31 0.15
32 0.15
33 0.4
34 0.15
35 0.15
4 -0.43
41 0.4
42 0.15
43 0.15
44 0.15
45 0.15
46 0.15
5 -0.57
6 -0.68
7 -0.57
8 0.28
9 0.28

> <PUBCHEM_EFFECTIVE_ROTOR_COUNT>
6.8

> <PUBCHEM_PHARMACOPHORE_FEATURES>
10
1 1 acceptor
1 3 acceptor
1 3 donor
1 5 acceptor
1 6 acceptor
1 6 donor
1 7 acceptor
5 1 8 9 10 11 rings
6 2 8 10 12 14 16 rings
6 21 22 23 24 25 26 rings

> <PUBCHEM_HEAVY_ATOM_COUNT>
26

> <PUBCHEM_ATOM_DEF_STEREO_COUNT>
6

> <PUBCHEM_ATOM_UDEF_STEREO_COUNT>
0

> <PUBCHEM_BOND_DEF_STEREO_COUNT>
1

> <PUBCHEM_BOND_UDEF_STEREO_COUNT>
0

> <PUBCHEM_ISOTOPIC_ATOM_COUNT>
0

> <PUBCHEM_COMPONENT_COUNT>
1

> <PUBCHEM_CACTVS_TAUTO_COUNT>
1

> <PUBCHEM_CONFORMER_ID>
061AB92F00000008

> <PUBCHEM_MMFF94_ENERGY>
68.1808

> <PUBCHEM_FEATURE_SELFOVERLAP>
50.991

> <PUBCHEM_SHAPE_FINGERPRINT>
10064457 181 18410298033576919797
10871710 139 17396165871862767997
12422481 6 17685477767945495576
12633257 1 17458346320914784761
12788726 201 17903923601313239047
13965767 371 18263624235278591098
14178342 30 18121771992256236072
15238133 3 17240770545332481668
16728300 4 16884391171165522346
17093844 170 17681260075669819724
17921350 177 17095508570317662157
22113638 7 18407757049309794900
22907989 373 18048607215857861735
23558518 356 17972313185853050643
238 59 17970879259908974501
3060560 45 18268425746079221095
350125 39 18336836402419721987
474 4 18338518517686850171
70251023 43 17478614512646557479
7164475 11 18050285065985646454
7832392 63 18337394937036214022

> <PUBCHEM_SHAPE_MULTIPOLES>
493.98
8
4.4
1.61
3.75
5.4
-0.08
-5.45
0.47
1.73
-0.96
-0.32
-0.43
-0.33

> <PUBCHEM_SHAPE_SELFOVERLAP>
1054.47

> <PUBCHEM_SHAPE_VOLUME>
273

> <PUBCHEM_COORDINATE_TYPE>
2
5
10

$$$$
