REMARK  Name = 102471029
REMARK  5 active torsions:
REMARK  status: ('A' for Active; 'I' for Inactive)
REMARK    1  A    between atoms: N_1  and  C_6
REMARK    2  A    between atoms: N_1  and  C_14
REMARK    3  A    between atoms: C_5  and  C_23
REMARK    4  A    between atoms: C_15  and  N_20
REMARK    5  A    between atoms: C_23  and  C_26
REMARK                            x       y       z     vdW  Elec       q    Type
REMARK                         _______ _______ _______ _____ _____    ______ ____
ROOT
ATOM      1  N   UNL     1       0.772  -3.120  -0.576  0.00  0.00    -0.328 NA
ATOM      2  N   UNL     1      -1.155  -1.925  -0.882  0.00  0.00    -0.309 NA
ATOM      3  N   UNL     1      -0.782  -3.792  -2.293  0.00  0.00    -0.283 N 
ATOM      4  C   UNL     1       0.806  -2.171   0.301  0.00  0.00    +0.173 C 
ATOM      5  C   UNL     1      -0.425  -1.377   0.132  0.00  0.00    +0.245 C 
ATOM      6  C   UNL     1      -0.427  -2.945  -1.278  0.00  0.00    +0.197 C 
ATOM      7  H   UNL     1      -0.191  -4.539  -2.540  0.00  0.00    +0.156 HD
ATOM      8  H   UNL     1      -1.629  -3.654  -2.775  0.00  0.00    +0.156 HD
ENDROOT
BRANCH   5   9
ATOM      9  N   UNL     1      -0.736  -0.348   0.833  0.00  0.00    -0.162 NA
BRANCH   9  14
ATOM     10  O   UNL     1      -3.233   2.744  -1.724  0.00  0.00    -0.246 OA
ATOM     11  O   UNL     1      -5.384   0.013   1.355  0.00  0.00    -0.265 OA
ATOM     12  N   UNL     1      -1.982   1.242  -0.466  0.00  0.00    -0.265 N 
ATOM     13  N   UNL     1      -4.343   1.390  -0.207  0.00  0.00    -0.246 N 
ATOM     14  C   UNL     1      -1.937   0.232   0.494  0.00  0.00    +0.157 A 
ATOM     15  C   UNL     1      -3.049  -0.201   1.117  0.00  0.00    +0.131 A 
ATOM     16  C   UNL     1      -3.184   1.857  -0.864  0.00  0.00    +0.335 A 
ATOM     17  C   UNL     1      -4.369   0.401   0.776  0.00  0.00    +0.280 A 
ATOM     18  C   UNL     1      -0.740   1.697  -1.097  0.00  0.00    +0.136 C 
ATOM     19  C   UNL     1      -5.618   1.991  -0.588  0.00  0.00    +0.138 C 
BRANCH  15  20
ATOM     20  N   UNL     1      -3.083  -1.183   2.070  0.00  0.00    -0.351 N 
ATOM     21  H   UNL     1      -2.250  -1.628   2.348  0.00  0.00    +0.143 HD
ATOM     22  H   UNL     1      -3.940  -1.443   2.478  0.00  0.00    +0.143 HD
ENDBRANCH  15  20
ENDBRANCH   9  14
ENDBRANCH   5   9
BRANCH   4  23
ATOM     23  C   UNL     1       1.843  -1.873   1.312  0.00  0.00    +0.091 C 
BRANCH  23  26
ATOM     24  O   UNL     1       3.626   2.679   0.529  0.00  0.00    -0.435 OA
ATOM     25  O   UNL     1       5.588   1.846  -0.595  0.00  0.00    -0.435 OA
ATOM     26  C   UNL     1       2.870  -0.902   0.788  0.00  0.00    -0.012 C 
ATOM     27  C   UNL     1       2.677   0.471   0.957  0.00  0.00    +0.036 C 
ATOM     28  C   UNL     1       3.644   1.320   0.459  0.00  0.00    +0.176 C 
ATOM     29  C   UNL     1       4.764   0.844  -0.182  0.00  0.00    +0.176 C 
ATOM     30  C   UNL     1       4.015  -1.388   0.132  0.00  0.00    -0.001 C 
ATOM     31  C   UNL     1       4.979  -0.507  -0.362  0.00  0.00    +0.040 C 
ATOM     32  C   UNL     1       4.862   3.005  -0.140  0.00  0.00    +0.429 C 
ENDBRANCH  23  26
ENDBRANCH   4  23
TORSDOF 5
