REMARK  Name = 1024
REMARK  6 active torsions:
REMARK  status: ('A' for Active; 'I' for Inactive)
REMARK    1  A    between atoms: C_9  and  C_18
REMARK    2  A    between atoms: CA_11  and  C_22
REMARK    3  A    between atoms: CA_15  and  C_26
REMARK    4  A    between atoms: C_18  and  O_19
REMARK    5  A    between atoms: C_22  and  O_23
REMARK    6  A    between atoms: C_26  and  O_27
REMARK                            x       y       z     vdW  Elec       q    Type
REMARK                         _______ _______ _______ _____ _____    ______ ____
ROOT
ATOM      1  O   UNL     1      -1.145   3.783   0.018  0.00  0.00    -0.283 OA
ATOM      2  O   UNL     1       1.509   3.361   0.015  0.00  0.00    -0.281 OA
ATOM      3  N   UNL     1      -2.083  -0.697  -0.015  0.00  0.00    -0.310 N 
ATOM      4  N   UNL     1       2.617   0.879  -0.005  0.00  0.00    -0.396 NA
ATOM      5  C   UNL     1      -1.048   0.201  -0.009  0.00  0.00    +0.040 C 
ATOM      6  C   UNL     1       0.379  -0.081  -0.011  0.00  0.00    +0.120 C 
ATOM      7  C   UNL     1      -1.599   1.469   0.001  0.00  0.00    +0.054 C 
ATOM      8  C   UNL     1       1.271   0.998  -0.003  0.00  0.00    +0.160 C 
ATOM      9  C   UNL     1       0.924  -1.363  -0.022  0.00  0.00    +0.068 C 
ATOM     10  C   UNL     1      -3.005   1.333   0.000  0.00  0.00    +0.025 C 
ATOM     11  CA  UNL     1      -3.277  -0.018  -0.010  0.00  0.00    +0.125 C 
ATOM     12  C   UNL     1      -0.739   2.630   0.009  0.00  0.00    +0.237 C 
ATOM     13  C   UNL     1       0.764   2.395   0.008  0.00  0.00    +0.260 C 
ATOM     14  C   UNL     1       2.308  -1.521  -0.024  0.00  0.00    +0.042 C 
ATOM     15  CA  UNL     1       3.100  -0.383  -0.015  0.00  0.00    +0.206 C 
ATOM     16  H   UNL     1      -1.986  -1.677  -0.022  0.00  0.00    +0.152 HD
ENDROOT
BRANCH   9  18
ATOM     17  O   UNL     1      -0.232  -3.205  -1.029  0.00  0.00    -0.245 OA
ATOM     18  C   UNL     1       0.152  -2.599  -0.034  0.00  0.00    +0.335 C 
BRANCH  18  19
ATOM     19  O   UNL     1      -0.116  -3.042   1.226  0.00  0.00    -0.477 OA
ATOM     20  H   UNL     1       0.191  -2.558   1.967  0.00  0.00    +0.295 HD
ENDBRANCH  18  19
ENDBRANCH   9  18
BRANCH  11  22
ATOM     21  OXT UNL     1      -5.672  -0.119  -0.010  0.00  0.00    -0.244 OA
ATOM     22  C   UNL     1      -4.553  -0.662  -0.014  0.00  0.00    +0.352 C 
BRANCH  22  23
ATOM     23  O   UNL     1      -4.461  -2.032  -0.025  0.00  0.00    -0.476 OA
ATOM     24  H   UNL     1      -3.619  -2.444  -0.028  0.00  0.00    +0.295 HD
ENDBRANCH  22  23
ENDBRANCH  11  22
BRANCH  15  26
ATOM     25  OXT UNL     1       5.196  -1.546  -0.026  0.00  0.00    -0.242 OA
ATOM     26  C   UNL     1       4.549  -0.501  -0.017  0.00  0.00    +0.368 C 
BRANCH  26  27
ATOM     27  O   UNL     1       5.161   0.718  -0.008  0.00  0.00    -0.475 OA
ATOM     28  H   UNL     1       4.646   1.500  -0.001  0.00  0.00    +0.295 HD
ENDBRANCH  26  27
ENDBRANCH  15  26
TORSDOF 6
