REMARK  Name = 102478579
REMARK  6 active torsions:
REMARK  status: ('A' for Active; 'I' for Inactive)
REMARK    1  A    between atoms: N_3  and  C1*_19
REMARK    2  A    between atoms: C_7  and  C_10
REMARK    3  A    between atoms: C2*_17  and  O2*_21
REMARK    4  A    between atoms: C3*_18  and  O3*_23
REMARK    5  A    between atoms: C4*_20  and  C5*_25
REMARK    6  A    between atoms: C5*_25  and  O5*_26
REMARK                            x       y       z     vdW  Elec       q    Type
REMARK                         _______ _______ _______ _____ _____    ______ ____
ROOT
ATOM      1  O   UNL     1      -1.924   3.148   0.488  0.00  0.00    -0.252 OA
ATOM      2  O   UNL     1       2.642   2.804   0.107  0.00  0.00    -0.270 OA
ATOM      3  N   UNL     1      -0.982   1.020   0.329  0.00  0.00    -0.217 N 
ATOM      4  N   UNL     1       0.351   2.958   0.279  0.00  0.00    -0.236 N 
ATOM      5  C   UNL     1       0.162   0.259   0.199  0.00  0.00    +0.076 C 
ATOM      6  C   UNL     1      -0.936   2.419   0.374  0.00  0.00    +0.315 C 
ATOM      7  C   UNL     1       1.397   0.776   0.113  0.00  0.00    +0.069 C 
ATOM      8  C   UNL     1       1.542   2.259   0.159  0.00  0.00    +0.254 C 
ATOM      9  H   UNL     1       0.418   3.940   0.299  0.00  0.00    +0.159 HD
ENDROOT
BRANCH   7  10
ATOM     10  C   UNL     1       2.567  -0.106  -0.040  0.00  0.00    +0.006 C 
ATOM     11  C   UNL     1       2.853  -1.061   0.936  0.00  0.00    +0.000 C 
ATOM     12  C   UNL     1       3.388   0.013  -1.161  0.00  0.00    +0.000 C 
ATOM     13  C   UNL     1       3.960  -1.897   0.790  0.00  0.00    +0.000 C 
ATOM     14  C   UNL     1       4.496  -0.822  -1.306  0.00  0.00    +0.000 C 
ATOM     15  C   UNL     1       4.782  -1.777  -0.330  0.00  0.00    +0.000 C 
ENDBRANCH   7  10
BRANCH   3  19
ATOM     16  O4* UNL     1      -2.035  -0.928   1.077  0.00  0.00    -0.333 OA
ATOM     17  C2* UNL     1      -2.816   0.010  -0.954  0.00  0.00    +0.187 C 
ATOM     18  C3* UNL     1      -3.592  -1.260  -0.677  0.00  0.00    +0.171 C 
ATOM     19  C1* UNL     1      -2.237   0.330   0.413  0.00  0.00    +0.229 C 
ATOM     20  C4* UNL     1      -2.693  -1.971   0.325  0.00  0.00    +0.175 C 
BRANCH  17  21
ATOM     21  O2* UNL     1      -3.640   1.045  -1.451  0.00  0.00    -0.378 OA
ATOM     22  H2* UNL     1      -3.984   0.794  -2.322  0.00  0.00    +0.211 HD
ENDBRANCH  17  21
BRANCH  18  23
ATOM     23  O3* UNL     1      -4.824  -0.955  -0.023  0.00  0.00    -0.379 OA
ATOM     24  H3* UNL     1      -5.415  -0.500  -0.643  0.00  0.00    +0.211 HD
ENDBRANCH  18  23
BRANCH  20  25
ATOM     25  C5* UNL     1      -1.621  -2.830  -0.332  0.00  0.00    +0.169 C 
BRANCH  25  26
ATOM     26  O5* UNL     1      -0.839  -3.434   0.683  0.00  0.00    -0.379 OA
ATOM     27  H5* UNL     1      -0.151  -3.985   0.277  0.00  0.00    +0.211 HD
ENDBRANCH  25  26
ENDBRANCH  20  25
ENDBRANCH   3  19
TORSDOF 6
