REMARK  Name = 102412584
REMARK  4 active torsions:
REMARK  status: ('A' for Active; 'I' for Inactive)
REMARK    1  A    between atoms: C_5  and  C_18
REMARK    2  A    between atoms: C_7  and  N_26
REMARK    3  A    between atoms: C_14  and  O_22
REMARK    4  A    between atoms: C_18  and  O_24
REMARK                            x       y       z     vdW  Elec       q    Type
REMARK                         _______ _______ _______ _____ _____    ______ ____
ROOT
ATOM      1  O   UNL     1      -1.060  -0.710  -0.196  0.00  0.00    -0.433 OA
ATOM      2  O   UNL     1      -4.301   1.463   1.416  0.00  0.00    -0.275 OA
ATOM      3  O   UNL     1      -1.628   0.554  -2.042  0.00  0.00    -0.252 OA
ATOM      4  N   UNL     1      -2.099   1.132   0.951  0.00  0.00    -0.271 N 
ATOM      5  C   UNL     1      -0.854   0.373   0.734  0.00  0.00    +0.247 C 
ATOM      6  C   UNL     1      -4.048  -1.058  -0.622  0.00  0.00    -0.001 C 
ATOM      7  C   UNL     1      -2.859  -1.454  -1.516  0.00  0.00    +0.036 C 
ATOM      8  C   UNL     1      -3.720  -0.783   0.856  0.00  0.00    +0.084 C 
ATOM      9  C   UNL     1      -0.370  -0.240   2.050  0.00  0.00    +0.074 C 
ATOM     10  C   UNL     1      -3.393   0.682   1.112  0.00  0.00    +0.225 C 
ATOM     11  C   UNL     1      -1.750  -0.445  -1.345  0.00  0.00    +0.298 C 
ATOM     12  H   UNL     1      -1.991   2.110   0.987  0.00  0.00    +0.153 HD
ENDROOT
BRANCH   5  18
ATOM     13  O   UNL     1       0.922  -1.396   0.181  0.00  0.00    -0.289 OA
ATOM     14  C   UNL     1       3.240  -0.845   0.513  0.00  0.00    +0.177 C 
ATOM     15  C   UNL     1       4.200  -0.013  -0.324  0.00  0.00    +0.042 C 
ATOM     16  C   UNL     1       1.455   0.917  -0.082  0.00  0.00    +0.068 C 
ATOM     17  C   UNL     1       3.909   1.475  -0.158  0.00  0.00    +0.030 C 
ATOM     18  C   UNL     1       0.206   1.305   0.219  0.00  0.00    +0.168 C 
ATOM     19  C   UNL     1       2.499   1.804  -0.583  0.00  0.00    -0.016 C 
ATOM     20  C   UNL     1       1.789  -0.523   0.187  0.00  0.00    +0.202 C 
ATOM     21  C   UNL     1       2.258   2.823  -1.425  0.00  0.00    -0.004 C 
BRANCH  14  22
ATOM     22  O   UNL     1       3.490  -2.217   0.267  0.00  0.00    -0.346 OA
ATOM     23  C   UNL     1       4.645  -2.675   0.961  0.00  0.00    +0.175 C 
ENDBRANCH  14  22
BRANCH  18  24
ATOM     24  O   UNL     1      -0.168   2.625   0.060  0.00  0.00    -0.505 OA
ATOM     25  H   UNL     1      -1.040   2.894   0.271  0.00  0.00    +0.292 HD
ENDBRANCH  18  24
ENDBRANCH   5  18
BRANCH   7  26
ATOM     26  N   UNL     1      -2.362  -2.795  -1.216  0.00  0.00    +0.389 N 
ATOM     27  H   UNL     1      -3.116  -3.472  -1.333  0.00  0.00    -0.088 HD
ATOM     28  H   UNL     1      -2.024  -2.826  -0.253  0.00  0.00    -0.088 HD
ATOM     29  H   UNL     1      -1.597  -3.024  -1.851  0.00  0.00    -0.088 HD
ENDBRANCH   7  26
TORSDOF 4
