REMARK  Name = 102412583
REMARK  5 active torsions:
REMARK  status: ('A' for Active; 'I' for Inactive)
REMARK    1  A    between atoms: C_5  and  C_20
REMARK    2  A    between atoms: C_7  and  N_28
REMARK    3  A    between atoms: C_14  and  O_22
REMARK    4  A    between atoms: C_18  and  O_24
REMARK    5  A    between atoms: C_20  and  O_26
REMARK                            x       y       z     vdW  Elec       q    Type
REMARK                         _______ _______ _______ _____ _____    ______ ____
ROOT
ATOM      1  O   UNL     1      -1.267   0.793  -0.099  0.00  0.00    -0.433 OA
ATOM      2  O   UNL     1      -4.105  -2.325  -0.335  0.00  0.00    -0.275 OA
ATOM      3  O   UNL     1      -1.038  -0.095   2.020  0.00  0.00    -0.252 OA
ATOM      4  N   UNL     1      -2.022  -1.442  -0.574  0.00  0.00    -0.271 N 
ATOM      5  C   UNL     1      -1.005  -0.411  -0.849  0.00  0.00    +0.247 C 
ATOM      6  C   UNL     1      -1.019  -0.036  -2.333  0.00  0.00    +0.074 C 
ATOM      7  C   UNL     1      -2.841   1.433   1.528  0.00  0.00    +0.036 C 
ATOM      8  C   UNL     1      -4.058   0.599   1.087  0.00  0.00    -0.001 C 
ATOM      9  C   UNL     1      -4.022   0.061  -0.354  0.00  0.00    +0.084 C 
ATOM     10  C   UNL     1      -3.389  -1.322  -0.438  0.00  0.00    +0.225 C 
ATOM     11  C   UNL     1      -1.576   0.665   1.226  0.00  0.00    +0.298 C 
ATOM     12  H   UNL     1      -1.672  -2.357  -0.471  0.00  0.00    +0.153 HD
ENDROOT
BRANCH   5  20
ATOM     13  O   UNL     1       2.932  -2.146  -0.501  0.00  0.00    -0.289 OA
ATOM     14  C   UNL     1       1.621   1.176  -1.107  0.00  0.00    +0.113 C 
ATOM     15  C   UNL     1       2.573   1.957  -0.183  0.00  0.00    +0.034 C 
ATOM     16  C   UNL     1       1.488  -0.255  -0.637  0.00  0.00    +0.073 C 
ATOM     17  C   UNL     1       3.921   1.262   0.013  0.00  0.00    +0.040 C 
ATOM     18  C   UNL     1       3.759  -0.155   0.552  0.00  0.00    +0.176 C 
ATOM     19  C   UNL     1       2.748  -0.958  -0.243  0.00  0.00    +0.201 C 
ATOM     20  C   UNL     1       0.352  -0.954  -0.503  0.00  0.00    +0.167 C 
ATOM     21  C   UNL     1       2.096   1.216  -2.567  0.00  0.00    +0.034 C 
BRANCH  14  22
ATOM     22  O   UNL     1       0.362   1.857  -1.044  0.00  0.00    -0.382 OA
ATOM     23  H   UNL     1       0.036   1.848  -0.130  0.00  0.00    +0.211 HD
ENDBRANCH  14  22
BRANCH  18  24
ATOM     24  O   UNL     1       3.298  -0.106   1.893  0.00  0.00    -0.346 OA
ATOM     25  C   UNL     1       3.602  -1.305   2.598  0.00  0.00    +0.175 C 
ENDBRANCH  18  24
BRANCH  20  26
ATOM     26  O   UNL     1       0.386  -2.249  -0.022  0.00  0.00    -0.505 OA
ATOM     27  H   UNL     1       1.205  -2.641   0.210  0.00  0.00    +0.292 HD
ENDBRANCH  20  26
ENDBRANCH   5  20
BRANCH   7  28
ATOM     28  N   UNL     1      -2.797   2.740   0.875  0.00  0.00    +0.389 N 
ATOM     29  H   UNL     1      -3.654   3.252   1.083  0.00  0.00    -0.088 HD
ATOM     30  H   UNL     1      -2.713   2.613  -0.134  0.00  0.00    -0.088 HD
ATOM     31  H   UNL     1      -1.994   3.265   1.220  0.00  0.00    -0.088 HD
ENDBRANCH   7  28
TORSDOF 5
