REMARK  Name = 102430460
REMARK  4 active torsions:
REMARK  status: ('A' for Active; 'I' for Inactive)
REMARK    1  A    between atoms: C_5  and  O_22
REMARK    2  A    between atoms: C_11  and  O_24
REMARK    3  A    between atoms: C_18  and  O_26
REMARK    4  A    between atoms: C_19  and  O_28
REMARK                            x       y       z     vdW  Elec       q    Type
REMARK                         _______ _______ _______ _____ _____    ______ ____
ROOT
ATOM      1  O   UNL     1       0.379  -2.181  -0.733  0.00  0.00    -0.286 OA
ATOM      2  O   UNL     1       1.983   2.808  -0.157  0.00  0.00    -0.286 OA
ATOM      3  C   UNL     1      -4.559  -0.734  -0.396  0.00  0.00    +0.007 C 
ATOM      4  C   UNL     1      -3.764  -1.772   0.385  0.00  0.00    +0.034 C 
ATOM      5  C   UNL     1      -2.267  -1.675   0.070  0.00  0.00    +0.133 C 
ATOM      6  C   UNL     1      -4.108   0.655   0.061  0.00  0.00    +0.029 C 
ATOM      7  C   UNL     1      -1.709  -0.262  -0.006  0.00  0.00    +0.006 C 
ATOM      8  C   UNL     1      -2.607   0.833   0.018  0.00  0.00    +0.010 C 
ATOM      9  C   UNL     1      -0.317   0.009  -0.117  0.00  0.00    +0.040 C 
ATOM     10  C   UNL     1      -6.059  -0.914  -0.181  0.00  0.00    +0.000 C 
ATOM     11  C   UNL     1      -2.118   2.147   0.039  0.00  0.00    +0.130 C 
ATOM     12  C   UNL     1       0.147   1.335  -0.073  0.00  0.00    +0.045 C 
ATOM     13  C   UNL     1      -0.753   2.398   0.009  0.00  0.00    +0.040 C 
ATOM     14  C   UNL     1       0.695  -1.066  -0.337  0.00  0.00    +0.199 C 
ATOM     15  C   UNL     1       1.593   1.648  -0.096  0.00  0.00    +0.199 C 
ATOM     16  C   UNL     1       2.126  -0.772  -0.132  0.00  0.00    +0.079 C 
ATOM     17  C   UNL     1       2.564   0.545  -0.023  0.00  0.00    +0.079 C 
ATOM     18  C   UNL     1       3.052  -1.821  -0.077  0.00  0.00    +0.137 C 
ATOM     19  C   UNL     1       3.926   0.821   0.142  0.00  0.00    +0.137 C 
ATOM     20  C   UNL     1       4.409  -1.545   0.093  0.00  0.00    +0.040 C 
ATOM     21  C   UNL     1       4.846  -0.226   0.202  0.00  0.00    +0.040 C 
ENDROOT
BRANCH   5  22
ATOM     22  O   UNL     1      -1.590  -2.403   1.097  0.00  0.00    -0.380 OA
ATOM     23  H   UNL     1      -1.947  -3.303   1.144  0.00  0.00    +0.211 HD
ENDBRANCH   5  22
BRANCH  11  24
ATOM     24  O   UNL     1      -2.967   3.215   0.108  0.00  0.00    -0.506 OA
ATOM     25  H   UNL     1      -3.894   3.076   0.129  0.00  0.00    +0.292 HD
ENDBRANCH  11  24
BRANCH  18  26
ATOM     26  O   UNL     1       2.687  -3.132  -0.161  0.00  0.00    -0.505 OA
ATOM     27  H   UNL     1       1.785  -3.360  -0.275  0.00  0.00    +0.292 HD
ENDBRANCH  18  26
BRANCH  19  28
ATOM     28  O   UNL     1       4.413   2.089   0.263  0.00  0.00    -0.505 OA
ATOM     29  H   UNL     1       3.828   2.820   0.228  0.00  0.00    +0.292 HD
ENDBRANCH  19  28
TORSDOF 4
