REMARK  Name = 102435482
REMARK  10 active torsions:
REMARK  status: ('A' for Active; 'I' for Inactive)
REMARK    1  A    between atoms: C_1  and  O_13
REMARK    2  A    between atoms: C_2  and  O_7
REMARK    3  A    between atoms: C_3  and  O_9
REMARK    4  A    between atoms: C_4  and  O_11
REMARK    5  A    between atoms: C_5  and  C_22
REMARK    6  A    between atoms: O_13  and  C_15
REMARK    7  A    between atoms: C_15  and  C_16
REMARK    8  A    between atoms: C_22  and  O_23
REMARK    9  A    between atoms: O_23  and  C_25
REMARK   10  A    between atoms: C_25  and  C_26
REMARK                            x       y       z     vdW  Elec       q    Type
REMARK                         _______ _______ _______ _____ _____    ______ ____
ROOT
ATOM      1  C   UNL     1      -2.476  -1.891   0.011  0.00  0.00    +0.229 C 
ATOM      2  C   UNL     1      -1.641  -2.168   1.269  0.00  0.00    +0.184 C 
ATOM      3  C   UNL     1      -0.141  -1.889   1.061  0.00  0.00    +0.162 C 
ATOM      4  C   UNL     1      -1.928  -2.597  -1.238  0.00  0.00    +0.175 C 
ATOM      5  C   UNL     1       0.387  -2.329  -0.286  0.00  0.00    +0.026 C 
ATOM      6  C   UNL     1      -0.429  -2.670  -1.298  0.00  0.00    +0.004 C 
ENDROOT
BRANCH   2   7
ATOM      7  O   UNL     1      -1.835  -3.519   1.685  0.00  0.00    -0.378 OA
ATOM      8  H   UNL     1      -2.782  -3.686   1.813  0.00  0.00    +0.211 HD
ENDBRANCH   2   7
BRANCH   3   9
ATOM      9  O   UNL     1       0.114  -0.494   1.219  0.00  0.00    -0.378 OA
ATOM     10  H   UNL     1      -0.220  -0.200   2.081  0.00  0.00    +0.211 HD
ENDBRANCH   3   9
BRANCH   4  11
ATOM     11  O   UNL     1      -2.452  -3.921  -1.328  0.00  0.00    -0.376 OA
ATOM     12  H   UNL     1      -3.421  -3.888  -1.291  0.00  0.00    +0.211 HD
ENDBRANCH   4  11
BRANCH   1  13
ATOM     13  O   UNL     1      -2.491  -0.486  -0.245  0.00  0.00    -0.444 OA
BRANCH  13  15
ATOM     14  O   UNL     1      -4.343  -0.243   1.100  0.00  0.00    -0.245 OA
ATOM     15  C   UNL     1      -3.481   0.215   0.365  0.00  0.00    +0.341 C 
BRANCH  15  16
ATOM     16  C   UNL     1      -3.387   1.656   0.020  0.00  0.00    +0.076 C 
ATOM     17  C   UNL     1      -4.540   2.439  -0.027  0.00  0.00    +0.006 C 
ATOM     18  C   UNL     1      -2.144   2.226  -0.256  0.00  0.00    +0.006 C 
ATOM     19  C   UNL     1      -4.450   3.793  -0.350  0.00  0.00    +0.000 C 
ATOM     20  C   UNL     1      -2.055   3.580  -0.579  0.00  0.00    +0.000 C 
ATOM     21  C   UNL     1      -3.208   4.364  -0.626  0.00  0.00    +0.000 C 
ENDBRANCH  15  16
ENDBRANCH  13  15
ENDBRANCH   1  13
BRANCH   5  22
ATOM     22  C   UNL     1       1.881  -2.383  -0.430  0.00  0.00    +0.233 C 
BRANCH  22  23
ATOM     23  O   UNL     1       2.426  -1.096  -0.212  0.00  0.00    -0.441 OA
BRANCH  23  25
ATOM     24  O   UNL     1       4.553  -1.900  -0.569  0.00  0.00    -0.245 OA
ATOM     25  C   UNL     1       3.783  -0.988  -0.311  0.00  0.00    +0.342 C 
BRANCH  25  26
ATOM     26  C   UNL     1       4.227   0.406  -0.062  0.00  0.00    +0.076 C 
ATOM     27  C   UNL     1       5.583   0.727  -0.116  0.00  0.00    +0.006 C 
ATOM     28  C   UNL     1       3.287   1.396   0.226  0.00  0.00    +0.006 C 
ATOM     29  C   UNL     1       6.000   2.038   0.117  0.00  0.00    +0.000 C 
ATOM     30  C   UNL     1       3.703   2.707   0.459  0.00  0.00    +0.000 C 
ATOM     31  C   UNL     1       5.059   3.028   0.405  0.00  0.00    +0.000 C 
ENDBRANCH  25  26
ENDBRANCH  23  25
ENDBRANCH  22  23
ENDBRANCH   5  22
TORSDOF 10
