REMARK  Name = 102414640
REMARK  9 active torsions:
REMARK  status: ('A' for Active; 'I' for Inactive)
REMARK    1  A    between atoms: C_1  and  C_3
REMARK    2  A    between atoms: C_1  and  C_16
REMARK    3  A    between atoms: C_1  and  O_22
REMARK    4  A    between atoms: C_2  and  C_10
REMARK    5  A    between atoms: C_8  and  O_14
REMARK    6  A    between atoms: C_16  and  O_18
REMARK    7  A    between atoms: O_18  and  C_20
REMARK    8  A    between atoms: O_22  and  C_24
REMARK    9  A    between atoms: C_24  and  C_25
REMARK                            x       y       z     vdW  Elec       q    Type
REMARK                         _______ _______ _______ _____ _____    ______ ____
ROOT
ATOM      1  C   UNL     1       0.300  -1.433   1.265  0.00  0.00    +0.231 C 
ENDROOT
BRANCH   1   3
ATOM      2  C   UNL     1       2.051   0.353   1.494  0.00  0.00    +0.005 C 
ATOM      3  C   UNL     1       1.370  -0.515   0.733  0.00  0.00    +0.018 C 
BRANCH   2  10
ATOM      4  O   UNL     1       3.315   0.967  -0.430  0.00  0.00    -0.344 OA
ATOM      5  O   UNL     1       0.683   2.574  -0.144  0.00  0.00    -0.444 OA
ATOM      6  O   UNL     1      -1.265   2.057  -1.171  0.00  0.00    -0.245 OA
ATOM      7  C   UNL     1       2.059   2.987  -0.292  0.00  0.00    +0.229 C 
ATOM      8  C   UNL     1       2.799   2.759   1.012  0.00  0.00    +0.185 C 
ATOM      9  C   UNL     1       2.851   2.082  -1.217  0.00  0.00    +0.180 C 
ATOM     10  C   UNL     1       3.114   1.265   0.970  0.00  0.00    +0.168 C 
ATOM     11  C   UNL     1       2.042   1.596  -2.362  0.00  0.00    +0.013 C 
ATOM     12  C   UNL     1       0.709   1.666  -2.377  0.00  0.00    +0.080 C 
ATOM     13  C   UNL     1      -0.041   2.128  -1.200  0.00  0.00    +0.341 C 
BRANCH   8  14
ATOM     14  O   UNL     1       2.088   3.167   2.160  0.00  0.00    -0.378 OA
ATOM     15  H   UNL     1       1.925   4.122   2.117  0.00  0.00    +0.211 HD
ENDBRANCH   8  14
ENDBRANCH   2  10
ENDBRANCH   1   3
BRANCH   1  16
ATOM     16  C   UNL     1       0.635  -2.905   0.985  0.00  0.00    +0.213 C 
ATOM     17  C   UNL     1      -0.453  -3.851   1.488  0.00  0.00    +0.052 C 
BRANCH  16  18
ATOM     18  O   UNL     1       0.772  -3.087  -0.423  0.00  0.00    -0.448 OA
BRANCH  18  20
ATOM     19  O   UNL     1       2.295  -4.788  -0.068  0.00  0.00    -0.250 OA
ATOM     20  C   UNL     1       1.640  -4.068  -0.810  0.00  0.00    +0.318 C 
ATOM     21  C   UNL     1       1.682  -4.145  -2.306  0.00  0.00    +0.121 C 
ENDBRANCH  18  20
ENDBRANCH  16  18
ENDBRANCH   1  16
BRANCH   1  22
ATOM     22  O   UNL     1      -0.930  -1.101   0.623  0.00  0.00    -0.441 OA
BRANCH  22  24
ATOM     23  O   UNL     1      -1.405   0.427   2.277  0.00  0.00    -0.245 OA
ATOM     24  C   UNL     1      -1.685  -0.154   1.240  0.00  0.00    +0.342 C 
BRANCH  24  25
ATOM     25  C   UNL     1      -2.933   0.099   0.477  0.00  0.00    +0.076 C 
ATOM     26  C   UNL     1      -3.854   1.039   0.937  0.00  0.00    +0.006 C 
ATOM     27  C   UNL     1      -3.183  -0.604  -0.702  0.00  0.00    +0.006 C 
ATOM     28  C   UNL     1      -5.026   1.277   0.219  0.00  0.00    +0.000 C 
ATOM     29  C   UNL     1      -4.355  -0.366  -1.420  0.00  0.00    +0.000 C 
ATOM     30  C   UNL     1      -5.276   0.575  -0.960  0.00  0.00    +0.000 C 
ENDBRANCH  24  25
ENDBRANCH  22  24
ENDBRANCH   1  22
TORSDOF 9
