102470225
  -OEChem-03292013293D

 54 56  0     1  0  0  0  0  0999 V2000
    0.0610    0.6528   -0.8099 S   0  0  0  0  0  0  0  0  0  0  0  0
    6.5864    0.5040   -1.1132 S   0  0  0  0  0  0  0  0  0  0  0  0
   -5.4319    1.8588   -0.1443 O   0  0  0  0  0  0  0  0  0  0  0  0
   -5.9437   -2.7905   -0.2848 O   0  0  0  0  0  0  0  0  0  0  0  0
   -2.9507    2.7442    1.7728 O   0  0  0  0  0  0  0  0  0  0  0  0
   -1.5003    3.2822    0.0884 O   0  0  0  0  0  0  0  0  0  0  0  0
    6.3873   -0.5179   -2.1285 O   0  0  0  0  0  0  0  0  0  0  0  0
    7.8702    0.5632   -0.4323 O   0  0  0  0  0  0  0  0  0  0  0  0
   -3.6197    0.4816    0.4731 N   0  0  0  0  0  0  0  0  0  0  0  0
    1.8281   -1.3455    2.1556 N   0  0  0  0  0  0  0  0  0  0  0  0
    6.1256   -1.8216    0.7936 N   0  0  0  0  0  0  0  0  0  0  0  0
    5.4297    0.3560    0.0314 N   0  0  0  0  0  0  0  0  0  0  0  0
    6.3835    2.0295   -1.8877 N   0  0  0  0  0  0  0  0  0  0  0  0
   -3.5889   -0.9160   -0.0020 C   0  0  1  0  0  0  0  0  0  0  0  0
   -4.9896   -0.6119   -0.6453 C   0  0  2  0  0  0  0  0  0  0  0  0
   -2.2191   -1.0396   -0.7039 C   0  0  2  0  0  0  0  0  0  0  0  0
   -4.8212    0.8165   -0.0700 C   0  0  0  0  0  0  0  0  0  0  0  0
   -1.5616    0.2905   -0.3787 C   0  0  0  0  0  0  0  0  0  0  0  0
   -2.4232    1.0979    0.2547 C   0  0  0  0  0  0  0  0  0  0  0  0
   -6.1689   -1.3958   -0.1009 C   0  0  1  0  0  0  0  0  0  0  0  0
   -2.3753   -1.3111   -2.1947 C   0  0  0  0  0  0  0  0  0  0  0  0
    0.9317   -0.6410    0.1101 C   0  0  1  0  0  0  0  0  0  0  0  0
    2.4421   -0.5500   -0.0288 C   0  0  0  0  0  0  0  0  0  0  0  0
    2.9476   -1.3090    1.2009 C   0  0  1  0  0  0  0  0  0  0  0  0
    0.7462   -0.5203    1.6116 C   0  0  0  0  0  0  0  0  0  0  0  0
   -7.4564   -1.0070   -0.8160 C   0  0  0  0  0  0  0  0  0  0  0  0
   -2.2218    2.4836    0.6651 C   0  0  0  0  0  0  0  0  0  0  0  0
    4.2011   -0.6850    1.8001 C   0  0  0  0  0  0  0  0  0  0  0  0
    5.3316   -0.6988    0.7836 C   0  0  0  0  0  0  0  0  0  0  0  0
   -3.6467   -1.6067    0.8521 H   0  0  0  0  0  0  0  0  0  0  0  0
   -4.9723   -0.6143   -1.7422 H   0  0  0  0  0  0  0  0  0  0  0  0
   -1.6645   -1.8637   -0.2406 H   0  0  0  0  0  0  0  0  0  0  0  0
   -6.2799   -1.2252    0.9763 H   0  0  0  0  0  0  0  0  0  0  0  0
   -2.8432   -0.4693   -2.7168 H   0  0  0  0  0  0  0  0  0  0  0  0
   -2.9953   -2.1980   -2.3637 H   0  0  0  0  0  0  0  0  0  0  0  0
   -1.4017   -1.4901   -2.6632 H   0  0  0  0  0  0  0  0  0  0  0  0
    0.6057   -1.6271   -0.2430 H   0  0  0  0  0  0  0  0  0  0  0  0
    2.7946   -0.9992   -0.9635 H   0  0  0  0  0  0  0  0  0  0  0  0
    2.7631    0.4991   -0.0045 H   0  0  0  0  0  0  0  0  0  0  0  0
    3.1623   -2.3452    0.9103 H   0  0  0  0  0  0  0  0  0  0  0  0
    0.8686    0.5128    1.9605 H   0  0  0  0  0  0  0  0  0  0  0  0
   -0.2242   -0.8930    1.9526 H   0  0  0  0  0  0  0  0  0  0  0  0
   -8.3024   -1.5828   -0.4258 H   0  0  0  0  0  0  0  0  0  0  0  0
   -7.6749    0.0585   -0.6974 H   0  0  0  0  0  0  0  0  0  0  0  0
   -7.3911   -1.2275   -1.8874 H   0  0  0  0  0  0  0  0  0  0  0  0
    2.1038   -1.0108    3.0770 H   0  0  0  0  0  0  0  0  0  0  0  0
    4.0154    0.3503    2.1133 H   0  0  0  0  0  0  0  0  0  0  0  0
    4.5168   -1.2393    2.6924 H   0  0  0  0  0  0  0  0  0  0  0  0
   -6.7089   -3.2632    0.0848 H   0  0  0  0  0  0  0  0  0  0  0  0
   -2.8391    3.6700    2.0776 H   0  0  0  0  0  0  0  0  0  0  0  0
    5.9529   -2.5920    1.4309 H   0  0  0  0  0  0  0  0  0  0  0  0
    6.9094   -1.9223    0.1580 H   0  0  0  0  0  0  0  0  0  0  0  0
    6.5751    2.8610   -1.3142 H   0  0  0  0  0  0  0  0  0  0  0  0
    5.5403    2.1386   -2.4657 H   0  0  0  0  0  0  0  0  0  0  0  0
  1 18  1  0  0  0  0
  1 22  1  0  0  0  0
  2  7  2  0  0  0  0
  2  8  2  0  0  0  0
  2 12  1  0  0  0  0
  2 13  1  0  0  0  0
  3 17  2  0  0  0  0
  4 20  1  0  0  0  0
  4 49  1  0  0  0  0
  5 27  1  0  0  0  0
  5 50  1  0  0  0  0
  6 27  2  0  0  0  0
  9 14  1  0  0  0  0
  9 17  1  0  0  0  0
  9 19  1  0  0  0  0
 10 24  1  0  0  0  0
 10 25  1  0  0  0  0
 10 46  1  0  0  0  0
 11 29  1  0  0  0  0
 11 51  1  0  0  0  0
 11 52  1  0  0  0  0
 12 29  2  3  0  0  0
 13 53  1  0  0  0  0
 13 54  1  0  0  0  0
 14 15  1  0  0  0  0
 14 16  1  0  0  0  0
 14 30  1  0  0  0  0
 15 17  1  0  0  0  0
 15 20  1  0  0  0  0
 15 31  1  0  0  0  0
 16 18  1  0  0  0  0
 16 21  1  0  0  0  0
 16 32  1  0  0  0  0
 18 19  2  0  0  0  0
 19 27  1  0  0  0  0
 20 26  1  0  0  0  0
 20 33  1  0  0  0  0
 21 34  1  0  0  0  0
 21 35  1  0  0  0  0
 21 36  1  0  0  0  0
 22 23  1  0  0  0  0
 22 25  1  0  0  0  0
 22 37  1  0  0  0  0
 23 24  1  0  0  0  0
 23 38  1  0  0  0  0
 23 39  1  0  0  0  0
 24 28  1  0  0  0  0
 24 40  1  0  0  0  0
 25 41  1  0  0  0  0
 25 42  1  0  0  0  0
 26 43  1  0  0  0  0
 26 44  1  0  0  0  0
 26 45  1  0  0  0  0
 28 29  1  0  0  0  0
 28 47  1  0  0  0  0
 28 48  1  0  0  0  0
M  END
> <PUBCHEM_COMPOUND_CID>
102470225

> <PUBCHEM_CONFORMER_RMSD>
1

> <PUBCHEM_CONFORMER_DIVERSEORDER>
1
10
23
57
6
41
75
32
83
89
17
72
88
81
34
60
44
26
61
56
48
94
55
29
31
43
37
52
80
58
85
67
22
95
19
40
45
38
86
27
62
66
13
35
16
77
24
46
76
59
18
91
11
28
51
4
49
71
54
70
42
5
92
33
65
2
93
73
20
53
74
9
63
14
12
69
39
84
68
7
36
79
50
78
87
82
15
30
25
90
3
8
21
47
64

> <PUBCHEM_MMFF94_PARTIAL_CHARGES>
33
1 -0.33
10 -0.9
11 -0.85
12 -0.64
13 -0.98
14 0.22
15 0.05
16 0.14
17 0.58
18 -0.04
19 0.12
2 1.63
20 0.28
22 0.23
24 0.27
25 0.27
27 0.71
28 0.06
29 0.44
3 -0.57
4 -0.68
46 0.36
49 0.4
5 -0.65
50 0.5
51 0.4
52 0.4
53 0.42
54 0.42
6 -0.57
7 -0.65
8 -0.65
9 -0.39

> <PUBCHEM_EFFECTIVE_ROTOR_COUNT>
8.4

> <PUBCHEM_PHARMACOPHORE_FEATURES>
13
1 10 cation
1 10 donor
1 11 donor
1 12 donor
1 13 donor
1 3 acceptor
1 4 acceptor
1 4 donor
1 5 acceptor
1 6 acceptor
3 5 6 27 anion
5 10 22 23 24 25 rings
7 9 14 15 16 17 18 19 rings

> <PUBCHEM_HEAVY_ATOM_COUNT>
29

> <PUBCHEM_ATOM_DEF_STEREO_COUNT>
6

> <PUBCHEM_ATOM_UDEF_STEREO_COUNT>
0

> <PUBCHEM_BOND_DEF_STEREO_COUNT>
0

> <PUBCHEM_BOND_UDEF_STEREO_COUNT>
1

> <PUBCHEM_ISOTOPIC_ATOM_COUNT>
0

> <PUBCHEM_COMPONENT_COUNT>
1

> <PUBCHEM_CACTVS_TAUTO_COUNT>
6

> <PUBCHEM_CONFORMER_ID>
061B925100000001

> <PUBCHEM_MMFF94_ENERGY>
79.9504

> <PUBCHEM_FEATURE_SELFOVERLAP>
66.063

> <PUBCHEM_SHAPE_FINGERPRINT>
10595046 47 18335699399927590842
10670039 82 18342460305743663924
11273773 42 18261125105742429636
11315181 36 18113899373380056027
12166972 35 18040713697022401717
12236239 1 18260545597850850374
12596602 18 18187363220639898338
13617811 41 18343584053185836437
13673619 4 17489866055123646459
13782708 43 16845283934677053910
14767858 380 18186801404810901322
14840074 17 17530688697418244814
14856354 85 18341614853551840871
15021287 119 12607401113844266299
15183329 4 13183018506358669824
15301273 46 17060340721558360611
15575132 122 18261670372439650429
15685185 35 17680440137313652164
1577012 14 18333732386357348912
16991971 28 18200870811972945279
17844677 252 17917988370015247640
18927931 339 17917702518635699663
21033648 29 16557603271658400931
21267235 1 18342457084549587139
21315759 40 18187359892763086834
21365058 113 16988846107396844512
21792961 116 16988567871262927718
21796203 349 18122088626352638779
2297311 6 17989205945284715649
2303208 19 16917347030742115322
23081809 10 18186516575338236138
23522609 53 18263100850126751688
23559900 14 17632291272284344601
249057 25 18187362074600912656
335352 9 18411691094684461373
34797466 226 17561080350156594744
3552219 110 18260838102994978921
4325135 7 17821444677575304206
46194498 28 17846495959414318720
497634 4 18187361000088844727
5265222 85 17774437300034512822
59755656 215 17060337405501055070

> <PUBCHEM_SHAPE_MULTIPOLES>
544.38
20.01
2.41
1.71
17.09
1.56
-0.11
-3.42
-6.53
-2.45
0.42
2.14
-0.16
-2.93

> <PUBCHEM_SHAPE_SELFOVERLAP>
1117.9

> <PUBCHEM_SHAPE_VOLUME>
316.6

> <PUBCHEM_COORDINATE_TYPE>
2
5
10

$$$$
