102458576
  -OEChem-03292013293D

 64 67  0     1  0  0  0  0  0999 V2000
   -1.2623   -1.5374    2.9912 O   0  0  0  0  0  0  0  0  0  0  0  0
    0.5720    0.5732    1.4679 O   0  0  0  0  0  0  0  0  0  0  0  0
   -1.0033    1.6032    2.7481 O   0  0  0  0  0  0  0  0  0  0  0  0
    4.3594    0.3925   -0.5309 O   0  0  0  0  0  0  0  0  0  0  0  0
    2.7769    1.8616    0.4240 O   0  0  0  0  0  0  0  0  0  0  0  0
    5.1288   -1.8116   -0.8965 O   0  0  0  0  0  0  0  0  0  0  0  0
    3.8612    3.1424   -1.1637 O   0  0  0  0  0  0  0  0  0  0  0  0
    7.0050   -0.4971   -1.1951 O   0  0  0  0  0  0  0  0  0  0  0  0
   -1.5141   -0.5673    1.9588 C   0  0  1  0  0  0  0  0  0  0  0  0
   -0.8626   -1.8971    1.6663 C   0  0  1  0  0  0  0  0  0  0  0  0
   -2.9682   -0.4060    1.6363 C   0  0  0  0  0  0  0  0  0  0  0  0
    0.6019   -1.8673    1.3957 C   0  0  0  0  0  0  0  0  0  0  0  0
   -4.6618    0.1319   -0.1510 C   0  0  1  0  0  0  0  0  0  0  0  0
   -3.1666   -0.0106    0.1810 C   0  0  0  0  0  0  0  0  0  0  0  0
   -4.9552    1.1432   -1.3163 C   0  0  0  0  0  0  0  0  0  0  0  0
    0.9147   -0.5716    0.6493 C   0  0  2  0  0  0  0  0  0  0  0  0
   -0.6435    0.6329    2.0935 C   0  0  0  0  0  0  0  0  0  0  0  0
   -4.6113    0.4843   -2.6724 C   0  0  0  0  0  0  0  0  0  0  0  0
   -5.2383   -1.2522   -0.4302 C   0  0  0  0  0  0  0  0  0  0  0  0
    2.3672   -0.4787    0.3195 C   0  0  0  0  0  0  0  0  0  0  0  0
   -4.1372    2.4433   -1.1763 C   0  0  0  0  0  0  0  0  0  0  0  0
   -6.4495    1.5502   -1.2885 C   0  0  0  0  0  0  0  0  0  0  0  0
   -5.3515   -0.8338   -2.9083 C   0  0  0  0  0  0  0  0  0  0  0  0
   -5.5349   -1.6650   -1.6754 C   0  0  0  0  0  0  0  0  0  0  0  0
   -5.4997   -2.1349    0.7592 C   0  0  0  0  0  0  0  0  0  0  0  0
    2.9613    0.6992   -0.3698 C   0  0  2  0  0  0  0  0  0  0  0  0
    3.3143   -1.3842    0.5594 C   0  0  0  0  0  0  0  0  0  0  0  0
    4.6218   -0.8934    0.0591 C   0  0  2  0  0  0  0  0  0  0  0  0
    3.2786    3.0245   -0.0943 C   0  0  0  0  0  0  0  0  0  0  0  0
    6.3384   -1.4908   -1.4509 C   0  0  0  0  0  0  0  0  0  0  0  0
    3.0125    4.1606    0.8463 C   0  0  0  0  0  0  0  0  0  0  0  0
    6.7460   -2.5440   -2.4361 C   0  0  0  0  0  0  0  0  0  0  0  0
   -1.4094   -2.6674    1.1429 H   0  0  0  0  0  0  0  0  0  0  0  0
   -3.3957    0.3629    2.2920 H   0  0  0  0  0  0  0  0  0  0  0  0
   -3.4743   -1.3331    1.8941 H   0  0  0  0  0  0  0  0  0  0  0  0
    0.8671   -2.7480    0.7995 H   0  0  0  0  0  0  0  0  0  0  0  0
    1.1429   -1.9216    2.3492 H   0  0  0  0  0  0  0  0  0  0  0  0
   -5.1723    0.5407    0.7331 H   0  0  0  0  0  0  0  0  0  0  0  0
   -2.6856   -0.7416   -0.4822 H   0  0  0  0  0  0  0  0  0  0  0  0
   -2.6207    0.9235    0.0356 H   0  0  0  0  0  0  0  0  0  0  0  0
    0.3336   -0.5032   -0.2794 H   0  0  0  0  0  0  0  0  0  0  0  0
   -3.5314    0.2865   -2.7142 H   0  0  0  0  0  0  0  0  0  0  0  0
   -4.8244    1.1701   -3.5022 H   0  0  0  0  0  0  0  0  0  0  0  0
   -4.2041    2.8468   -0.1599 H   0  0  0  0  0  0  0  0  0  0  0  0
   -6.6870    2.0935   -0.3665 H   0  0  0  0  0  0  0  0  0  0  0  0
   -7.1245    0.6908   -1.3403 H   0  0  0  0  0  0  0  0  0  0  0  0
   -4.5121    3.2144   -1.8603 H   0  0  0  0  0  0  0  0  0  0  0  0
   -3.0814    2.3045   -1.4299 H   0  0  0  0  0  0  0  0  0  0  0  0
   -6.6932    2.2076   -2.1311 H   0  0  0  0  0  0  0  0  0  0  0  0
   -4.8099   -1.4175   -3.6616 H   0  0  0  0  0  0  0  0  0  0  0  0
   -6.3426   -0.6249   -3.3289 H   0  0  0  0  0  0  0  0  0  0  0  0
   -5.9593   -2.6549   -1.8239 H   0  0  0  0  0  0  0  0  0  0  0  0
   -5.7730   -1.5507    1.6432 H   0  0  0  0  0  0  0  0  0  0  0  0
   -4.6339   -2.7658    0.9778 H   0  0  0  0  0  0  0  0  0  0  0  0
   -6.3426   -2.8084    0.5632 H   0  0  0  0  0  0  0  0  0  0  0  0
    2.5114    0.8364   -1.3605 H   0  0  0  0  0  0  0  0  0  0  0  0
    3.1914   -2.3403    1.0450 H   0  0  0  0  0  0  0  0  0  0  0  0
    5.3300   -0.7731    0.8874 H   0  0  0  0  0  0  0  0  0  0  0  0
    1.9356    4.2748    0.9932 H   0  0  0  0  0  0  0  0  0  0  0  0
    3.4059    5.0867    0.4176 H   0  0  0  0  0  0  0  0  0  0  0  0
    3.5139    3.9764    1.7997 H   0  0  0  0  0  0  0  0  0  0  0  0
    6.8459   -3.5067   -1.9288 H   0  0  0  0  0  0  0  0  0  0  0  0
    7.7129   -2.2778   -2.8727 H   0  0  0  0  0  0  0  0  0  0  0  0
    6.0066   -2.6060   -3.2385 H   0  0  0  0  0  0  0  0  0  0  0  0
  1  9  1  0  0  0  0
  1 10  1  0  0  0  0
  2 16  1  0  0  0  0
  2 17  1  0  0  0  0
  3 17  2  0  0  0  0
  4 26  1  0  0  0  0
  4 28  1  0  0  0  0
  5 26  1  0  0  0  0
  5 29  1  0  0  0  0
  6 28  1  0  0  0  0
  6 30  1  0  0  0  0
  7 29  2  0  0  0  0
  8 30  2  0  0  0  0
  9 10  1  0  0  0  0
  9 11  1  0  0  0  0
  9 17  1  0  0  0  0
 10 12  1  0  0  0  0
 10 33  1  0  0  0  0
 11 14  1  0  0  0  0
 11 34  1  0  0  0  0
 11 35  1  0  0  0  0
 12 16  1  0  0  0  0
 12 36  1  0  0  0  0
 12 37  1  0  0  0  0
 13 14  1  0  0  0  0
 13 15  1  0  0  0  0
 13 19  1  0  0  0  0
 13 38  1  0  0  0  0
 14 39  1  0  0  0  0
 14 40  1  0  0  0  0
 15 18  1  0  0  0  0
 15 21  1  0  0  0  0
 15 22  1  0  0  0  0
 16 20  1  0  0  0  0
 16 41  1  0  0  0  0
 18 23  1  0  0  0  0
 18 42  1  0  0  0  0
 18 43  1  0  0  0  0
 19 24  2  0  0  0  0
 19 25  1  0  0  0  0
 20 26  1  0  0  0  0
 20 27  2  0  0  0  0
 21 44  1  0  0  0  0
 21 47  1  0  0  0  0
 21 48  1  0  0  0  0
 22 45  1  0  0  0  0
 22 46  1  0  0  0  0
 22 49  1  0  0  0  0
 23 24  1  0  0  0  0
 23 50  1  0  0  0  0
 23 51  1  0  0  0  0
 24 52  1  0  0  0  0
 25 53  1  0  0  0  0
 25 54  1  0  0  0  0
 25 55  1  0  0  0  0
 26 56  1  0  0  0  0
 27 28  1  0  0  0  0
 27 57  1  0  0  0  0
 28 58  1  0  0  0  0
 29 31  1  0  0  0  0
 30 32  1  0  0  0  0
 31 59  1  0  0  0  0
 31 60  1  0  0  0  0
 31 61  1  0  0  0  0
 32 62  1  0  0  0  0
 32 63  1  0  0  0  0
 32 64  1  0  0  0  0
M  END
> <PUBCHEM_COMPOUND_CID>
102458576

> <PUBCHEM_CONFORMER_RMSD>
1.2

> <PUBCHEM_CONFORMER_DIVERSEORDER>
1
152
307
246
275
301
165
156
327
170
134
55
69
138
94
312
101
218
182
319
188
300
121
91
89
68
263
208
305
238
324
160
118
258
77
140
320
129
241
326
180
36
179
332
318
249
257
271
329
267
284
328
155
17
317
201
136
276
205
21
331
274
247
236
72
184
234
210
303
290
213
173
30
248
323
260
81
261
32
217
53
37
168
203
133
125
333
308
142
11
193
74
293
80
244
316
9
28
45
240
183
73
46
195
100
262
58
64
14
3
4
146
265
123
199
207
191
283
330
76
111
43
132
309
39
266
26
15
325
321
141
103
219
209
83
82
242
18
157
254
40
313
95
62
110
27
181
22
211
92
237
54
291
38
59
296
41
227
42
19
86
57
115
253
285
295
56
126
302
84
172
230
47
117
264
231
137
256
12
224
306
90
108
232
200
255
215
13
310
2
158
159
96
70
222
235
216
8
270
190
52
162
124
149
85
171
252
239
135
314
297
277
128
280
106
112
197
163
186
269
175
287
233
49
143
98
177
88
6
104
139
166
169
204
151
20
61
288
116
176
65
33
131
250
145
304
294
212
198
299
281
25
5
51
225
113
223
189
251
272
282
289
44
119
161
50
268
196
243
34
187
107
130
259
31
298
87
322
185
220
67
66
78
109
206
273
226
286
29
147
99
221
23
10
279
174
194
63
311
245
120
167
7
16
60
79
192
71
228
48
24
144
102
150
164
278
114
153
105
315
122
214
154
178
292
97
202
229
93
127
148
35
75

> <PUBCHEM_MMFF94_PARTIAL_CHARGES>
30
1 -0.3
10 -0.05
11 0.09
12 0.09
13 0.14
16 0.42
17 0.72
19 -0.28
2 -0.43
20 -0.28
23 0.14
24 -0.29
25 0.14
26 0.7
27 -0.29
28 0.7
29 0.66
3 -0.57
30 0.66
31 0.06
32 0.06
33 0.1
4 -0.56
5 -0.43
52 0.15
57 0.15
6 -0.43
7 -0.57
8 -0.57
9 0.05

> <PUBCHEM_EFFECTIVE_ROTOR_COUNT>
10.2

> <PUBCHEM_PHARMACOPHORE_FEATURES>
9
1 1 acceptor
1 3 acceptor
1 4 acceptor
1 7 acceptor
1 8 acceptor
3 15 21 22 hydrophobe
5 4 20 26 27 28 rings
6 13 15 18 19 23 24 rings
7 1 2 9 10 12 16 17 rings

> <PUBCHEM_HEAVY_ATOM_COUNT>
32

> <PUBCHEM_ATOM_DEF_STEREO_COUNT>
3

> <PUBCHEM_ATOM_UDEF_STEREO_COUNT>
3

> <PUBCHEM_BOND_DEF_STEREO_COUNT>
0

> <PUBCHEM_BOND_UDEF_STEREO_COUNT>
0

> <PUBCHEM_ISOTOPIC_ATOM_COUNT>
0

> <PUBCHEM_COMPONENT_COUNT>
1

> <PUBCHEM_CACTVS_TAUTO_COUNT>
4

> <PUBCHEM_CONFORMER_ID>
061B64D000000001

> <PUBCHEM_MMFF94_ENERGY>
61.2353

> <PUBCHEM_FEATURE_SELFOVERLAP>
45.679

> <PUBCHEM_SHAPE_FINGERPRINT>
10670039 82 16805324392205020927
10928967 22 15051730941255000181
11578080 2 17677622015680121964
11763715 3 16916800565194735594
12166972 35 17775284967495777506
12403259 415 17822017535785857297
12422481 6 11315120873955494643
12892183 10 8790890704832927931
13540713 4 18044107967058807442
14347329 18 16660365870115405892
15183329 4 18187644661167225850
15238133 3 15068615037537356692
15530120 55 18056743541790167709
1813 80 15267062596857549065
20775438 99 17699825600187730238
21033648 144 18190192354247094354
21033648 29 17458348571382845272
21223535 225 18188196599030709789
21756936 100 14490485195847967242
21859007 373 17822001052118359492
21968339 14 18058163002843943040
22393880 68 18259701220350196259
23559900 14 18340497746186312938
25222932 49 14189291513918686990
25223398 141 16701741544798532408
2838139 119 16732977622187510687
4015057 19 18341904038226430648
42767 28 18262504928147028397
437795 70 18187930521527468980
44317340 157 18341893034968805553
508180 173 18335703802147958008
508706 21 17313103098808112981
6086070 43 18186517705209839538

> <PUBCHEM_SHAPE_MULTIPOLES>
611.59
17.54
3.36
2.79
6.24
3.32
0.01
-5.22
-16.04
3.6
-0.18
-1.84
-0.89
2.73

> <PUBCHEM_SHAPE_SELFOVERLAP>
1286.618

> <PUBCHEM_SHAPE_VOLUME>
341.4

> <PUBCHEM_COORDINATE_TYPE>
2
5
10

$$$$
