REMARK  Name = 102441147
REMARK  4 active torsions:
REMARK  status: ('A' for Active; 'I' for Inactive)
REMARK    1  A    between atoms: C_6  and  O_16
REMARK    2  A    between atoms: O_16  and  C_17
REMARK    3  A    between atoms: C_17  and  C_19
REMARK    4  A    between atoms: C_21  and  N_25
REMARK                            x       y       z     vdW  Elec       q    Type
REMARK                         _______ _______ _______ _____ _____    ______ ____
ROOT
ATOM      1  O   UNL     1      -2.738  -1.025  -0.463  0.00  0.00    -0.448 OA
ATOM      2  O   UNL     1      -7.316  -2.169  -0.478  0.00  0.00    -0.286 OA
ATOM      3  N   UNL     1      -3.526   1.519   0.610  0.00  0.00    -0.400 NA
ATOM      4  C   UNL     1      -1.812  -0.053  -0.169  0.00  0.00    +0.174 C 
ATOM      5  C   UNL     1      -2.184   1.191   0.354  0.00  0.00    +0.148 C 
ATOM      6  C   UNL     1       0.512   0.590  -0.136  0.00  0.00    +0.139 C 
ATOM      7  C   UNL     1      -4.068  -0.724  -0.218  0.00  0.00    +0.178 C 
ATOM      8  C   UNL     1      -4.414   0.612   0.339  0.00  0.00    +0.166 C 
ATOM      9  C   UNL     1      -0.472  -0.356  -0.414  0.00  0.00    +0.076 C 
ATOM     10  C   UNL     1      -1.187   2.132   0.629  0.00  0.00    +0.091 C 
ATOM     11  C   UNL     1       0.156   1.833   0.385  0.00  0.00    +0.018 C 
ATOM     12  C   UNL     1      -5.021  -1.623  -0.481  0.00  0.00    +0.082 C 
ATOM     13  C   UNL     1      -5.848   0.891   0.584  0.00  0.00    +0.038 C 
ATOM     14  C   UNL     1      -6.449  -1.338  -0.234  0.00  0.00    +0.199 C 
ATOM     15  C   UNL     1      -6.792  -0.013   0.319  0.00  0.00    +0.045 C 
ENDROOT
BRANCH   6  16
ATOM     16  O   UNL     1       1.821   0.301  -0.374  0.00  0.00    -0.467 OA
BRANCH  16  17
ATOM     17  C   UNL     1       2.776   1.316  -0.067  0.00  0.00    +0.269 C 
BRANCH  17  19
ATOM     18  O   UNL     1       4.696  -0.090   0.418  0.00  0.00    -0.433 OA
ATOM     19  C   UNL     1       4.147   0.823  -0.425  0.00  0.00    +0.169 C 
ATOM     20  C   UNL     1       5.007   1.103  -1.462  0.00  0.00    +0.042 C 
ATOM     21  C   UNL     1       5.920  -0.397  -0.086  0.00  0.00    +0.289 C 
ATOM     22  C   UNL     1       6.159   0.310  -1.242  0.00  0.00    +0.066 C 
BRANCH  21  25
ATOM     23  O   UNL     1       7.809  -1.675   0.256  0.00  0.00    -0.123 OA
ATOM     24  O   UNL     1       6.168  -1.829   1.705  0.00  0.00    -0.123 OA
ATOM     25  N   UNL     1       6.656  -1.330   0.648  0.00  0.00    +0.093 N 
ENDBRANCH  21  25
ENDBRANCH  17  19
ENDBRANCH  16  17
ENDBRANCH   6  16
TORSDOF 4
