REMARK  Name = 102449830
REMARK  3 active torsions:
REMARK  status: ('A' for Active; 'I' for Inactive)
REMARK    1  A    between atoms: C_7  and  C_21
REMARK    2  A    between atoms: C_13  and  O_19
REMARK    3  A    between atoms: C_22  and  C_25
REMARK                            x       y       z     vdW  Elec       q    Type
REMARK                         _______ _______ _______ _____ _____    ______ ____
ROOT
ATOM      1  O   UNL     1      -0.386  -2.456  -0.919  0.00  0.00    -0.273 OA
ATOM      2  O   UNL     1       0.906   2.628  -0.887  0.00  0.00    -0.270 OA
ATOM      3  N   UNL     1      -0.251   0.768  -0.161  0.00  0.00    -0.247 N 
ATOM      4  N   UNL     1       1.639  -1.467  -0.609  0.00  0.00    -0.280 N 
ATOM      5  C   UNL     1      -0.335  -0.521   0.526  0.00  0.00    +0.161 C 
ATOM      6  C   UNL     1      -1.839  -0.732   0.783  0.00  0.00    +0.057 C 
ATOM      7  C   UNL     1      -2.458   0.394   0.007  0.00  0.00    -0.005 C 
ATOM      8  C   UNL     1      -1.515   1.208  -0.475  0.00  0.00    +0.064 C 
ATOM      9  C   UNL     1       0.275  -1.542  -0.421  0.00  0.00    +0.245 C 
ATOM     10  C   UNL     1       0.894   1.503  -0.386  0.00  0.00    +0.254 C 
ATOM     11  C   UNL     1       2.195   0.897  -0.001  0.00  0.00    +0.070 C 
ATOM     12  C   UNL     1       2.529  -0.453  -0.197  0.00  0.00    +0.089 C 
ATOM     13  C   UNL     1       3.864  -0.854  -0.020  0.00  0.00    +0.143 C 
ATOM     14  C   UNL     1       3.186   1.799   0.429  0.00  0.00    +0.006 C 
ATOM     15  C   UNL     1       4.838   0.047   0.409  0.00  0.00    +0.013 C 
ATOM     16  C   UNL     1       4.496   1.372   0.646  0.00  0.00    -0.001 C 
ATOM     17  C   UNL     1       6.250  -0.390   0.620  0.00  0.00    +0.034 C 
ATOM     18  H   UNL     1       2.045  -2.221  -1.094  0.00  0.00    +0.155 HD
ENDROOT
BRANCH  13  19
ATOM     19  O   UNL     1       4.223  -2.156  -0.242  0.00  0.00    -0.505 OA
ATOM     20  H   UNL     1       3.581  -2.776  -0.531  0.00  0.00    +0.292 HD
ENDBRANCH  13  19
BRANCH   7  21
ATOM     21  C   UNL     1      -3.871   0.551  -0.123  0.00  0.00    +0.002 C 
ATOM     22  C   UNL     1      -4.761  -0.315   0.392  0.00  0.00    +0.057 C 
BRANCH  22  25
ATOM     23  O   UNL     1      -6.682   0.874  -0.390  0.00  0.00    -0.270 OA
ATOM     24  N   UNL     1      -6.979  -1.069   0.806  0.00  0.00    -0.325 N 
ATOM     25  C   UNL     1      -6.218  -0.086   0.215  0.00  0.00    +0.243 C 
ATOM     26  H   UNL     1      -7.962  -1.027   0.756  0.00  0.00    +0.145 HD
ATOM     27  H   UNL     1      -6.541  -1.813   1.277  0.00  0.00    +0.145 HD
ENDBRANCH  22  25
ENDBRANCH   7  21
TORSDOF 3
