REMARK  Name = 102458575
REMARK  8 active torsions:
REMARK  status: ('A' for Active; 'I' for Inactive)
REMARK    1  A    between atoms: C_4  and  C_22
REMARK    2  A    between atoms: C_7  and  C_10
REMARK    3  A    between atoms: C_11  and  O_14
REMARK    4  A    between atoms: C_13  and  O_18
REMARK    5  A    between atoms: O_14  and  C_16
REMARK    6  A    between atoms: O_18  and  C_20
REMARK    7  A    between atoms: C_22  and  C_23
REMARK    8  A    between atoms: C_23  and  C_25
REMARK                            x       y       z     vdW  Elec       q    Type
REMARK                         _______ _______ _______ _____ _____    ______ ____
ROOT
ATOM      1  O   UNL     1       1.254   0.954   2.996  0.00  0.00    -0.345 OA
ATOM      2  O   UNL     1      -0.635  -0.833   1.159  0.00  0.00    -0.446 OA
ATOM      3  O   UNL     1       1.013  -2.073   2.122  0.00  0.00    -0.247 OA
ATOM      4  C   UNL     1       1.463   0.223   1.775  0.00  0.00    +0.206 C 
ATOM      5  C   UNL     1       0.785   1.571   1.795  0.00  0.00    +0.155 C 
ATOM      6  C   UNL     1      -0.691   1.569   1.594  0.00  0.00    +0.081 C 
ATOM      7  C   UNL     1      -1.029   0.449   0.611  0.00  0.00    +0.195 C 
ATOM      8  C   UNL     1       0.611  -0.996   1.700  0.00  0.00    +0.344 C 
ENDROOT
BRANCH   7  10
ATOM      9  O   UNL     1      -4.520  -0.319  -0.578  0.00  0.00    -0.278 OA
ATOM     10  C   UNL     1      -2.495   0.398   0.339  0.00  0.00    +0.066 C 
ATOM     11  C   UNL     1      -3.112  -0.625  -0.550  0.00  0.00    +0.317 C 
ATOM     12  C   UNL     1      -3.438   1.215   0.805  0.00  0.00    +0.050 C 
ATOM     13  C   UNL     1      -4.764   0.813   0.277  0.00  0.00    +0.317 C 
BRANCH  11  14
ATOM     14  O   UNL     1      -2.877  -1.922  -0.023  0.00  0.00    -0.420 OA
BRANCH  14  16
ATOM     15  O   UNL     1      -4.028  -2.869  -1.788  0.00  0.00    -0.250 OA
ATOM     16  C   UNL     1      -3.393  -2.963  -0.746  0.00  0.00    +0.320 C 
ATOM     17  C   UNL     1      -3.070  -4.263  -0.075  0.00  0.00    +0.121 C 
ENDBRANCH  14  16
ENDBRANCH  11  14
BRANCH  13  18
ATOM     18  O   UNL     1      -5.327   1.898  -0.443  0.00  0.00    -0.420 OA
BRANCH  18  20
ATOM     19  O   UNL     1      -7.204   0.636  -0.918  0.00  0.00    -0.250 OA
ATOM     20  C   UNL     1      -6.560   1.674  -0.994  0.00  0.00    +0.320 C 
ATOM     21  C   UNL     1      -7.027   2.900  -1.720  0.00  0.00    +0.121 C 
ENDBRANCH  18  20
ENDBRANCH  13  18
ENDBRANCH   7  10
BRANCH   4  22
ATOM     22  C   UNL     1       2.900   0.160   1.357  0.00  0.00    +0.045 C 
BRANCH  22  23
ATOM     23  C   UNL     1       3.024   0.077  -0.155  0.00  0.00    +0.024 C 
BRANCH  23  25
ATOM     24  C   UNL     1       5.127   1.395  -0.899  0.00  0.00    +0.015 C 
ATOM     25  C   UNL     1       4.474   0.033  -0.584  0.00  0.00    -0.053 C 
ATOM     26  C   UNL     1       6.671   1.279  -0.995  0.00  0.00    +0.004 C 
ATOM     27  C   UNL     1       5.156  -1.133  -0.696  0.00  0.00    -0.052 C 
ATOM     28  C   UNL     1       7.104   0.079  -1.820  0.00  0.00    +0.005 C 
ATOM     29  C   UNL     1       6.583  -1.207  -1.194  0.00  0.00    +0.021 C 
ATOM     30  C   UNL     1       4.826   2.432   0.206  0.00  0.00    +0.004 C 
ATOM     31  C   UNL     1       4.576   1.934  -2.238  0.00  0.00    +0.004 C 
ATOM     32  C   UNL     1       4.602  -2.486  -0.320  0.00  0.00    +0.026 C 
ENDBRANCH  23  25
ENDBRANCH  22  23
ENDBRANCH   4  22
TORSDOF 8
