102412585
  -OEChem-03292013293D

 44 45  0     1  0  0  0  0  0999 V2000
   -1.7578    1.0009   -0.2978 O   0  0  0  0  0  0  0  0  0  0  0  0
   -0.0769   -0.4440   -1.9754 O   0  0  0  0  0  0  0  0  0  0  0  0
   -2.4638   -3.2706   -0.2795 O   0  0  0  0  0  0  0  0  0  0  0  0
   -3.2662    2.5877    0.2199 O   0  0  0  0  0  0  0  0  0  0  0  0
    2.0634   -1.9830    0.1276 O   0  0  0  0  0  0  0  0  0  0  0  0
    4.6626   -1.2974    0.7630 O   0  0  0  0  0  0  0  0  0  0  0  0
   -1.3419   -1.3809    0.3180 N   0  0  0  0  0  0  0  0  0  0  0  0
   -4.8287    0.9484    1.6842 N   0  0  0  0  0  0  0  0  0  0  0  0
   -0.8561   -0.0028    0.2267 C   0  0  1  0  0  0  0  0  0  0  0  0
   -4.3615   -0.5638   -0.1771 C   0  0  0  0  0  0  0  0  0  0  0  0
   -3.7473    0.3219    0.9155 C   0  0  1  0  0  0  0  0  0  0  0  0
   -3.3511   -1.2280   -1.1153 C   0  0  0  0  0  0  0  0  0  0  0  0
    0.2010   -0.0826   -0.8343 C   0  0  0  0  0  0  0  0  0  0  0  0
   -0.2364    0.4721    1.5366 C   0  0  0  0  0  0  0  0  0  0  0  0
   -2.3443   -2.0442   -0.3476 C   0  0  0  0  0  0  0  0  0  0  0  0
   -2.9065    1.4159    0.2949 C   0  0  0  0  0  0  0  0  0  0  0  0
    1.6033    0.2848   -0.4889 C   0  0  0  0  0  0  0  0  0  0  0  0
    2.0395    1.6017   -0.6352 C   0  0  0  0  0  0  0  0  0  0  0  0
    2.4810   -0.6926   -0.0193 C   0  0  0  0  0  0  0  0  0  0  0  0
    3.3532    1.9412   -0.3119 C   0  0  0  0  0  0  0  0  0  0  0  0
    3.7946   -0.3529    0.3041 C   0  0  0  0  0  0  0  0  0  0  0  0
    1.1225    2.6696   -1.1361 C   0  0  0  0  0  0  0  0  0  0  0  0
    4.2306    0.9640    0.1578 C   0  0  0  0  0  0  0  0  0  0  0  0
    5.9868   -0.8656    1.0702 C   0  0  0  0  0  0  0  0  0  0  0  0
   -5.0523    0.0261   -0.7946 H   0  0  0  0  0  0  0  0  0  0  0  0
   -4.9631   -1.3489    0.3008 H   0  0  0  0  0  0  0  0  0  0  0  0
   -3.1596   -0.2539    1.6328 H   0  0  0  0  0  0  0  0  0  0  0  0
   -2.8523   -0.5088   -1.7694 H   0  0  0  0  0  0  0  0  0  0  0  0
   -3.8883   -1.9072   -1.7892 H   0  0  0  0  0  0  0  0  0  0  0  0
   -0.7363   -1.9976    0.8521 H   0  0  0  0  0  0  0  0  0  0  0  0
    0.5373   -0.1995    1.9223 H   0  0  0  0  0  0  0  0  0  0  0  0
    0.1539    1.4927    1.4815 H   0  0  0  0  0  0  0  0  0  0  0  0
   -1.0088    0.5077    2.3151 H   0  0  0  0  0  0  0  0  0  0  0  0
   -4.4318    1.4818    2.4571 H   0  0  0  0  0  0  0  0  0  0  0  0
   -5.4100    0.2257    2.1072 H   0  0  0  0  0  0  0  0  0  0  0  0
    3.7077    2.9631   -0.4188 H   0  0  0  0  0  0  0  0  0  0  0  0
    0.6109    2.3520   -2.0505 H   0  0  0  0  0  0  0  0  0  0  0  0
    0.3796    2.9319   -0.3775 H   0  0  0  0  0  0  0  0  0  0  0  0
    1.6713    3.5840   -1.3881 H   0  0  0  0  0  0  0  0  0  0  0  0
    5.2352    1.3007    0.3893 H   0  0  0  0  0  0  0  0  0  0  0  0
    1.1670   -2.0954   -0.2260 H   0  0  0  0  0  0  0  0  0  0  0  0
    6.5388   -1.7441    1.4206 H   0  0  0  0  0  0  0  0  0  0  0  0
    5.9945   -0.1383    1.8893 H   0  0  0  0  0  0  0  0  0  0  0  0
    6.5082   -0.4974    0.1801 H   0  0  0  0  0  0  0  0  0  0  0  0
  1  9  1  0  0  0  0
  1 16  1  0  0  0  0
  2 13  2  0  0  0  0
  3 15  2  0  0  0  0
  4 16  2  0  0  0  0
  5 19  1  0  0  0  0
  5 41  1  0  0  0  0
  6 21  1  0  0  0  0
  6 24  1  0  0  0  0
  7  9  1  0  0  0  0
  7 15  1  0  0  0  0
  7 30  1  0  0  0  0
  8 11  1  0  0  0  0
  8 34  1  0  0  0  0
  8 35  1  0  0  0  0
  9 13  1  0  0  0  0
  9 14  1  0  0  0  0
 10 11  1  0  0  0  0
 10 12  1  0  0  0  0
 10 25  1  0  0  0  0
 10 26  1  0  0  0  0
 11 16  1  0  0  0  0
 11 27  1  0  0  0  0
 12 15  1  0  0  0  0
 12 28  1  0  0  0  0
 12 29  1  0  0  0  0
 13 17  1  0  0  0  0
 14 31  1  0  0  0  0
 14 32  1  0  0  0  0
 14 33  1  0  0  0  0
 17 18  2  0  0  0  0
 17 19  1  0  0  0  0
 18 20  1  0  0  0  0
 18 22  1  0  0  0  0
 19 21  2  0  0  0  0
 20 23  2  0  0  0  0
 20 36  1  0  0  0  0
 21 23  1  0  0  0  0
 22 37  1  0  0  0  0
 22 38  1  0  0  0  0
 22 39  1  0  0  0  0
 23 40  1  0  0  0  0
 24 42  1  0  0  0  0
 24 43  1  0  0  0  0
 24 44  1  0  0  0  0
M  END
> <PUBCHEM_COMPOUND_CID>
102412585

> <PUBCHEM_CONFORMER_RMSD>
0.8

> <PUBCHEM_CONFORMER_DIVERSEORDER>
3
81
42
79
34
60
91
70
33
77
68
71
89
83
50
72
2
78
52
21
87
86
85
16
18
51
35
26
55
15
32
69
75
24
28
56
48
47
54
88
63
80
4
27
22
23
40
90
84
41
57
73
36
65
31
53
8
45
59
25
67
12
62
13
5
43
82
37
11
74
17
76
66
39
58
29
44
10
64
46
61
20
38
6
14
1
49
9
7
30
19

> <PUBCHEM_MMFF94_PARTIAL_CHARGES>
28
1 -0.43
11 0.33
12 0.06
13 0.42
15 0.57
16 0.66
17 0.09
18 -0.14
19 0.08
2 -0.57
20 -0.15
21 0.08
22 0.14
23 -0.15
24 0.28
3 -0.57
30 0.37
34 0.36
35 0.36
36 0.15
4 -0.57
40 0.15
41 0.45
5 -0.53
6 -0.36
7 -0.73
8 -0.99
9 0.64

> <PUBCHEM_EFFECTIVE_ROTOR_COUNT>
4.2

> <PUBCHEM_PHARMACOPHORE_FEATURES>
9
1 2 acceptor
1 3 acceptor
1 4 acceptor
1 5 donor
1 6 acceptor
1 7 donor
1 8 cation
1 8 donor
6 17 18 19 20 21 23 rings

> <PUBCHEM_HEAVY_ATOM_COUNT>
24

> <PUBCHEM_ATOM_DEF_STEREO_COUNT>
1

> <PUBCHEM_ATOM_UDEF_STEREO_COUNT>
1

> <PUBCHEM_BOND_DEF_STEREO_COUNT>
0

> <PUBCHEM_BOND_UDEF_STEREO_COUNT>
0

> <PUBCHEM_ISOTOPIC_ATOM_COUNT>
0

> <PUBCHEM_COMPONENT_COUNT>
1

> <PUBCHEM_CACTVS_TAUTO_COUNT>
27

> <PUBCHEM_CONFORMER_ID>
061AB12900000003

> <PUBCHEM_MMFF94_ENERGY>
96.9548

> <PUBCHEM_FEATURE_SELFOVERLAP>
45.672

> <PUBCHEM_SHAPE_FINGERPRINT>
10062212 137 18271523190693710783
10616163 171 18269279126095429607
11578080 2 17842522328206864840
12107183 9 18121778327306481264
12236239 1 18202283624042053392
12251169 10 18410014325169430460
12403814 3 18410299112294212385
12467345 10 18411698772878159218
12553582 1 18113890521331282866
12633257 1 18410015437550077230
12670546 56 18341324582502647960
13140716 1 18337677511044218880
13167823 11 18408321103317367290
13583140 156 17274525590580167282
14289901 80 18336828718301327344
14739800 52 17772462641676289936
14790565 3 17828212317927115236
15209289 33 17386010537660761168
15238133 3 17846789481130697160
15442244 35 18408322189902012052
15788980 27 18335137583391874208
16945 1 18337400421487612821
17349148 13 18272651259485159036
17492 89 18191024710530789954
17980427 23 18059852887152683884
1813 80 17240772722902169198
19050596 39 18413672430403961904
200 152 18340196500736659999
20715895 44 18052825737232387945
20739085 24 18187083975384366836
21033648 29 18198890423125880128
21065198 48 18339361975969759228
21267235 1 18408610261953822418
21501502 16 18339647870409866685
23402539 116 18342449344870885485
23557571 272 17489322909196030037
23559900 14 18339352089055296648
23622692 88 18409732833144686998
3633792 109 18263906809920085759
4214541 1 18411134727607850304
474 4 17896605183230875516
5104073 3 18339643450956981162
69090 78 18408888434226964819
7097593 13 18408324388803753406
9709674 26 18342463646468896630
9981440 41 17179967848227088360

> <PUBCHEM_SHAPE_MULTIPOLES>
448.73
9.96
2.58
1.24
4.81
0.05
-0.03
1.33
-3.41
-0.77
0.41
-0.44
-0.13
-1.65

> <PUBCHEM_SHAPE_SELFOVERLAP>
953.622

> <PUBCHEM_SHAPE_VOLUME>
248

> <PUBCHEM_COORDINATE_TYPE>
2
5
10

$$$$
