REMARK  Name = 10243361
REMARK  9 active torsions:
REMARK  status: ('A' for Active; 'I' for Inactive)
REMARK    1  A    between atoms: CA_1  and  N_3
REMARK    2  A    between atoms: CA_1  and  C_14
REMARK    3  A    between atoms: CA_1  and  CB_17
REMARK    4  A    between atoms: C_4  and  C_6
REMARK    5  A    between atoms: C_6  and  C_7
REMARK    6  A    between atoms: C_7  and  C_8
REMARK    7  A    between atoms: C_8  and  N_9
REMARK    8  A    between atoms: C_14  and  O_15
REMARK    9  A    between atoms: CB_17  and  CG_20
REMARK                            x       y       z     vdW  Elec       q    Type
REMARK                         _______ _______ _______ _____ _____    ______ ____
ROOT
ATOM      1  CA  UNL     1       0.990   1.150   0.055  0.00  0.00    +0.177 C 
ENDROOT
BRANCH   1   3
ATOM      2  O   UNL     1      -1.470   0.643   1.474  0.00  0.00    -0.275 OA
ATOM      3  N   UNL     1      -0.225   0.584  -0.485  0.00  0.00    -0.296 N 
ATOM      4  C   ACE A   0      -1.364   0.377   0.280  0.00  0.00    +0.223 C 
ATOM      5  H   UNL     1      -0.245   0.335  -1.437  0.00  0.00    +0.150 HD
BRANCH   4   6
ATOM      6  C   UNL     1      -2.478  -0.256  -0.537  0.00  0.00    +0.083 C 
BRANCH   6   7
ATOM      7  C   UNL     1      -3.759  -0.507   0.258  0.00  0.00    -0.014 C 
BRANCH   7   8
ATOM      8  C   UNL     1      -4.829  -1.214  -0.575  0.00  0.00    -0.086 C 
BRANCH   8   9
ATOM      9  N   UNL     1      -6.021  -1.450   0.231  0.00  0.00    +0.380 N 
ATOM     10  H   UNL     1      -6.727  -1.921  -0.335  0.00  0.00    -0.089 HD
ATOM     11  H   UNL     1      -6.391  -0.558   0.561  0.00  0.00    -0.089 HD
ATOM     12  H   UNL     1      -5.781  -2.035   1.031  0.00  0.00    -0.089 HD
ENDBRANCH   8   9
ENDBRANCH   7   8
ENDBRANCH   6   7
ENDBRANCH   4   6
ENDBRANCH   1   3
BRANCH   1  14
ATOM     13  OXT UNL     1       1.823   3.376   0.506  0.00  0.00    -0.248 OA
ATOM     14  C   UNL     1       0.943   2.671   0.023  0.00  0.00    +0.332 C 
BRANCH  14  15
ATOM     15  O   UNL     1      -0.152   3.194  -0.578  0.00  0.00    -0.479 OA
ATOM     16  H   UNL     1      -0.805   2.626  -0.937  0.00  0.00    +0.295 HD
ENDBRANCH  14  15
ENDBRANCH   1  14
BRANCH   1  17
ATOM     17  CB  UNL     1       2.228   0.647  -0.699  0.00  0.00    +0.073 C 
BRANCH  17  20
ATOM     18  ND1 UNL     1       1.776  -1.783  -0.394  0.00  0.00    -0.319 N 
ATOM     19  NE2 UNL     1       3.673  -2.577   0.443  0.00  0.00    -0.315 N 
ATOM     20  CG  UNL     1       2.629  -0.750  -0.285  0.00  0.00    +0.040 C 
ATOM     21  CD2 UNL     1       3.783  -1.227   0.223  0.00  0.00    +0.069 C 
ATOM     22  CE1 UNL     1       2.453  -2.880   0.061  0.00  0.00    +0.182 C 
ATOM     23  HD1 UNL     1       0.852  -1.755  -0.733  0.00  0.00    +0.148 HD
ATOM     24  HE2 UNL     1       4.358  -3.184   0.806  0.00  0.00    +0.148 HD
ENDBRANCH  17  20
ENDBRANCH   1  17
TORSDOF 9
