102435482
  -OEChem-03292013293D

 48 50  0     1  0  0  0  0  0999 V2000
   -2.4910   -0.4859   -0.2452 O   0  0  0  0  0  0  0  0  0  0  0  0
   -1.8348   -3.5193    1.6845 O   0  0  0  0  0  0  0  0  0  0  0  0
    0.1143   -0.4938    1.2192 O   0  0  0  0  0  0  0  0  0  0  0  0
   -2.4519   -3.9207   -1.3282 O   0  0  0  0  0  0  0  0  0  0  0  0
    2.4258   -1.0959   -0.2125 O   0  0  0  0  0  0  0  0  0  0  0  0
   -4.3432   -0.2428    1.1000 O   0  0  0  0  0  0  0  0  0  0  0  0
    4.5531   -1.9004   -0.5689 O   0  0  0  0  0  0  0  0  0  0  0  0
   -2.4762   -1.8905    0.0110 C   0  0  2  0  0  0  0  0  0  0  0  0
   -1.6412   -2.1683    1.2690 C   0  0  2  0  0  0  0  0  0  0  0  0
   -0.1409   -1.8893    1.0608 C   0  0  1  0  0  0  0  0  0  0  0  0
   -1.9284   -2.5974   -1.2384 C   0  0  1  0  0  0  0  0  0  0  0  0
    0.3871   -2.3287   -0.2862 C   0  0  0  0  0  0  0  0  0  0  0  0
   -0.4292   -2.6698   -1.2983 C   0  0  0  0  0  0  0  0  0  0  0  0
    1.8812   -2.3828   -0.4305 C   0  0  0  0  0  0  0  0  0  0  0  0
   -3.4814    0.2147    0.3655 C   0  0  0  0  0  0  0  0  0  0  0  0
   -3.3869    1.6557    0.0199 C   0  0  0  0  0  0  0  0  0  0  0  0
    3.7829   -0.9884   -0.3113 C   0  0  0  0  0  0  0  0  0  0  0  0
   -4.5400    2.4391   -0.0273 C   0  0  0  0  0  0  0  0  0  0  0  0
   -2.1444    2.2261   -0.2561 C   0  0  0  0  0  0  0  0  0  0  0  0
    4.2267    0.4063   -0.0616 C   0  0  0  0  0  0  0  0  0  0  0  0
   -4.4505    3.7931   -0.3505 C   0  0  0  0  0  0  0  0  0  0  0  0
   -2.0548    3.5801   -0.5792 C   0  0  0  0  0  0  0  0  0  0  0  0
    5.5831    0.7273   -0.1156 C   0  0  0  0  0  0  0  0  0  0  0  0
    3.2868    1.3958    0.2256 C   0  0  0  0  0  0  0  0  0  0  0  0
   -3.2080    4.3635   -0.6265 C   0  0  0  0  0  0  0  0  0  0  0  0
    5.9995    2.0381    0.1175 C   0  0  0  0  0  0  0  0  0  0  0  0
    3.7029    2.7066    0.4588 C   0  0  0  0  0  0  0  0  0  0  0  0
    5.0594    3.0276    0.4047 C   0  0  0  0  0  0  0  0  0  0  0  0
   -3.4976   -2.2635    0.1699 H   0  0  0  0  0  0  0  0  0  0  0  0
   -2.0104   -1.5330    2.0835 H   0  0  0  0  0  0  0  0  0  0  0  0
    0.4283   -2.4141    1.8384 H   0  0  0  0  0  0  0  0  0  0  0  0
   -2.2762   -2.0574   -2.1280 H   0  0  0  0  0  0  0  0  0  0  0  0
   -0.0020   -3.0001   -2.2424 H   0  0  0  0  0  0  0  0  0  0  0  0
    2.1680   -2.7322   -1.4300 H   0  0  0  0  0  0  0  0  0  0  0  0
    2.2883   -3.0869    0.3055 H   0  0  0  0  0  0  0  0  0  0  0  0
   -1.3414   -3.6459    2.5127 H   0  0  0  0  0  0  0  0  0  0  0  0
   -0.1501   -0.2469    2.1217 H   0  0  0  0  0  0  0  0  0  0  0  0
   -2.1295   -4.3142   -2.1573 H   0  0  0  0  0  0  0  0  0  0  0  0
   -5.5158    2.0090    0.1826 H   0  0  0  0  0  0  0  0  0  0  0  0
   -1.2280    1.6436   -0.2167 H   0  0  0  0  0  0  0  0  0  0  0  0
   -5.3483    4.4032   -0.3878 H   0  0  0  0  0  0  0  0  0  0  0  0
   -1.0871    4.0251   -0.7916 H   0  0  0  0  0  0  0  0  0  0  0  0
    6.3312   -0.0290   -0.3380 H   0  0  0  0  0  0  0  0  0  0  0  0
    2.2214    1.1917    0.2747 H   0  0  0  0  0  0  0  0  0  0  0  0
   -3.1382    5.4178   -0.8778 H   0  0  0  0  0  0  0  0  0  0  0  0
    7.0555    2.2883    0.0753 H   0  0  0  0  0  0  0  0  0  0  0  0
    2.9712    3.4777    0.6816 H   0  0  0  0  0  0  0  0  0  0  0  0
    5.3834    4.0483    0.5860 H   0  0  0  0  0  0  0  0  0  0  0  0
  1  8  1  0  0  0  0
  1 15  1  0  0  0  0
  2  9  1  0  0  0  0
  2 36  1  0  0  0  0
  3 10  1  0  0  0  0
  3 37  1  0  0  0  0
  4 11  1  0  0  0  0
  4 38  1  0  0  0  0
  5 14  1  0  0  0  0
  5 17  1  0  0  0  0
  6 15  2  0  0  0  0
  7 17  2  0  0  0  0
  8  9  1  0  0  0  0
  8 11  1  0  0  0  0
  8 29  1  0  0  0  0
  9 10  1  0  0  0  0
  9 30  1  0  0  0  0
 10 12  1  0  0  0  0
 10 31  1  0  0  0  0
 11 13  1  0  0  0  0
 11 32  1  0  0  0  0
 12 13  2  0  0  0  0
 12 14  1  0  0  0  0
 13 33  1  0  0  0  0
 14 34  1  0  0  0  0
 14 35  1  0  0  0  0
 15 16  1  0  0  0  0
 16 18  2  0  0  0  0
 16 19  1  0  0  0  0
 17 20  1  0  0  0  0
 18 21  1  0  0  0  0
 18 39  1  0  0  0  0
 19 22  2  0  0  0  0
 19 40  1  0  0  0  0
 20 23  2  0  0  0  0
 20 24  1  0  0  0  0
 21 25  2  0  0  0  0
 21 41  1  0  0  0  0
 22 25  1  0  0  0  0
 22 42  1  0  0  0  0
 23 26  1  0  0  0  0
 23 43  1  0  0  0  0
 24 27  2  0  0  0  0
 24 44  1  0  0  0  0
 25 45  1  0  0  0  0
 26 28  2  0  0  0  0
 26 46  1  0  0  0  0
 27 28  1  0  0  0  0
 27 47  1  0  0  0  0
 28 48  1  0  0  0  0
M  END
> <PUBCHEM_COMPOUND_CID>
102435482

> <PUBCHEM_CONFORMER_RMSD>
1

> <PUBCHEM_CONFORMER_DIVERSEORDER>
1
35
45
24
30
40
22
68
47
37
76
41
10
59
73
43
26
29
17
42
38
53
69
54
25
66
65
74
16
36
61
57
60
71
4
51
33
63
55
20
75
67
52
28
77
39
11
44
14
15
58
3
21
62
50
46
12
19
8
56
7
70
23
31
32
2
13
9
64
27
34
18
49
72
6
5
48

> <PUBCHEM_MMFF94_PARTIAL_CHARGES>
42
1 -0.43
10 0.42
11 0.42
12 -0.28
13 -0.29
14 0.42
15 0.63
16 0.09
17 0.63
18 -0.15
19 -0.15
2 -0.68
20 0.09
21 -0.15
22 -0.15
23 -0.15
24 -0.15
25 -0.15
26 -0.15
27 -0.15
28 -0.15
3 -0.68
33 0.15
36 0.4
37 0.4
38 0.4
39 0.15
4 -0.68
40 0.15
41 0.15
42 0.15
43 0.15
44 0.15
45 0.15
46 0.15
47 0.15
48 0.15
5 -0.43
6 -0.57
7 -0.57
8 0.28
9 0.28

> <PUBCHEM_EFFECTIVE_ROTOR_COUNT>
7.8

> <PUBCHEM_PHARMACOPHORE_FEATURES>
11
1 2 acceptor
1 2 donor
1 3 acceptor
1 3 donor
1 4 acceptor
1 4 donor
1 6 acceptor
1 7 acceptor
6 16 18 19 21 22 25 rings
6 20 23 24 26 27 28 rings
6 8 9 10 11 12 13 rings

> <PUBCHEM_HEAVY_ATOM_COUNT>
28

> <PUBCHEM_ATOM_DEF_STEREO_COUNT>
4

> <PUBCHEM_ATOM_UDEF_STEREO_COUNT>
0

> <PUBCHEM_BOND_DEF_STEREO_COUNT>
0

> <PUBCHEM_BOND_UDEF_STEREO_COUNT>
0

> <PUBCHEM_ISOTOPIC_ATOM_COUNT>
0

> <PUBCHEM_COMPONENT_COUNT>
1

> <PUBCHEM_CACTVS_TAUTO_COUNT>
1

> <PUBCHEM_CONFORMER_ID>
061B0A9A00000001

> <PUBCHEM_MMFF94_ENERGY>
68.7951

> <PUBCHEM_FEATURE_SELFOVERLAP>
55.825

> <PUBCHEM_SHAPE_FINGERPRINT>
10670039 82 18047483493943121652
10871710 139 18196931286857656447
12107183 9 18191290603972442442
12769317 202 17978220569819027725
12788726 201 18263909102868086603
12925494 130 17976541607517701233
12978246 48 18339921502861132832
13402501 40 18411703192347272312
13944108 23 17402327071085070929
14251764 38 18337109068366092316
14251764 75 18126290744486743545
14739800 52 18042683897389610483
15082195 135 17979613668964486781
15320467 1 18411417332404566356
16067690 210 17970892587171927680
18681886 176 17619618086736423107
20398071 114 18410290268376489512
20715895 44 18270396062774335848
21033648 144 18341344352553726682
21315764 268 18263643970052065508
21388113 180 18341615858742778764
21734292 116 18410854352143189632
21859007 373 18342450483575737232
21927370 108 17975988875185729123
23227448 37 18342175578711735038
2838139 119 18266455417126497607
3298306 158 18267581304127657293
338550 245 18334019410659257356
376196 1 18192994803581500499
469060 322 17905065985230614155
5081480 168 16911745937836625711
508706 21 18410853308787786232
6036956 94 18045782561633472549
653340 110 18196922486950039352
6608658 132 17693660720485065924
7288768 16 17968096404284001923
7808743 9 18411975871277829376

> <PUBCHEM_SHAPE_MULTIPOLES>
535.14
11.85
6.14
1.11
13.2
1.81
0.13
11.9
0.08
-5.16
-1.03
-0.62
-0.95
1.32

> <PUBCHEM_SHAPE_SELFOVERLAP>
1149.174

> <PUBCHEM_SHAPE_VOLUME>
290.9

> <PUBCHEM_COORDINATE_TYPE>
2
5
10

$$$$
