REMARK  Name = 102468981
REMARK  7 active torsions:
REMARK  status: ('A' for Active; 'I' for Inactive)
REMARK    1  A    between atoms: N_3  and  C_33
REMARK    2  A    between atoms: C_6  and  O_25
REMARK    3  A    between atoms: C_11  and  O_35
REMARK    4  A    between atoms: C_13  and  O_27
REMARK    5  A    between atoms: C_15  and  O_29
REMARK    6  A    between atoms: C_19  and  O_31
REMARK    7  A    between atoms: O_35  and  C_37
REMARK                            x       y       z     vdW  Elec       q    Type
REMARK                         _______ _______ _______ _____ _____    ______ ____
ROOT
ATOM      1  O   UNL     1      -0.117  -1.468  -2.161  0.00  0.00    -0.328 OA
ATOM      2  O   UNL     1       1.923  -1.898  -1.062  0.00  0.00    -0.329 OA
ATOM      3  N   UNL     1      -2.208   0.660  -1.358  0.00  0.00    +0.390 N 
ATOM      4  C   UNL     1      -0.732   0.863   0.665  0.00  0.00    +0.036 C 
ATOM      5  C   UNL     1      -0.068  -0.747  -0.936  0.00  0.00    +0.138 C 
ATOM      6  C   UNL     1       0.800   0.962   1.140  0.00  0.00    +0.093 C 
ATOM      7  C   UNL     1      -0.812   0.622  -0.879  0.00  0.00    -0.022 C 
ATOM      8  C   UNL     1      -1.409  -0.490   1.115  0.00  0.00    +0.043 C 
ATOM      9  C   UNL     1       1.457  -0.572  -0.747  0.00  0.00    +0.126 C 
ATOM     10  C   UNL     1       1.738  -0.193   0.715  0.00  0.00    +0.079 C 
ATOM     11  C   UNL     1      -0.780  -1.572   0.185  0.00  0.00    +0.194 C 
ATOM     12  C   UNL     1      -2.944  -0.422   0.812  0.00  0.00    -0.015 C 
ATOM     13  C   UNL     1      -1.503   2.121   1.202  0.00  0.00    +0.116 C 
ATOM     14  C   UNL     1       1.587   2.212   0.632  0.00  0.00    +0.032 C 
ATOM     15  C   UNL     1       3.131   0.392   0.949  0.00  0.00    +0.122 C 
ATOM     16  C   UNL     1       2.988   1.707   0.207  0.00  0.00    +0.057 C 
ATOM     17  C   UNL     1       2.107   0.380  -1.815  0.00  0.00    +0.059 C 
ATOM     18  C   UNL     1      -3.148  -0.276  -0.729  0.00  0.00    -0.077 C 
ATOM     19  C   UNL     1       3.090   1.442  -1.298  0.00  0.00    +0.115 C 
ATOM     20  C   UNL     1      -3.578   0.763   1.569  0.00  0.00    +0.001 C 
ATOM     21  C   UNL     1      -3.023   2.100   1.135  0.00  0.00    +0.029 C 
ATOM     22  C   UNL     1      -3.663  -1.696   1.310  0.00  0.00    -0.002 C 
ATOM     23  C   UNL     1       1.012  -2.354  -2.081  0.00  0.00    +0.294 C 
ATOM     24  H   UNL     1      -2.515   1.574  -1.026  0.00  0.00    -0.080 HD
ENDROOT
BRANCH   6  25
ATOM     25  O   UNL     1       0.827   0.961   2.580  0.00  0.00    -0.387 OA
ATOM     26  H   UNL     1       0.342   0.189   2.912  0.00  0.00    +0.210 HD
ENDBRANCH   6  25
BRANCH  13  27
ATOM     27  O   UNL     1      -1.075   3.321   0.562  0.00  0.00    -0.354 OA
ATOM     28  C   UNL     1      -1.198   4.440   1.427  0.00  0.00    +0.174 C 
ENDBRANCH  13  27
BRANCH  15  29
ATOM     29  O   UNL     1       4.168  -0.432   0.457  0.00  0.00    -0.353 OA
ATOM     30  C   UNL     1       5.443  -0.025   0.942  0.00  0.00    +0.174 C 
ENDBRANCH  15  29
BRANCH  19  31
ATOM     31  O   UNL     1       2.911   2.664  -2.011  0.00  0.00    -0.384 OA
ATOM     32  H   UNL     1       3.536   3.327  -1.678  0.00  0.00    +0.210 HD
ENDBRANCH  19  31
BRANCH   3  33
ATOM     33  C   UNL     1      -2.324   0.650  -2.811  0.00  0.00    -0.077 C 
ATOM     34  C   UNL     1      -3.722   1.046  -3.253  0.00  0.00    -0.025 C 
ENDBRANCH   3  33
BRANCH  11  35
ATOM     35  O   UNL     1       0.037  -2.476   0.908  0.00  0.00    -0.450 OA
BRANCH  35  37
ATOM     36  O   UNL     1      -1.246  -4.253   0.179  0.00  0.00    -0.250 OA
ATOM     37  C   UNL     1      -0.308  -3.798   0.819  0.00  0.00    +0.318 C 
ATOM     38  C   UNL     1       0.639  -4.631   1.629  0.00  0.00    +0.121 C 
ENDBRANCH  35  37
ENDBRANCH  11  35
TORSDOF 7
