REMARK  Name = 102417583
REMARK  9 active torsions:
REMARK  status: ('A' for Active; 'I' for Inactive)
REMARK    1  A    between atoms: C_5  and  C_19
REMARK    2  A    between atoms: C_7  and  O_24
REMARK    3  A    between atoms: C_10  and  O_28
REMARK    4  A    between atoms: C_16  and  O_22
REMARK    5  A    between atoms: O_24  and  C_26
REMARK    6  A    between atoms: O_28  and  C_30
REMARK    7  A    between atoms: C_30  and  C_31
REMARK    8  A    between atoms: C_31  and  O_32
REMARK    9  A    between atoms: C_31  and  C_34
REMARK                            x       y       z     vdW  Elec       q    Type
REMARK                         _______ _______ _______ _____ _____    ______ ____
ROOT
ATOM      1  O   UNL     1      -0.189   0.278   1.192  0.00  0.00    -0.354 OA
ATOM      2  C   UNL     1      -2.067   0.635  -0.207  0.00  0.00    +0.037 C 
ATOM      3  C   UNL     1      -2.396  -0.532   0.741  0.00  0.00    +0.048 C 
ATOM      4  C   UNL     1      -0.531   0.696  -0.135  0.00  0.00    +0.155 C 
ATOM      5  C   UNL     1      -2.739   1.954   0.252  0.00  0.00    +0.007 C 
ATOM      6  C   UNL     1      -1.283  -0.429   1.791  0.00  0.00    +0.123 C 
ATOM      7  C   UNL     1       0.219  -0.147  -1.217  0.00  0.00    +0.197 C 
ATOM      8  C   UNL     1      -4.258   1.761   0.390  0.00  0.00    +0.025 C 
ATOM      9  C   UNL     1      -3.799  -0.522   1.310  0.00  0.00    -0.046 C 
ATOM     10  C   UNL     1       1.697  -0.502  -0.881  0.00  0.00    +0.210 C 
ATOM     11  C   UNL     1      -0.753  -1.752   2.355  0.00  0.00    +0.054 C 
ATOM     12  C   UNL     1      -4.634   0.512   1.119  0.00  0.00    -0.035 C 
ATOM     13  C   UNL     1       0.194   0.680  -2.524  0.00  0.00    +0.050 C 
ATOM     14  C   UNL     1       2.015  -1.861  -0.218  0.00  0.00    +0.081 C 
ATOM     15  C   UNL     1       0.086  -2.552   1.381  0.00  0.00    -0.015 C 
ATOM     16  C   UNL     1       1.534  -2.124   1.219  0.00  0.00    +0.133 C 
ATOM     17  C   UNL     1      -4.255  -1.747   2.050  0.00  0.00    +0.026 C 
ATOM     18  C   UNL     1      -0.416  -3.644   0.779  0.00  0.00    -0.007 C 
ENDROOT
BRANCH   5  19
ATOM     19  C   UNL     1      -2.472   3.114  -0.715  0.00  0.00    +0.000 C 
ATOM     20  C   UNL     1      -3.039   2.793  -2.092  0.00  0.00    +0.000 C 
ATOM     21  C   UNL     1      -3.068   4.404  -0.166  0.00  0.00    +0.000 C 
ENDBRANCH   5  19
BRANCH  16  22
ATOM     22  O   UNL     1       2.358  -3.174   1.752  0.00  0.00    -0.380 OA
ATOM     23  H   UNL     1       3.292  -2.929   1.663  0.00  0.00    +0.211 HD
ENDBRANCH  16  22
BRANCH   7  24
ATOM     24  O   UNL     1      -0.489  -1.353  -1.506  0.00  0.00    -0.450 OA
BRANCH  24  26
ATOM     25  O   UNL     1       0.901  -1.892  -3.270  0.00  0.00    -0.250 OA
ATOM     26  C   UNL     1      -0.177  -1.939  -2.694  0.00  0.00    +0.318 C 
ATOM     27  C   UNL     1      -1.376  -2.672  -3.216  0.00  0.00    +0.121 C 
ENDBRANCH  24  26
ENDBRANCH   7  24
BRANCH  10  28
ATOM     28  O   UNL     1       2.339   0.558  -0.175  0.00  0.00    -0.447 OA
BRANCH  28  30
ATOM     29  O   UNL     1       4.284   0.150  -1.345  0.00  0.00    -0.247 OA
ATOM     30  C   UNL     1       3.641   0.775  -0.511  0.00  0.00    +0.344 C 
BRANCH  30  31
ATOM     31  C   UNL     1       4.180   1.944   0.291  0.00  0.00    +0.210 C 
BRANCH  31  32
ATOM     32  O   UNL     1       5.506   2.204  -0.147  0.00  0.00    -0.374 OA
ATOM     33  H   UNL     1       5.498   2.409  -1.095  0.00  0.00    +0.211 HD
ENDBRANCH  31  32
BRANCH  31  34
ATOM     34  C   UNL     1       4.204   1.622   1.785  0.00  0.00    +0.041 C 
ATOM     35  C   UNL     1       4.782   2.763   2.612  0.00  0.00    +0.003 C 
ENDBRANCH  31  34
ENDBRANCH  30  31
ENDBRANCH  28  30
ENDBRANCH  10  28
TORSDOF 9
