REMARK  Name = 102434426
REMARK  9 active torsions:
REMARK  status: ('A' for Active; 'I' for Inactive)
REMARK    1  A    between atoms: C_4  and  C_25
REMARK    2  A    between atoms: C_6  and  C_9
REMARK    3  A    between atoms: C_11  and  C_12
REMARK    4  A    between atoms: C_12  and  O_13
REMARK    5  A    between atoms: O_13  and  C_16
REMARK    6  A    between atoms: C_25  and  N_26
REMARK    7  A    between atoms: N_26  and  C_29
REMARK    8  A    between atoms: C_29  and  C_32
REMARK    9  A    between atoms: C_29  and  C_37
REMARK                            x       y       z     vdW  Elec       q    Type
REMARK                         _______ _______ _______ _____ _____    ______ ____
ROOT
ATOM      1  O   UNL     1      -3.405   3.083   0.250  0.00  0.00    -0.476 OA
ATOM      2  O   UNL     1      -5.808   0.765  -0.766  0.00  0.00    -0.288 OA
ATOM      3  C   UNL     1      -4.803   2.835   0.013  0.00  0.00    +0.187 C 
ATOM      4  C   UNL     1      -3.456   0.860  -0.471  0.00  0.00    +0.028 C 
ATOM      5  C   UNL     1      -4.815   1.402  -0.450  0.00  0.00    +0.206 C 
ATOM      6  C   UNL     1      -2.735   1.902  -0.055  0.00  0.00    +0.131 C 
ATOM      7  C   UNL     1      -5.569   3.002   1.318  0.00  0.00    +0.052 C 
ATOM      8  C   UNL     1      -5.300   3.774  -1.076  0.00  0.00    +0.052 C 
ENDROOT
BRANCH   6   9
ATOM      9  C   UNL     1      -1.315   1.950   0.121  0.00  0.00    +0.011 C 
ATOM     10  C   UNL     1      -0.664   3.238  -0.319  0.00  0.00    +0.034 C 
ATOM     11  C   UNL     1      -0.653   0.892   0.648  0.00  0.00    +0.019 C 
BRANCH  11  12
ATOM     12  C   UNL     1       0.813   0.745   0.909  0.00  0.00    +0.232 C 
BRANCH  12  13
ATOM     13  O   UNL     1       1.294  -0.367   0.164  0.00  0.00    -0.471 OA
BRANCH  13  16
ATOM     14  O   UNL     1       5.800   0.957   1.114  0.00  0.00    -0.421 OA
ATOM     15  O   UNL     1       7.959   1.583   1.555  0.00  0.00    -0.244 OA
ATOM     16  C   UNL     1       2.620  -0.351  -0.181  0.00  0.00    +0.142 C 
ATOM     17  C   UNL     1       3.545   0.293   0.637  0.00  0.00    +0.074 C 
ATOM     18  C   UNL     1       4.888   0.297   0.266  0.00  0.00    +0.152 C 
ATOM     19  C   UNL     1       5.327  -0.326  -0.899  0.00  0.00    +0.035 C 
ATOM     20  C   UNL     1       3.043  -0.981  -1.354  0.00  0.00    +0.037 C 
ATOM     21  C   UNL     1       4.393  -0.970  -1.714  0.00  0.00    +0.006 C 
ATOM     22  C   UNL     1       6.742  -0.283  -1.226  0.00  0.00    +0.010 C 
ATOM     23  C   UNL     1       7.600   0.345  -0.417  0.00  0.00    +0.082 C 
ATOM     24  C   UNL     1       7.159   1.011   0.822  0.00  0.00    +0.346 C 
ENDBRANCH  13  16
ENDBRANCH  12  13
ENDBRANCH  11  12
ENDBRANCH   6   9
BRANCH   4  25
ATOM     25  C   UNL     1      -3.120  -0.521  -0.877  0.00  0.00    -0.047 C 
BRANCH  25  26
ATOM     26  N   UNL     1      -3.184  -1.464   0.238  0.00  0.00    +0.399 N 
ATOM     27  H   UNL     1      -4.131  -1.471   0.617  0.00  0.00    -0.083 HD
ATOM     28  H   UNL     1      -2.518  -1.172   0.953  0.00  0.00    -0.083 HD
BRANCH  26  29
ATOM     29  C   UNL     1      -2.838  -2.807  -0.202  0.00  0.00    +0.095 C 
BRANCH  29  32
ATOM     30  O   UNL     1      -0.584  -2.684   0.670  0.00  0.00    -0.277 OA
ATOM     31  N   UNL     1      -0.863  -3.111  -1.569  0.00  0.00    -0.330 N 
ATOM     32  C   UNL     1      -1.324  -2.858  -0.296  0.00  0.00    +0.208 C 
ATOM     33  H   UNL     1       0.106  -3.166  -1.740  0.00  0.00    +0.145 HD
ATOM     34  H   UNL     1      -1.501  -3.238  -2.308  0.00  0.00    +0.145 HD
ENDBRANCH  29  32
BRANCH  29  37
ATOM     35  O   UNL     1      -3.043  -3.778   2.008  0.00  0.00    -0.277 OA
ATOM     36  N   UNL     1      -4.312  -4.658   0.309  0.00  0.00    -0.330 N 
ATOM     37  C   UNL     1      -3.392  -3.774   0.829  0.00  0.00    +0.208 C 
ATOM     38  H   UNL     1      -4.734  -5.329   0.892  0.00  0.00    +0.145 HD
ATOM     39  H   UNL     1      -4.547  -4.617  -0.646  0.00  0.00    +0.145 HD
ENDBRANCH  29  37
ENDBRANCH  26  29
ENDBRANCH  25  26
ENDBRANCH   4  25
TORSDOF 9
