REMARK  Name = 102416
REMARK  8 active torsions:
REMARK  status: ('A' for Active; 'I' for Inactive)
REMARK    1  A    between atoms: C_2  and  N_8
REMARK    2  A    between atoms: C_3  and  O_12
REMARK    3  A    between atoms: C_4  and  O_14
REMARK    4  A    between atoms: C_5  and  C_26
REMARK    5  A    between atoms: C_6  and  O_16
REMARK    6  A    between atoms: O_16  and  C_17
REMARK    7  A    between atoms: C_22  and  N_25
REMARK    8  A    between atoms: C_26  and  O_27
REMARK                            x       y       z     vdW  Elec       q    Type
REMARK                         _______ _______ _______ _____ _____    ______ ____
ROOT
ATOM      1  O   UNL     1       1.320  -1.349   0.594  0.00  0.00    -0.317 OA
ATOM      2  C   UNL     1       2.260   0.834   0.078  0.00  0.00    +0.172 C 
ATOM      3  C   UNL     1       3.430   0.153  -0.640  0.00  0.00    +0.164 C 
ATOM      4  C   UNL     1       3.619  -1.289  -0.164  0.00  0.00    +0.169 C 
ATOM      5  C   UNL     1       2.288  -2.046  -0.193  0.00  0.00    +0.177 C 
ATOM      6  C   UNL     1       1.013  -0.057   0.072  0.00  0.00    +0.309 C 
ENDROOT
BRANCH   2   8
ATOM      7  O   UNL     1       1.240   3.225   1.371  0.00  0.00    -0.275 OA
ATOM      8  N   UNL     1       1.972   2.113  -0.538  0.00  0.00    -0.298 N 
ATOM      9  C   UNL     1       1.485   3.198   0.168  0.00  0.00    +0.223 C 
ATOM     10  C   UNL     1       1.297   4.408  -0.708  0.00  0.00    +0.095 C 
ATOM     11  H   UNL     1       2.129   2.214  -1.504  0.00  0.00    +0.150 HD
ENDBRANCH   2   8
BRANCH   3  12
ATOM     12  O   UNL     1       4.623   0.890  -0.366  0.00  0.00    -0.380 OA
ATOM     13  H   UNL     1       4.513   1.806  -0.665  0.00  0.00    +0.211 HD
ENDBRANCH   3  12
BRANCH   4  14
ATOM     14  O   UNL     1       4.568  -1.916  -1.022  0.00  0.00    -0.379 OA
ATOM     15  H   UNL     1       5.404  -1.425  -0.992  0.00  0.00    +0.211 HD
ENDBRANCH   4  14
BRANCH   6  16
ATOM     16  O   UNL     1       0.020   0.560   0.891  0.00  0.00    -0.451 OA
BRANCH  16  17
ATOM     17  C   UNL     1      -1.285   0.312   0.562  0.00  0.00    +0.141 C 
ATOM     18  C   UNL     1      -1.762  -0.995   0.565  0.00  0.00    +0.039 C 
ATOM     19  C   UNL     1      -2.125   1.370   0.228  0.00  0.00    +0.039 C 
ATOM     20  C   UNL     1      -3.092  -1.247   0.230  0.00  0.00    +0.027 C 
ATOM     21  C   UNL     1      -3.456   1.117  -0.107  0.00  0.00    +0.027 C 
ATOM     22  C   UNL     1      -3.939  -0.191  -0.105  0.00  0.00    +0.143 C 
BRANCH  22  25
ATOM     23  O   UNL     1      -5.702  -1.634  -0.441  0.00  0.00    -0.126 OA
ATOM     24  O   UNL     1      -6.034   0.519  -0.745  0.00  0.00    -0.126 OA
ATOM     25  N   UNL     1      -5.293  -0.448  -0.448  0.00  0.00    +0.058 N 
ENDBRANCH  22  25
ENDBRANCH  16  17
ENDBRANCH   6  16
BRANCH   5  26
ATOM     26  C   UNL     1       2.411  -3.452   0.385  0.00  0.00    +0.169 C 
BRANCH  26  27
ATOM     27  O   UNL     1       1.141  -4.075   0.331  0.00  0.00    -0.379 OA
ATOM     28  H   UNL     1       1.204  -4.972   0.696  0.00  0.00    +0.211 HD
ENDBRANCH  26  27
ENDBRANCH   5  26
TORSDOF 8
