REMARK  Name = 10246876
REMARK  5 active torsions:
REMARK  status: ('A' for Active; 'I' for Inactive)
REMARK    1  A    between atoms: C_9  and  O_25
REMARK    2  A    between atoms: C_11  and  C_15
REMARK    3  A    between atoms: C_13  and  O_27
REMARK    4  A    between atoms: C_18  and  O_23
REMARK    5  A    between atoms: C_20  and  O_21
REMARK                            x       y       z     vdW  Elec       q    Type
REMARK                         _______ _______ _______ _____ _____    ______ ____
ROOT
ATOM      1  O   UNL     1      -0.137  -0.722   0.040  0.00  0.00    -0.450 OA
ATOM      2  O   UNL     1      -5.601  -0.413  -0.002  0.00  0.00    -0.431 OA
ATOM      3  O   UNL     1      -4.556  -2.585   0.004  0.00  0.00    -0.434 OA
ATOM      4  O   UNL     1      -1.726   3.034   0.041  0.00  0.00    -0.283 OA
ATOM      5  C   UNL     1      -2.109   0.707   0.026  0.00  0.00    +0.113 A 
ATOM      6  C   UNL     1      -1.499  -0.557   0.029  0.00  0.00    +0.155 A 
ATOM      7  C   UNL     1      -4.242  -0.333   0.008  0.00  0.00    +0.210 C 
ATOM      8  C   UNL     1      -3.646  -1.573   0.011  0.00  0.00    +0.183 C 
ATOM      9  C   UNL     1      -3.502   0.832   0.016  0.00  0.00    +0.177 C 
ATOM     10  C   UNL     1      -2.274  -1.721   0.022  0.00  0.00    +0.078 C 
ATOM     11  C   UNL     1       0.667   0.406   0.039  0.00  0.00    +0.182 A 
ATOM     12  C   UNL     1      -1.254   1.905   0.038  0.00  0.00    +0.238 A 
ATOM     13  C   UNL     1       0.210   1.671   0.047  0.00  0.00    +0.208 A 
ATOM     14  C   UNL     1      -5.793  -1.843  -0.005  0.00  0.00    +0.430 C 
ENDROOT
BRANCH  11  15
ATOM     15  C   UNL     1       2.106   0.085   0.054  0.00  0.00    +0.041 C 
ATOM     16  C   UNL     1       2.803  -0.056  -1.147  0.00  0.00    +0.043 C 
ATOM     17  C   UNL     1       2.773  -0.080   1.269  0.00  0.00    +0.006 C 
ATOM     18  C   UNL     1       4.164  -0.360  -1.133  0.00  0.00    +0.168 C 
ATOM     19  C   UNL     1       4.134  -0.384   1.283  0.00  0.00    +0.040 C 
ATOM     20  C   UNL     1       4.830  -0.524   0.082  0.00  0.00    +0.172 C 
BRANCH  20  21
ATOM     21  O   UNL     1       6.159  -0.821   0.109  0.00  0.00    -0.468 OA
ATOM     22  C   UNL     1       6.763  -0.972   1.392  0.00  0.00    +0.253 C 
ENDBRANCH  20  21
BRANCH  18  23
ATOM     23  O   UNL     1       4.833  -0.494  -2.312  0.00  0.00    -0.503 OA
ATOM     24  H   UNL     1       4.379  -0.382  -3.124  0.00  0.00    +0.292 HD
ENDBRANCH  18  23
ENDBRANCH  11  15
BRANCH   9  25
ATOM     25  O   UNL     1      -4.144   2.028   0.011  0.00  0.00    -0.503 OA
ATOM     26  H   UNL     1      -3.650   2.825   0.016  0.00  0.00    +0.292 HD
ENDBRANCH   9  25
BRANCH  13  27
ATOM     27  O   UNL     1       1.041   2.770   0.079  0.00  0.00    -0.501 OA
ATOM     28  H   UNL     1       1.971   2.655   0.085  0.00  0.00    +0.292 HD
ENDBRANCH  13  27
TORSDOF 5
