102417583
  -OEChem-03292013293D

 73 75  0     1  0  0  0  0  0999 V2000
   -0.1890    0.2776    1.1920 O   0  0  0  0  0  0  0  0  0  0  0  0
   -0.4888   -1.3526   -1.5057 O   0  0  0  0  0  0  0  0  0  0  0  0
    2.3389    0.5584   -0.1755 O   0  0  0  0  0  0  0  0  0  0  0  0
    2.3579   -3.1742    1.7520 O   0  0  0  0  0  0  0  0  0  0  0  0
    0.9010   -1.8916   -3.2704 O   0  0  0  0  0  0  0  0  0  0  0  0
    4.2840    0.1505   -1.3447 O   0  0  0  0  0  0  0  0  0  0  0  0
    5.5059    2.2039   -0.1471 O   0  0  0  0  0  0  0  0  0  0  0  0
   -2.0673    0.6351   -0.2073 C   0  0  2  0  0  0  0  0  0  0  0  0
   -2.3961   -0.5323    0.7407 C   0  0  1  0  0  0  0  0  0  0  0  0
   -0.5314    0.6958   -0.1346 C   0  0  2  0  0  0  0  0  0  0  0  0
   -2.7389    1.9537    0.2517 C   0  0  2  0  0  0  0  0  0  0  0  0
   -1.2831   -0.4288    1.7907 C   0  0  1  0  0  0  0  0  0  0  0  0
    0.2190   -0.1473   -1.2168 C   0  0  1  0  0  0  0  0  0  0  0  0
   -4.2577    1.7612    0.3901 C   0  0  0  0  0  0  0  0  0  0  0  0
   -3.7985   -0.5223    1.3098 C   0  0  0  0  0  0  0  0  0  0  0  0
   -2.4719    3.1136   -0.7146 C   0  0  0  0  0  0  0  0  0  0  0  0
    1.6972   -0.5020   -0.8808 C   0  0  2  0  0  0  0  0  0  0  0  0
   -0.7528   -1.7525    2.3551 C   0  0  0  0  0  0  0  0  0  0  0  0
   -4.6339    0.5120    1.1194 C   0  0  0  0  0  0  0  0  0  0  0  0
    0.1943    0.6797   -2.5242 C   0  0  0  0  0  0  0  0  0  0  0  0
    2.0147   -1.8612   -0.2182 C   0  0  0  0  0  0  0  0  0  0  0  0
    0.0863   -2.5520    1.3806 C   0  0  0  0  0  0  0  0  0  0  0  0
    1.5339   -2.1242    1.2188 C   0  0  1  0  0  0  0  0  0  0  0  0
   -4.2548   -1.7470    2.0497 C   0  0  0  0  0  0  0  0  0  0  0  0
   -3.0392    2.7933   -2.0920 C   0  0  0  0  0  0  0  0  0  0  0  0
   -3.0679    4.4040   -0.1663 C   0  0  0  0  0  0  0  0  0  0  0  0
   -0.4158   -3.6439    0.7793 C   0  0  0  0  0  0  0  0  0  0  0  0
   -0.1774   -1.9388   -2.6944 C   0  0  0  0  0  0  0  0  0  0  0  0
    3.6414    0.7755   -0.5109 C   0  0  0  0  0  0  0  0  0  0  0  0
   -1.3758   -2.6723   -3.2157 C   0  0  0  0  0  0  0  0  0  0  0  0
    4.1804    1.9439    0.2915 C   0  0  1  0  0  0  0  0  0  0  0  0
    4.2035    1.6222    1.7854 C   0  0  0  0  0  0  0  0  0  0  0  0
    4.7818    2.7627    2.6122 C   0  0  0  0  0  0  0  0  0  0  0  0
   -2.4183    0.3685   -1.2074 H   0  0  0  0  0  0  0  0  0  0  0  0
   -2.2897   -1.4626    0.1710 H   0  0  0  0  0  0  0  0  0  0  0  0
   -0.1586    1.7214   -0.1974 H   0  0  0  0  0  0  0  0  0  0  0  0
   -2.3357    2.2238    1.2384 H   0  0  0  0  0  0  0  0  0  0  0  0
   -1.6234    0.1851    2.6347 H   0  0  0  0  0  0  0  0  0  0  0  0
   -4.7809    1.7141   -0.5676 H   0  0  0  0  0  0  0  0  0  0  0  0
   -4.6847    2.5995    0.9525 H   0  0  0  0  0  0  0  0  0  0  0  0
   -1.3944    3.2763   -0.8172 H   0  0  0  0  0  0  0  0  0  0  0  0
    2.2000   -0.5864   -1.8517 H   0  0  0  0  0  0  0  0  0  0  0  0
   -1.5797   -2.3597    2.7372 H   0  0  0  0  0  0  0  0  0  0  0  0
   -0.1251   -1.5360    3.2301 H   0  0  0  0  0  0  0  0  0  0  0  0
   -5.6488    0.4655    1.5064 H   0  0  0  0  0  0  0  0  0  0  0  0
    0.9108    0.3664   -3.2888 H   0  0  0  0  0  0  0  0  0  0  0  0
    0.4538    1.7262   -2.3221 H   0  0  0  0  0  0  0  0  0  0  0  0
   -0.7951    0.6697   -2.9936 H   0  0  0  0  0  0  0  0  0  0  0  0
    3.1102   -1.9566   -0.2035 H   0  0  0  0  0  0  0  0  0  0  0  0
    1.6969   -2.6846   -0.8673 H   0  0  0  0  0  0  0  0  0  0  0  0
    1.7437   -1.2447    1.8371 H   0  0  0  0  0  0  0  0  0  0  0  0
   -5.3356   -1.7409    2.2283 H   0  0  0  0  0  0  0  0  0  0  0  0
   -3.7625   -1.8116    3.0240 H   0  0  0  0  0  0  0  0  0  0  0  0
   -4.0258   -2.6506    1.4757 H   0  0  0  0  0  0  0  0  0  0  0  0
   -4.1618    4.4155   -0.1990 H   0  0  0  0  0  0  0  0  0  0  0  0
   -2.7278    5.2560   -0.7664 H   0  0  0  0  0  0  0  0  0  0  0  0
   -4.1315    2.8142   -2.1333 H   0  0  0  0  0  0  0  0  0  0  0  0
   -2.6898    1.8549   -2.5200 H   0  0  0  0  0  0  0  0  0  0  0  0
   -2.7122    3.5733   -2.7921 H   0  0  0  0  0  0  0  0  0  0  0  0
   -2.7478    4.5844    0.8654 H   0  0  0  0  0  0  0  0  0  0  0  0
    0.1869   -4.2540    0.1155 H   0  0  0  0  0  0  0  0  0  0  0  0
   -1.4437   -3.9523    0.9387 H   0  0  0  0  0  0  0  0  0  0  0  0
    3.2672   -2.8338    1.8098 H   0  0  0  0  0  0  0  0  0  0  0  0
   -1.6619   -3.4601   -2.5143 H   0  0  0  0  0  0  0  0  0  0  0  0
   -1.1297   -3.1325   -4.1768 H   0  0  0  0  0  0  0  0  0  0  0  0
   -2.2016   -1.9722   -3.3663 H   0  0  0  0  0  0  0  0  0  0  0  0
    3.5730    2.8316    0.0833 H   0  0  0  0  0  0  0  0  0  0  0  0
    3.1914    1.3988    2.1424 H   0  0  0  0  0  0  0  0  0  0  0  0
    4.8100    0.7252    1.9630 H   0  0  0  0  0  0  0  0  0  0  0  0
    5.4551    2.5042   -1.0708 H   0  0  0  0  0  0  0  0  0  0  0  0
    5.8258    2.9591    2.3495 H   0  0  0  0  0  0  0  0  0  0  0  0
    4.7466    2.5107    3.6769 H   0  0  0  0  0  0  0  0  0  0  0  0
    4.2087    3.6833    2.4626 H   0  0  0  0  0  0  0  0  0  0  0  0
  1 10  1  0  0  0  0
  1 12  1  0  0  0  0
  2 13  1  0  0  0  0
  2 28  1  0  0  0  0
  3 17  1  0  0  0  0
  3 29  1  0  0  0  0
  4 23  1  0  0  0  0
  4 63  1  0  0  0  0
  5 28  2  0  0  0  0
  6 29  2  0  0  0  0
  7 31  1  0  0  0  0
  7 70  1  0  0  0  0
  8  9  1  0  0  0  0
  8 10  1  0  0  0  0
  8 11  1  0  0  0  0
  8 34  1  0  0  0  0
  9 12  1  0  0  0  0
  9 15  1  0  0  0  0
  9 35  1  0  0  0  0
 10 13  1  0  0  0  0
 10 36  1  0  0  0  0
 11 14  1  0  0  0  0
 11 16  1  0  0  0  0
 11 37  1  0  0  0  0
 12 18  1  0  0  0  0
 12 38  1  0  0  0  0
 13 17  1  0  0  0  0
 13 20  1  0  0  0  0
 14 19  1  0  0  0  0
 14 39  1  0  0  0  0
 14 40  1  0  0  0  0
 15 19  2  0  0  0  0
 15 24  1  0  0  0  0
 16 25  1  0  0  0  0
 16 26  1  0  0  0  0
 16 41  1  0  0  0  0
 17 21  1  0  0  0  0
 17 42  1  0  0  0  0
 18 22  1  0  0  0  0
 18 43  1  0  0  0  0
 18 44  1  0  0  0  0
 19 45  1  0  0  0  0
 20 46  1  0  0  0  0
 20 47  1  0  0  0  0
 20 48  1  0  0  0  0
 21 23  1  0  0  0  0
 21 49  1  0  0  0  0
 21 50  1  0  0  0  0
 22 23  1  0  0  0  0
 22 27  2  0  0  0  0
 23 51  1  0  0  0  0
 24 52  1  0  0  0  0
 24 53  1  0  0  0  0
 24 54  1  0  0  0  0
 25 57  1  0  0  0  0
 25 58  1  0  0  0  0
 25 59  1  0  0  0  0
 26 55  1  0  0  0  0
 26 56  1  0  0  0  0
 26 60  1  0  0  0  0
 27 61  1  0  0  0  0
 27 62  1  0  0  0  0
 28 30  1  0  0  0  0
 29 31  1  0  0  0  0
 30 64  1  0  0  0  0
 30 65  1  0  0  0  0
 30 66  1  0  0  0  0
 31 32  1  0  0  0  0
 31 67  1  0  0  0  0
 32 33  1  0  0  0  0
 32 68  1  0  0  0  0
 32 69  1  0  0  0  0
 33 71  1  0  0  0  0
 33 72  1  0  0  0  0
 33 73  1  0  0  0  0
M  END
> <PUBCHEM_COMPOUND_CID>
102417583

> <PUBCHEM_CONFORMER_RMSD>
1

> <PUBCHEM_CONFORMER_DIVERSEORDER>
2
14
29
12
22
4
28
20
10
19
32
25
8
23
31
7
33
11
13
27
36
15
35
26
18
9
5
34
17
21
37
6
24
16
30
1
3

> <PUBCHEM_MMFF94_PARTIAL_CHARGES>
29
1 -0.56
10 0.28
12 0.28
13 0.28
14 0.14
15 -0.28
17 0.28
18 0.14
19 -0.29
2 -0.43
22 -0.28
23 0.42
24 0.14
27 -0.3
28 0.66
29 0.66
3 -0.43
30 0.06
31 0.34
4 -0.68
45 0.15
5 -0.57
6 -0.57
61 0.15
62 0.15
63 0.4
7 -0.68
70 0.4
9 0.14

> <PUBCHEM_EFFECTIVE_ROTOR_COUNT>
8.6

> <PUBCHEM_PHARMACOPHORE_FEATURES>
11
1 1 acceptor
1 33 hydrophobe
1 4 acceptor
1 4 donor
1 5 acceptor
1 6 acceptor
1 7 acceptor
1 7 donor
3 16 25 26 hydrophobe
5 1 8 9 10 12 rings
6 8 9 11 14 15 19 rings

> <PUBCHEM_HEAVY_ATOM_COUNT>
33

> <PUBCHEM_ATOM_DEF_STEREO_COUNT>
9

> <PUBCHEM_ATOM_UDEF_STEREO_COUNT>
0

> <PUBCHEM_BOND_DEF_STEREO_COUNT>
0

> <PUBCHEM_BOND_UDEF_STEREO_COUNT>
0

> <PUBCHEM_ISOTOPIC_ATOM_COUNT>
0

> <PUBCHEM_COMPONENT_COUNT>
1

> <PUBCHEM_CACTVS_TAUTO_COUNT>
2

> <PUBCHEM_CONFORMER_ID>
061AC4AF00000002

> <PUBCHEM_MMFF94_ENERGY>
102.1624

> <PUBCHEM_FEATURE_SELFOVERLAP>
55.961

> <PUBCHEM_SHAPE_FINGERPRINT>
10863032 1 18114752507929046379
11421498 54 18051379015773407407
11578080 2 18191884339560682681
11582403 64 18343304760226890094
11725454 13 18343591745677978178
12156800 1 17264630058707569121
12788726 201 17752508691105292060
12930653 34 18187649076578138113
131258 38 16161891549241257914
13140716 1 17681855216344322545
13544653 18 12540689345150524992
13583140 156 18263072249865070484
13911987 19 17632588157577787841
14178342 30 17822304435359087769
15513586 35 17402602451962255320
17349148 13 16950863495209963963
17974551 9 17752773428668102323
17980427 23 16878522240104379661
20600515 1 17903671753389837977
21033648 144 17346030186663860572
21033648 29 18342455954694412704
21756936 100 18336542841679639176
21857420 4 11545791876365205944
21860390 5 17618209616477206726
23559900 14 18115596928537531844
3298306 158 18412535518602393352
376196 1 18050554158640552517
469060 322 18053651761804257054
550186 7 18265073446916335188
6004065 56 18046635770504109595

> <PUBCHEM_SHAPE_MULTIPOLES>
638.04
8.42
4.49
3.05
5.68
1.07
-1.75
8.13
4.23
-0.93
0.24
0.22
-1.73
2.08

> <PUBCHEM_SHAPE_SELFOVERLAP>
1323.507

> <PUBCHEM_SHAPE_VOLUME>
358.6

> <PUBCHEM_COORDINATE_TYPE>
2
5
10

$$$$
