REMARK  Name = 102421386
REMARK  3 active torsions:
REMARK  status: ('A' for Active; 'I' for Inactive)
REMARK    1  A    between atoms: C_12  and  O_30
REMARK    2  A    between atoms: C_15  and  O_32
REMARK    3  A    between atoms: C_26  and  O_34
REMARK                            x       y       z     vdW  Elec       q    Type
REMARK                         _______ _______ _______ _____ _____    ______ ____
ROOT
ATOM      1  O   UNL     1       0.067   2.121  -0.015  0.00  0.00    -0.480 OA
ATOM      2  O   UNL     1      -4.663  -2.391  -1.665  0.00  0.00    -0.294 OA
ATOM      3  O   UNL     1       5.242  -1.652  -0.108  0.00  0.00    -0.449 OA
ATOM      4  O   UNL     1       5.999   0.238  -1.090  0.00  0.00    -0.245 OA
ATOM      5  C   UNL     1      -1.899  -0.377   0.264  0.00  0.00    +0.007 C 
ATOM      6  C   UNL     1      -3.230   0.454   0.163  0.00  0.00    +0.009 C 
ATOM      7  C   UNL     1      -0.933   0.315   1.331  0.00  0.00    +0.044 C 
ATOM      8  C   UNL     1      -0.728   1.845   1.153  0.00  0.00    +0.158 C 
ATOM      9  C   UNL     1      -4.334  -0.155  -0.777  0.00  0.00    +0.054 C 
ATOM     10  C   UNL     1      -2.949   1.936  -0.128  0.00  0.00    +0.033 C 
ATOM     11  C   UNL     1      -2.235  -1.822   0.770  0.00  0.00    +0.037 C 
ATOM     12  C   UNL     1      -2.090   2.553   0.969  0.00  0.00    +0.147 C 
ATOM     13  C   UNL     1       0.445  -0.373   1.458  0.00  0.00    +0.033 C 
ATOM     14  C   UNL     1      -1.228  -0.536  -1.122  0.00  0.00    +0.000 C 
ATOM     15  C   UNL     1      -3.667  -2.292   0.518  0.00  0.00    +0.167 C 
ATOM     16  C   UNL     1      -4.239  -1.687  -0.748  0.00  0.00    +0.176 C 
ATOM     17  C   UNL     1      -0.040   2.493   2.382  0.00  0.00    +0.046 C 
ATOM     18  C   UNL     1      -4.274   0.341  -2.235  0.00  0.00    +0.007 C 
ATOM     19  C   UNL     1      -5.734   0.203  -0.230  0.00  0.00    +0.007 C 
ATOM     20  C   UNL     1       1.502   0.220   0.556  0.00  0.00    +0.008 C 
ATOM     21  C   UNL     1       1.243   1.423  -0.121  0.00  0.00    +0.137 C 
ATOM     22  C   UNL     1       2.761  -0.398   0.392  0.00  0.00    -0.010 C 
ATOM     23  C   UNL     1       2.189   1.978  -0.985  0.00  0.00    +0.073 C 
ATOM     24  C   UNL     1       3.719   0.192  -0.453  0.00  0.00    +0.105 C 
ATOM     25  C   UNL     1       3.161  -1.646   1.134  0.00  0.00    +0.070 C 
ATOM     26  C   UNL     1       3.428   1.369  -1.147  0.00  0.00    +0.143 C 
ATOM     27  C   UNL     1       4.095  -2.452   0.243  0.00  0.00    +0.174 C 
ATOM     28  C   UNL     1       5.077  -0.393  -0.590  0.00  0.00    +0.344 C 
ATOM     29  C   UNL     1       4.604  -3.697   0.955  0.00  0.00    +0.048 C 
ENDROOT
BRANCH  12  30
ATOM     30  O   UNL     1      -1.884   3.933   0.665  0.00  0.00    -0.381 OA
ATOM     31  H   UNL     1      -1.338   4.338   1.357  0.00  0.00    +0.210 HD
ENDBRANCH  12  30
BRANCH  15  32
ATOM     32  O   UNL     1      -3.715  -3.706   0.463  0.00  0.00    -0.377 OA
ATOM     33  H   UNL     1      -3.345  -4.074   1.281  0.00  0.00    +0.211 HD
ENDBRANCH  15  32
BRANCH  26  34
ATOM     34  O   UNL     1       4.312   1.962  -1.999  0.00  0.00    -0.505 OA
ATOM     35  H   UNL     1       4.075   2.752  -2.445  0.00  0.00    +0.292 HD
ENDBRANCH  26  34
TORSDOF 3
