REMARK  Name = 102458574
REMARK  9 active torsions:
REMARK  status: ('A' for Active; 'I' for Inactive)
REMARK    1  A    between atoms: C_4  and  C_22
REMARK    2  A    between atoms: C_8  and  C_10
REMARK    3  A    between atoms: C_11  and  O_14
REMARK    4  A    between atoms: C_13  and  O_18
REMARK    5  A    between atoms: O_14  and  C_16
REMARK    6  A    between atoms: O_18  and  C_20
REMARK    7  A    between atoms: C_22  and  C_23
REMARK    8  A    between atoms: C_23  and  C_24
REMARK    9  A    between atoms: C_26  and  O_33
REMARK                            x       y       z     vdW  Elec       q    Type
REMARK                         _______ _______ _______ _____ _____    ______ ____
ROOT
ATOM      1  O   UNL     1      -0.984  -1.111   3.196  0.00  0.00    -0.345 OA
ATOM      2  O   UNL     1       0.709   0.722   1.218  0.00  0.00    -0.446 OA
ATOM      3  O   UNL     1      -1.008   1.877   2.167  0.00  0.00    -0.247 OA
ATOM      4  C   UNL     1      -1.281  -0.462   1.946  0.00  0.00    +0.206 C 
ATOM      5  C   UNL     1      -0.497  -1.750   2.013  0.00  0.00    +0.155 C 
ATOM      6  C   UNL     1       0.968  -1.642   1.769  0.00  0.00    +0.081 C 
ATOM      7  C   UNL     1      -0.532   0.815   1.787  0.00  0.00    +0.344 C 
ATOM      8  C   UNL     1       1.190  -0.551   0.723  0.00  0.00    +0.195 C 
ENDROOT
BRANCH   8  10
ATOM      9  O   UNL     1       4.577   0.427  -0.604  0.00  0.00    -0.278 OA
ATOM     10  C   UNL     1       2.641  -0.398   0.406  0.00  0.00    +0.066 C 
ATOM     11  C   UNL     1       3.151   0.622  -0.550  0.00  0.00    +0.317 C 
ATOM     12  C   UNL     1       3.657  -1.115   0.884  0.00  0.00    +0.050 C 
ATOM     13  C   UNL     1       4.933  -0.636   0.298  0.00  0.00    +0.317 C 
BRANCH  11  14
ATOM     14  O   UNL     1       2.826   1.922  -0.081  0.00  0.00    -0.420 OA
BRANCH  14  16
ATOM     15  O   UNL     1       3.853   2.865  -1.923  0.00  0.00    -0.250 OA
ATOM     16  C   UNL     1       3.239   2.962  -0.869  0.00  0.00    +0.320 C 
ATOM     17  C   UNL     1       2.829   4.265  -0.253  0.00  0.00    +0.121 C 
ENDBRANCH  14  16
ENDBRANCH  11  14
BRANCH  13  18
ATOM     18  O   UNL     1       5.563  -1.709  -0.384  0.00  0.00    -0.420 OA
BRANCH  18  20
ATOM     19  O   UNL     1       7.320  -0.330  -0.975  0.00  0.00    -0.250 OA
ATOM     20  C   UNL     1       6.760  -1.418  -0.981  0.00  0.00    +0.320 C 
ATOM     21  C   UNL     1       7.305  -2.638  -1.659  0.00  0.00    +0.121 C 
ENDBRANCH  18  20
ENDBRANCH  13  18
ENDBRANCH   8  10
BRANCH   4  22
ATOM     22  C   UNL     1      -2.729  -0.534   1.569  0.00  0.00    +0.041 C 
BRANCH  22  23
ATOM     23  C   UNL     1      -2.897  -0.539   0.059  0.00  0.00    +0.005 C 
BRANCH  23  24
ATOM     24  C   UNL     1      -4.386  -0.634  -0.325  0.00  0.00    +0.025 C 
ATOM     25  C   UNL     1      -4.625  -1.096  -1.808  0.00  0.00    +0.002 C 
ATOM     26  C   UNL     1      -5.184   0.630   0.129  0.00  0.00    +0.088 C 
ATOM     27  C   UNL     1      -6.142  -1.091  -2.126  0.00  0.00    +0.000 C 
ATOM     28  C   UNL     1      -6.660   0.528  -0.288  0.00  0.00    +0.027 C 
ATOM     29  C   UNL     1      -6.840   0.214  -1.765  0.00  0.00    +0.002 C 
ATOM     30  C   UNL     1      -3.877  -0.250  -2.858  0.00  0.00    +0.000 C 
ATOM     31  C   UNL     1      -4.130  -2.554  -1.986  0.00  0.00    +0.000 C 
ATOM     32  C   UNL     1      -4.585   1.976  -0.297  0.00  0.00    +0.029 C 
BRANCH  26  33
ATOM     33  O   UNL     1      -5.163   0.634   1.571  0.00  0.00    -0.387 OA
ATOM     34  H   UNL     1      -5.533  -0.199   1.902  0.00  0.00    +0.210 HD
ENDBRANCH  26  33
ENDBRANCH  23  24
ENDBRANCH  22  23
ENDBRANCH   4  22
TORSDOF 9
