10245563
  -OEChem-03292013303D

 45 45  0     1  0  0  0  0  0999 V2000
    0.8653   -2.3103   -1.5491 O   0  0  0  0  0  0  0  0  0  0  0  0
   -0.7876   -0.3233   -2.1453 O   0  0  0  0  0  0  0  0  0  0  0  0
    0.2906    2.9117    0.4011 O   0  0  0  0  0  0  0  0  0  0  0  0
   -1.5570    4.0443   -0.2423 O   0  0  0  0  0  0  0  0  0  0  0  0
   -0.7477    0.5420    0.0096 N   0  0  0  0  0  0  0  0  0  0  0  0
    4.8640   -0.4867   -0.1173 N   0  0  0  0  0  0  0  0  0  0  0  0
    6.6889    0.0846    1.3364 N   0  0  0  0  0  0  0  0  0  0  0  0
    6.6972    0.7275   -0.8504 N   0  0  0  0  0  0  0  0  0  0  0  0
   -1.6740    1.6285   -0.2117 C   0  0  1  0  0  0  0  0  0  0  0  0
    1.9055   -0.7659   -0.0247 C   0  0  0  0  0  0  0  0  0  0  0  0
    0.5944   -1.4095   -0.4868 C   0  0  1  0  0  0  0  0  0  0  0  0
   -2.8854    1.5215    0.7235 C   0  0  0  0  0  0  0  0  0  0  0  0
    2.9005   -1.8058    0.5067 C   0  0  0  0  0  0  0  0  0  0  0  0
   -0.3799   -0.3500   -0.9861 C   0  0  0  0  0  0  0  0  0  0  0  0
   -3.6374    0.2217    0.5672 C   0  0  0  0  0  0  0  0  0  0  0  0
    4.2002   -1.1727    0.9922 C   0  0  0  0  0  0  0  0  0  0  0  0
   -0.9927    2.9766   -0.0275 C   0  0  0  0  0  0  0  0  0  0  0  0
   -4.6825    0.1267   -0.3520 C   0  0  0  0  0  0  0  0  0  0  0  0
   -3.2868   -0.8846    1.3412 C   0  0  0  0  0  0  0  0  0  0  0  0
   -5.3771   -1.0742   -0.4966 C   0  0  0  0  0  0  0  0  0  0  0  0
   -3.9815   -2.0855    1.1963 C   0  0  0  0  0  0  0  0  0  0  0  0
   -5.0266   -2.1802    0.2773 C   0  0  0  0  0  0  0  0  0  0  0  0
    6.0098    0.0637    0.1384 C   0  0  0  0  0  0  0  0  0  0  0  0
   -2.0061    1.5938   -1.2564 H   0  0  0  0  0  0  0  0  0  0  0  0
    1.7228   -0.0232    0.7598 H   0  0  0  0  0  0  0  0  0  0  0  0
    2.3571   -0.2286   -0.8684 H   0  0  0  0  0  0  0  0  0  0  0  0
    0.1199   -1.9694    0.3263 H   0  0  0  0  0  0  0  0  0  0  0  0
   -3.5729    2.3601    0.5503 H   0  0  0  0  0  0  0  0  0  0  0  0
   -2.5650    1.6271    1.7695 H   0  0  0  0  0  0  0  0  0  0  0  0
    3.1300   -2.5347   -0.2800 H   0  0  0  0  0  0  0  0  0  0  0  0
    2.4424   -2.3581    1.3358 H   0  0  0  0  0  0  0  0  0  0  0  0
   -0.3585    0.4409    0.9421 H   0  0  0  0  0  0  0  0  0  0  0  0
    4.8430   -1.9680    1.3887 H   0  0  0  0  0  0  0  0  0  0  0  0
    3.9789   -0.4673    1.8023 H   0  0  0  0  0  0  0  0  0  0  0  0
   -4.9630    0.9810   -0.9623 H   0  0  0  0  0  0  0  0  0  0  0  0
   -2.4764   -0.8245    2.0629 H   0  0  0  0  0  0  0  0  0  0  0  0
    1.3438   -1.8251   -2.2429 H   0  0  0  0  0  0  0  0  0  0  0  0
   -6.1904   -1.1482   -1.2127 H   0  0  0  0  0  0  0  0  0  0  0  0
   -3.7087   -2.9468    1.7991 H   0  0  0  0  0  0  0  0  0  0  0  0
   -5.5672   -3.1154    0.1643 H   0  0  0  0  0  0  0  0  0  0  0  0
    0.6871    3.8025    0.5085 H   0  0  0  0  0  0  0  0  0  0  0  0
    7.5865    0.5496    1.4200 H   0  0  0  0  0  0  0  0  0  0  0  0
    6.3236   -0.3559    2.1731 H   0  0  0  0  0  0  0  0  0  0  0  0
    7.5940    1.1654   -0.6706 H   0  0  0  0  0  0  0  0  0  0  0  0
    6.3234    0.7987   -1.7905 H   0  0  0  0  0  0  0  0  0  0  0  0
  1 11  1  0  0  0  0
  1 37  1  0  0  0  0
  2 14  2  0  0  0  0
  3 17  1  0  0  0  0
  3 41  1  0  0  0  0
  4 17  2  0  0  0  0
  5  9  1  0  0  0  0
  5 14  1  0  0  0  0
  5 32  1  0  0  0  0
  6 16  1  0  0  0  0
  6 23  2  0  0  0  0
  7 23  1  0  0  0  0
  7 42  1  0  0  0  0
  7 43  1  0  0  0  0
  8 23  1  0  0  0  0
  8 44  1  0  0  0  0
  8 45  1  0  0  0  0
  9 12  1  0  0  0  0
  9 17  1  0  0  0  0
  9 24  1  0  0  0  0
 10 11  1  0  0  0  0
 10 13  1  0  0  0  0
 10 25  1  0  0  0  0
 10 26  1  0  0  0  0
 11 14  1  0  0  0  0
 11 27  1  0  0  0  0
 12 15  1  0  0  0  0
 12 28  1  0  0  0  0
 12 29  1  0  0  0  0
 13 16  1  0  0  0  0
 13 30  1  0  0  0  0
 13 31  1  0  0  0  0
 15 18  2  0  0  0  0
 15 19  1  0  0  0  0
 16 33  1  0  0  0  0
 16 34  1  0  0  0  0
 18 20  1  0  0  0  0
 18 35  1  0  0  0  0
 19 21  2  0  0  0  0
 19 36  1  0  0  0  0
 20 22  2  0  0  0  0
 20 38  1  0  0  0  0
 21 22  1  0  0  0  0
 21 39  1  0  0  0  0
 22 40  1  0  0  0  0
M  END
> <PUBCHEM_COMPOUND_CID>
10245563

> <PUBCHEM_CONFORMER_RMSD>
1

> <PUBCHEM_CONFORMER_DIVERSEORDER>
1
107
94
66
76
28
135
92
43
29
7
51
23
143
116
127
100
71
140
91
98
35
132
138
110
82
129
56
124
17
87
9
112
46
137
34
24
55
41
26
99
96
13
144
75
59
109
85
52
30
120
61
118
146
25
40
60
133
58
108
49
126
101
4
63
151
103
125
44
105
47
53
19
39
88
21
122
115
67
89
97
2
152
150
11
83
54
14
72
139
3
78
74
113
145
37
69
81
95
134
149
90
86
16
131
136
18
31
84
45
6
33
119
93
104
20
22
77
123
148
10
142
57
102
5
79
36
42
70
50
68
147
80
106
12
27
141
15
130
114
128
8
153
62
73
121
48
111
65
64
32
117
38

> <PUBCHEM_MMFF94_PARTIAL_CHARGES>
33
1 -0.68
11 0.34
12 0.14
14 0.57
15 -0.14
16 0.25
17 0.66
18 -0.15
19 -0.15
2 -0.57
20 -0.15
21 -0.15
22 -0.15
23 0.55
3 -0.65
32 0.37
35 0.15
36 0.15
37 0.4
38 0.15
39 0.15
4 -0.57
40 0.15
41 0.5
42 0.4
43 0.4
44 0.4
45 0.4
5 -0.73
6 -0.7
7 -0.85
8 -0.85
9 0.36

> <PUBCHEM_EFFECTIVE_ROTOR_COUNT>
10

> <PUBCHEM_PHARMACOPHORE_FEATURES>
11
1 1 acceptor
1 1 donor
1 2 acceptor
1 3 acceptor
1 4 acceptor
1 5 donor
1 7 donor
1 8 donor
3 3 4 17 anion
4 6 7 8 23 cation
6 15 18 19 20 21 22 rings

> <PUBCHEM_HEAVY_ATOM_COUNT>
23

> <PUBCHEM_ATOM_DEF_STEREO_COUNT>
2

> <PUBCHEM_ATOM_UDEF_STEREO_COUNT>
0

> <PUBCHEM_BOND_DEF_STEREO_COUNT>
0

> <PUBCHEM_BOND_UDEF_STEREO_COUNT>
0

> <PUBCHEM_ISOTOPIC_ATOM_COUNT>
0

> <PUBCHEM_COMPONENT_COUNT>
1

> <PUBCHEM_CACTVS_TAUTO_COUNT>
4

> <PUBCHEM_CONFORMER_ID>
009C55BB00000001

> <PUBCHEM_MMFF94_ENERGY>
47.3829

> <PUBCHEM_FEATURE_SELFOVERLAP>
55.947

> <PUBCHEM_SHAPE_FINGERPRINT>
10613725 11 11887956558108389138
10906281 52 18056201272294387349
12516196 113 18408886260921213835
12596602 18 17894628154661601720
128238 76 18340487880208797910
14081887 123 18265899043005428571
14251752 14 9799699190322565670
14341114 328 18262241019316909424
1454969 45 18342737450681112630
14787075 74 18186803595270674250
15183329 4 10663821862797337338
15927050 60 17547858911473786052
17980427 23 18260558800875776549
20567600 70 18262802990266415035
20600515 1 17968674769170876407
21202864 24 17560796675518799511
21756936 100 14261345838822448467
23198884 109 14620793816825568894
23419403 2 18115848845997808909
23559900 14 18261385693902497041
3009799 131 13767921338625477838
347723 3 11674872295092352999
392239 28 18334863822366136882
4015057 19 13768223734371992230
5283173 99 17968928696417241821
5385378 56 8790344256291537957
5486654 2 18334860532479749106
550186 72 18409450271790281196
559249 180 9799692589126552380
7226269 152 18187642445765811309
81228 2 17909574778317275073

> <PUBCHEM_SHAPE_MULTIPOLES>
429.93
14.12
3.2
1.26
21.64
3.3
-0.26
-4.78
2.68
-2.5
0.14
0.07
-0.46
0.12

> <PUBCHEM_SHAPE_SELFOVERLAP>
869.843

> <PUBCHEM_SHAPE_VOLUME>
247.1

> <PUBCHEM_COORDINATE_TYPE>
2
5
10

$$$$
