102410351
  -OEChem-03292013293D

 72 75  0     1  0  0  0  0  0999 V2000
   -1.3308   -2.9589    0.4745 O   0  0  0  0  0  0  0  0  0  0  0  0
    0.7803    2.5904    1.3375 O   0  0  0  0  0  0  0  0  0  0  0  0
   -1.4323    2.9744   -0.1313 O   0  0  0  0  0  0  0  0  0  0  0  0
    1.2701   -2.9294   -0.2334 O   0  0  0  0  0  0  0  0  0  0  0  0
    6.9060   -0.8511   -0.1339 O   0  0  0  0  0  0  0  0  0  0  0  0
   -7.4369    1.2658   -1.6555 O   0  0  0  0  0  0  0  0  0  0  0  0
   -8.0425    0.4928    0.3922 O   0  0  0  0  0  0  0  0  0  0  0  0
   -1.4113   -0.5309    0.3259 C   0  0  1  0  0  0  0  0  0  0  0  0
   -0.7022    0.6440   -0.4274 C   0  0  2  0  0  0  0  0  0  0  0  0
   -2.9154   -0.2735    0.0245 C   0  0  2  0  0  0  0  0  0  0  0  0
    3.0079   -0.6077    0.0552 C   0  0  1  0  0  0  0  0  0  0  0  0
    0.7703    0.6360   -0.0535 C   0  0  0  0  0  0  0  0  0  0  0  0
    3.6421    0.8101   -0.2046 C   0  0  1  0  0  0  0  0  0  0  0  0
    1.4634   -0.5346   -0.0690 C   0  0  0  0  0  0  0  0  0  0  0  0
   -0.8488   -1.8347   -0.2436 C   0  0  1  0  0  0  0  0  0  0  0  0
   -3.0674    1.2445    0.2333 C   0  0  0  0  0  0  0  0  0  0  0  0
    1.4354    1.9629    0.2332 C   0  0  2  0  0  0  0  0  0  0  0  0
   -1.6810    1.7763   -0.0813 C   0  0  0  0  0  0  0  0  0  0  0  0
    2.9148    1.8822    0.6061 C   0  0  0  0  0  0  0  0  0  0  0  0
    5.2034    0.8792   -0.0603 C   0  0  0  0  0  0  0  0  0  0  0  0
    0.6838   -1.8463   -0.1935 C   0  0  0  0  0  0  0  0  0  0  0  0
   -3.9402   -1.0553    0.8390 C   0  0  1  0  0  0  0  0  0  0  0  0
    3.6126   -1.5827   -1.0088 C   0  0  0  0  0  0  0  0  0  0  0  0
   -1.1762   -0.4874    1.8741 C   0  0  0  0  0  0  0  0  0  0  0  0
   -0.7588    0.6013   -1.9831 C   0  0  0  0  0  0  0  0  0  0  0  0
    3.3183   -1.1525    1.4695 C   0  0  0  0  0  0  0  0  0  0  0  0
    5.0074   -1.2373   -1.5235 C   0  0  0  0  0  0  0  0  0  0  0  0
    5.8028   -0.4561   -0.5105 C   0  0  0  0  0  0  0  0  0  0  0  0
   -5.3291   -0.3869    0.8407 C   0  0  0  0  0  0  0  0  0  0  0  0
    5.8679    2.0351   -0.8322 C   0  0  0  0  0  0  0  0  0  0  0  0
    5.5809    1.0518    1.4272 C   0  0  0  0  0  0  0  0  0  0  0  0
   -4.0563   -2.4839    0.2975 C   0  0  0  0  0  0  0  0  0  0  0  0
   -5.9049   -0.1797   -0.5615 C   0  0  0  0  0  0  0  0  0  0  0  0
   -7.2332    0.5420   -0.5236 C   0  0  0  0  0  0  0  0  0  0  0  0
   -3.0964   -0.4768   -1.0392 H   0  0  0  0  0  0  0  0  0  0  0  0
    3.4361    1.0452   -1.2626 H   0  0  0  0  0  0  0  0  0  0  0  0
   -1.1474   -1.9704   -1.2889 H   0  0  0  0  0  0  0  0  0  0  0  0
   -3.2971    1.5169    1.2677 H   0  0  0  0  0  0  0  0  0  0  0  0
   -3.7783    1.7072   -0.4529 H   0  0  0  0  0  0  0  0  0  0  0  0
    1.3185    2.6081   -0.6460 H   0  0  0  0  0  0  0  0  0  0  0  0
    3.3623    2.8698    0.4390 H   0  0  0  0  0  0  0  0  0  0  0  0
    3.0058    1.7015    1.6837 H   0  0  0  0  0  0  0  0  0  0  0  0
   -3.6578   -1.1127    1.8942 H   0  0  0  0  0  0  0  0  0  0  0  0
    2.9565   -1.6463   -1.8873 H   0  0  0  0  0  0  0  0  0  0  0  0
    3.6590   -2.5985   -0.5950 H   0  0  0  0  0  0  0  0  0  0  0  0
   -0.1167   -0.5362    2.1431 H   0  0  0  0  0  0  0  0  0  0  0  0
   -1.6423   -1.3368    2.3831 H   0  0  0  0  0  0  0  0  0  0  0  0
   -1.5680    0.4269    2.3305 H   0  0  0  0  0  0  0  0  0  0  0  0
   -0.3005    1.5065   -2.4035 H   0  0  0  0  0  0  0  0  0  0  0  0
   -1.7811    0.5729   -2.3740 H   0  0  0  0  0  0  0  0  0  0  0  0
   -0.2200   -0.2506   -2.4104 H   0  0  0  0  0  0  0  0  0  0  0  0
    4.3528   -1.4931    1.5646 H   0  0  0  0  0  0  0  0  0  0  0  0
    2.7128   -2.0370    1.7011 H   0  0  0  0  0  0  0  0  0  0  0  0
    3.0991   -0.4253    2.2567 H   0  0  0  0  0  0  0  0  0  0  0  0
    4.9427   -0.6300   -2.4339 H   0  0  0  0  0  0  0  0  0  0  0  0
    5.5487   -2.1518   -1.7894 H   0  0  0  0  0  0  0  0  0  0  0  0
   -6.0225   -1.0093    1.4232 H   0  0  0  0  0  0  0  0  0  0  0  0
   -5.3023    0.5693    1.3764 H   0  0  0  0  0  0  0  0  0  0  0  0
    5.5254    3.0111   -0.4743 H   0  0  0  0  0  0  0  0  0  0  0  0
    5.6357    1.9669   -1.9008 H   0  0  0  0  0  0  0  0  0  0  0  0
    5.2200    2.0018    1.8355 H   0  0  0  0  0  0  0  0  0  0  0  0
    6.6735    1.0878    1.5372 H   0  0  0  0  0  0  0  0  0  0  0  0
    5.2575    0.2539    2.0903 H   0  0  0  0  0  0  0  0  0  0  0  0
    6.9595    2.0027   -0.7384 H   0  0  0  0  0  0  0  0  0  0  0  0
   -3.6953   -2.5960   -0.7292 H   0  0  0  0  0  0  0  0  0  0  0  0
   -5.0948   -2.8360    0.3086 H   0  0  0  0  0  0  0  0  0  0  0  0
   -3.5301   -3.1856    0.9492 H   0  0  0  0  0  0  0  0  0  0  0  0
   -1.0305   -3.7569    0.0068 H   0  0  0  0  0  0  0  0  0  0  0  0
    1.1632    3.4786    1.4394 H   0  0  0  0  0  0  0  0  0  0  0  0
   -5.2331    0.3964   -1.1999 H   0  0  0  0  0  0  0  0  0  0  0  0
   -6.0806   -1.1409   -1.0565 H   0  0  0  0  0  0  0  0  0  0  0  0
   -8.2986    1.7344   -1.6393 H   0  0  0  0  0  0  0  0  0  0  0  0
  1 15  1  0  0  0  0
  1 68  1  0  0  0  0
  2 17  1  0  0  0  0
  2 69  1  0  0  0  0
  3 18  2  0  0  0  0
  4 21  2  0  0  0  0
  5 28  2  0  0  0  0
  6 34  1  0  0  0  0
  6 72  1  0  0  0  0
  7 34  2  0  0  0  0
  8  9  1  0  0  0  0
  8 10  1  0  0  0  0
  8 15  1  0  0  0  0
  8 24  1  0  0  0  0
  9 12  1  0  0  0  0
  9 18  1  0  0  0  0
  9 25  1  0  0  0  0
 10 16  1  0  0  0  0
 10 22  1  0  0  0  0
 10 35  1  0  0  0  0
 11 13  1  0  0  0  0
 11 14  1  0  0  0  0
 11 23  1  0  0  0  0
 11 26  1  0  0  0  0
 12 14  2  0  0  0  0
 12 17  1  0  0  0  0
 13 19  1  0  0  0  0
 13 20  1  0  0  0  0
 13 36  1  0  0  0  0
 14 21  1  0  0  0  0
 15 21  1  0  0  0  0
 15 37  1  0  0  0  0
 16 18  1  0  0  0  0
 16 38  1  0  0  0  0
 16 39  1  0  0  0  0
 17 19  1  0  0  0  0
 17 40  1  0  0  0  0
 19 41  1  0  0  0  0
 19 42  1  0  0  0  0
 20 28  1  0  0  0  0
 20 30  1  0  0  0  0
 20 31  1  0  0  0  0
 22 29  1  0  0  0  0
 22 32  1  0  0  0  0
 22 43  1  0  0  0  0
 23 27  1  0  0  0  0
 23 44  1  0  0  0  0
 23 45  1  0  0  0  0
 24 46  1  0  0  0  0
 24 47  1  0  0  0  0
 24 48  1  0  0  0  0
 25 49  1  0  0  0  0
 25 50  1  0  0  0  0
 25 51  1  0  0  0  0
 26 52  1  0  0  0  0
 26 53  1  0  0  0  0
 26 54  1  0  0  0  0
 27 28  1  0  0  0  0
 27 55  1  0  0  0  0
 27 56  1  0  0  0  0
 29 33  1  0  0  0  0
 29 57  1  0  0  0  0
 29 58  1  0  0  0  0
 30 59  1  0  0  0  0
 30 60  1  0  0  0  0
 30 64  1  0  0  0  0
 31 61  1  0  0  0  0
 31 62  1  0  0  0  0
 31 63  1  0  0  0  0
 32 65  1  0  0  0  0
 32 66  1  0  0  0  0
 32 67  1  0  0  0  0
 33 34  1  0  0  0  0
 33 70  1  0  0  0  0
 33 71  1  0  0  0  0
M  END
> <PUBCHEM_COMPOUND_CID>
102410351

> <PUBCHEM_CONFORMER_RMSD>
0.8

> <PUBCHEM_CONFORMER_DIVERSEORDER>
5
1
6
2
4
3

> <PUBCHEM_MMFF94_PARTIAL_CHARGES>
24
1 -0.68
11 0.14
12 -0.28
14 -0.12
15 0.34
16 0.06
17 0.42
18 0.45
2 -0.68
20 0.06
21 0.49
27 0.06
28 0.45
3 -0.57
33 0.06
34 0.66
4 -0.57
5 -0.57
6 -0.65
68 0.4
69 0.4
7 -0.57
72 0.5
9 0.2

> <PUBCHEM_EFFECTIVE_ROTOR_COUNT>
5.6

> <PUBCHEM_PHARMACOPHORE_FEATURES>
16
1 1 acceptor
1 1 donor
1 2 acceptor
1 2 donor
1 3 acceptor
1 32 hydrophobe
1 4 acceptor
1 5 acceptor
1 6 acceptor
1 7 acceptor
3 20 30 31 hydrophobe
3 6 7 34 anion
5 8 9 10 16 18 rings
6 11 12 13 14 17 19 rings
6 11 13 20 23 27 28 rings
6 8 9 12 14 15 21 rings

> <PUBCHEM_HEAVY_ATOM_COUNT>
34

> <PUBCHEM_ATOM_DEF_STEREO_COUNT>
8

> <PUBCHEM_ATOM_UDEF_STEREO_COUNT>
0

> <PUBCHEM_BOND_DEF_STEREO_COUNT>
0

> <PUBCHEM_BOND_UDEF_STEREO_COUNT>
0

> <PUBCHEM_ISOTOPIC_ATOM_COUNT>
0

> <PUBCHEM_COMPONENT_COUNT>
1

> <PUBCHEM_CACTVS_TAUTO_COUNT>
8

> <PUBCHEM_CONFORMER_ID>
061AA86F00000005

> <PUBCHEM_MMFF94_ENERGY>
130.6899

> <PUBCHEM_FEATURE_SELFOVERLAP>
81.366

> <PUBCHEM_SHAPE_FINGERPRINT>
10006869 2 18336254640077482131
10906281 52 18335436663819151017
11578080 2 16879616082396742527
12011746 2 18410014333912352231
12107698 1 15913331290483468785
12236239 1 17530965825518630394
12516196 113 18343301479130195897
12788726 201 18340485577995564377
12838862 33 18340471344690222776
13140716 1 18194401323465790882
13224815 77 18334577954276152848
13402501 40 18412548725584175114
13533116 47 17561091280632156430
13811026 1 18411699910965663547
14117953 113 18408324376140573573
14294032 229 16951966150770366453
14725015 67 18339636751287962418
14790565 3 18340497702698971880
14840074 17 18131348605622060503
15131766 46 16517956162577811052
15183329 4 18411696574609283865
1813 80 17458908253282736548
21033648 29 18262511619325871009
21267235 1 18412272718660008014
21279426 13 18411987974590959391
21792934 111 18341602690836831304
22121540 332 17679277725625289869
221357 26 18272091569781264748
23559900 14 18339640152675655681
3178227 256 18338529607429533027
335352 9 18411702101340670079
350125 39 18409168848041278940
3633792 109 18272934882778960985
4073 2 18114468962683309803
4093350 32 17346606236013658279
5104073 3 18271525295908181552
58260988 393 15285628885267774012
59755656 215 18408039585549180775
6086070 43 17845934160342970401
6328613 192 18334299811608917293

> <PUBCHEM_SHAPE_MULTIPOLES>
658.62
16.5
2.68
1.3
14.08
0.24
-0.02
-2.71
-2.75
-0.4
0.1
-0.2
-0.08
1.26

> <PUBCHEM_SHAPE_SELFOVERLAP>
1415.15

> <PUBCHEM_SHAPE_VOLUME>
357.6

> <PUBCHEM_COORDINATE_TYPE>
2
5
10

$$$$
