REMARK  Name = 102435379
REMARK  9 active torsions:
REMARK  status: ('A' for Active; 'I' for Inactive)
REMARK    1  A    between atoms: C_5  and  C_21
REMARK    2  A    between atoms: C_6  and  O_17
REMARK    3  A    between atoms: C_7  and  O_19
REMARK    4  A    between atoms: C_11  and  C_24
REMARK    5  A    between atoms: C_21  and  O_22
REMARK    6  A    between atoms: C_24  and  C_25
REMARK    7  A    between atoms: C_24  and  C_28
REMARK    8  A    between atoms: C_25  and  O_26
REMARK    9  A    between atoms: C_28  and  O_29
REMARK                            x       y       z     vdW  Elec       q    Type
REMARK                         _______ _______ _______ _____ _____    ______ ____
ROOT
ATOM      1  C   UNL     1       2.015   0.413  -0.416  0.00  0.00    +0.007 C 
ATOM      2  C   UNL     1       1.807  -0.853   0.487  0.00  0.00    +0.052 C 
ATOM      3  C   UNL     1      -0.505   1.306  -0.709  0.00  0.00    +0.015 C 
ATOM      4  C   UNL     1       0.936   1.492  -0.142  0.00  0.00    +0.004 C 
ATOM      5  C   UNL     1       3.460   0.882  -0.078  0.00  0.00    +0.032 C 
ATOM      6  C   UNL     1       3.111  -1.009   1.308  0.00  0.00    +0.113 C 
ATOM      7  C   UNL     1       1.323  -2.112  -0.286  0.00  0.00    +0.095 C 
ATOM      8  C   UNL     1      -1.316   0.110  -0.187  0.00  0.00    -0.049 C 
ATOM      9  C   UNL     1       3.692   0.395   1.350  0.00  0.00    +0.032 C 
ATOM     10  C   UNL     1      -1.345   2.513  -0.184  0.00  0.00    +0.004 C 
ATOM     11  C   UNL     1      -2.555   0.608   0.549  0.00  0.00    +0.023 C 
ATOM     12  C   UNL     1      -2.762   1.992  -0.055  0.00  0.00    +0.004 C 
ATOM     13  C   UNL     1       0.054  -1.834  -1.115  0.00  0.00    +0.052 C 
ATOM     14  C   UNL     1      -0.508   1.382  -2.251  0.00  0.00    +0.004 C 
ATOM     15  C   UNL     1      -1.069  -1.202  -0.356  0.00  0.00    -0.032 C 
ATOM     16  C   UNL     1       1.085  -3.289   0.673  0.00  0.00    +0.030 C 
ENDROOT
BRANCH   6  17
ATOM     17  O   UNL     1       4.048  -1.881   0.692  0.00  0.00    -0.384 OA
ATOM     18  H   UNL     1       3.683  -2.779   0.662  0.00  0.00    +0.210 HD
ENDBRANCH   6  17
BRANCH   7  19
ATOM     19  O   UNL     1       2.308  -2.518  -1.245  0.00  0.00    -0.386 OA
ATOM     20  H   UNL     1       2.477  -1.790  -1.864  0.00  0.00    +0.210 HD
ENDBRANCH   7  19
BRANCH   5  21
ATOM     21  C   UNL     1       3.787   2.359  -0.243  0.00  0.00    +0.137 C 
BRANCH  21  22
ATOM     22  O   UNL     1       5.147   2.564   0.095  0.00  0.00    -0.382 OA
ATOM     23  H   UNL     1       5.368   3.503  -0.006  0.00  0.00    +0.210 HD
ENDBRANCH  21  22
ENDBRANCH   5  21
BRANCH  11  24
ATOM     24  C   UNL     1      -3.826  -0.230   0.433  0.00  0.00    +0.062 C 
BRANCH  24  25
ATOM     25  C   UNL     1      -4.236  -0.368  -1.037  0.00  0.00    +0.140 C 
BRANCH  25  26
ATOM     26  O   UNL     1      -5.098  -1.486  -1.198  0.00  0.00    -0.382 OA
ATOM     27  H   UNL     1      -5.353  -1.566  -2.130  0.00  0.00    +0.210 HD
ENDBRANCH  25  26
ENDBRANCH  24  25
BRANCH  24  28
ATOM     28  C   UNL     1      -4.964   0.368   1.272  0.00  0.00    +0.140 C 
BRANCH  28  29
ATOM     29  O   UNL     1      -4.590   0.398   2.643  0.00  0.00    -0.382 OA
ATOM     30  H   UNL     1      -5.312   0.777   3.168  0.00  0.00    +0.210 HD
ENDBRANCH  28  29
ENDBRANCH  24  28
ENDBRANCH  11  24
TORSDOF 9
