102412583
  -OEChem-03292013293D

 49 50  0     1  0  0  0  0  0999 V2000
    0.3620    1.8568   -1.0437 O   0  0  0  0  0  0  0  0  0  0  0  0
    3.2980   -0.1064    1.8925 O   0  0  0  0  0  0  0  0  0  0  0  0
   -1.2672    0.7926   -0.0987 O   0  0  0  0  0  0  0  0  0  0  0  0
    0.3860   -2.2486   -0.0223 O   0  0  0  0  0  0  0  0  0  0  0  0
    2.9319   -2.1455   -0.5012 O   0  0  0  0  0  0  0  0  0  0  0  0
   -4.1049   -2.3246   -0.3348 O   0  0  0  0  0  0  0  0  0  0  0  0
   -1.0376   -0.0945    2.0199 O   0  0  0  0  0  0  0  0  0  0  0  0
   -2.0223   -1.4423   -0.5736 N   0  0  0  0  0  0  0  0  0  0  0  0
   -2.7971    2.7397    0.8748 N   0  0  0  0  0  0  0  0  0  0  0  0
    1.6215    1.1760   -1.1073 C   0  0  1  0  0  0  0  0  0  0  0  0
    2.5729    1.9573   -0.1833 C   0  0  0  0  0  0  0  0  0  0  0  0
    1.4880   -0.2554   -0.6370 C   0  0  0  0  0  0  0  0  0  0  0  0
    3.9206    1.2620    0.0126 C   0  0  0  0  0  0  0  0  0  0  0  0
    3.7590   -0.1548    0.5518 C   0  0  2  0  0  0  0  0  0  0  0  0
    2.7485   -0.9577   -0.2427 C   0  0  0  0  0  0  0  0  0  0  0  0
   -1.0046   -0.4110   -0.8494 C   0  0  2  0  0  0  0  0  0  0  0  0
    0.3518   -0.9543   -0.5032 C   0  0  0  0  0  0  0  0  0  0  0  0
    2.0958    1.2157   -2.5669 C   0  0  0  0  0  0  0  0  0  0  0  0
   -1.0186   -0.0359   -2.3328 C   0  0  0  0  0  0  0  0  0  0  0  0
   -2.8408    1.4325    1.5275 C   0  0  1  0  0  0  0  0  0  0  0  0
   -4.0575    0.5991    1.0868 C   0  0  0  0  0  0  0  0  0  0  0  0
   -4.0217    0.0607   -0.3544 C   0  0  0  0  0  0  0  0  0  0  0  0
   -3.3890   -1.3224   -0.4377 C   0  0  0  0  0  0  0  0  0  0  0  0
   -1.5763    0.6655    1.2255 C   0  0  0  0  0  0  0  0  0  0  0  0
    3.6016   -1.3046    2.5976 C   0  0  0  0  0  0  0  0  0  0  0  0
    2.0936    2.1093    0.7940 H   0  0  0  0  0  0  0  0  0  0  0  0
    2.7381    2.9675   -0.5803 H   0  0  0  0  0  0  0  0  0  0  0  0
    4.4637    1.2373   -0.9389 H   0  0  0  0  0  0  0  0  0  0  0  0
    4.5202    1.8568    0.7121 H   0  0  0  0  0  0  0  0  0  0  0  0
    4.7374   -0.6485    0.4937 H   0  0  0  0  0  0  0  0  0  0  0  0
    1.3928    0.7299   -3.2483 H   0  0  0  0  0  0  0  0  0  0  0  0
    3.0667    0.7281   -2.7020 H   0  0  0  0  0  0  0  0  0  0  0  0
    2.1861    2.2517   -2.9145 H   0  0  0  0  0  0  0  0  0  0  0  0
    0.4958    2.7702   -1.3498 H   0  0  0  0  0  0  0  0  0  0  0  0
   -1.6903   -2.4022   -0.6075 H   0  0  0  0  0  0  0  0  0  0  0  0
   -2.0371   -0.1666   -2.7259 H   0  0  0  0  0  0  0  0  0  0  0  0
   -0.4071   -0.7154   -2.9390 H   0  0  0  0  0  0  0  0  0  0  0  0
   -0.7972    0.9954   -2.6021 H   0  0  0  0  0  0  0  0  0  0  0  0
   -2.8860    1.6015    2.6095 H   0  0  0  0  0  0  0  0  0  0  0  0
   -4.9594    1.2142    1.2051 H   0  0  0  0  0  0  0  0  0  0  0  0
   -4.1721   -0.2433    1.7819 H   0  0  0  0  0  0  0  0  0  0  0  0
   -3.5581    0.7595   -1.0550 H   0  0  0  0  0  0  0  0  0  0  0  0
   -5.0562   -0.0599   -0.7027 H   0  0  0  0  0  0  0  0  0  0  0  0
    1.2559   -2.4736    0.3392 H   0  0  0  0  0  0  0  0  0  0  0  0
    3.2634   -1.1826    3.6305 H   0  0  0  0  0  0  0  0  0  0  0  0
    4.6810   -1.4852    2.6103 H   0  0  0  0  0  0  0  0  0  0  0  0
    3.0768   -2.1627    2.1690 H   0  0  0  0  0  0  0  0  0  0  0  0
   -2.0298    3.2890    1.2604 H   0  0  0  0  0  0  0  0  0  0  0  0
   -3.6508    3.2554    1.0848 H   0  0  0  0  0  0  0  0  0  0  0  0
  1 10  1  0  0  0  0
  1 34  1  0  0  0  0
  2 14  1  0  0  0  0
  2 25  1  0  0  0  0
  3 16  1  0  0  0  0
  3 24  1  0  0  0  0
  4 17  1  0  0  0  0
  4 44  1  0  0  0  0
  5 15  2  0  0  0  0
  6 23  2  0  0  0  0
  7 24  2  0  0  0  0
  8 16  1  0  0  0  0
  8 23  1  0  0  0  0
  8 35  1  0  0  0  0
  9 20  1  0  0  0  0
  9 48  1  0  0  0  0
  9 49  1  0  0  0  0
 10 11  1  0  0  0  0
 10 12  1  0  0  0  0
 10 18  1  0  0  0  0
 11 13  1  0  0  0  0
 11 26  1  0  0  0  0
 11 27  1  0  0  0  0
 12 15  1  0  0  0  0
 12 17  2  3  0  0  0
 13 14  1  0  0  0  0
 13 28  1  0  0  0  0
 13 29  1  0  0  0  0
 14 15  1  0  0  0  0
 14 30  1  0  0  0  0
 16 17  1  0  0  0  0
 16 19  1  0  0  0  0
 18 31  1  0  0  0  0
 18 32  1  0  0  0  0
 18 33  1  0  0  0  0
 19 36  1  0  0  0  0
 19 37  1  0  0  0  0
 19 38  1  0  0  0  0
 20 21  1  0  0  0  0
 20 24  1  0  0  0  0
 20 39  1  0  0  0  0
 21 22  1  0  0  0  0
 21 40  1  0  0  0  0
 21 41  1  0  0  0  0
 22 23  1  0  0  0  0
 22 42  1  0  0  0  0
 22 43  1  0  0  0  0
 25 45  1  0  0  0  0
 25 46  1  0  0  0  0
 25 47  1  0  0  0  0
M  END
> <PUBCHEM_COMPOUND_CID>
102412583

> <PUBCHEM_CONFORMER_RMSD>
0.8

> <PUBCHEM_CONFORMER_DIVERSEORDER>
2
6
1
3
5
15
18
14
10
20
8
11
19
21
16
4
23
9
17
13
7
12

> <PUBCHEM_MMFF94_PARTIAL_CHARGES>
25
1 -0.68
10 0.42
12 -0.12
14 0.34
15 0.49
16 0.72
17 -0.06
2 -0.56
20 0.33
22 0.06
23 0.57
24 0.66
25 0.28
3 -0.43
34 0.4
35 0.37
4 -0.53
44 0.45
48 0.36
49 0.36
5 -0.57
6 -0.57
7 -0.57
8 -0.73
9 -0.99

> <PUBCHEM_EFFECTIVE_ROTOR_COUNT>
4

> <PUBCHEM_PHARMACOPHORE_FEATURES>
11
1 1 acceptor
1 1 donor
1 2 acceptor
1 4 donor
1 5 acceptor
1 6 acceptor
1 7 acceptor
1 8 donor
1 9 cation
1 9 donor
6 10 11 12 13 14 15 rings

> <PUBCHEM_HEAVY_ATOM_COUNT>
25

> <PUBCHEM_ATOM_DEF_STEREO_COUNT>
3

> <PUBCHEM_ATOM_UDEF_STEREO_COUNT>
1

> <PUBCHEM_BOND_DEF_STEREO_COUNT>
0

> <PUBCHEM_BOND_UDEF_STEREO_COUNT>
1

> <PUBCHEM_ISOTOPIC_ATOM_COUNT>
0

> <PUBCHEM_COMPONENT_COUNT>
1

> <PUBCHEM_CACTVS_TAUTO_COUNT>
9

> <PUBCHEM_CONFORMER_ID>
061AB12700000002

> <PUBCHEM_MMFF94_ENERGY>
98.5215

> <PUBCHEM_FEATURE_SELFOVERLAP>
55.835

> <PUBCHEM_SHAPE_FINGERPRINT>
10165383 225 15122401011468686900
10646746 165 17489593337606415744
10863032 1 18202568353960324759
11578080 2 18119497029626570397
11640471 11 18337965600381620964
12403814 3 18341906169152883233
12553582 1 17095532747104827978
12596599 1 18333449824506259003
12596602 18 18338503261994761448
12633257 1 17532104812096132385
13134695 92 17240479204462490540
13224815 77 17560813138338778499
13583140 156 17131823240481004014
14081887 123 17847056701353330779
14178342 30 18341043017458646946
14223421 5 17989213620201350063
14289901 80 18343869913340188035
14787075 74 17697879529173013831
16945 1 17628385703845110653
17349148 13 18336542810939569903
17492 89 18342183266941292759
1813 80 17823143333104231566
18186145 218 17130726988759896433
18981168 100 16414936161417545949
20715895 44 18267582395766905309
20739085 24 18186805760102847228
21033648 29 17840302224987872416
23419403 2 17762571382825846333
23526113 38 15864613012825894170
23557571 272 17131276882160262367
23559900 14 17417267449793797860
2748010 2 17397546407305726092
2838139 119 14763760011387761090
5161694 15 14273450383854411179
7097593 13 18194689172132010815

> <PUBCHEM_SHAPE_MULTIPOLES>
463.44
7.68
2.26
2.11
1.66
0.03
-0.32
-1.03
-2.42
-0.33
0.04
-0.37
0.14
-1.95

> <PUBCHEM_SHAPE_SELFOVERLAP>
975.634

> <PUBCHEM_SHAPE_VOLUME>
254.5

> <PUBCHEM_COORDINATE_TYPE>
2
5
10

$$$$
