102435379
  -OEChem-03292013293D

 59 61  0     1  0  0  0  0  0999 V2000
    4.0480   -1.8813    0.6916 O   0  0  0  0  0  0  0  0  0  0  0  0
    2.3084   -2.5181   -1.2450 O   0  0  0  0  0  0  0  0  0  0  0  0
    5.1472    2.5642    0.0954 O   0  0  0  0  0  0  0  0  0  0  0  0
   -5.0985   -1.4862   -1.1976 O   0  0  0  0  0  0  0  0  0  0  0  0
   -4.5895    0.3982    2.6434 O   0  0  0  0  0  0  0  0  0  0  0  0
    2.0146    0.4129   -0.4164 C   0  0  1  0  0  0  0  0  0  0  0  0
    1.8067   -0.8533    0.4867 C   0  0  2  0  0  0  0  0  0  0  0  0
   -0.5047    1.3062   -0.7091 C   0  0  1  0  0  0  0  0  0  0  0  0
    0.9361    1.4925   -0.1424 C   0  0  0  0  0  0  0  0  0  0  0  0
    3.4598    0.8821   -0.0781 C   0  0  2  0  0  0  0  0  0  0  0  0
    3.1114   -1.0091    1.3084 C   0  0  2  0  0  0  0  0  0  0  0  0
    1.3235   -2.1125   -0.2864 C   0  0  1  0  0  0  0  0  0  0  0  0
   -1.3158    0.1102   -0.1870 C   0  0  0  0  0  0  0  0  0  0  0  0
    3.6918    0.3951    1.3504 C   0  0  0  0  0  0  0  0  0  0  0  0
   -1.3446    2.5130   -0.1843 C   0  0  0  0  0  0  0  0  0  0  0  0
   -2.5555    0.6077    0.5489 C   0  0  1  0  0  0  0  0  0  0  0  0
   -2.7624    1.9916   -0.0548 C   0  0  0  0  0  0  0  0  0  0  0  0
    0.0542   -1.8338   -1.1146 C   0  0  0  0  0  0  0  0  0  0  0  0
   -0.5077    1.3818   -2.2509 C   0  0  0  0  0  0  0  0  0  0  0  0
   -1.0694   -1.2021   -0.3558 C   0  0  0  0  0  0  0  0  0  0  0  0
    3.7865    2.3589   -0.2432 C   0  0  0  0  0  0  0  0  0  0  0  0
   -3.8257   -0.2297    0.4329 C   0  0  0  0  0  0  0  0  0  0  0  0
    1.0854   -3.2891    0.6728 C   0  0  0  0  0  0  0  0  0  0  0  0
   -4.2358   -0.3678   -1.0366 C   0  0  0  0  0  0  0  0  0  0  0  0
   -4.9638    0.3683    1.2717 C   0  0  0  0  0  0  0  0  0  0  0  0
    2.0032    0.1614   -1.4815 H   0  0  0  0  0  0  0  0  0  0  0  0
    1.0393   -0.6056    1.2336 H   0  0  0  0  0  0  0  0  0  0  0  0
    0.8819    1.6495    0.9439 H   0  0  0  0  0  0  0  0  0  0  0  0
    1.2862    2.4443   -0.5603 H   0  0  0  0  0  0  0  0  0  0  0  0
    4.1509    0.3241   -0.7280 H   0  0  0  0  0  0  0  0  0  0  0  0
    2.9044   -1.3937    2.3125 H   0  0  0  0  0  0  0  0  0  0  0  0
    4.7549    0.3970    1.6120 H   0  0  0  0  0  0  0  0  0  0  0  0
    3.1477    1.0181    2.0699 H   0  0  0  0  0  0  0  0  0  0  0  0
   -1.2960    3.3889   -0.8408 H   0  0  0  0  0  0  0  0  0  0  0  0
   -0.9983    2.8392    0.8057 H   0  0  0  0  0  0  0  0  0  0  0  0
   -2.2734    0.7176    1.6053 H   0  0  0  0  0  0  0  0  0  0  0  0
   -3.3541    2.6467    0.5924 H   0  0  0  0  0  0  0  0  0  0  0  0
   -3.2301    1.9853   -1.0439 H   0  0  0  0  0  0  0  0  0  0  0  0
   -0.3169   -2.7764   -1.5422 H   0  0  0  0  0  0  0  0  0  0  0  0
    0.3051   -1.2537   -2.0046 H   0  0  0  0  0  0  0  0  0  0  0  0
   -0.1712    2.3677   -2.5935 H   0  0  0  0  0  0  0  0  0  0  0  0
   -1.5101    1.2176   -2.6625 H   0  0  0  0  0  0  0  0  0  0  0  0
    0.1591    0.6544   -2.7159 H   0  0  0  0  0  0  0  0  0  0  0  0
   -1.7399   -1.9261    0.0999 H   0  0  0  0  0  0  0  0  0  0  0  0
    3.1859    2.9859    0.4228 H   0  0  0  0  0  0  0  0  0  0  0  0
    3.6300    2.6781   -1.2784 H   0  0  0  0  0  0  0  0  0  0  0  0
   -3.6349   -1.2268    0.8504 H   0  0  0  0  0  0  0  0  0  0  0  0
    2.0178   -3.6091    1.1494 H   0  0  0  0  0  0  0  0  0  0  0  0
    0.7102   -4.1657    0.1320 H   0  0  0  0  0  0  0  0  0  0  0  0
    0.3657   -3.0355    1.4576 H   0  0  0  0  0  0  0  0  0  0  0  0
    4.8417   -1.9043    1.2529 H   0  0  0  0  0  0  0  0  0  0  0  0
    1.9925   -3.3278   -1.6813 H   0  0  0  0  0  0  0  0  0  0  0  0
   -5.8612   -0.2542    1.1856 H   0  0  0  0  0  0  0  0  0  0  0  0
   -5.2286    1.3815    0.9548 H   0  0  0  0  0  0  0  0  0  0  0  0
   -4.7847    0.5131   -1.3854 H   0  0  0  0  0  0  0  0  0  0  0  0
   -3.3893   -0.5298   -1.7080 H   0  0  0  0  0  0  0  0  0  0  0  0
    5.3327    3.5112   -0.0242 H   0  0  0  0  0  0  0  0  0  0  0  0
   -5.3403    0.7715    3.1358 H   0  0  0  0  0  0  0  0  0  0  0  0
   -5.3423   -1.5273   -2.1380 H   0  0  0  0  0  0  0  0  0  0  0  0
  1 11  1  0  0  0  0
  1 51  1  0  0  0  0
  2 12  1  0  0  0  0
  2 52  1  0  0  0  0
  3 21  1  0  0  0  0
  3 57  1  0  0  0  0
  4 24  1  0  0  0  0
  4 59  1  0  0  0  0
  5 25  1  0  0  0  0
  5 58  1  0  0  0  0
  6  7  1  0  0  0  0
  6  9  1  0  0  0  0
  6 10  1  0  0  0  0
  6 26  1  0  0  0  0
  7 11  1  0  0  0  0
  7 12  1  0  0  0  0
  7 27  1  0  0  0  0
  8  9  1  0  0  0  0
  8 13  1  0  0  0  0
  8 15  1  0  0  0  0
  8 19  1  0  0  0  0
  9 28  1  0  0  0  0
  9 29  1  0  0  0  0
 10 14  1  0  0  0  0
 10 21  1  0  0  0  0
 10 30  1  0  0  0  0
 11 14  1  0  0  0  0
 11 31  1  0  0  0  0
 12 18  1  0  0  0  0
 12 23  1  0  0  0  0
 13 16  1  0  0  0  0
 13 20  2  0  0  0  0
 14 32  1  0  0  0  0
 14 33  1  0  0  0  0
 15 17  1  0  0  0  0
 15 34  1  0  0  0  0
 15 35  1  0  0  0  0
 16 17  1  0  0  0  0
 16 22  1  0  0  0  0
 16 36  1  0  0  0  0
 17 37  1  0  0  0  0
 17 38  1  0  0  0  0
 18 20  1  0  0  0  0
 18 39  1  0  0  0  0
 18 40  1  0  0  0  0
 19 41  1  0  0  0  0
 19 42  1  0  0  0  0
 19 43  1  0  0  0  0
 20 44  1  0  0  0  0
 21 45  1  0  0  0  0
 21 46  1  0  0  0  0
 22 24  1  0  0  0  0
 22 25  1  0  0  0  0
 22 47  1  0  0  0  0
 23 48  1  0  0  0  0
 23 49  1  0  0  0  0
 23 50  1  0  0  0  0
 24 55  1  0  0  0  0
 24 56  1  0  0  0  0
 25 53  1  0  0  0  0
 25 54  1  0  0  0  0
M  END
> <PUBCHEM_COMPOUND_CID>
102435379

> <PUBCHEM_CONFORMER_RMSD>
0.8

> <PUBCHEM_CONFORMER_DIVERSEORDER>
1
11
7
8
10
5
3
9
6
2
4

> <PUBCHEM_MMFF94_PARTIAL_CHARGES>
21
1 -0.68
11 0.28
12 0.28
13 -0.28
16 0.14
18 0.14
2 -0.68
20 -0.29
21 0.28
24 0.28
25 0.28
3 -0.68
4 -0.68
44 0.15
5 -0.68
51 0.4
52 0.4
57 0.4
58 0.4
59 0.4
8 0.14

> <PUBCHEM_EFFECTIVE_ROTOR_COUNT>
5.8

> <PUBCHEM_PHARMACOPHORE_FEATURES>
12
1 1 acceptor
1 1 donor
1 2 acceptor
1 2 donor
1 3 acceptor
1 3 donor
1 4 acceptor
1 4 donor
1 5 acceptor
1 5 donor
5 6 7 10 11 14 rings
5 8 13 15 16 17 rings

> <PUBCHEM_HEAVY_ATOM_COUNT>
25

> <PUBCHEM_ATOM_DEF_STEREO_COUNT>
7

> <PUBCHEM_ATOM_UDEF_STEREO_COUNT>
0

> <PUBCHEM_BOND_DEF_STEREO_COUNT>
1

> <PUBCHEM_BOND_UDEF_STEREO_COUNT>
0

> <PUBCHEM_ISOTOPIC_ATOM_COUNT>
0

> <PUBCHEM_COMPONENT_COUNT>
1

> <PUBCHEM_CACTVS_TAUTO_COUNT>
1

> <PUBCHEM_CONFORMER_ID>
061B0A3300000001

> <PUBCHEM_MMFF94_ENERGY>
92.5528

> <PUBCHEM_FEATURE_SELFOVERLAP>
60.915

> <PUBCHEM_SHAPE_FINGERPRINT>
10090160 65 18261387892508780701
10165383 225 18200882867566317368
10366900 7 18271522104241195033
10493431 412 18267588081723122544
1100329 8 17976820110144395324
11578080 2 17097484302581298508
12403259 118 18263626408242301480
12553582 1 18335714840292782693
12633257 1 18412262800794759267
13140716 1 18049169057562325921
13224815 77 18335704888689826205
13544653 18 18187365424401232781
13583140 156 17605537869568807362
14178342 30 18050271584325611832
14223421 5 18263361386921129300
14289901 80 18271241617217654097
14341114 328 17918280848281640361
14347329 18 13972862523830878891
14787075 74 18272649103617421569
14790565 3 18120942960283801148
14840074 17 18262241135080975605
16945 1 18409733954231358509
17349148 13 18259703393766976735
1813 80 17603883160825605277
20028762 73 18342725326200283670
20261772 1 18412824685511771331
20511986 3 18129926924481947045
20600515 1 16153706522759114101
20626108 58 13767935662393657603
20691752 17 17895482397254118791
20739085 24 18260562103468555140
23557571 272 17023182652840679645
23559900 14 18050000000341981551
23566358 27 18201158758732154670
25222932 49 17168714170601309515
2748010 2 18050278168209555950
350125 39 18409162191485126060
3797600 57 17632856429813916121
392239 28 18260830388616628619
44154327 71 18336543910677849740
458136 41 18272097080234738066
49207404 50 18335707108845098561
5104073 3 18261117318465620777
5283173 99 17898552204261156813
6287921 2 17987525814155633527
6442390 28 17917426583549888526
7064713 232 17989201525953473531
9709674 26 18335702676639432363

> <PUBCHEM_SHAPE_MULTIPOLES>
485.14
9.31
3.09
1.54
4.25
0.73
0.21
-1.6
3.16
-2.69
-0.45
1.25
0.06
-0.55

> <PUBCHEM_SHAPE_SELFOVERLAP>
1007.819

> <PUBCHEM_SHAPE_VOLUME>
276.5

> <PUBCHEM_COORDINATE_TYPE>
2
5
10

$$$$
