REMARK  Name = 102414639
REMARK  8 active torsions:
REMARK  status: ('A' for Active; 'I' for Inactive)
REMARK    1  A    between atoms: C_1  and  C_9
REMARK    2  A    between atoms: C_2  and  C_15
REMARK    3  A    between atoms: C_7  and  O_13
REMARK    4  A    between atoms: C_15  and  C_16
REMARK    5  A    between atoms: C_15  and  O_20
REMARK    6  A    between atoms: C_16  and  O_18
REMARK    7  A    between atoms: O_20  and  C_22
REMARK    8  A    between atoms: C_22  and  C_23
REMARK                            x       y       z     vdW  Elec       q    Type
REMARK                         _______ _______ _______ _____ _____    ______ ____
ROOT
ATOM      1  C   UNL     1       2.043  -1.431   0.479  0.00  0.00    +0.004 C 
ATOM      2  C   UNL     1       0.991  -1.817  -0.257  0.00  0.00    +0.017 C 
ENDROOT
BRANCH   1   9
ATOM      3  O   UNL     1       3.013  -0.310  -1.386  0.00  0.00    -0.344 OA
ATOM      4  O   UNL     1       2.043   1.629   0.825  0.00  0.00    -0.444 OA
ATOM      5  O   UNL     1       0.036   2.673   0.839  0.00  0.00    -0.245 OA
ATOM      6  C   UNL     1       3.320   1.468   0.170  0.00  0.00    +0.229 C 
ATOM      7  C   UNL     1       3.999   0.215   0.690  0.00  0.00    +0.185 C 
ATOM      8  C   UNL     1       3.189   1.118  -1.301  0.00  0.00    +0.180 C 
ATOM      9  C   UNL     1       3.315  -0.898  -0.102  0.00  0.00    +0.168 C 
ATOM     10  C   UNL     1       2.049   1.813  -1.948  0.00  0.00    +0.013 C 
ATOM     11  C   UNL     1       1.070   2.388  -1.247  0.00  0.00    +0.080 C 
ATOM     12  C   UNL     1       1.010   2.263   0.217  0.00  0.00    +0.341 C 
BRANCH   7  13
ATOM     13  O   UNL     1       3.929   0.056   2.089  0.00  0.00    -0.378 OA
ATOM     14  H   UNL     1       4.383   0.796   2.521  0.00  0.00    +0.211 HD
ENDBRANCH   7  13
ENDBRANCH   1   9
BRANCH   2  15
ATOM     15  C   UNL     1      -0.288  -2.354   0.331  0.00  0.00    +0.217 C 
BRANCH  15  16
ATOM     16  C   UNL     1      -0.601  -3.761  -0.200  0.00  0.00    +0.155 C 
ATOM     17  C   UNL     1      -1.910  -4.311   0.359  0.00  0.00    +0.036 C 
BRANCH  16  18
ATOM     18  O   UNL     1      -0.709  -3.704  -1.621  0.00  0.00    -0.380 OA
ATOM     19  H   UNL     1       0.117  -3.356  -1.994  0.00  0.00    +0.211 HD
ENDBRANCH  16  18
ENDBRANCH  15  16
BRANCH  15  20
ATOM     20  O   UNL     1      -1.348  -1.471  -0.028  0.00  0.00    -0.442 OA
BRANCH  20  22
ATOM     21  O   UNL     1      -0.984  -0.228   1.875  0.00  0.00    -0.245 OA
ATOM     22  C   UNL     1      -1.588  -0.450   0.837  0.00  0.00    +0.341 C 
BRANCH  22  23
ATOM     23  C   UNL     1      -2.710   0.393   0.352  0.00  0.00    +0.076 C 
ATOM     24  C   UNL     1      -3.529   1.058   1.265  0.00  0.00    +0.006 C 
ATOM     25  C   UNL     1      -2.945   0.521  -1.017  0.00  0.00    +0.006 C 
ATOM     26  C   UNL     1      -4.582   1.850   0.809  0.00  0.00    +0.000 C 
ATOM     27  C   UNL     1      -3.998   1.313  -1.473  0.00  0.00    +0.000 C 
ATOM     28  C   UNL     1      -4.817   1.978  -0.560  0.00  0.00    +0.000 C 
ENDBRANCH  22  23
ENDBRANCH  20  22
ENDBRANCH  15  20
ENDBRANCH   2  15
TORSDOF 8
