REMARK  Name = 10245817
REMARK  4 active torsions:
REMARK  status: ('A' for Active; 'I' for Inactive)
REMARK    1  A    between atoms: C_10  and  C_23
REMARK    2  A    between atoms: C_11  and  O_18
REMARK    3  A    between atoms: C_14  and  O_20
REMARK    4  A    between atoms: C_23  and  O_24
REMARK                            x       y       z     vdW  Elec       q    Type
REMARK                         _______ _______ _______ _____ _____    ______ ____
ROOT
ATOM      1  S   UNL     1      -1.298   2.864  -0.181  0.00  0.00    -0.081 S 
ATOM      2  O   UNL     1       3.124  -1.351   0.130  0.00  0.00    -0.286 OA
ATOM      3  C   UNL     1       0.601   1.158  -0.049  0.00  0.00    +0.013 A 
ATOM      4  C   UNL     1      -0.598   0.394  -0.114  0.00  0.00    +0.013 A 
ATOM      5  C   UNL     1      -0.527  -1.061  -0.095  0.00  0.00    +0.007 C 
ATOM      6  C   UNL     1       1.906   0.647   0.035  0.00  0.00    +0.073 C 
ATOM      7  C   UNL     1       0.758  -1.662  -0.011  0.00  0.00    +0.073 C 
ATOM      8  C   UNL     1       0.389   2.529  -0.076  0.00  0.00    +0.030 A 
ATOM      9  C   UNL     1       2.018  -0.833   0.057  0.00  0.00    +0.201 C 
ATOM     10  C   UNL     1      -1.712   1.195  -0.189  0.00  0.00    +0.105 A 
ATOM     11  C   UNL     1       2.996   1.513   0.092  0.00  0.00    +0.137 C 
ATOM     12  C   UNL     1       1.476   3.420  -0.019  0.00  0.00    +0.010 C 
ATOM     13  C   UNL     1      -1.664  -1.874  -0.155  0.00  0.00    +0.000 C 
ATOM     14  C   UNL     1       0.875  -3.056   0.010  0.00  0.00    +0.137 C 
ATOM     15  C   UNL     1       2.773   2.889   0.065  0.00  0.00    +0.037 C 
ATOM     16  C   UNL     1      -1.531  -3.264  -0.133  0.00  0.00    +0.003 C 
ATOM     17  C   UNL     1      -0.269  -3.851  -0.051  0.00  0.00    +0.037 C 
ENDROOT
BRANCH  11  18
ATOM     18  O   UNL     1       4.278   1.064   0.175  0.00  0.00    -0.505 OA
ATOM     19  H   UNL     1       4.452   0.144   0.195  0.00  0.00    +0.292 HD
ENDBRANCH  11  18
BRANCH  14  20
ATOM     20  O   UNL     1       2.075  -3.699   0.088  0.00  0.00    -0.505 OA
ATOM     21  H   UNL     1       2.870  -3.205   0.130  0.00  0.00    +0.292 HD
ENDBRANCH  14  20
BRANCH  10  23
ATOM     22  O   UNL     1      -3.771   0.744  -1.314  0.00  0.00    -0.244 OA
ATOM     23  C   UNL     1      -3.108   0.904  -0.269  0.00  0.00    +0.347 C 
BRANCH  23  24
ATOM     24  O   UNL     1      -3.695   0.810   0.978  0.00  0.00    -0.441 OA
ATOM     25  C   UNL     1      -5.096   0.520   1.024  0.00  0.00    +0.256 C 
ENDBRANCH  23  24
ENDBRANCH  10  23
TORSDOF 4
