REMARK  Name = 10249185
REMARK  5 active torsions:
REMARK  status: ('A' for Active; 'I' for Inactive)
REMARK    1  A    between atoms: C3*_2  and  O3*_16
REMARK    2  A    between atoms: C4*_3  and  C5*_20
REMARK    3  A    between atoms: C2*_4  and  O2*_18
REMARK    4  A    between atoms: C1*_5  and  N1_7
REMARK    5  A    between atoms: C5*_20  and  O5*_21
REMARK                            x       y       z     vdW  Elec       q    Type
REMARK                         _______ _______ _______ _____ _____    ______ ____
ROOT
ATOM      1  O4* C   A   1       0.910   0.387   0.612  0.00  0.00    -0.332 OA
ATOM      2  C3* C   A   1       1.953  -1.307  -0.670  0.00  0.00    +0.171 C 
ATOM      3  C4* C   A   1       2.055   0.161  -0.244  0.00  0.00    +0.175 C 
ATOM      4  C2* C   A   1       0.452  -1.504  -0.745  0.00  0.00    +0.188 C 
ATOM      5  C1* C   A   1      -0.028  -0.689   0.444  0.00  0.00    +0.236 C 
ENDROOT
BRANCH   5   7
ATOM      6  O2  C   A   1      -2.443  -1.875   1.280  0.00  0.00    -0.193 OA
ATOM      7  N1  C   A   1      -1.337  -0.138   0.238  0.00  0.00    -0.178 N 
ATOM      8  N3  C   A   1      -3.739  -0.204   0.457  0.00  0.00    -0.306 NA
ATOM      9  N4  C   A   1      -5.062   1.511  -0.391  0.00  0.00    -0.332 N 
ATOM     10  C6  C   A   1      -1.452   1.075  -0.424  0.00  0.00    +0.083 C 
ATOM     11  C2  C   A   1      -2.509  -0.795   0.690  0.00  0.00    +0.276 C 
ATOM     12  C5  C   A   1      -2.625   1.659  -0.659  0.00  0.00    +0.065 C 
ATOM     13  C4  C   A   1      -3.830   0.940  -0.169  0.00  0.00    +0.193 C 
ATOM     14  H41 C   A   1      -5.878   1.058  -0.077  0.00  0.00    +0.145 HD
ATOM     15  H42 C   A   1      -5.128   2.373  -0.862  0.00  0.00    +0.145 HD
ENDBRANCH   5   7
BRANCH   2  16
ATOM     16  O3* C   A   1       2.485  -2.138   0.365  0.00  0.00    -0.379 OA
ATOM     17  H3* C   A   1       3.445  -2.015   0.417  0.00  0.00    +0.211 HD
ENDBRANCH   2  16
BRANCH   4  18
ATOM     18  O2* C   A   1       0.065  -2.860  -0.643  0.00  0.00    -0.378 OA
ATOM     19  H2* C   A   1       0.387  -3.348  -1.416  0.00  0.00    +0.211 HD
ENDBRANCH   4  18
BRANCH   3  20
ATOM     20  C5* C   A   1       1.928   1.122  -1.430  0.00  0.00    +0.169 C 
BRANCH  20  21
ATOM     21  O5* C   A   1       2.978   0.850  -2.337  0.00  0.00    -0.379 OA
ATOM     22  H5* C   A   1       2.913   1.450  -3.096  0.00  0.00    +0.211 HD
ENDBRANCH  20  21
ENDBRANCH   3  20
TORSDOF 5
REMARK  Name = 10249185
REMARK  5 active torsions:
REMARK  status: ('A' for Active; 'I' for Inactive)
REMARK    1  A    between atoms: C3*_2  and  O3*_16
REMARK    2  A    between atoms: C4*_3  and  C5*_20
REMARK    3  A    between atoms: C2*_4  and  O2*_18
REMARK    4  A    between atoms: C1*_5  and  N1_7
REMARK    5  A    between atoms: C5*_20  and  O5*_21
REMARK                            x       y       z     vdW  Elec       q    Type
REMARK                         _______ _______ _______ _____ _____    ______ ____
ROOT
ATOM      1  N   UNL     1       3.405   1.292   1.233  0.00  0.00    +0.000 NA
ATOM      2  N   UNL     1       3.425   2.107   2.030  0.00  0.00    +0.000 NA
ENDROOT
TORSDOF 0
