REMARK  Name = 102486005
REMARK  10 active torsions:
REMARK  status: ('A' for Active; 'I' for Inactive)
REMARK    1  A    between atoms: C_3  and  C_14
REMARK    2  A    between atoms: C_4  and  C_23
REMARK    3  A    between atoms: C_15  and  C_16
REMARK    4  A    between atoms: C_16  and  O_17
REMARK    5  A    between atoms: C_16  and  C_19
REMARK    6  A    between atoms: C_19  and  O_21
REMARK    7  A    between atoms: C_23  and  C_26
REMARK    8  A    between atoms: N_25  and  C_28
REMARK    9  A    between atoms: C_28  and  C_29
REMARK   10  A    between atoms: C_29  and  S_30
REMARK                            x       y       z     vdW  Elec       q    Type
REMARK                         _______ _______ _______ _____ _____    ______ ____
ROOT
ATOM      1  C   UNL     1      -0.377  -1.463  -0.092  0.00  0.00    +0.004 C 
ATOM      2  C   UNL     1      -1.842  -0.973  -0.441  0.00  0.00    +0.004 C 
ATOM      3  C   UNL     1      -3.029  -1.754   0.230  0.00  0.00    +0.018 C 
ATOM      4  C   UNL     1       0.620  -0.335  -0.594  0.00  0.00    +0.027 C 
ATOM      5  C   UNL     1      -0.262  -1.634   1.444  0.00  0.00    +0.000 C 
ATOM      6  C   UNL     1      -1.994  -0.759  -1.967  0.00  0.00    +0.005 C 
ATOM      7  C   UNL     1      -2.743  -1.952   1.739  0.00  0.00    +0.004 C 
ATOM      8  C   UNL     1      -1.359  -2.508   2.043  0.00  0.00    +0.000 C 
ATOM      9  C   UNL     1       0.007  -2.809  -0.761  0.00  0.00    +0.000 C 
ATOM     10  C   UNL     1      -0.977   0.256  -2.495  0.00  0.00    +0.022 C 
ATOM     11  C   UNL     1       0.433  -0.102  -2.094  0.00  0.00    -0.044 C 
ATOM     12  C   UNL     1      -3.368  -3.099  -0.434  0.00  0.00    +0.004 C 
ATOM     13  C   UNL     1       1.394  -0.203  -3.027  0.00  0.00    -0.009 C 
ENDROOT
BRANCH   3  14
ATOM     14  C   UNL     1      -4.305  -0.929   0.155  0.00  0.00    -0.029 C 
ATOM     15  C   UNL     1      -4.433   0.298   0.682  0.00  0.00    +0.000 C 
BRANCH  15  16
ATOM     16  C   UNL     1      -5.697   1.113   0.605  0.00  0.00    +0.159 C 
BRANCH  16  17
ATOM     17  O   UNL     1      -6.161   1.341   1.935  0.00  0.00    -0.378 OA
ATOM     18  H   UNL     1      -6.316   0.490   2.374  0.00  0.00    +0.211 HD
ENDBRANCH  16  17
BRANCH  16  19
ATOM     19  C   UNL     1      -5.454   2.463  -0.084  0.00  0.00    +0.141 C 
ATOM     20  C   UNL     1      -6.717   3.318  -0.143  0.00  0.00    +0.035 C 
BRANCH  19  21
ATOM     21  O   UNL     1      -4.460   3.180   0.646  0.00  0.00    -0.382 OA
ATOM     22  H   UNL     1      -3.648   2.651   0.693  0.00  0.00    +0.210 HD
ENDBRANCH  19  21
ENDBRANCH  16  19
ENDBRANCH  15  16
ENDBRANCH   3  14
BRANCH   4  23
ATOM     23  C   UNL     1       2.083  -0.541  -0.165  0.00  0.00    +0.089 C 
BRANCH  23  26
ATOM     24  O   UNL     1       2.513   1.814  -0.518  0.00  0.00    -0.275 OA
ATOM     25  N   UNL     1       4.249   0.283  -0.730  0.00  0.00    -0.303 N 
ATOM     26  C   UNL     1       2.937   0.662  -0.483  0.00  0.00    +0.223 C 
ATOM     27  H   UNL     1       4.480  -0.672  -0.675  0.00  0.00    +0.149 HD
BRANCH  25  28
ATOM     28  C   UNL     1       5.293   1.226  -1.064  0.00  0.00    +0.115 C 
BRANCH  28  29
ATOM     29  C   UNL     1       6.006   1.750   0.168  0.00  0.00    +0.179 C 
BRANCH  29  30
ATOM     30  S   UNL     1       6.732   0.455   1.124  0.00  0.00    +0.024 S 
ATOM     31  O   UNL     1       7.535   1.400   2.184  0.00  0.00    -0.069 OA
ATOM     32  O   UNL     1       7.698  -0.251   0.303  0.00  0.00    -0.069 OA
ATOM     33  O   UNL     1       5.679  -0.249   1.833  0.00  0.00    -0.069 OA
ENDBRANCH  29  30
ENDBRANCH  28  29
ENDBRANCH  25  28
ENDBRANCH  23  26
ENDBRANCH   4  23
TORSDOF 10
