102471029
  -OEChem-03292013293D

 45 48  0     0  0  0  0  0  0999 V2000
    3.6263    2.6792    0.5291 O   0  0  0  0  0  0  0  0  0  0  0  0
    5.5884    1.8457   -0.5946 O   0  0  0  0  0  0  0  0  0  0  0  0
   -3.2332    2.7435   -1.7240 O   0  0  0  0  0  0  0  0  0  0  0  0
   -5.3839    0.0127    1.3554 O   0  0  0  0  0  0  0  0  0  0  0  0
   -1.9815    1.2420   -0.4661 N   0  0  0  0  0  0  0  0  0  0  0  0
   -4.3430    1.3901   -0.2073 N   0  0  0  0  0  0  0  0  0  0  0  0
   -0.7362   -0.3485    0.8331 N   0  0  0  0  0  0  0  0  0  0  0  0
    0.7720   -3.1197   -0.5758 N   0  0  0  0  0  0  0  0  0  0  0  0
   -1.1545   -1.9250   -0.8825 N   0  0  0  0  0  0  0  0  0  0  0  0
   -3.0831   -1.1826    2.0701 N   0  0  0  0  0  0  0  0  0  0  0  0
   -0.7824   -3.7922   -2.2928 N   0  0  0  0  0  0  0  0  0  0  0  0
    1.8425   -1.8731    1.3116 C   0  0  0  0  0  0  0  0  0  0  0  0
    2.8699   -0.9019    0.7877 C   0  0  0  0  0  0  0  0  0  0  0  0
    0.8063   -2.1707    0.3013 C   0  0  0  0  0  0  0  0  0  0  0  0
   -1.9365    0.2315    0.4941 C   0  0  0  0  0  0  0  0  0  0  0  0
    2.6767    0.4713    0.9568 C   0  0  0  0  0  0  0  0  0  0  0  0
    3.6440    1.3201    0.4594 C   0  0  0  0  0  0  0  0  0  0  0  0
   -0.4246   -1.3772    0.1323 C   0  0  0  0  0  0  0  0  0  0  0  0
    4.7644    0.8443   -0.1825 C   0  0  0  0  0  0  0  0  0  0  0  0
    4.0147   -1.3880    0.1319 C   0  0  0  0  0  0  0  0  0  0  0  0
   -3.0490   -0.2011    1.1170 C   0  0  0  0  0  0  0  0  0  0  0  0
   -3.1836    1.8571   -0.8643 C   0  0  0  0  0  0  0  0  0  0  0  0
    4.9793   -0.5067   -0.3624 C   0  0  0  0  0  0  0  0  0  0  0  0
   -4.3690    0.4007    0.7764 C   0  0  0  0  0  0  0  0  0  0  0  0
   -0.7399    1.6971   -1.0969 C   0  0  0  0  0  0  0  0  0  0  0  0
    4.8616    3.0053   -0.1402 C   0  0  0  0  0  0  0  0  0  0  0  0
   -5.6180    1.9914   -0.5880 C   0  0  0  0  0  0  0  0  0  0  0  0
   -0.4275   -2.9454   -1.2784 C   0  0  0  0  0  0  0  0  0  0  0  0
    2.3307   -2.8115    1.6010 H   0  0  0  0  0  0  0  0  0  0  0  0
    1.3737   -1.4819    2.2218 H   0  0  0  0  0  0  0  0  0  0  0  0
    1.8029    0.8646    1.4643 H   0  0  0  0  0  0  0  0  0  0  0  0
    4.1594   -2.4577    0.0010 H   0  0  0  0  0  0  0  0  0  0  0  0
    5.8629   -0.8775   -0.8692 H   0  0  0  0  0  0  0  0  0  0  0  0
   -0.3279    0.8859   -1.7046 H   0  0  0  0  0  0  0  0  0  0  0  0
   -0.0236    1.9854   -0.3212 H   0  0  0  0  0  0  0  0  0  0  0  0
   -0.9029    2.5616   -1.7458 H   0  0  0  0  0  0  0  0  0  0  0  0
    5.4974    3.5692    0.5520 H   0  0  0  0  0  0  0  0  0  0  0  0
    4.6350    3.6389   -1.0055 H   0  0  0  0  0  0  0  0  0  0  0  0
   -5.5802    3.0606   -0.3559 H   0  0  0  0  0  0  0  0  0  0  0  0
   -5.7508    1.8812   -1.6691 H   0  0  0  0  0  0  0  0  0  0  0  0
   -6.4693    1.5403   -0.0733 H   0  0  0  0  0  0  0  0  0  0  0  0
   -2.2250   -1.6352    2.3592 H   0  0  0  0  0  0  0  0  0  0  0  0
   -3.9649   -1.4493    2.4899 H   0  0  0  0  0  0  0  0  0  0  0  0
   -0.1876   -4.5678   -2.5635 H   0  0  0  0  0  0  0  0  0  0  0  0
   -1.6501   -3.6683   -2.8029 H   0  0  0  0  0  0  0  0  0  0  0  0
  1 17  1  0  0  0  0
  1 26  1  0  0  0  0
  2 19  1  0  0  0  0
  2 26  1  0  0  0  0
  3 22  2  0  0  0  0
  4 24  2  0  0  0  0
  5 15  1  0  0  0  0
  5 22  1  0  0  0  0
  5 25  1  0  0  0  0
  6 22  1  0  0  0  0
  6 24  1  0  0  0  0
  6 27  1  0  0  0  0
  7 15  1  0  0  0  0
  7 18  2  3  0  0  0
  8 14  2  0  0  0  0
  8 28  1  0  0  0  0
  9 18  1  0  0  0  0
  9 28  2  0  0  0  0
 10 21  1  0  0  0  0
 10 42  1  0  0  0  0
 10 43  1  0  0  0  0
 11 28  1  0  0  0  0
 11 44  1  0  0  0  0
 11 45  1  0  0  0  0
 12 13  1  0  0  0  0
 12 14  1  0  0  0  0
 12 29  1  0  0  0  0
 12 30  1  0  0  0  0
 13 16  2  0  0  0  0
 13 20  1  0  0  0  0
 14 18  1  0  0  0  0
 15 21  2  0  0  0  0
 16 17  1  0  0  0  0
 16 31  1  0  0  0  0
 17 19  2  0  0  0  0
 19 23  1  0  0  0  0
 20 23  2  0  0  0  0
 20 32  1  0  0  0  0
 21 24  1  0  0  0  0
 23 33  1  0  0  0  0
 25 34  1  0  0  0  0
 25 35  1  0  0  0  0
 25 36  1  0  0  0  0
 26 37  1  0  0  0  0
 26 38  1  0  0  0  0
 27 39  1  0  0  0  0
 27 40  1  0  0  0  0
 27 41  1  0  0  0  0
M  END
> <PUBCHEM_COMPOUND_CID>
102471029

> <PUBCHEM_CONFORMER_RMSD>
0.8

> <PUBCHEM_CONFORMER_DIVERSEORDER>
2
38
26
29
14
41
40
37
33
28
13
5
32
36
30
34
44
12
18
16
31
23
24
43
11
15
19
20
7
27
42
1
25
39
35
21
6
8
17
22
3
10
4
9

> <PUBCHEM_MMFF94_PARTIAL_CHARGES>
35
1 -0.36
10 -0.9
11 -0.85
12 0.2
13 -0.14
14 0.39
15 0.28
16 -0.15
17 0.08
18 0.66
19 0.08
2 -0.36
20 -0.15
21 0.11
22 0.69
23 -0.15
24 0.62
25 0.3
26 0.56
27 0.3
28 0.71
3 -0.57
31 0.15
32 0.15
33 0.15
4 -0.57
42 0.4
43 0.4
44 0.4
45 0.4
5 -0.47
6 -0.42
7 -0.62
8 -0.66
9 -0.66

> <PUBCHEM_EFFECTIVE_ROTOR_COUNT>
3.6

> <PUBCHEM_PHARMACOPHORE_FEATURES>
13
1 1 acceptor
1 10 cation
1 10 donor
1 11 donor
1 2 acceptor
1 3 acceptor
1 4 acceptor
1 8 acceptor
4 8 9 11 28 cation
5 1 2 17 19 26 rings
5 8 9 14 18 28 rings
6 13 16 17 19 20 23 rings
6 5 6 15 21 22 24 rings

> <PUBCHEM_HEAVY_ATOM_COUNT>
28

> <PUBCHEM_ATOM_DEF_STEREO_COUNT>
0

> <PUBCHEM_ATOM_UDEF_STEREO_COUNT>
0

> <PUBCHEM_BOND_DEF_STEREO_COUNT>
0

> <PUBCHEM_BOND_UDEF_STEREO_COUNT>
1

> <PUBCHEM_ISOTOPIC_ATOM_COUNT>
0

> <PUBCHEM_COMPONENT_COUNT>
1

> <PUBCHEM_CACTVS_TAUTO_COUNT>
60

> <PUBCHEM_CONFORMER_ID>
061B957500000002

> <PUBCHEM_MMFF94_ENERGY>
80.7419

> <PUBCHEM_FEATURE_SELFOVERLAP>
66.128

> <PUBCHEM_SHAPE_FINGERPRINT>
10763959 59 18263366897875613150
10871710 139 18120931960782209838
11115154 58 17194301047927236087
11488393 25 17983304728687144694
11578080 2 15503758729633958319
11595378 159 15430313568885550181
11796584 16 12319449952930631972
12160290 23 17772162427119112031
12403259 118 18190161426129541202
12925494 130 18189893111408502549
13402501 40 18260549991560624969
13583140 156 17533479154518379251
13911987 19 18202284701825871153
14251764 38 18119242861998842009
1454969 45 18341893048133444575
14790565 3 18341612646143677135
14840074 17 18409448128843180351
151778 21 18413387618738809162
15575132 122 18335420200977462093
15961568 22 18040438750385626573
20465049 17 18337398132755769302
21033648 29 18411692218822012344
21756936 100 18042404798072977474
21864079 5 18261100916264448480
2260408 40 18053140326807170083
22907989 373 17915726777048763246
23227448 37 18338236067499498686
23559900 14 17755292375622139843
238 59 17540775488284751828
26353 1 16835405058998852966
3298306 158 18336260167631566984
3388396 114 16825591999594674516
340366 18 18201157664254323054
345986 75 12252188428708203863
3729539 64 17841742654599183974
469060 322 16879055541688053758
5048184 11 18339074999393396784
5104073 3 17822294518374840161
5223283 242 16686532847457220893
5252454 2 18341045324177669752
57527293 21 18410301289890546539
7288768 16 17386849585761226712
7808743 9 18190180286053981384

> <PUBCHEM_SHAPE_MULTIPOLES>
517.88
11.76
3.83
1.47
0.73
1.13
0.17
-9.88
-0.84
1.22
2.07
-1.23
0.78
0.68

> <PUBCHEM_SHAPE_SELFOVERLAP>
1147.276

> <PUBCHEM_SHAPE_VOLUME>
275.9

> <PUBCHEM_COORDINATE_TYPE>
2
5
10

$$$$
