REMARK  Name = 102468982
REMARK  7 active torsions:
REMARK  status: ('A' for Active; 'I' for Inactive)
REMARK    1  A    between atoms: N_3  and  C_33
REMARK    2  A    between atoms: C_6  and  O_25
REMARK    3  A    between atoms: C_11  and  O_35
REMARK    4  A    between atoms: C_13  and  O_27
REMARK    5  A    between atoms: C_15  and  O_29
REMARK    6  A    between atoms: C_19  and  O_31
REMARK    7  A    between atoms: O_35  and  C_37
REMARK                            x       y       z     vdW  Elec       q    Type
REMARK                         _______ _______ _______ _____ _____    ______ ____
ROOT
ATOM      1  O   UNL     1       0.099  -1.390  -2.177  0.00  0.00    -0.328 OA
ATOM      2  O   UNL     1       2.138  -1.612  -1.025  0.00  0.00    -0.329 OA
ATOM      3  N   UNL     1      -2.217   0.475  -1.410  0.00  0.00    +0.390 N 
ATOM      4  C   UNL     1      -0.863   0.777   0.675  0.00  0.00    +0.036 C 
ATOM      5  C   UNL     1       0.047  -0.686  -0.940  0.00  0.00    +0.138 C 
ATOM      6  C   UNL     1       0.631   1.046   1.216  0.00  0.00    +0.093 C 
ATOM      7  C   UNL     1      -0.845   0.585  -0.879  0.00  0.00    -0.022 C 
ATOM      8  C   UNL     1      -1.381  -0.662   1.061  0.00  0.00    +0.043 C 
ATOM      9  C   UNL     1       1.528  -0.337  -0.722  0.00  0.00    +0.126 C 
ATOM     10  C   UNL     1       1.760   0.084   0.733  0.00  0.00    +0.079 C 
ATOM     11  C   UNL     1      -0.570  -1.621   0.152  0.00  0.00    +0.194 C 
ATOM     12  C   UNL     1      -2.893  -0.794   0.680  0.00  0.00    -0.015 C 
ATOM     13  C   UNL     1      -1.825   1.901   1.217  0.00  0.00    +0.116 C 
ATOM     14  C   UNL     1       1.213   2.449   0.870  0.00  0.00    +0.032 C 
ATOM     15  C   UNL     1       3.034   0.918   0.913  0.00  0.00    +0.122 C 
ATOM     16  C   UNL     1       2.602   2.215   0.251  0.00  0.00    +0.057 C 
ATOM     17  C   UNL     1       2.139   0.652  -1.766  0.00  0.00    +0.059 C 
ATOM     18  C   UNL     1      -3.043  -0.611  -0.864  0.00  0.00    -0.077 C 
ATOM     19  C   UNL     1       2.486   2.065  -1.275  0.00  0.00    +0.115 C 
ATOM     20  C   UNL     1      -3.713   0.257   1.453  0.00  0.00    +0.001 C 
ATOM     21  C   UNL     1      -3.327   1.672   1.099  0.00  0.00    +0.029 C 
ATOM     22  C   UNL     1      -3.457  -2.172   1.094  0.00  0.00    -0.002 C 
ATOM     23  C   UNL     1       1.323  -2.140  -2.088  0.00  0.00    +0.294 C 
ATOM     24  H   UNL     1      -2.653   1.325  -1.052  0.00  0.00    -0.080 HD
ENDROOT
BRANCH   6  25
ATOM     25  O   UNL     1       0.621   0.917   2.651  0.00  0.00    -0.387 OA
ATOM     26  H   UNL     1       0.262   0.049   2.895  0.00  0.00    +0.210 HD
ENDBRANCH   6  25
BRANCH  13  27
ATOM     27  O   UNL     1      -1.576   3.170   0.617  0.00  0.00    -0.354 OA
ATOM     28  C   UNL     1      -1.888   4.232   1.504  0.00  0.00    +0.174 C 
ENDBRANCH  13  27
BRANCH  15  29
ATOM     29  O   UNL     1       4.180   0.344   0.320  0.00  0.00    -0.353 OA
ATOM     30  C   UNL     1       4.826  -0.577   1.195  0.00  0.00    +0.174 C 
ENDBRANCH  15  29
BRANCH  19  31
ATOM     31  O   UNL     1       3.728   2.457  -1.873  0.00  0.00    -0.384 OA
ATOM     32  H   UNL     1       3.963   3.350  -1.574  0.00  0.00    +0.210 HD
ENDBRANCH  19  31
BRANCH   3  33
ATOM     33  C   UNL     1      -2.280   0.524  -2.865  0.00  0.00    -0.077 C 
ATOM     34  C   UNL     1      -3.704   0.751  -3.346  0.00  0.00    -0.025 C 
ENDBRANCH   3  33
BRANCH  11  35
ATOM     35  O   UNL     1       0.353  -2.385   0.909  0.00  0.00    -0.450 OA
BRANCH  35  37
ATOM     36  O   UNL     1      -0.608  -4.342   0.145  0.00  0.00    -0.250 OA
ATOM     37  C   UNL     1       0.224  -3.745   0.815  0.00  0.00    +0.318 C 
ATOM     38  C   UNL     1       1.259  -4.419   1.663  0.00  0.00    +0.121 C 
ENDBRANCH  35  37
ENDBRANCH  11  35
TORSDOF 7
