REMARK  Name = 102470225
REMARK  11 active torsions:
REMARK  status: ('A' for Active; 'I' for Inactive)
REMARK    1  A    between atoms: C_2  and  S_8
REMARK    2  A    between atoms: C_4  and  C_26
REMARK    3  A    between atoms: S_8  and  C_15
REMARK    4  A    between atoms: C_12  and  C_22
REMARK    5  A    between atoms: C_16  and  C_19
REMARK    6  A    between atoms: C_19  and  O_20
REMARK    7  A    between atoms: C_22  and  O_24
REMARK    8  A    between atoms: C_26  and  C_29
REMARK    9  A    between atoms: N_28  and  C_29
REMARK   10  A    between atoms: N_28  and  S_32
REMARK   11  A    between atoms: S_32  and  N_35
REMARK                            x       y       z     vdW  Elec       q    Type
REMARK                         _______ _______ _______ _____ _____    ______ ____
ROOT
ATOM      1  N   UNL     1       1.828  -1.345   2.156  0.00  0.00    +0.386 N 
ATOM      2  C   UNL     1       0.932  -0.641   0.110  0.00  0.00    +0.028 C 
ATOM      3  C   UNL     1       2.442  -0.550  -0.029  0.00  0.00    -0.012 C 
ATOM      4  C   UNL     1       2.948  -1.309   1.201  0.00  0.00    -0.054 C 
ATOM      5  C   UNL     1       0.746  -0.520   1.612  0.00  0.00    -0.070 C 
ATOM      6  H   UNL     1       2.128  -0.973   3.057  0.00  0.00    -0.084 HD
ATOM      7  H   UNL     1       1.509  -2.305   2.293  0.00  0.00    -0.084 HD
ENDROOT
BRANCH   2   8
ATOM      8  S   UNL     1       0.061   0.653  -0.810  0.00  0.00    -0.120 S 
BRANCH   8  15
ATOM      9  O   UNL     1      -5.432   1.859  -0.144  0.00  0.00    -0.274 OA
ATOM     10  N   UNL     1      -3.620   0.482   0.473  0.00  0.00    -0.254 N 
ATOM     11  C   UNL     1      -3.589  -0.916  -0.002  0.00  0.00    +0.095 C 
ATOM     12  C   UNL     1      -4.990  -0.612  -0.645  0.00  0.00    +0.123 C 
ATOM     13  C   UNL     1      -2.219  -1.040  -0.704  0.00  0.00    +0.049 C 
ATOM     14  C   UNL     1      -4.821   0.817  -0.070  0.00  0.00    +0.233 C 
ATOM     15  C   UNL     1      -1.562   0.290  -0.379  0.00  0.00    +0.024 C 
ATOM     16  C   UNL     1      -2.423   1.098   0.255  0.00  0.00    +0.132 C 
ATOM     17  C   UNL     1      -2.375  -1.311  -2.195  0.00  0.00    +0.007 C 
BRANCH  16  19
ATOM     18  O   UNL     1      -1.500   3.282   0.088  0.00  0.00    -0.244 OA
ATOM     19  C   UNL     1      -2.222   2.484   0.665  0.00  0.00    +0.352 C 
BRANCH  19  20
ATOM     20  O   UNL     1      -2.951   2.744   1.773  0.00  0.00    -0.476 OA
ATOM     21  H   UNL     1      -3.480   2.072   2.154  0.00  0.00    +0.295 HD
ENDBRANCH  19  20
ENDBRANCH  16  19
BRANCH  12  22
ATOM     22  C   UNL     1      -6.169  -1.396  -0.101  0.00  0.00    +0.121 C 
ATOM     23  C   UNL     1      -7.456  -1.007  -0.816  0.00  0.00    +0.032 C 
BRANCH  22  24
ATOM     24  O   UNL     1      -5.944  -2.791  -0.285  0.00  0.00    -0.384 OA
ATOM     25  H   UNL     1      -5.125  -3.048   0.167  0.00  0.00    +0.210 HD
ENDBRANCH  22  24
ENDBRANCH  12  22
ENDBRANCH   8  15
ENDBRANCH   2   8
BRANCH   4  26
ATOM     26  C   UNL     1       4.201  -0.685   1.800  0.00  0.00    +0.041 C 
BRANCH  26  28
ATOM     27  N   UNL     1       6.126  -1.822   0.794  0.00  0.00    -0.387 N 
ATOM     28  C   UNL     1       5.332  -0.699   0.784  0.00  0.00    +0.119 C 
ATOM     29  H   UNL     1       6.877  -1.899   0.162  0.00  0.00    +0.157 HD
ATOM     30  H   UNL     1       5.943  -2.548   1.432  0.00  0.00    +0.157 HD
BRANCH  28  31
ATOM     31  N   UNL     1       5.430   0.356   0.031  0.00  0.00    -0.074 NA
BRANCH  31  32
ATOM     32  S   UNL     1       6.586   0.504  -1.113  0.00  0.00    +0.127 S 
ATOM     33  O   UNL     1       6.387  -0.518  -2.128  0.00  0.00    -0.137 OA
ATOM     34  O   UNL     1       7.870   0.563  -0.432  0.00  0.00    -0.137 OA
BRANCH  32  35
ATOM     35  N   UNL     1       6.383   2.030  -1.888  0.00  0.00    -0.189 NA
ATOM     36  H   UNL     1       7.097   2.143  -2.608  0.00  0.00    +0.146 HD
ATOM     37  H   UNL     1       6.475   2.776  -1.198  0.00  0.00    +0.146 HD
ENDBRANCH  32  35
ENDBRANCH  31  32
ENDBRANCH  28  31
ENDBRANCH  26  28
ENDBRANCH   4  26
TORSDOF 11
