REMARK  Name = 102410351
REMARK  7 active torsions:
REMARK  status: ('A' for Active; 'I' for Inactive)
REMARK    1  A    between atoms: C_6  and  C_30
REMARK    2  A    between atoms: C_11  and  O_26
REMARK    3  A    between atoms: C_13  and  O_28
REMARK    4  A    between atoms: C_30  and  C_32
REMARK    5  A    between atoms: C_32  and  C_33
REMARK    6  A    between atoms: C_33  and  C_35
REMARK    7  A    between atoms: C_35  and  O_36
REMARK                            x       y       z     vdW  Elec       q    Type
REMARK                         _______ _______ _______ _____ _____    ______ ____
ROOT
ATOM      1  O   UNL     1      -1.432   2.974  -0.131  0.00  0.00    -0.296 OA
ATOM      2  O   UNL     1       1.270  -2.929  -0.233  0.00  0.00    -0.289 OA
ATOM      3  O   UNL     1       6.906  -0.851  -0.134  0.00  0.00    -0.296 OA
ATOM      4  C   UNL     1      -1.411  -0.531   0.326  0.00  0.00    +0.042 C 
ATOM      5  C   UNL     1      -0.702   0.644  -0.427  0.00  0.00    +0.071 C 
ATOM      6  C   UNL     1      -2.915  -0.274   0.025  0.00  0.00    +0.011 C 
ATOM      7  C   UNL     1       3.008  -0.608   0.055  0.00  0.00    +0.022 C 
ATOM      8  C   UNL     1       0.770   0.636  -0.053  0.00  0.00    -0.013 C 
ATOM      9  C   UNL     1       3.642   0.810  -0.205  0.00  0.00    +0.013 C 
ATOM     10  C   UNL     1       1.463  -0.535  -0.069  0.00  0.00    +0.009 C 
ATOM     11  C   UNL     1      -0.849  -1.835  -0.244  0.00  0.00    +0.172 C 
ATOM     12  C   UNL     1      -3.067   1.244   0.233  0.00  0.00    +0.065 C 
ATOM     13  C   UNL     1       1.435   1.963   0.233  0.00  0.00    +0.129 C 
ATOM     14  C   UNL     1      -1.681   1.776  -0.081  0.00  0.00    +0.153 C 
ATOM     15  C   UNL     1       2.915   1.882   0.606  0.00  0.00    +0.034 C 
ATOM     16  C   UNL     1       5.203   0.879  -0.060  0.00  0.00    +0.052 C 
ATOM     17  C   UNL     1       0.684  -1.846  -0.194  0.00  0.00    +0.195 C 
ATOM     18  C   UNL     1       3.613  -1.583  -1.009  0.00  0.00    +0.012 C 
ATOM     19  C   UNL     1      -1.176  -0.487   1.874  0.00  0.00    +0.004 C 
ATOM     20  C   UNL     1      -0.759   0.601  -1.983  0.00  0.00    +0.012 C 
ATOM     21  C   UNL     1       3.318  -1.153   1.470  0.00  0.00    +0.004 C 
ATOM     22  C   UNL     1       5.007  -1.237  -1.524  0.00  0.00    +0.065 C 
ATOM     23  C   UNL     1       5.803  -0.456  -0.510  0.00  0.00    +0.150 C 
ATOM     24  C   UNL     1       5.868   2.035  -0.832  0.00  0.00    +0.007 C 
ATOM     25  C   UNL     1       5.581   1.052   1.427  0.00  0.00    +0.007 C 
ENDROOT
BRANCH  11  26
ATOM     26  O   UNL     1      -1.331  -2.959   0.474  0.00  0.00    -0.377 OA
ATOM     27  H   UNL     1      -2.301  -2.966   0.452  0.00  0.00    +0.211 HD
ENDBRANCH  11  26
BRANCH  13  28
ATOM     28  O   UNL     1       0.780   2.590   1.337  0.00  0.00    -0.380 OA
ATOM     29  H   UNL     1      -0.168   2.666   1.150  0.00  0.00    +0.211 HD
ENDBRANCH  13  28
BRANCH   6  30
ATOM     30  C   UNL     1      -3.940  -1.055   0.839  0.00  0.00    +0.001 C 
ATOM     31  C   UNL     1      -4.056  -2.484   0.297  0.00  0.00    +0.000 C 
BRANCH  30  32
ATOM     32  C   UNL     1      -5.329  -0.387   0.841  0.00  0.00    +0.012 C 
BRANCH  32  33
ATOM     33  C   UNL     1      -5.905  -0.180  -0.561  0.00  0.00    +0.109 C 
BRANCH  33  35
ATOM     34  O   UNL     1      -8.043   0.493   0.392  0.00  0.00    -0.250 OA
ATOM     35  C   UNL     1      -7.233   0.542  -0.524  0.00  0.00    +0.314 C 
BRANCH  35  36
ATOM     36  O   UNL     1      -7.437   1.266  -1.655  0.00  0.00    -0.480 OA
ATOM     37  H   UNL     1      -6.787   1.273  -2.330  0.00  0.00    +0.295 HD
ENDBRANCH  35  36
ENDBRANCH  33  35
ENDBRANCH  32  33
ENDBRANCH  30  32
ENDBRANCH   6  30
TORSDOF 7
