REMARK  Name = 102452748
REMARK  10 active torsions:
REMARK  status: ('A' for Active; 'I' for Inactive)
REMARK    1  A    between atoms: C_6  and  C_19
REMARK    2  A    between atoms: C_10  and  C_16
REMARK    3  A    between atoms: C_16  and  O_17
REMARK    4  A    between atoms: C_19  and  C_20
REMARK    5  A    between atoms: C_20  and  S_21
REMARK    6  A    between atoms: S_21  and  C_22
REMARK    7  A    between atoms: C_22  and  C_23
REMARK    8  A    between atoms: C_23  and  N_25
REMARK    9  A    between atoms: C_23  and  C_30
REMARK   10  A    between atoms: C_30  and  O_31
REMARK                            x       y       z     vdW  Elec       q    Type
REMARK                         _______ _______ _______ _____ _____    ______ ____
ROOT
ATOM      1  N   UNK A   1       0.839   1.179  -1.269  0.00  0.00    -0.352 N 
ATOM      2  N   UNK A   1       1.844  -2.303  -0.578  0.00  0.00    -0.402 NA
ATOM      3  C   UNK A   1       1.413   0.009  -0.832  0.00  0.00    +0.079 A 
ATOM      4  C   UNK A   1       2.422   0.351   0.067  0.00  0.00    +0.004 A 
ATOM      5  C   UNK A   1       2.443   1.779   0.160  0.00  0.00    +0.013 A 
ATOM      6  C   UNK A   1       1.125  -1.311  -1.153  0.00  0.00    +0.125 C 
ATOM      7  C   UNK A   1       1.445   2.266  -0.685  0.00  0.00    +0.056 A 
ATOM      8  C   UNK A   1       3.166  -0.681   0.661  0.00  0.00    +0.094 C 
ATOM      9  C   UNK A   1       3.222   2.704   0.887  0.00  0.00    +0.001 C 
ATOM     10  C   UNK A   1       2.824  -1.975   0.294  0.00  0.00    +0.188 C 
ATOM     11  C   UNK A   1       1.185   3.633  -0.840  0.00  0.00    +0.017 C 
ATOM     12  C   UNK A   1       2.973   4.073   0.743  0.00  0.00    +0.000 C 
ATOM     13  C   UNK A   1       1.970   4.529  -0.109  0.00  0.00    +0.001 C 
ATOM     14  H   UNK A   1       0.096   1.231  -1.913  0.00  0.00    +0.166 HD
ENDROOT
BRANCH  10  16
ATOM     15  O   UNK A   1       4.473  -3.016   1.681  0.00  0.00    -0.243 OA
ATOM     16  C   UNK A   1       3.546  -3.099   0.867  0.00  0.00    +0.364 C 
BRANCH  16  17
ATOM     17  O   UNK A   1       3.093  -4.298   0.408  0.00  0.00    -0.476 OA
ATOM     18  H   UNK A   1       2.389  -4.328  -0.209  0.00  0.00    +0.295 HD
ENDBRANCH  16  17
ENDBRANCH  10  16
BRANCH   6  19
ATOM     19  C   UNK A   1       0.053  -1.709  -2.108  0.00  0.00    +0.072 C 
BRANCH  19  20
ATOM     20  C   UNK A   1      -0.987  -2.696  -1.548  0.00  0.00    +0.065 C 
BRANCH  20  21
ATOM     21  S   UNK A   1      -1.884  -2.022  -0.116  0.00  0.00    -0.137 S 
BRANCH  21  22
ATOM     22  C   UNK A   1      -3.066  -0.992  -1.013  0.00  0.00    +0.089 C 
BRANCH  22  23
ATOM     23  C   UNK A   1      -4.062  -0.264  -0.107  0.00  0.00    +0.182 C 
BRANCH  23  25
ATOM     24  O   UNK A   0      -3.558   2.512  -0.791  0.00  0.00    -0.275 OA
ATOM     25  N   UNK A   1      -3.419   0.736   0.709  0.00  0.00    -0.296 N 
ATOM     26  C   UNK A   0      -3.222   2.044   0.294  0.00  0.00    +0.223 C 
ATOM     27  C   UNK A   0      -2.550   2.884   1.347  0.00  0.00    +0.095 C 
ATOM     28  H   UNK A   1      -3.104   0.477   1.605  0.00  0.00    +0.150 HD
ENDBRANCH  23  25
BRANCH  23  30
ATOM     29  O   UNK A   1      -5.614  -2.094   0.246  0.00  0.00    -0.248 OA
ATOM     30  C   UNK A   1      -4.895  -1.225   0.726  0.00  0.00    +0.333 C 
BRANCH  30  31
ATOM     31  O   UNK A   1      -4.779  -1.017   2.059  0.00  0.00    -0.479 OA
ATOM     32  H   UNK A   1      -4.217  -0.340   2.381  0.00  0.00    +0.295 HD
ENDBRANCH  30  31
ENDBRANCH  23  30
ENDBRANCH  22  23
ENDBRANCH  21  22
ENDBRANCH  20  21
ENDBRANCH  19  20
ENDBRANCH   6  19
TORSDOF 10
