REMARK  Name = 102465332
REMARK  2 active torsions:
REMARK  status: ('A' for Active; 'I' for Inactive)
REMARK    1  A    between atoms: C_8  and  O_23
REMARK    2  A    between atoms: C_12  and  O_25
REMARK                            x       y       z     vdW  Elec       q    Type
REMARK                         _______ _______ _______ _____ _____    ______ ____
ROOT
ATOM      1  O   UNL     1       3.151  -0.305  -0.300  0.00  0.00    -0.449 OA
ATOM      2  O   UNL     1      -2.395  -1.094  -0.813  0.00  0.00    -0.446 OA
ATOM      3  O   UNL     1       0.719   2.138   0.237  0.00  0.00    -0.449 OA
ATOM      4  O   UNL     1       3.314   0.700   1.774  0.00  0.00    -0.250 OA
ATOM      5  O   UNL     1      -1.445  -2.310   0.910  0.00  0.00    -0.245 OA
ATOM      6  O   UNL     1      -0.991   1.561  -1.199  0.00  0.00    -0.245 OA
ATOM      7  C   UNL     1       3.159  -1.638   0.266  0.00  0.00    +0.200 C 
ATOM      8  C   UNL     1       1.709  -2.169   0.369  0.00  0.00    +0.173 C 
ATOM      9  C   UNL     1       1.687   2.205  -0.834  0.00  0.00    +0.180 C 
ATOM     10  C   UNL     1      -3.578  -0.744  -0.057  0.00  0.00    +0.200 C 
ATOM     11  C   UNL     1       3.075   2.051  -0.208  0.00  0.00    +0.153 C 
ATOM     12  C   UNL     1      -3.531   0.764   0.248  0.00  0.00    +0.173 C 
ATOM     13  C   UNL     1       4.070  -2.501  -0.601  0.00  0.00    +0.050 C 
ATOM     14  C   UNL     1       3.199   0.754   0.556  0.00  0.00    +0.321 C 
ATOM     15  C   UNL     1       0.957  -2.175  -0.941  0.00  0.00    +0.013 C 
ATOM     16  C   UNL     1       1.564   3.548  -1.543  0.00  0.00    +0.048 C 
ATOM     17  C   UNL     1      -4.769  -1.119  -0.936  0.00  0.00    +0.050 C 
ATOM     18  C   UNL     1      -2.522   1.089   1.319  0.00  0.00    +0.013 C 
ATOM     19  C   UNL     1      -0.347  -2.008  -1.208  0.00  0.00    +0.080 C 
ATOM     20  C   UNL     1      -1.266   1.540   1.197  0.00  0.00    +0.080 C 
ATOM     21  C   UNL     1      -1.432  -1.844  -0.216  0.00  0.00    +0.341 C 
ATOM     22  C   UNL     1      -0.545   1.748  -0.080  0.00  0.00    +0.341 C 
ENDROOT
BRANCH   8  23
ATOM     23  O   UNL     1       1.028  -1.380   1.341  0.00  0.00    -0.377 OA
ATOM     24  H   UNL     1       1.528  -1.389   2.173  0.00  0.00    +0.211 HD
ENDBRANCH   8  23
BRANCH  12  25
ATOM     25  O   UNL     1      -4.812   1.190   0.719  0.00  0.00    -0.377 OA
ATOM     26  H   UNL     1      -5.484   0.993   0.049  0.00  0.00    +0.211 HD
ENDBRANCH  12  25
TORSDOF 2
