REMARK  Name = 102414641
REMARK  8 active torsions:
REMARK  status: ('A' for Active; 'I' for Inactive)
REMARK    1  A    between atoms: C_1  and  C_9
REMARK    2  A    between atoms: C_2  and  C_15
REMARK    3  A    between atoms: C_7  and  O_13
REMARK    4  A    between atoms: C_15  and  O_16
REMARK    5  A    between atoms: C_15  and  C_18
REMARK    6  A    between atoms: C_18  and  O_20
REMARK    7  A    between atoms: O_20  and  C_22
REMARK    8  A    between atoms: C_22  and  C_23
REMARK                            x       y       z     vdW  Elec       q    Type
REMARK                         _______ _______ _______ _____ _____    ______ ____
ROOT
ATOM      1  C   UNL     1       1.125   1.165  -0.332  0.00  0.00    +0.003 C 
ATOM      2  C   UNL     1      -0.195   1.240  -0.558  0.00  0.00    +0.004 C 
ENDROOT
BRANCH   1   9
ATOM      3  O   UNL     1       2.926   0.242  -1.622  0.00  0.00    -0.344 OA
ATOM      4  O   UNL     1       4.929  -1.725   0.670  0.00  0.00    -0.444 OA
ATOM      5  O   UNL     1       6.958  -1.196   1.514  0.00  0.00    -0.245 OA
ATOM      6  C   UNL     1       3.798  -1.395  -0.146  0.00  0.00    +0.229 C 
ATOM      7  C   UNL     1       2.738  -0.584   0.581  0.00  0.00    +0.185 C 
ATOM      8  C   UNL     1       4.094  -0.572  -1.389  0.00  0.00    +0.180 C 
ATOM      9  C   UNL     1       1.946  -0.047  -0.605  0.00  0.00    +0.168 C 
ATOM     10  C   UNL     1       5.283   0.306  -1.228  0.00  0.00    +0.013 C 
ATOM     11  C   UNL     1       6.176   0.131  -0.252  0.00  0.00    +0.080 C 
ATOM     12  C   UNL     1       6.056  -0.972   0.712  0.00  0.00    +0.341 C 
BRANCH   7  13
ATOM     13  O   UNL     1       3.328   0.489   1.307  0.00  0.00    -0.378 OA
ATOM     14  H   UNL     1       3.828   0.135   2.059  0.00  0.00    +0.211 HD
ENDBRANCH   7  13
ENDBRANCH   1   9
BRANCH   2  15
ATOM     15  C   UNL     1      -1.022   2.466  -0.281  0.00  0.00    +0.172 C 
BRANCH  15  16
ATOM     16  O   UNL     1      -1.572   2.922  -1.515  0.00  0.00    -0.377 OA
ATOM     17  H   UNL     1      -0.853   3.116  -2.137  0.00  0.00    +0.211 HD
ENDBRANCH  15  16
BRANCH  15  18
ATOM     18  C   UNL     1      -2.166   2.162   0.699  0.00  0.00    +0.200 C 
ATOM     19  C   UNL     1      -3.036   3.386   0.970  0.00  0.00    +0.050 C 
BRANCH  18  20
ATOM     20  O   UNL     1      -2.989   1.139   0.142  0.00  0.00    -0.446 OA
BRANCH  20  22
ATOM     21  O   UNL     1      -3.526   0.394   2.253  0.00  0.00    -0.245 OA
ATOM     22  C   UNL     1      -3.611   0.325   1.037  0.00  0.00    +0.341 C 
BRANCH  22  23
ATOM     23  C   UNL     1      -4.433  -0.692   0.334  0.00  0.00    +0.076 C 
ATOM     24  C   UNL     1      -5.158  -1.631   1.067  0.00  0.00    +0.006 C 
ATOM     25  C   UNL     1      -4.482  -0.706  -1.060  0.00  0.00    +0.006 C 
ATOM     26  C   UNL     1      -5.931  -2.586   0.407  0.00  0.00    +0.000 C 
ATOM     27  C   UNL     1      -5.255  -1.661  -1.720  0.00  0.00    +0.000 C 
ATOM     28  C   UNL     1      -5.980  -2.600  -0.987  0.00  0.00    +0.000 C 
ENDBRANCH  22  23
ENDBRANCH  20  22
ENDBRANCH  18  20
ENDBRANCH  15  18
ENDBRANCH   2  15
TORSDOF 8
