REMARK  Name = 10250176
REMARK  3 active torsions:
REMARK  status: ('A' for Active; 'I' for Inactive)
REMARK    1  A    between atoms: P_2  and  O_24
REMARK    2  A    between atoms: C_8  and  O_22
REMARK    3  A    between atoms: C_9  and  N_13
REMARK                            x       y       z     vdW  Elec       q    Type
REMARK                         _______ _______ _______ _____ _____    ______ ____
ROOT
ATOM      1  S   UNL     1       5.869   1.339  -0.575  0.00  0.00    +0.022 S 
ATOM      2  P   UNL     1       4.638   0.552   0.702  0.00  0.00    +0.307 P 
ATOM      3  O   UNL     1       1.336  -1.184  -1.359  0.00  0.00    -0.333 OA
ATOM      4  O   UNL     1       3.120   1.151   0.699  0.00  0.00    -0.295 OA
ATOM      5  O   UNL     1       4.423  -1.060   0.621  0.00  0.00    -0.295 OA
ATOM      6  C   UNL     1       2.084   0.278   0.300  0.00  0.00    +0.184 C 
ATOM      7  C   UNL     1       2.535  -0.611  -0.838  0.00  0.00    +0.177 C 
ATOM      8  C   UNL     1       0.862   0.933  -0.302  0.00  0.00    +0.187 C 
ATOM      9  C   UNL     1       0.281  -0.208  -1.155  0.00  0.00    +0.224 C 
ATOM     10  C   UNL     1       3.549  -1.631  -0.354  0.00  0.00    +0.183 C 
ENDROOT
BRANCH   9  13
ATOM     11 CL   UNL     1      -4.515   2.849  -0.287  0.00  0.00    -0.082 Cl
ATOM     12 CL   UNL     1      -6.307   0.517   1.032  0.00  0.00    -0.086 Cl
ATOM     13  N   UNL     1      -0.878  -0.861  -0.545  0.00  0.00    -0.262 N 
ATOM     14  N   UNL     1      -2.109  -2.475   0.365  0.00  0.00    -0.251 NA
ATOM     15  C   UNL     1      -2.092  -0.286  -0.269  0.00  0.00    +0.066 C 
ATOM     16  C   UNL     1      -0.938  -2.169  -0.148  0.00  0.00    +0.221 C 
ATOM     17  C   UNL     1      -2.842  -1.312   0.298  0.00  0.00    +0.074 C 
ATOM     18  C   UNL     1      -2.583   1.006  -0.461  0.00  0.00    +0.028 C 
ATOM     19  C   UNL     1      -4.162  -1.053   0.704  0.00  0.00    +0.085 C 
ATOM     20  C   UNL     1      -3.899   1.247  -0.052  0.00  0.00    +0.066 C 
ATOM     21  C   UNL     1      -4.676   0.237   0.521  0.00  0.00    +0.052 C 
ENDBRANCH   9  13
BRANCH   8  22
ATOM     22  O   UNL     1       1.254   2.003  -1.157  0.00  0.00    -0.378 OA
ATOM     23  H   UNL     1       1.621   2.726  -0.623  0.00  0.00    +0.211 HD
ENDBRANCH   8  22
BRANCH   2  24
ATOM     24  O   UNL     1       5.050   0.739   2.261  0.00  0.00    -0.327 OA
ATOM     25  H   UNL     1       5.210   1.678   2.443  0.00  0.00    +0.219 HD
ENDBRANCH   2  24
TORSDOF 3
