REMARK  Name = 102587076
REMARK  9 active torsions:
REMARK  status: ('A' for Active; 'I' for Inactive)
REMARK    1  A    between atoms: C_4  and  O_24
REMARK    2  A    between atoms: C_5  and  C_19
REMARK    3  A    between atoms: C_15  and  O_22
REMARK    4  A    between atoms: O_24  and  C_26
REMARK    5  A    between atoms: C_26  and  C_27
REMARK    6  A    between atoms: C_28  and  C_30
REMARK    7  A    between atoms: C_30  and  C_31
REMARK    8  A    between atoms: C_31  and  C_32
REMARK    9  A    between atoms: C_32  and  C_33
REMARK                            x       y       z     vdW  Elec       q    Type
REMARK                         _______ _______ _______ _____ _____    ______ ____
ROOT
ATOM      1  O   UNL     1      -3.181  -1.488   0.256  0.00  0.00    -0.467 OA
ATOM      2  O   UNL     1       0.803  -2.691   0.872  0.00  0.00    -0.287 OA
ATOM      3  O   UNL     1       2.085   1.798   1.114  0.00  0.00    -0.292 OA
ATOM      4  C   UNL     1       1.477  -0.490   1.584  0.00  0.00    +0.241 C 
ATOM      5  C   UNL     1      -3.466  -0.123   0.200  0.00  0.00    +0.212 C 
ATOM      6  C   UNL     1      -1.161   0.412   0.690  0.00  0.00    -0.009 C 
ATOM      7  C   UNL     1      -0.874  -1.014   0.745  0.00  0.00    +0.072 C 
ATOM      8  C   UNL     1       0.496  -1.513   1.038  0.00  0.00    +0.218 C 
ATOM      9  C   UNL     1      -2.530   0.824   0.400  0.00  0.00    +0.018 C 
ATOM     10  C   UNL     1       1.199   0.947   1.170  0.00  0.00    +0.198 C 
ATOM     11  C   UNL     1      -0.204   1.336   0.871  0.00  0.00    +0.095 C 
ATOM     12  C   UNL     1       1.474  -0.572   3.110  0.00  0.00    +0.060 C 
ATOM     13  C   UNL     1      -1.879  -1.876   0.530  0.00  0.00    +0.176 C 
ENDROOT
BRANCH   5  19
ATOM     14  O   UNL     1      -4.923  -1.577  -1.705  0.00  0.00    -0.291 OA
ATOM     15  C   UNL     1      -7.457   0.902  -1.187  0.00  0.00    +0.122 C 
ATOM     16  C   UNL     1      -6.992   1.501   0.134  0.00  0.00    +0.052 C 
ATOM     17  C   UNL     1      -5.555   1.173   0.493  0.00  0.00    -0.039 C 
ATOM     18  C   UNL     1      -7.030  -0.545  -1.316  0.00  0.00    +0.098 C 
ATOM     19  C   UNL     1      -4.850   0.179  -0.092  0.00  0.00    +0.048 C 
ATOM     20  C   UNL     1      -5.542  -0.701  -1.100  0.00  0.00    +0.175 C 
ATOM     21  C   UNL     1      -5.023   2.079   1.580  0.00  0.00    +0.026 C 
BRANCH  15  22
ATOM     22  O   UNL     1      -6.920   1.644  -2.281  0.00  0.00    -0.384 OA
ATOM     23  H   UNL     1      -7.189   2.573  -2.205  0.00  0.00    +0.210 HD
ENDBRANCH  15  22
ENDBRANCH   5  19
BRANCH   4  24
ATOM     24  O   UNL     1       2.791  -0.841   1.135  0.00  0.00    -0.438 OA
BRANCH  24  26
ATOM     25  O   UNL     1       2.163  -0.436  -1.043  0.00  0.00    -0.245 OA
ATOM     26  C   UNL     1       2.993  -0.769  -0.209  0.00  0.00    +0.337 C 
BRANCH  26  27
ATOM     27  C   UNL     1       4.398  -1.168  -0.521  0.00  0.00    +0.050 C 
ATOM     28  C   UNL     1       4.945  -0.596  -1.610  0.00  0.00    -0.024 C 
ATOM     29  C   UNL     1       5.093  -2.121   0.405  0.00  0.00    +0.037 C 
BRANCH  28  30
ATOM     30  C   UNL     1       6.326  -0.838  -2.156  0.00  0.00    +0.026 C 
BRANCH  30  31
ATOM     31  C   UNL     1       7.146   0.454  -2.172  0.00  0.00    +0.005 C 
BRANCH  31  32
ATOM     32  C   UNL     1       7.387   1.038  -0.776  0.00  0.00    +0.000 C 
BRANCH  32  33
ATOM     33  C   UNL     1       8.270   2.286  -0.785  0.00  0.00    +0.000 C 
ATOM     34  C   UNL     1       8.540   2.784   0.627  0.00  0.00    +0.000 C 
ENDBRANCH  32  33
ENDBRANCH  31  32
ENDBRANCH  30  31
ENDBRANCH  28  30
ENDBRANCH  26  27
ENDBRANCH  24  26
ENDBRANCH   4  24
TORSDOF 9
