REMARK  Name = 10254588
REMARK  4 active torsions:
REMARK  status: ('A' for Active; 'I' for Inactive)
REMARK    1  A    between atoms: C_6  and  C_22
REMARK    2  A    between atoms: C_8  and  O_35
REMARK    3  A    between atoms: C_9  and  S_31
REMARK    4  A    between atoms: C_14  and  S_33
REMARK                            x       y       z     vdW  Elec       q    Type
REMARK                         _______ _______ _______ _____ _____    ______ ____
ROOT
ATOM      1  O   UNL     1      -2.127   2.213  -2.068  0.00  0.00    -0.272 OA
ATOM      2  O   UNL     1      -3.206  -0.984   2.106  0.00  0.00    -0.272 OA
ATOM      3  N   UNL     1      -1.736  -0.256   0.489  0.00  0.00    -0.247 N 
ATOM      4  N   UNL     1      -0.462  -2.062   1.428  0.00  0.00    -0.318 N 
ATOM      5  N   UNL     1      -3.651   1.371  -0.514  0.00  0.00    -0.261 N 
ATOM      6  C   UNL     1       0.678  -0.265   0.244  0.00  0.00    +0.102 C 
ATOM      7  C   UNL     1      -0.507  -0.620   1.208  0.00  0.00    +0.160 C 
ATOM      8  C   UNL     1       0.004   0.677  -0.789  0.00  0.00    +0.156 C 
ATOM      9  C   UNL     1      -1.482   0.235  -0.860  0.00  0.00    +0.196 C 
ATOM     10  C   UNL     1       1.054  -1.639  -0.274  0.00  0.00    -0.000 C 
ATOM     11  C   UNL     1       0.362  -2.615   0.454  0.00  0.00    +0.042 C 
ATOM     12  C   UNL     1      -2.423   1.392  -1.196  0.00  0.00    +0.255 C 
ATOM     13  C   UNL     1      -2.999  -0.396   1.044  0.00  0.00    +0.256 C 
ATOM     14  C   UNL     1      -4.113   0.132   0.145  0.00  0.00    +0.201 C 
ATOM     15  C   UNL     1       1.917  -1.995  -1.302  0.00  0.00    -0.003 C 
ATOM     16  C   UNL     1       0.568  -3.962   0.211  0.00  0.00    +0.014 C 
ATOM     17  C   UNL     1       2.110  -3.351  -1.568  0.00  0.00    -0.000 C 
ATOM     18  C   UNL     1      -4.598   2.451  -0.786  0.00  0.00    +0.116 C 
ATOM     19  C   UNL     1       1.445  -4.328  -0.813  0.00  0.00    +0.001 C 
ATOM     20  H   UNL     1      -0.932  -2.555   2.139  0.00  0.00    +0.148 HD
ENDROOT
BRANCH   6  22
ATOM     21  N   UNL     1       3.522   0.674   2.418  0.00  0.00    -0.312 N 
ATOM     22  C   UNL     1       1.954   0.247   0.901  0.00  0.00    +0.002 C 
ATOM     23  C   UNL     1       2.992   0.997   0.276  0.00  0.00    +0.011 C 
ATOM     24  C   UNL     1       2.312   0.066   2.220  0.00  0.00    +0.058 C 
ATOM     25  C   UNL     1       3.962   1.250   1.248  0.00  0.00    +0.048 C 
ATOM     26  C   UNL     1       3.198   1.484  -1.030  0.00  0.00    +0.001 C 
ATOM     27  C   UNL     1       5.131   1.970   0.979  0.00  0.00    +0.015 C 
ATOM     28  C   UNL     1       4.363   2.205  -1.314  0.00  0.00    +0.000 C 
ATOM     29  C   UNL     1       5.314   2.444  -0.324  0.00  0.00    +0.001 C 
ATOM     30  H   UNL     1       4.009   0.695   3.274  0.00  0.00    +0.152 HD
ENDBRANCH   6  22
BRANCH   9  31
ATOM     31  S   UNL     1      -1.720  -1.051  -2.144  0.00  0.00    -0.112 S 
ATOM     32  C   UNL     1      -1.254  -0.056  -3.576  0.00  0.00    +0.071 C 
ENDBRANCH   9  31
BRANCH  14  33
ATOM     33  S   UNL     1      -5.642   0.287   1.128  0.00  0.00    -0.111 S 
ATOM     34  C   UNL     1      -5.035   1.461   2.360  0.00  0.00    +0.071 C 
ENDBRANCH  14  33
BRANCH   8  35
ATOM     35  O   UNL     1       0.070   2.025  -0.298  0.00  0.00    -0.381 OA
ATOM     36  H   UNL     1       0.997   2.307  -0.252  0.00  0.00    +0.210 HD
ENDBRANCH   8  35
TORSDOF 4
