REMARK  Name = 10255241
REMARK  5 active torsions:
REMARK  status: ('A' for Active; 'I' for Inactive)
REMARK    1  A    between atoms: C_14  and  C_27
REMARK    2  A    between atoms: C_27  and  N_29
REMARK    3  A    between atoms: C_27  and  O_37
REMARK    4  A    between atoms: C_30  and  C_32
REMARK    5  A    between atoms: C_33  and  C_34
REMARK                            x       y       z     vdW  Elec       q    Type
REMARK                         _______ _______ _______ _____ _____    ______ ____
ROOT
ATOM      1  O   UNL     1       2.216   1.887  -0.648  0.00  0.00    -0.353 OA
ATOM      2  O   UNL     1      -1.360  -1.490  -0.695  0.00  0.00    -0.444 OA
ATOM      3  O   UNL     1       5.728  -1.265   1.628  0.00  0.00    -0.291 OA
ATOM      4  O   UNL     1       0.504  -1.314  -2.051  0.00  0.00    -0.245 OA
ATOM      5  C   UNL     1       3.400   2.691  -0.804  0.00  0.00    +0.124 C 
ATOM      6  C   UNL     1       1.046   2.700  -0.456  0.00  0.00    +0.140 C 
ATOM      7  C   UNL     1       3.671   3.487   0.481  0.00  0.00    +0.052 C 
ATOM      8  C   UNL     1       1.178   3.516   0.842  0.00  0.00    +0.056 C 
ATOM      9  C   UNL     1       2.456   4.312   0.810  0.00  0.00    -0.039 C 
ATOM     10  C   UNL     1       4.572   1.788  -1.224  0.00  0.00    +0.056 C 
ATOM     11  C   UNL     1      -0.152   1.790  -0.382  0.00  0.00    -0.005 C 
ATOM     12  C   UNL     1      -1.087   1.585  -1.330  0.00  0.00    -0.042 C 
ATOM     13  C   UNL     1      -2.302   0.721  -1.038  0.00  0.00    +0.070 C 
ATOM     14  C   UNL     1      -2.190  -0.710  -1.586  0.00  0.00    +0.219 C 
ATOM     15  C   UNL     1       2.503   5.633   1.028  0.00  0.00    -0.009 C 
ATOM     16  C   UNL     1       4.946   0.732  -0.221  0.00  0.00    -0.021 C 
ATOM     17  C   UNL     1      -1.058   2.190  -2.707  0.00  0.00    +0.026 C 
ATOM     18  C   UNL     1       4.872  -0.579  -0.483  0.00  0.00    +0.033 C 
ATOM     19  C   UNL     1       5.229  -1.590   0.552  0.00  0.00    +0.177 C 
ATOM     20  C   UNL     1      -0.064  -1.699  -1.042  0.00  0.00    +0.341 C 
ATOM     21  C   UNL     1       4.923  -3.040   0.216  0.00  0.00    +0.091 C 
ATOM     22  C   UNL     1       3.908  -3.580   1.193  0.00  0.00    -0.036 C 
ATOM     23  C   UNL     1       0.562  -2.473   0.053  0.00  0.00    +0.082 C 
ATOM     24  C   UNL     1       2.574  -3.414   1.083  0.00  0.00    -0.008 C 
ATOM     25  C   UNL     1       1.883  -2.693   0.034  0.00  0.00    +0.006 C 
ATOM     26  C   UNL     1       4.483  -4.352   2.352  0.00  0.00    +0.027 C 
ENDROOT
BRANCH  14  27
ATOM     27  C   UNL     1      -3.558  -1.387  -1.596  0.00  0.00    +0.229 C 
BRANCH  27  29
ATOM     28  O   UNL     1      -6.351  -1.520  -0.875  0.00  0.00    -0.270 OA
ATOM     29  N   UNL     1      -4.111  -1.489  -0.261  0.00  0.00    -0.277 N 
ATOM     30  C   UNL     1      -5.473  -1.547  -0.018  0.00  0.00    +0.248 C 
ATOM     31  H   UNL     1      -3.493  -1.517   0.505  0.00  0.00    +0.152 HD
BRANCH  30  32
ATOM     32  C   UNL     1      -5.773  -1.647   1.437  0.00  0.00    +0.058 C 
ATOM     33  C   UNL     1      -5.945  -0.536   2.167  0.00  0.00    +0.004 C 
BRANCH  33  34
ATOM     34  C   UNL     1      -5.852   0.792   1.601  0.00  0.00    -0.004 C 
ATOM     35  C   UNL     1      -6.023   1.911   2.322  0.00  0.00    -0.026 C 
ATOM     36  C   UNL     1      -5.930   3.287   1.749  0.00  0.00    +0.031 C 
ENDBRANCH  33  34
ENDBRANCH  30  32
ENDBRANCH  27  29
BRANCH  27  37
ATOM     37  O   UNL     1      -3.425  -2.695  -2.131  0.00  0.00    -0.365 OA
ATOM     38  H   UNL     1      -4.292  -3.130  -2.140  0.00  0.00    +0.212 HD
ENDBRANCH  27  37
ENDBRANCH  14  27
TORSDOF 5
