REMARK  Name = 102515385
REMARK  7 active torsions:
REMARK  status: ('A' for Active; 'I' for Inactive)
REMARK    1  A    between atoms: C_1  and  C_13
REMARK    2  A    between atoms: C_1  and  C_19
REMARK    3  A    between atoms: C_7  and  C_16
REMARK    4  A    between atoms: C_16  and  O_17
REMARK    5  A    between atoms: C_20  and  C_22
REMARK    6  A    between atoms: C_23  and  C_27
REMARK    7  A    between atoms: C_27  and  O_33
REMARK                            x       y       z     vdW  Elec       q    Type
REMARK                         _______ _______ _______ _____ _____    ______ ____
ROOT
ATOM      1  C   UNL     1       1.364   1.645   0.514  0.00  0.00    +0.049 C 
ATOM      2  C   UNL     1       1.602   2.207   1.918  0.00  0.00    +0.007 C 
ENDROOT
BRANCH   1  13
ATOM      3  O   UNL     1       6.130  -1.276  -0.020  0.00  0.00    -0.341 OA
ATOM      4  O   UNL     1       3.487  -1.803  -0.573  0.00  0.00    -0.327 OA
ATOM      5  O   UNL     1       2.733  -0.224   1.036  0.00  0.00    -0.334 OA
ATOM      6  O   UNL     1       5.286   0.001  -2.958  0.00  0.00    -0.291 OA
ATOM      7  C   UNL     1       5.125  -0.537   0.694  0.00  0.00    +0.198 C 
ATOM      8  C   UNL     1       5.661  -0.069  -0.639  0.00  0.00    +0.206 C 
ATOM      9  C   UNL     1       3.751  -1.177   0.694  0.00  0.00    +0.215 C 
ATOM     10  C   UNL     1       3.449  -0.854  -1.633  0.00  0.00    +0.179 C 
ATOM     11  C   UNL     1       2.370   0.203  -1.342  0.00  0.00    +0.062 C 
ATOM     12  C   UNL     1       4.847  -0.293  -1.852  0.00  0.00    +0.207 C 
ATOM     13  C   UNL     1       2.561   0.814   0.061  0.00  0.00    +0.124 C 
ATOM     14  C   UNL     1       3.666  -2.295   1.733  0.00  0.00    +0.064 C 
ATOM     15  C   UNL     1       2.285   1.257  -2.445  0.00  0.00    +0.005 C 
BRANCH   7  16
ATOM     16  C   UNL     1       5.632   0.107   1.946  0.00  0.00    +0.172 C 
BRANCH  16  17
ATOM     17  O   UNL     1       4.971   1.348   2.135  0.00  0.00    -0.379 OA
ATOM     18  H   UNL     1       5.297   1.768   2.946  0.00  0.00    +0.211 HD
ENDBRANCH  16  17
ENDBRANCH   7  16
ENDBRANCH   1  13
BRANCH   1  19
ATOM     19  C   UNL     1       0.111   0.799   0.505  0.00  0.00    -0.028 C 
ATOM     20  C   UNL     1      -1.165   1.179   0.277  0.00  0.00    -0.026 C 
ATOM     21  C   UNL     1      -1.583   2.591  -0.041  0.00  0.00    +0.031 C 
BRANCH  20  22
ATOM     22  C   UNL     1      -2.218   0.158   0.335  0.00  0.00    -0.001 C 
ATOM     23  C   UNL     1      -3.534   0.350   0.136  0.00  0.00    +0.037 C 
BRANCH  23  27
ATOM     24  O   UNL     1      -5.797   1.940  -0.440  0.00  0.00    -0.289 OA
ATOM     25  O   UNL     1      -6.842  -2.599   0.276  0.00  0.00    -0.270 OA
ATOM     26  N   UNL     1      -8.089  -0.667  -0.239  0.00  0.00    -0.294 N 
ATOM     27  C   UNL     1      -4.554  -0.681   0.202  0.00  0.00    +0.141 C 
ATOM     28  C   UNL     1      -5.853  -0.421  -0.008  0.00  0.00    +0.123 C 
ATOM     29  C   UNL     1      -6.428   0.902  -0.325  0.00  0.00    +0.200 C 
ATOM     30  C   UNL     1      -6.944  -1.409   0.041  0.00  0.00    +0.252 C 
ATOM     31  C   UNL     1      -7.917   0.759  -0.483  0.00  0.00    +0.160 C 
ATOM     32  H   UNL     1      -8.978  -1.089  -0.271  0.00  0.00    +0.150 HD
BRANCH  27  33
ATOM     33  O   UNL     1      -4.107  -1.955   0.494  0.00  0.00    -0.505 OA
ATOM     34  H   UNL     1      -3.194  -2.110   0.636  0.00  0.00    +0.292 HD
ENDBRANCH  27  33
ENDBRANCH  23  27
ENDBRANCH  20  22
ENDBRANCH   1  19
TORSDOF 7
