REMARK  Name = 102588
REMARK  11 active torsions:
REMARK  status: ('A' for Active; 'I' for Inactive)
REMARK    1  A    between atoms: S_1  and  S_2
REMARK    2  A    between atoms: S_1  and  C_23
REMARK    3  A    between atoms: S_2  and  C_3
REMARK    4  A    between atoms: C_3  and  C_4
REMARK    5  A    between atoms: C_4  and  C_7
REMARK    6  A    between atoms: C_4  and  N_19
REMARK    7  A    between atoms: N_6  and  C_10
REMARK    8  A    between atoms: C_23  and  C_24
REMARK    9  A    between atoms: C_24  and  C_27
REMARK   10  A    between atoms: C_24  and  N_39
REMARK   11  A    between atoms: N_26  and  C_30
REMARK                            x       y       z     vdW  Elec       q    Type
REMARK                         _______ _______ _______ _____ _____    ______ ____
ROOT
ATOM      1  S   UNL     1       5.280  -0.767   1.445  0.00  0.00    -0.084 S 
ENDROOT
BRANCH   1   2
ATOM      2  S   UNL     1       5.492  -2.252   0.041  0.00  0.00    -0.084 S 
BRANCH   2   3
ATOM      3  C   UNL     1       3.895  -2.189  -0.807  0.00  0.00    +0.056 C 
BRANCH   3   4
ATOM      4  C   UNL     1       2.736  -2.459   0.157  0.00  0.00    +0.025 C 
BRANCH   4   7
ATOM      5  O   UNL     1       1.231  -2.624  -1.720  0.00  0.00    -0.277 OA
ATOM      6  N   UNL     1       0.368  -2.021   0.377  0.00  0.00    -0.286 N 
ATOM      7  C   UNL     1       1.364  -2.393  -0.521  0.00  0.00    +0.206 C 
ATOM      8  H   UNL     1       0.658  -1.853   1.303  0.00  0.00    +0.155 HD
BRANCH   6  10
ATOM      9  C   UNL     1      -3.250  -1.302   0.894  0.00  0.00    +0.001 C 
ATOM     10  C   UNL     1      -1.013  -1.857   0.114  0.00  0.00    +0.050 C 
ATOM     11  C   UNL     1      -3.754  -1.533  -0.408  0.00  0.00    +0.000 C 
ATOM     12  C   UNL     1      -1.877  -1.468   1.139  0.00  0.00    +0.015 C 
ATOM     13  C   UNL     1      -1.509  -2.083  -1.167  0.00  0.00    +0.015 C 
ATOM     14  C   UNL     1      -2.870  -1.923  -1.427  0.00  0.00    +0.001 C 
ATOM     15  C   UNL     1      -4.133  -0.912   1.913  0.00  0.00    +0.000 C 
ATOM     16  C   UNL     1      -5.127  -1.367  -0.653  0.00  0.00    +0.000 C 
ATOM     17  C   UNL     1      -5.495  -0.752   1.653  0.00  0.00    +0.000 C 
ATOM     18  C   UNL     1      -5.990  -0.979   0.372  0.00  0.00    +0.000 C 
ENDBRANCH   6  10
ENDBRANCH   4   7
BRANCH   4  19
ATOM     19  N   UNL     1       2.845  -3.821   0.686  0.00  0.00    +0.388 N 
ATOM     20  H   UNL     1       3.743  -3.933   1.155  0.00  0.00    -0.089 HD
ATOM     21  H   UNL     1       2.776  -4.490  -0.080  0.00  0.00    -0.089 HD
ATOM     22  H   UNL     1       2.090  -3.989   1.353  0.00  0.00    -0.089 HD
ENDBRANCH   4  19
ENDBRANCH   3   4
ENDBRANCH   2   3
ENDBRANCH   1   2
BRANCH   1  23
ATOM     23  C   UNL     1       5.904   0.681   0.533  0.00  0.00    +0.056 C 
BRANCH  23  24
ATOM     24  C   UNL     1       4.845   1.246  -0.418  0.00  0.00    +0.025 C 
BRANCH  24  27
ATOM     25  O   UNL     1       3.580   2.029   1.480  0.00  0.00    -0.277 OA
ATOM     26  N   UNL     1       2.436   1.597  -0.528  0.00  0.00    -0.286 N 
ATOM     27  C   UNL     1       3.565   1.682   0.302  0.00  0.00    +0.206 C 
ATOM     28  H   UNL     1       2.599   1.278  -1.445  0.00  0.00    +0.155 HD
BRANCH  26  30
ATOM     29  C   UNL     1      -1.223   2.064  -0.885  0.00  0.00    +0.001 C 
ATOM     30  C   UNL     1       1.111   1.909  -0.218  0.00  0.00    +0.050 C 
ATOM     31  C   UNL     1      -1.554   2.539   0.406  0.00  0.00    +0.000 C 
ATOM     32  C   UNL     1       0.114   1.753  -1.181  0.00  0.00    +0.015 C 
ATOM     33  C   UNL     1       0.786   2.376   1.052  0.00  0.00    +0.015 C 
ATOM     34  C   UNL     1      -0.537   2.689   1.364  0.00  0.00    +0.001 C 
ATOM     35  C   UNL     1      -2.240   1.912  -1.842  0.00  0.00    +0.000 C 
ATOM     36  C   UNL     1      -2.891   2.849   0.703  0.00  0.00    +0.000 C 
ATOM     37  C   UNL     1      -3.563   2.226  -1.531  0.00  0.00    +0.000 C 
ATOM     38  C   UNL     1      -3.888   2.693  -0.261  0.00  0.00    +0.000 C 
ENDBRANCH  26  30
ENDBRANCH  24  27
BRANCH  24  39
ATOM     39  N   UNL     1       5.360   2.456  -1.064  0.00  0.00    +0.388 N 
ATOM     40  H   UNL     1       6.220   2.234  -1.566  0.00  0.00    -0.089 HD
ATOM     41  H   UNL     1       5.554   3.164  -0.355  0.00  0.00    -0.089 HD
ATOM     42  H   UNL     1       4.666   2.813  -1.721  0.00  0.00    -0.089 HD
ENDBRANCH  24  39
ENDBRANCH  23  24
ENDBRANCH   1  23
TORSDOF 11
