REMARK  Name = 102515200
REMARK  8 active torsions:
REMARK  status: ('A' for Active; 'I' for Inactive)
REMARK    1  A    between atoms: CA_6  and  C_24
REMARK    2  A    between atoms: CA_7  and  N_12
REMARK    3  A    between atoms: C_13  and  C_15
REMARK    4  A    between atoms: C_15  and  C_16
REMARK    5  A    between atoms: C_16  and  C_17
REMARK    6  A    between atoms: C_17  and  C_18
REMARK    7  A    between atoms: C_18  and  C_19
REMARK    8  A    between atoms: C_19  and  C_20
REMARK                            x       y       z     vdW  Elec       q    Type
REMARK                         _______ _______ _______ _____ _____    ______ ____
ROOT
ATOM      1  S   UNL     1      -1.726  -0.197   1.922  0.00  0.00    -0.118 S 
ATOM      2  O   UNL     1      -0.592  -0.827  -2.248  0.00  0.00    -0.273 OA
ATOM      3  N   UNL     1      -2.254  -0.402  -0.632  0.00  0.00    -0.260 N 
ATOM      4  C   UNL     1      -2.290  -1.271   0.545  0.00  0.00    +0.151 C 
ATOM      5  C   UNL     1      -1.598   1.333   0.870  0.00  0.00    +0.068 C 
ATOM      6  CA  UNL     1      -2.360   1.030  -0.442  0.00  0.00    +0.189 C 
ATOM      7  CA  UNL     1      -1.253  -2.161  -0.172  0.00  0.00    +0.178 C 
ATOM      8  C   UNL     1      -1.257  -1.077  -1.269  0.00  0.00    +0.247 C 
ATOM      9  C   UNL     1      -0.105   1.581   0.596  0.00  0.00    +0.013 C 
ATOM     10  C   UNL     1      -2.158   2.522   1.660  0.00  0.00    +0.013 C 
ENDROOT
BRANCH   7  12
ATOM     11  O   UNL     1       1.135  -3.297  -1.313  0.00  0.00    -0.275 OA
ATOM     12  N   UNL     1       0.024  -2.362   0.497  0.00  0.00    -0.296 N 
ATOM     13  C   UNL     1       1.123  -2.921  -0.144  0.00  0.00    +0.223 C 
ATOM     14  H   UNL     1       0.113  -2.091   1.439  0.00  0.00    +0.150 HD
BRANCH  13  15
ATOM     15  C   UNL     1       2.325  -3.016   0.778  0.00  0.00    +0.085 C 
BRANCH  15  16
ATOM     16  C   UNL     1       2.769  -1.652   1.300  0.00  0.00    +0.010 C 
BRANCH  16  17
ATOM     17  C   UNL     1       3.196  -0.730   0.157  0.00  0.00    +0.001 C 
BRANCH  17  18
ATOM     18  C   UNL     1       3.672   0.626   0.682  0.00  0.00    +0.000 C 
BRANCH  18  19
ATOM     19  C   UNL     1       4.134   1.532  -0.461  0.00  0.00    +0.000 C 
BRANCH  19  20
ATOM     20  C   UNL     1       4.644   2.894   0.013  0.00  0.00    +0.000 C 
ATOM     21  C   UNL     1       5.080   3.808  -1.122  0.00  0.00    +0.000 C 
ENDBRANCH  19  20
ENDBRANCH  18  19
ENDBRANCH  17  18
ENDBRANCH  16  17
ENDBRANCH  15  16
ENDBRANCH  13  15
ENDBRANCH   7  12
BRANCH   6  24
ATOM     22  O   UNL     1      -4.503   0.934   0.530  0.00  0.00    -0.244 OA
ATOM     23  OXT UNL     1      -4.179   2.218  -1.336  0.00  0.00    -0.244 OA
ATOM     24  C   UNL     1      -3.826   1.433  -0.411  0.00  0.00    +0.383 C 
ENDBRANCH   6  24
TORSDOF 8
