10254660
  -OEChem-03292013303D

 57 60  0     1  0  0  0  0  0999 V2000
    2.8022    1.5933   -0.6330 O   0  0  0  0  0  0  0  0  0  0  0  0
    3.3471   -0.1333    1.3996 O   0  0  0  0  0  0  0  0  0  0  0  0
    2.4837   -2.7276   -1.0570 O   0  0  0  0  0  0  0  0  0  0  0  0
    1.1446   -1.8782    2.2160 O   0  0  0  0  0  0  0  0  0  0  0  0
   -2.0424   -2.3472    1.4551 O   0  0  0  0  0  0  0  0  0  0  0  0
   -2.6841    2.2603   -1.3074 O   0  0  0  0  0  0  0  0  0  0  0  0
    1.7755    1.7629    1.4253 O   0  0  0  0  0  0  0  0  0  0  0  0
    1.9636   -4.7978   -0.1736 O   0  0  0  0  0  0  0  0  0  0  0  0
   -5.2170    2.2131   -0.9140 O   0  0  0  0  0  0  0  0  0  0  0  0
   -0.0397    1.0122   -0.9175 N   0  0  0  0  0  0  0  0  0  0  0  0
    0.3483    3.0411   -2.3499 N   0  0  0  0  0  0  0  0  0  0  0  0
    3.2075   -0.7048    0.0919 C   0  0  1  0  0  0  0  0  0  0  0  0
    2.5257   -2.1003    0.2255 C   0  0  1  0  0  0  0  0  0  0  0  0
    2.3814    0.2470   -0.8200 C   0  0  1  0  0  0  0  0  0  0  0  0
    1.0825   -2.0256    0.7981 C   0  0  2  0  0  0  0  0  0  0  0  0
    0.9288    0.1382   -0.5018 C   0  0  0  0  0  0  0  0  0  0  0  0
    0.3196   -0.8855    0.2020 C   0  0  0  0  0  0  0  0  0  0  0  0
   -1.0707   -0.5978    0.2273 C   0  0  0  0  0  0  0  0  0  0  0  0
    4.6332   -0.8399   -0.4580 C   0  0  0  0  0  0  0  0  0  0  0  0
   -1.2614    0.5782   -0.4713 C   0  0  0  0  0  0  0  0  0  0  0  0
   -2.1817   -1.3061    0.8267 C   0  0  0  0  0  0  0  0  0  0  0  0
   -2.5326    1.2172   -0.6837 C   0  0  0  0  0  0  0  0  0  0  0  0
   -3.5300   -0.6910    0.6390 C   0  0  0  0  0  0  0  0  0  0  0  0
   -3.7001    0.5106   -0.0796 C   0  0  0  0  0  0  0  0  0  0  0  0
    2.6450    2.0963    0.6308 C   0  0  0  0  0  0  0  0  0  0  0  0
    0.1691    2.1043   -1.6886 C   0  0  0  0  0  0  0  0  0  0  0  0
    1.9407   -3.9795   -1.0830 C   0  0  0  0  0  0  0  0  0  0  0  0
    3.7091    3.1459    0.8998 C   0  0  0  0  0  0  0  0  0  0  0  0
   -4.6450   -1.3299    1.1937 C   0  0  0  0  0  0  0  0  0  0  0  0
   -4.9796    1.0561   -0.2334 C   0  0  0  0  0  0  0  0  0  0  0  0
    1.2948   -4.2213   -2.4136 C   0  0  0  0  0  0  0  0  0  0  0  0
   -5.9169   -0.7780    1.0345 C   0  0  0  0  0  0  0  0  0  0  0  0
   -6.0834    0.4101    0.3239 C   0  0  0  0  0  0  0  0  0  0  0  0
    3.5955    4.2682   -0.1251 C   0  0  0  0  0  0  0  0  0  0  0  0
    3.5866    3.6890    2.3211 C   0  0  0  0  0  0  0  0  0  0  0  0
    3.1435   -2.7134    0.8968 H   0  0  0  0  0  0  0  0  0  0  0  0
    2.5278   -0.0140   -1.8753 H   0  0  0  0  0  0  0  0  0  0  0  0
    0.5104   -2.9384    0.6113 H   0  0  0  0  0  0  0  0  0  0  0  0
    5.2429   -1.4755    0.1946 H   0  0  0  0  0  0  0  0  0  0  0  0
    4.6427   -1.2720   -1.4638 H   0  0  0  0  0  0  0  0  0  0  0  0
    5.1380    0.1321   -0.5048 H   0  0  0  0  0  0  0  0  0  0  0  0
    4.2137    0.2992    1.4781 H   0  0  0  0  0  0  0  0  0  0  0  0
    1.5951   -2.6629    2.5723 H   0  0  0  0  0  0  0  0  0  0  0  0
    4.6863    2.6569    0.8058 H   0  0  0  0  0  0  0  0  0  0  0  0
   -4.5455   -2.2566    1.7524 H   0  0  0  0  0  0  0  0  0  0  0  0
    2.0433   -4.1531   -3.2069 H   0  0  0  0  0  0  0  0  0  0  0  0
    0.4955   -3.4932   -2.5740 H   0  0  0  0  0  0  0  0  0  0  0  0
    0.8602   -5.2249   -2.4289 H   0  0  0  0  0  0  0  0  0  0  0  0
   -7.0804    0.8276    0.2087 H   0  0  0  0  0  0  0  0  0  0  0  0
   -6.7805   -1.2760    1.4660 H   0  0  0  0  0  0  0  0  0  0  0  0
    4.3286    5.0562    0.0769 H   0  0  0  0  0  0  0  0  0  0  0  0
    2.5969    4.7190   -0.1106 H   0  0  0  0  0  0  0  0  0  0  0  0
    3.7764    3.9027   -1.1415 H   0  0  0  0  0  0  0  0  0  0  0  0
    4.3767    4.4180    2.5289 H   0  0  0  0  0  0  0  0  0  0  0  0
    3.6723    2.8811    3.0561 H   0  0  0  0  0  0  0  0  0  0  0  0
    2.6200    4.1800    2.4794 H   0  0  0  0  0  0  0  0  0  0  0  0
   -4.3928    2.5858   -1.2602 H   0  0  0  0  0  0  0  0  0  0  0  0
  1 14  1  0  0  0  0
  1 25  1  0  0  0  0
  2 12  1  0  0  0  0
  2 42  1  0  0  0  0
  3 13  1  0  0  0  0
  3 27  1  0  0  0  0
  4 15  1  0  0  0  0
  4 43  1  0  0  0  0
  5 21  2  0  0  0  0
  6 22  2  0  0  0  0
  7 25  2  0  0  0  0
  8 27  2  0  0  0  0
  9 30  1  0  0  0  0
  9 57  1  0  0  0  0
 10 16  1  0  0  0  0
 10 20  1  0  0  0  0
 10 26  1  0  0  0  0
 11 26  3  0  0  0  0
 12 13  1  0  0  0  0
 12 14  1  0  0  0  0
 12 19  1  0  0  0  0
 13 15  1  0  0  0  0
 13 36  1  0  0  0  0
 14 16  1  0  0  0  0
 14 37  1  0  0  0  0
 15 17  1  0  0  0  0
 15 38  1  0  0  0  0
 16 17  2  0  0  0  0
 17 18  1  0  0  0  0
 18 20  2  0  0  0  0
 18 21  1  0  0  0  0
 19 39  1  0  0  0  0
 19 40  1  0  0  0  0
 19 41  1  0  0  0  0
 20 22  1  0  0  0  0
 21 23  1  0  0  0  0
 22 24  1  0  0  0  0
 23 24  2  0  0  0  0
 23 29  1  0  0  0  0
 24 30  1  0  0  0  0
 25 28  1  0  0  0  0
 27 31  1  0  0  0  0
 28 34  1  0  0  0  0
 28 35  1  0  0  0  0
 28 44  1  0  0  0  0
 29 32  2  0  0  0  0
 29 45  1  0  0  0  0
 30 33  2  0  0  0  0
 31 46  1  0  0  0  0
 31 47  1  0  0  0  0
 31 48  1  0  0  0  0
 32 33  1  0  0  0  0
 32 50  1  0  0  0  0
 33 49  1  0  0  0  0
 34 51  1  0  0  0  0
 34 52  1  0  0  0  0
 34 53  1  0  0  0  0
 35 54  1  0  0  0  0
 35 55  1  0  0  0  0
 35 56  1  0  0  0  0
M  END
> <PUBCHEM_COMPOUND_CID>
10254660

> <PUBCHEM_CONFORMER_RMSD>
0.8

> <PUBCHEM_CONFORMER_DIVERSEORDER>
1
4
5
3
6
2

> <PUBCHEM_MMFF94_PARTIAL_CHARGES>
38
1 -0.43
10 0.4
11 -0.56
12 0.28
13 0.28
14 0.46
15 0.46
16 -0.33
17 -0.18
18 -0.09
2 -0.68
20 -0.24
21 0.57
22 0.57
23 0.09
24 0.09
25 0.66
26 0.46
27 0.66
28 0.06
29 -0.15
3 -0.43
30 0.08
31 0.06
32 -0.15
33 -0.15
4 -0.68
42 0.4
43 0.4
45 0.15
49 0.15
5 -0.57
50 0.15
57 0.45
6 -0.57
7 -0.57
8 -0.57
9 -0.53

> <PUBCHEM_EFFECTIVE_ROTOR_COUNT>
5.8

> <PUBCHEM_PHARMACOPHORE_FEATURES>
17
1 10 cation
1 11 acceptor
1 2 acceptor
1 2 donor
1 4 acceptor
1 4 donor
1 5 acceptor
1 6 acceptor
1 7 acceptor
1 8 acceptor
1 9 donor
3 10 11 26 cation
3 28 34 35 hydrophobe
5 10 16 17 18 20 rings
6 12 13 14 15 16 17 rings
6 18 20 21 22 23 24 rings
6 23 24 29 30 32 33 rings

> <PUBCHEM_HEAVY_ATOM_COUNT>
35

> <PUBCHEM_ATOM_DEF_STEREO_COUNT>
4

> <PUBCHEM_ATOM_UDEF_STEREO_COUNT>
0

> <PUBCHEM_BOND_DEF_STEREO_COUNT>
0

> <PUBCHEM_BOND_UDEF_STEREO_COUNT>
0

> <PUBCHEM_ISOTOPIC_ATOM_COUNT>
0

> <PUBCHEM_COMPONENT_COUNT>
1

> <PUBCHEM_CACTVS_TAUTO_COUNT>
5

> <PUBCHEM_CONFORMER_ID>
009C794400000001

> <PUBCHEM_MMFF94_ENERGY>
99.931

> <PUBCHEM_FEATURE_SELFOVERLAP>
88.416

> <PUBCHEM_SHAPE_FINGERPRINT>
10165383 225 18124602131097509552
11513181 2 18123202456762770918
11578080 2 18129104609595264009
12035758 1 18339903993065100248
12156800 1 10677125145638596446
12403259 226 18046063753104521327
12422481 6 18116133614871888512
12788726 201 17330843418206431606
13140716 1 18260820536177513080
13402501 40 18260834765093175022
13757389 114 17617111638242952684
14178342 30 17971188368446726179
14955137 171 18341607054671569602
15324884 4 17832174931868026210
15338160 23 17044280438696252888
15420108 30 18196641015993294418
15664445 248 18041860427589007078
1979834 28 18336554914368192457
20600515 1 17106191224030868626
20739085 24 18261396688686517452
21033648 29 18055071223053602192
21285901 2 18115593612712192151
22149856 69 18192737720541820387
22182313 1 18040709230730849285
23559900 14 18334019384561814645
3178227 256 18341900688537080578
3380486 77 16023923142628935950
350125 39 18334579070577694852
376196 1 18336826506282601834
3886686 26 16170285736915692818
495365 180 18272086145105565008
5104073 3 18260552225676699809
5265222 85 18119547650648425148
6442390 28 18196654218585807096
7808743 9 17617660294957045912
9658208 31 17910963757766592668
9709674 26 18262806164289294975

> <PUBCHEM_SHAPE_MULTIPOLES>
657.5
10.24
5.29
1.78
14.31
2.53
-0.1
-4.88
2.6
-7.23
-1.34
-0.66
-0.22
2.79

> <PUBCHEM_SHAPE_SELFOVERLAP>
1459.059

> <PUBCHEM_SHAPE_VOLUME>
345.7

> <PUBCHEM_COORDINATE_TYPE>
2
5
10

$$$$
