REMARK  Name = 102515299
REMARK  9 active torsions:
REMARK  status: ('A' for Active; 'I' for Inactive)
REMARK    1  A    between atoms: C_7  and  C_26
REMARK    2  A    between atoms: C_19  and  O_22
REMARK    3  A    between atoms: C_20  and  O_24
REMARK    4  A    between atoms: C_26  and  C_28
REMARK    5  A    between atoms: C_28  and  O_29
REMARK    6  A    between atoms: C_28  and  C_31
REMARK    7  A    between atoms: C_31  and  O_32
REMARK    8  A    between atoms: C_31  and  C_34
REMARK    9  A    between atoms: C_34  and  C_36
REMARK                            x       y       z     vdW  Elec       q    Type
REMARK                         _______ _______ _______ _____ _____    ______ ____
ROOT
ATOM      1  O   UNL     1      -2.724  -2.590   0.419  0.00  0.00    -0.449 OA
ATOM      2  O   UNL     1      -4.775  -2.923   1.286  0.00  0.00    -0.250 OA
ATOM      3  C   UNL     1       0.636   0.262   0.429  0.00  0.00    +0.000 C 
ATOM      4  C   UNL     1      -0.234   0.037  -0.825  0.00  0.00    +0.004 C 
ATOM      5  C   UNL     1      -1.659  -0.478  -0.541  0.00  0.00    +0.044 C 
ATOM      6  C   UNL     1      -2.255   0.178   0.740  0.00  0.00    +0.004 C 
ATOM      7  C   UNL     1       1.942   0.743  -0.259  0.00  0.00    +0.002 C 
ATOM      8  C   UNL     1      -3.836   0.290   0.675  0.00  0.00    +0.013 C 
ATOM      9  C   UNL     1      -0.022   1.332   1.328  0.00  0.00    +0.000 C 
ATOM     10  C   UNL     1       0.675  -0.698  -1.809  0.00  0.00    +0.000 C 
ATOM     11  C   UNL     1      -1.535   1.505   1.080  0.00  0.00    +0.000 C 
ATOM     12  C   UNL     1       2.088  -0.182  -1.485  0.00  0.00    +0.000 C 
ATOM     13  C   UNL     1      -4.452  -0.947  -0.061  0.00  0.00    +0.102 C 
ATOM     14  C   UNL     1       0.877  -1.023   1.253  0.00  0.00    +0.000 C 
ATOM     15  C   UNL     1      -1.821  -2.014  -0.561  0.00  0.00    +0.208 C 
ATOM     16  C   UNL     1      -4.296   1.565  -0.089  0.00  0.00    +0.032 C 
ATOM     17  C   UNL     1      -4.349   0.378   2.139  0.00  0.00    +0.001 C 
ATOM     18  C   UNL     1      -5.987  -0.864  -0.203  0.00  0.00    +0.043 C 
ATOM     19  C   UNL     1      -5.819   1.653  -0.273  0.00  0.00    +0.137 C 
ATOM     20  C   UNL     1      -6.402   0.409  -0.943  0.00  0.00    +0.138 C 
ATOM     21  C   UNL     1      -4.023  -2.241   0.595  0.00  0.00    +0.317 C 
ENDROOT
BRANCH  19  22
ATOM     22  O   UNL     1      -6.140   2.799  -1.058  0.00  0.00    -0.382 OA
ATOM     23  H   UNL     1      -5.772   3.592  -0.638  0.00  0.00    +0.210 HD
ENDBRANCH  19  22
BRANCH  20  24
ATOM     24  O   UNL     1      -5.935   0.344  -2.292  0.00  0.00    -0.382 OA
ATOM     25  H   UNL     1      -6.302  -0.443  -2.724  0.00  0.00    +0.210 HD
ENDBRANCH  20  24
BRANCH   7  26
ATOM     26  C   UNL     1       3.194   0.779   0.607  0.00  0.00    +0.029 C 
ATOM     27  C   UNL     1       2.937   1.649   1.846  0.00  0.00    +0.003 C 
BRANCH  26  28
ATOM     28  C   UNL     1       4.426   1.246  -0.212  0.00  0.00    +0.137 C 
BRANCH  28  29
ATOM     29  O   UNL     1       4.335   2.658  -0.446  0.00  0.00    -0.382 OA
ATOM     30  H   UNL     1       3.470   2.867  -0.833  0.00  0.00    +0.210 HD
ENDBRANCH  28  29
BRANCH  28  31
ATOM     31  C   UNL     1       5.818   0.966   0.403  0.00  0.00    +0.137 C 
BRANCH  31  32
ATOM     32  O   UNL     1       6.780   1.613  -0.435  0.00  0.00    -0.382 OA
ATOM     33  H   UNL     1       6.538   2.546  -0.547  0.00  0.00    +0.210 HD
ENDBRANCH  31  32
BRANCH  31  34
ATOM     34  C   UNL     1       6.182  -0.533   0.600  0.00  0.00    +0.029 C 
ATOM     35  C   UNL     1       7.603  -0.724   1.148  0.00  0.00    +0.003 C 
BRANCH  34  36
ATOM     36  C   UNL     1       5.910  -1.378  -0.686  0.00  0.00    +0.002 C 
ATOM     37  C   UNL     1       6.684  -0.944  -1.934  0.00  0.00    +0.000 C 
ATOM     38  C   UNL     1       6.178  -2.869  -0.431  0.00  0.00    +0.000 C 
ENDBRANCH  34  36
ENDBRANCH  31  34
ENDBRANCH  28  31
ENDBRANCH  26  28
ENDBRANCH   7  26
TORSDOF 9
