10252425
  -OEChem-03292013303D

 59 60  0     1  0  0  0  0  0999 V2000
   -5.9671    0.0051   -3.1995 S   0  0  0  0  0  0  0  0  0  0  0  0
   -1.4077    1.3301    0.1712 O   0  0  0  0  0  0  0  0  0  0  0  0
   -0.1595   -1.8986   -0.7652 O   0  0  0  0  0  0  0  0  0  0  0  0
    4.9413   -1.9359   -0.9974 O   0  0  0  0  0  0  0  0  0  0  0  0
    4.2447   -1.6328    1.1732 O   0  0  0  0  0  0  0  0  0  0  0  0
   -4.2063    1.9045    2.7830 O   0  0  0  0  0  0  0  0  0  0  0  0
   -1.8362   -0.7890    0.9969 N   0  0  0  0  0  0  0  0  0  0  0  0
    1.6697   -1.0457    0.3947 N   0  0  0  0  0  0  0  0  0  0  0  0
   -3.9015    2.0082    0.4656 N   0  0  0  0  0  0  0  0  0  0  0  0
   -0.4799   -1.0686    1.4500 C   0  0  1  0  0  0  0  0  0  0  0  0
   -0.6193   -2.2793    2.3657 C   0  0  0  0  0  0  0  0  0  0  0  0
   -1.8359   -3.0108    1.8040 C   0  0  0  0  0  0  0  0  0  0  0  0
   -2.7434   -1.8793    1.3459 C   0  0  0  0  0  0  0  0  0  0  0  0
   -2.2029    0.4322    0.4533 C   0  0  0  0  0  0  0  0  0  0  0  0
    0.3368   -1.3825    0.2327 C   0  0  0  0  0  0  0  0  0  0  0  0
   -3.6784    0.6147    0.2019 C   0  0  2  0  0  0  0  0  0  0  0  0
   -4.0590    0.2460   -1.2254 C   0  0  0  0  0  0  0  0  0  0  0  0
    2.6706   -1.2677   -0.6236 C   0  0  1  0  0  0  0  0  0  0  0  0
    2.7647   -0.0731   -1.5842 C   0  0  0  0  0  0  0  0  0  0  0  0
   -5.5500    0.4531   -1.4892 C   0  0  0  0  0  0  0  0  0  0  0  0
    4.0263   -1.6340   -0.0339 C   0  0  0  0  0  0  0  0  0  0  0  0
    3.2240    1.2175   -0.9442 C   0  0  0  0  0  0  0  0  0  0  0  0
   -4.1435    2.5197    1.7263 C   0  0  0  0  0  0  0  0  0  0  0  0
    2.2884    2.0997   -0.4038 C   0  0  0  0  0  0  0  0  0  0  0  0
    4.5836    1.5259   -0.8937 C   0  0  0  0  0  0  0  0  0  0  0  0
   -6.0000   -1.7906   -2.9990 C   0  0  0  0  0  0  0  0  0  0  0  0
    2.7120    3.2902    0.1869 C   0  0  0  0  0  0  0  0  0  0  0  0
    5.0072    2.7164   -0.3028 C   0  0  0  0  0  0  0  0  0  0  0  0
    4.0712    3.5984    0.2374 C   0  0  0  0  0  0  0  0  0  0  0  0
    6.2501   -2.2736   -0.5271 C   0  0  0  0  0  0  0  0  0  0  0  0
   -0.0765   -0.1939    1.9717 H   0  0  0  0  0  0  0  0  0  0  0  0
   -0.8375   -1.9477    3.3882 H   0  0  0  0  0  0  0  0  0  0  0  0
    0.2699   -2.9165    2.3940 H   0  0  0  0  0  0  0  0  0  0  0  0
   -1.5391   -3.6273    0.9473 H   0  0  0  0  0  0  0  0  0  0  0  0
   -2.3162   -3.6633    2.5386 H   0  0  0  0  0  0  0  0  0  0  0  0
   -3.3806   -1.5408    2.1703 H   0  0  0  0  0  0  0  0  0  0  0  0
   -3.3697   -2.1609    0.4958 H   0  0  0  0  0  0  0  0  0  0  0  0
   -4.2816    0.0505    0.9177 H   0  0  0  0  0  0  0  0  0  0  0  0
    1.9710   -0.6207    1.2671 H   0  0  0  0  0  0  0  0  0  0  0  0
   -3.7778   -0.7974   -1.4076 H   0  0  0  0  0  0  0  0  0  0  0  0
   -3.4715    0.8500   -1.9310 H   0  0  0  0  0  0  0  0  0  0  0  0
    2.3481   -2.1454   -1.1991 H   0  0  0  0  0  0  0  0  0  0  0  0
   -3.8230    2.6656   -0.3056 H   0  0  0  0  0  0  0  0  0  0  0  0
    3.4423   -0.3120   -2.4147 H   0  0  0  0  0  0  0  0  0  0  0  0
    1.7867    0.0979   -2.0548 H   0  0  0  0  0  0  0  0  0  0  0  0
   -6.1644   -0.1256   -0.7917 H   0  0  0  0  0  0  0  0  0  0  0  0
   -5.8164    1.5071   -1.3613 H   0  0  0  0  0  0  0  0  0  0  0  0
   -4.2737    3.6135    1.6812 H   0  0  0  0  0  0  0  0  0  0  0  0
    1.2270    1.8733   -0.4396 H   0  0  0  0  0  0  0  0  0  0  0  0
    5.3245    0.8533   -1.3165 H   0  0  0  0  0  0  0  0  0  0  0  0
   -5.0053   -2.1789   -2.7688 H   0  0  0  0  0  0  0  0  0  0  0  0
   -6.7015   -2.0784   -2.2116 H   0  0  0  0  0  0  0  0  0  0  0  0
   -6.3326   -2.2455   -3.9361 H   0  0  0  0  0  0  0  0  0  0  0  0
    1.9832    3.9773    0.6068 H   0  0  0  0  0  0  0  0  0  0  0  0
    6.0655    2.9573   -0.2649 H   0  0  0  0  0  0  0  0  0  0  0  0
    4.4012    4.5255    0.6970 H   0  0  0  0  0  0  0  0  0  0  0  0
    6.8785   -2.4875   -1.3957 H   0  0  0  0  0  0  0  0  0  0  0  0
    6.2072   -3.1663    0.1041 H   0  0  0  0  0  0  0  0  0  0  0  0
    6.6842   -1.4321    0.0212 H   0  0  0  0  0  0  0  0  0  0  0  0
  1 20  1  0  0  0  0
  1 26  1  0  0  0  0
  2 14  2  0  0  0  0
  3 15  2  0  0  0  0
  4 21  1  0  0  0  0
  4 30  1  0  0  0  0
  5 21  2  0  0  0  0
  6 23  2  0  0  0  0
  7 10  1  0  0  0  0
  7 13  1  0  0  0  0
  7 14  1  0  0  0  0
  8 15  1  0  0  0  0
  8 18  1  0  0  0  0
  8 39  1  0  0  0  0
  9 16  1  0  0  0  0
  9 23  1  0  0  0  0
  9 43  1  0  0  0  0
 10 11  1  0  0  0  0
 10 15  1  0  0  0  0
 10 31  1  0  0  0  0
 11 12  1  0  0  0  0
 11 32  1  0  0  0  0
 11 33  1  0  0  0  0
 12 13  1  0  0  0  0
 12 34  1  0  0  0  0
 12 35  1  0  0  0  0
 13 36  1  0  0  0  0
 13 37  1  0  0  0  0
 14 16  1  0  0  0  0
 16 17  1  0  0  0  0
 16 38  1  0  0  0  0
 17 20  1  0  0  0  0
 17 40  1  0  0  0  0
 17 41  1  0  0  0  0
 18 19  1  0  0  0  0
 18 21  1  0  0  0  0
 18 42  1  0  0  0  0
 19 22  1  0  0  0  0
 19 44  1  0  0  0  0
 19 45  1  0  0  0  0
 20 46  1  0  0  0  0
 20 47  1  0  0  0  0
 22 24  2  0  0  0  0
 22 25  1  0  0  0  0
 23 48  1  0  0  0  0
 24 27  1  0  0  0  0
 24 49  1  0  0  0  0
 25 28  2  0  0  0  0
 25 50  1  0  0  0  0
 26 51  1  0  0  0  0
 26 52  1  0  0  0  0
 26 53  1  0  0  0  0
 27 29  2  0  0  0  0
 27 54  1  0  0  0  0
 28 29  1  0  0  0  0
 28 55  1  0  0  0  0
 29 56  1  0  0  0  0
 30 57  1  0  0  0  0
 30 58  1  0  0  0  0
 30 59  1  0  0  0  0
M  END
> <PUBCHEM_COMPOUND_CID>
10252425

> <PUBCHEM_CONFORMER_RMSD>
1.2

> <PUBCHEM_CONFORMER_DIVERSEORDER>
1
34
17
73
92
25
18
102
7
83
97
45
24
70
82
103
85
42
88
57
21
43
60
75
56
46
19
41
50
96
90
107
109
22
35
76
11
69
23
110
52
94
33
65
30
89
44
93
68
29
3
95
47
14
27
2
87
64
111
32
66
84
108
106
62
36
59
91
40
31
79
86
51
10
98
81
12
55
100
104
16
15
38
71
67
80
99
72
4
28
77
101
74
20
58
54
49
63
105
13
5
53
6
8
39
48
37
61
78
9
26

> <PUBCHEM_MMFF94_PARTIAL_CHARGES>
35
1 -0.46
10 0.36
13 0.3
14 0.57
15 0.57
16 0.36
18 0.36
19 0.14
2 -0.57
20 0.23
21 0.66
22 -0.14
23 0.57
24 -0.15
25 -0.15
26 0.23
27 -0.15
28 -0.15
29 -0.15
3 -0.57
30 0.28
39 0.37
4 -0.43
43 0.37
48 0.06
49 0.15
5 -0.57
50 0.15
54 0.15
55 0.15
56 0.15
6 -0.57
7 -0.66
8 -0.73
9 -0.73

> <PUBCHEM_EFFECTIVE_ROTOR_COUNT>
15

> <PUBCHEM_PHARMACOPHORE_FEATURES>
9
1 2 acceptor
1 26 hydrophobe
1 3 acceptor
1 5 acceptor
1 6 acceptor
1 8 donor
1 9 donor
5 7 10 11 12 13 rings
6 22 24 25 27 28 29 rings

> <PUBCHEM_HEAVY_ATOM_COUNT>
30

> <PUBCHEM_ATOM_DEF_STEREO_COUNT>
3

> <PUBCHEM_ATOM_UDEF_STEREO_COUNT>
0

> <PUBCHEM_BOND_DEF_STEREO_COUNT>
0

> <PUBCHEM_BOND_UDEF_STEREO_COUNT>
0

> <PUBCHEM_ISOTOPIC_ATOM_COUNT>
0

> <PUBCHEM_COMPONENT_COUNT>
1

> <PUBCHEM_CACTVS_TAUTO_COUNT>
4

> <PUBCHEM_CONFORMER_ID>
009C708900000001

> <PUBCHEM_MMFF94_ENERGY>
69.9156

> <PUBCHEM_FEATURE_SELFOVERLAP>
45.672

> <PUBCHEM_SHAPE_FINGERPRINT>
1100329 8 18263658277131278896
11578080 2 17604425314673967238
12166972 35 17917988348340106286
12403259 415 17603871096119818335
12633257 1 18262532381234534178
12645989 146 18199188391531264510
12788726 201 17701563722129475776
13140716 1 18263662739248897498
13540713 4 18115316703491594498
14251764 38 18411987987401975928
15295992 7 18189076255624367994
21033648 144 18333735727451521949
21033648 29 17022903441264313005
21859007 373 17023724746227124924
23559900 14 18408609145710887746
25223398 141 17203030903730767023
3388396 114 18200028572459188149
4015057 19 18412265046946370000
5104073 3 18261127287173846506
6086070 43 17967806141831110114

> <PUBCHEM_SHAPE_MULTIPOLES>
576.95
14.49
3.99
2.54
3.19
1.24
0.51
2.48
9.52
-4.12
-1.67
5.81
-0.56
-0.73

> <PUBCHEM_SHAPE_SELFOVERLAP>
1169.372

> <PUBCHEM_SHAPE_VOLUME>
337.8

> <PUBCHEM_COORDINATE_TYPE>
2
5
10

$$$$
