REMARK  Name = 102599660
REMARK  4 active torsions:
REMARK  status: ('A' for Active; 'I' for Inactive)
REMARK    1  A    between atoms: C_9  and  O_32
REMARK    2  A    between atoms: C_11  and  O_34
REMARK    3  A    between atoms: C_12  and  O_36
REMARK    4  A    between atoms: C_23  and  C_38
REMARK                            x       y       z     vdW  Elec       q    Type
REMARK                         _______ _______ _______ _____ _____    ______ ____
ROOT
ATOM      1  O   UNL     1       2.567   0.668   0.817  0.00  0.00    -0.448 OA
ATOM      2  O   UNL     1       1.593   0.365  -2.501  0.00  0.00    -0.292 OA
ATOM      3  O   UNL     1       0.745   1.475   1.924  0.00  0.00    -0.250 OA
ATOM      4  C   UNL     1      -3.173   0.100  -0.168  0.00  0.00    +0.011 C 
ATOM      5  C   UNL     1      -1.774  -0.393   0.387  0.00  0.00    +0.030 C 
ATOM      6  C   UNL     1      -4.368  -0.399   0.682  0.00  0.00    +0.049 C 
ATOM      7  C   UNL     1      -1.828  -1.983   0.344  0.00  0.00    +0.028 C 
ATOM      8  C   UNL     1      -3.281   1.628  -0.389  0.00  0.00    +0.030 C 
ATOM      9  C   UNL     1      -5.697  -0.202  -0.089  0.00  0.00    +0.117 C 
ATOM     10  C   UNL     1      -5.660   0.999  -1.071  0.00  0.00    +0.054 C 
ATOM     11  C   UNL     1      -4.732   2.117  -0.565  0.00  0.00    +0.113 C 
ATOM     12  C   UNL     1      -0.630   0.026  -0.579  0.00  0.00    +0.128 C 
ATOM     13  C   UNL     1      -4.208  -1.831   1.140  0.00  0.00    -0.029 C 
ATOM     14  C   UNL     1       3.002   0.269  -0.520  0.00  0.00    +0.191 C 
ATOM     15  C   UNL     1      -1.627   0.077   1.856  0.00  0.00    +0.003 C 
ATOM     16  C   UNL     1      -3.075  -2.536   1.004  0.00  0.00    -0.031 C 
ATOM     17  C   UNL     1       3.614  -1.168  -0.468  0.00  0.00    +0.062 C 
ATOM     18  C   UNL     1      -0.523  -2.689   0.838  0.00  0.00    +0.030 C 
ATOM     19  C   UNL     1       0.600   0.506  -0.303  0.00  0.00    +0.186 C 
ATOM     20  C   UNL     1       4.009   1.324  -0.996  0.00  0.00    +0.052 C 
ATOM     21  C   UNL     1       1.707   0.381  -1.287  0.00  0.00    +0.199 C 
ATOM     22  C   UNL     1      -7.058   1.533  -1.396  0.00  0.00    +0.005 C 
ATOM     23  C   UNL     1       5.276   1.383  -0.112  0.00  0.00    +0.022 C 
ATOM     24  C   UNL     1       2.694  -2.216   0.274  0.00  0.00    +0.033 C 
ATOM     25  C   UNL     1       4.945  -1.085   0.284  0.00  0.00    -0.031 C 
ATOM     26  C   UNL     1       5.686   0.029   0.444  0.00  0.00    -0.048 C 
ATOM     27  C   UNL     1       0.341  -3.125  -0.319  0.00  0.00    -0.030 C 
ATOM     28  C   UNL     1       1.236   0.927   0.958  0.00  0.00    +0.326 C 
ATOM     29  C   UNL     1       4.001  -1.681  -1.878  0.00  0.00    +0.009 C 
ATOM     30  C   UNL     1       1.646  -2.917  -0.556  0.00  0.00    -0.030 C 
ATOM     31  C   UNL     1       7.015  -0.037   1.147  0.00  0.00    +0.026 C 
ENDROOT
BRANCH   9  32
ATOM     32  O   UNL     1      -6.750  -0.054   0.867  0.00  0.00    -0.384 OA
ATOM     33  H   UNL     1      -6.752  -0.816   1.467  0.00  0.00    +0.210 HD
ENDBRANCH   9  32
BRANCH  11  34
ATOM     34  O   UNL     1      -5.223   2.614   0.680  0.00  0.00    -0.384 OA
ATOM     35  H   UNL     1      -4.639   3.319   1.000  0.00  0.00    +0.210 HD
ENDBRANCH  11  34
BRANCH  12  36
ATOM     36  O   UNL     1      -0.965  -0.312  -1.894  0.00  0.00    -0.383 OA
ATOM     37  H   UNL     1      -1.819  -0.646  -2.090  0.00  0.00    +0.210 HD
ENDBRANCH  12  36
BRANCH  23  38
ATOM     38  C   UNL     1       5.119   2.424   1.006  0.00  0.00    +0.004 C 
ATOM     39  C   UNL     1       4.775   3.785   0.440  0.00  0.00    +0.000 C 
ENDBRANCH  23  38
TORSDOF 4
