REMARK  Name = 102515291
REMARK  9 active torsions:
REMARK  status: ('A' for Active; 'I' for Inactive)
REMARK    1  A    between atoms: CA_1  and  C_4
REMARK    2  A    between atoms: CA_1  and  N_13
REMARK    3  A    between atoms: CA_1  and  C_17
REMARK    4  A    between atoms: N_3  and  CA_6
REMARK    5  A    between atoms: CA_6  and  C_9
REMARK    6  A    between atoms: CA_6  and  CB_10
REMARK    7  A    between atoms: C_17  and  N_19
REMARK    8  A    between atoms: C_20  and  C_23
REMARK    9  A    between atoms: C_24  and  C_27
REMARK                            x       y       z     vdW  Elec       q    Type
REMARK                         _______ _______ _______ _____ _____    ______ ____
ROOT
ATOM      1  CA  UNL     1       1.875  -2.255  -0.162  0.00  0.00    +0.033 C 
ENDROOT
BRANCH   1   4
ATOM      2  O   UNL     1       3.166  -0.849   1.321  0.00  0.00    -0.277 OA
ATOM      3  N   UNL     1       1.614   0.145  -0.091  0.00  0.00    -0.298 N 
ATOM      4  C   ACE A   1       2.305  -0.930   0.448  0.00  0.00    +0.204 C 
ATOM      5  H   UNL     1       0.941  -0.029  -0.789  0.00  0.00    +0.150 HD
BRANCH   3   6
ATOM      6  CA  UNL     1       1.838   1.510   0.326  0.00  0.00    +0.176 C 
BRANCH   6   9
ATOM      7  O   UNL     1      -0.155   1.262   1.618  0.00  0.00    -0.244 OA
ATOM      8  OXT UNL     1       0.530   3.360   1.043  0.00  0.00    -0.244 OA
ATOM      9  C   UNL     1       0.612   2.097   1.060  0.00  0.00    +0.382 C 
ENDBRANCH   6   9
BRANCH   6  10
ATOM     10  CB  UNL     1       2.381   2.357  -0.847  0.00  0.00    +0.029 C 
ATOM     11  CG1 UNL     1       3.612   1.730  -1.512  0.00  0.00    +0.002 C 
ATOM     12  CG2 UNL     1       1.299   2.614  -1.902  0.00  0.00    +0.002 C 
ENDBRANCH   6  10
ENDBRANCH   3   6
ENDBRANCH   1   4
BRANCH   1  13
ATOM     13  N   UNL     1       3.034  -3.190  -0.253  0.00  0.00    +0.389 N 
ATOM     14  H1  UNL     1       2.727  -4.072  -0.663  0.00  0.00    -0.088 HD
ATOM     15  H2  UNL     1       3.406  -3.362   0.681  0.00  0.00    -0.088 HD
ATOM     16  H3  UNL     1       3.760  -2.777  -0.838  0.00  0.00    -0.088 HD
ENDBRANCH   1  13
BRANCH   1  17
ATOM     17  C   UNL     1       0.755  -2.930   0.626  0.00  0.00    +0.077 C 
BRANCH  17  19
ATOM     18  O   UNL     1      -1.502  -2.895  -1.206  0.00  0.00    -0.272 OA
ATOM     19  N   UNL     1      -0.435  -2.125   0.716  0.00  0.00    -0.304 N 
ATOM     20  C   UNL     1      -1.462  -2.179  -0.212  0.00  0.00    +0.253 C 
ATOM     21  H   UNL     1      -0.523  -1.504   1.475  0.00  0.00    +0.149 HD
BRANCH  20  23
ATOM     22  O   UNL     1      -3.389  -0.994  -1.074  0.00  0.00    -0.335 OA
ATOM     23  C   UNL     1      -2.600  -1.259   0.079  0.00  0.00    +0.227 C 
ATOM     24  C   UNL     1      -2.618   0.095  -0.548  0.00  0.00    +0.227 C 
BRANCH  24  27
ATOM     25  O   UNL     1      -4.421   0.862   0.723  0.00  0.00    -0.273 OA
ATOM     26  N   UNL     1      -3.001   2.426  -0.206  0.00  0.00    -0.327 N 
ATOM     27  C   UNL     1      -3.436   1.148   0.052  0.00  0.00    +0.250 C 
ATOM     28  H   UNL     1      -3.494   3.197   0.160  0.00  0.00    +0.145 HD
ATOM     29  H   UNL     1      -2.198   2.571  -0.756  0.00  0.00    +0.145 HD
ENDBRANCH  24  27
ENDBRANCH  20  23
ENDBRANCH  17  19
ENDBRANCH   1  17
TORSDOF 9
