REMARK  Name = 10252640
REMARK  6 active torsions:
REMARK  status: ('A' for Active; 'I' for Inactive)
REMARK    1  A    between atoms: N_1  and  C_31
REMARK    2  A    between atoms: C_4  and  N_23
REMARK    3  A    between atoms: C_6  and  C_13
REMARK    4  A    between atoms: C_14  and  C_15
REMARK    5  A    between atoms: C_15  and  C_18
REMARK    6  A    between atoms: N_23  and  C_26
REMARK                            x       y       z     vdW  Elec       q    Type
REMARK                         _______ _______ _______ _____ _____    ______ ____
ROOT
ATOM      1  N   UNL     1      -4.919  -1.331   0.385  0.00  0.00    -0.195 N 
ATOM      2  N   UNL     1      -2.866  -2.285  -0.467  0.00  0.00    -0.227 NA
ATOM      3  N   UNL     1      -5.450  -0.135   0.699  0.00  0.00    -0.175 NA
ATOM      4  C   UNL     1      -2.019   0.478  -0.503  0.00  0.00    +0.055 C 
ATOM      5  C   UNL     1      -3.307   0.091  -0.068  0.00  0.00    +0.067 C 
ATOM      6  C   UNL     1      -1.178  -0.572  -0.918  0.00  0.00    +0.087 C 
ATOM      7  C   UNL     1      -3.639  -1.255  -0.080  0.00  0.00    +0.153 C 
ATOM      8  C   UNL     1      -4.466   0.726   0.421  0.00  0.00    +0.122 C 
ATOM      9  C   UNL     1      -1.639  -1.883  -0.879  0.00  0.00    +0.106 C 
ENDROOT
BRANCH   6  13
ATOM     10  O   UNL     1       1.067  -1.293  -1.161  0.00  0.00    -0.419 OA
ATOM     11  N   UNL     1       0.650   0.740  -1.996  0.00  0.00    -0.107 NA
ATOM     12  N   UNL     1       1.986   0.458  -2.208  0.00  0.00    -0.111 NA
ATOM     13  C   UNL     1       0.163  -0.307  -1.386  0.00  0.00    +0.252 A 
ATOM     14  C   UNL     1       2.185  -0.738  -1.704  0.00  0.00    +0.228 A 
BRANCH  14  15
ATOM     15  C   UNL     1       3.415  -1.538  -1.648  0.00  0.00    +0.105 C 
BRANCH  15  18
ATOM     16  S   UNL     1       5.429  -0.092  -0.410  0.00  0.00    -0.080 S 
ATOM     17  N   UNL     1       5.081  -1.490   1.737  0.00  0.00    -0.408 NA
ATOM     18  C   UNL     1       4.248  -1.302  -0.390  0.00  0.00    +0.111 C 
ATOM     19  C   UNL     1       4.182  -1.944   0.792  0.00  0.00    +0.098 C 
ATOM     20  C   UNL     1       5.791  -0.514   1.213  0.00  0.00    +0.134 C 
ATOM     21  C   UNL     1       3.275  -3.047   1.170  0.00  0.00    +0.062 C 
ATOM     22  C   UNL     1       6.857   0.221   1.927  0.00  0.00    +0.074 C 
ENDBRANCH  15  18
ENDBRANCH  14  15
ENDBRANCH   6  13
BRANCH   4  23
ATOM     23  N   UNL     1      -1.615   1.800  -0.521  0.00  0.00    -0.334 N 
ATOM     24  H   UNL     1      -1.349   2.195  -1.383  0.00  0.00    +0.147 HD
BRANCH  23  26
ATOM     25  O   UNL     1       0.796   4.307   0.591  0.00  0.00    -0.354 OA
ATOM     26  C   UNL     1      -1.563   2.637   0.661  0.00  0.00    +0.074 C 
ATOM     27  C   UNL     1      -1.602   4.112   0.257  0.00  0.00    +0.052 C 
ATOM     28  C   UNL     1      -0.304   2.326   1.474  0.00  0.00    +0.052 C 
ATOM     29  C   UNL     1      -0.269   4.579  -0.319  0.00  0.00    +0.144 C 
ATOM     30  C   UNL     1       0.952   2.910   0.834  0.00  0.00    +0.144 C 
ENDBRANCH  23  26
ENDBRANCH   4  23
BRANCH   1  31
ATOM     31  C   UNL     1      -5.708  -2.527   0.558  0.00  0.00    +0.118 C 
ATOM     32  C   UNL     1      -5.538  -3.133   1.941  0.00  0.00    +0.025 C 
ENDBRANCH   1  31
TORSDOF 6
