102556
  -OEChem-03292013323D

 44 45  0     1  0  0  0  0  0999 V2000
    1.4970   -1.5539   -0.5574 S   0  0  0  0  0  0  0  0  0  0  0  0
    2.3993   -2.1815    0.3940 O   0  0  0  0  0  0  0  0  0  0  0  0
    1.1488   -2.2462   -1.7869 O   0  0  0  0  0  0  0  0  0  0  0  0
    1.5686    3.0404    0.9578 O   0  0  0  0  0  0  0  0  0  0  0  0
    0.6622    2.2874   -0.9798 O   0  0  0  0  0  0  0  0  0  0  0  0
    5.2027   -0.4622   -0.7376 O   0  0  0  0  0  0  0  0  0  0  0  0
    2.0932   -0.0027   -0.9460 N   0  0  0  0  0  0  0  0  0  0  0  0
   -4.6200    0.4529    0.3897 N   0  0  0  0  0  0  0  0  0  0  0  0
    5.1627   -0.0909    1.5317 N   0  0  0  0  0  0  0  0  0  0  0  0
   -0.0046   -1.1732    0.2726 C   0  0  0  0  0  0  0  0  0  0  0  0
   -1.1274   -0.6481   -0.3878 C   0  0  0  0  0  0  0  0  0  0  0  0
   -2.2994   -0.3692    0.3549 C   0  0  0  0  0  0  0  0  0  0  0  0
    2.3813    0.9643    0.1229 C   0  0  1  0  0  0  0  0  0  0  0  0
   -3.4222    0.1556   -0.3056 C   0  0  0  0  0  0  0  0  0  0  0  0
   -0.0370   -1.4195    1.6454 C   0  0  0  0  0  0  0  0  0  0  0  0
   -1.1128   -0.3943   -1.7689 C   0  0  0  0  0  0  0  0  0  0  0  0
   -2.3141   -0.6234    1.7360 C   0  0  0  0  0  0  0  0  0  0  0  0
    3.8569    1.3581    0.0914 C   0  0  0  0  0  0  0  0  0  0  0  0
   -1.1894   -1.1453    2.3758 C   0  0  0  0  0  0  0  0  0  0  0  0
   -3.3901    0.4017   -1.6785 C   0  0  0  0  0  0  0  0  0  0  0  0
   -2.2376    0.1272   -2.4087 C   0  0  0  0  0  0  0  0  0  0  0  0
    1.4475    2.1395   -0.0525 C   0  0  0  0  0  0  0  0  0  0  0  0
   -5.6494   -0.5534    0.5294 C   0  0  0  0  0  0  0  0  0  0  0  0
   -4.8156    1.7603    0.9764 C   0  0  0  0  0  0  0  0  0  0  0  0
    4.7993    0.1764    0.2317 C   0  0  0  0  0  0  0  0  0  0  0  0
    2.1575    0.5147    1.0968 H   0  0  0  0  0  0  0  0  0  0  0  0
    2.0399    0.3496   -1.9092 H   0  0  0  0  0  0  0  0  0  0  0  0
    0.8170   -1.8208    2.1826 H   0  0  0  0  0  0  0  0  0  0  0  0
   -0.2475   -0.5399   -2.4025 H   0  0  0  0  0  0  0  0  0  0  0  0
    4.0739    2.0880    0.8811 H   0  0  0  0  0  0  0  0  0  0  0  0
    4.0981    1.8590   -0.8553 H   0  0  0  0  0  0  0  0  0  0  0  0
   -3.1907   -0.4228    2.3469 H   0  0  0  0  0  0  0  0  0  0  0  0
   -1.2136   -1.3358    3.4449 H   0  0  0  0  0  0  0  0  0  0  0  0
   -4.2582    0.8101   -2.1900 H   0  0  0  0  0  0  0  0  0  0  0  0
   -2.2110    0.3283   -3.4758 H   0  0  0  0  0  0  0  0  0  0  0  0
   -5.3318   -1.3386    1.2231 H   0  0  0  0  0  0  0  0  0  0  0  0
   -5.8743   -1.0179   -0.4371 H   0  0  0  0  0  0  0  0  0  0  0  0
   -6.5845   -0.1283    0.9094 H   0  0  0  0  0  0  0  0  0  0  0  0
   -5.0627    2.4909    0.1991 H   0  0  0  0  0  0  0  0  0  0  0  0
   -3.9129    2.1021    1.4946 H   0  0  0  0  0  0  0  0  0  0  0  0
   -5.6292    1.7587    1.7095 H   0  0  0  0  0  0  0  0  0  0  0  0
    0.9597    3.8010    0.8436 H   0  0  0  0  0  0  0  0  0  0  0  0
    5.7937   -0.8548    1.7503 H   0  0  0  0  0  0  0  0  0  0  0  0
    4.8125    0.4493    2.3163 H   0  0  0  0  0  0  0  0  0  0  0  0
  1  2  2  0  0  0  0
  1  3  2  0  0  0  0
  1  7  1  0  0  0  0
  1 10  1  0  0  0  0
  4 22  1  0  0  0  0
  4 42  1  0  0  0  0
  5 22  2  0  0  0  0
  6 25  2  0  0  0  0
  7 13  1  0  0  0  0
  7 27  1  0  0  0  0
  8 14  1  0  0  0  0
  8 23  1  0  0  0  0
  8 24  1  0  0  0  0
  9 25  1  0  0  0  0
  9 43  1  0  0  0  0
  9 44  1  0  0  0  0
 10 11  1  0  0  0  0
 10 15  2  0  0  0  0
 11 12  2  0  0  0  0
 11 16  1  0  0  0  0
 12 14  1  0  0  0  0
 12 17  1  0  0  0  0
 13 18  1  0  0  0  0
 13 22  1  0  0  0  0
 13 26  1  0  0  0  0
 14 20  2  0  0  0  0
 15 19  1  0  0  0  0
 15 28  1  0  0  0  0
 16 21  2  0  0  0  0
 16 29  1  0  0  0  0
 17 19  2  0  0  0  0
 17 32  1  0  0  0  0
 18 25  1  0  0  0  0
 18 30  1  0  0  0  0
 18 31  1  0  0  0  0
 19 33  1  0  0  0  0
 20 21  1  0  0  0  0
 20 34  1  0  0  0  0
 21 35  1  0  0  0  0
 23 36  1  0  0  0  0
 23 37  1  0  0  0  0
 23 38  1  0  0  0  0
 24 39  1  0  0  0  0
 24 40  1  0  0  0  0
 24 41  1  0  0  0  0
M  END
> <PUBCHEM_COMPOUND_CID>
102556

> <PUBCHEM_CONFORMER_RMSD>
0.8

> <PUBCHEM_CONFORMER_DIVERSEORDER>
2
88
46
102
109
125
121
91
62
115
114
84
87
106
92
56
118
81
116
90
100
107
67
64
66
93
40
73
104
72
105
126
86
101
77
98
113
99
27
71
59
42
55
75
97
25
111
26
34
44
65
110
68
78
122
49
63
83
117
96
95
52
16
45
54
120
43
103
76
47
30
48
70
38
24
39
124
19
29
85
10
79
94
31
21
22
12
123
3
37
80
20
35
11
5
8
53
69
119
15
6
7
58
14
51
1
36
18
32
89
50
41
108
17
33
74
28
13
82
9
60
112
57
23
61
4

> <PUBCHEM_MMFF94_PARTIAL_CHARGES>
33
1 1.45
10 -0.01
13 0.42
14 0.1
15 -0.15
16 -0.15
17 -0.15
18 0.06
19 -0.15
2 -0.65
20 -0.15
21 -0.15
22 0.66
23 0.37
24 0.37
25 0.57
27 0.42
28 0.15
29 0.15
3 -0.65
32 0.15
33 0.15
34 0.15
35 0.15
4 -0.65
42 0.5
43 0.37
44 0.37
5 -0.57
6 -0.57
7 -0.91
8 -0.84
9 -0.8

> <PUBCHEM_EFFECTIVE_ROTOR_COUNT>
7

> <PUBCHEM_PHARMACOPHORE_FEATURES>
11
1 2 acceptor
1 3 acceptor
1 4 acceptor
1 5 acceptor
1 6 acceptor
1 7 donor
1 8 cation
1 9 donor
3 4 5 22 anion
6 10 11 12 15 17 19 rings
6 11 12 14 16 20 21 rings

> <PUBCHEM_HEAVY_ATOM_COUNT>
25

> <PUBCHEM_ATOM_DEF_STEREO_COUNT>
0

> <PUBCHEM_ATOM_UDEF_STEREO_COUNT>
1

> <PUBCHEM_BOND_DEF_STEREO_COUNT>
0

> <PUBCHEM_BOND_UDEF_STEREO_COUNT>
0

> <PUBCHEM_ISOTOPIC_ATOM_COUNT>
0

> <PUBCHEM_COMPONENT_COUNT>
1

> <PUBCHEM_CACTVS_TAUTO_COUNT>
2

> <PUBCHEM_CONFORMER_ID>
0001909C00000002

> <PUBCHEM_MMFF94_ENERGY>
78.3493

> <PUBCHEM_FEATURE_SELFOVERLAP>
55.925

> <PUBCHEM_SHAPE_FINGERPRINT>
10366900 7 17822290223043357903
11370993 70 15410900660668894308
11640471 11 17346609585528830153
12011746 2 16950555610679784127
12035758 1 17967817175390798256
12236239 1 17346881143399895174
12293681 4 18335995211368109105
12422481 6 18125712396995665352
12467345 10 17203892950457949060
12592029 89 18130797784329319303
12633257 1 17822300105963650585
13402501 40 17967531289598653697
15238133 3 18336279954525002268
15295992 7 18262802993928041793
1813 80 17270902536780273262
18785283 64 18115594892681362028
192875 21 17346043371748787912
20600515 1 16805617992037880279
20645476 183 17489584576342721743
21033648 29 17096066074405480733
23175994 123 18334020484294942940
23402539 116 14405186161960268521
23559900 14 17386293074144013086
2748010 2 16082487740619873359
3524813 1 17821444668689606525
4340502 62 18130518508656004151
474 4 18201440297990539987
5265222 85 16805332089556918786
57724786 102 18335705009202982188
9981440 41 16905781525411891520

> <PUBCHEM_SHAPE_MULTIPOLES>
474.05
9.79
2.22
1.97
0.97
0.73
-0.39
1.75
2.14
1.06
0.55
-0.92
-0.33
0.73

> <PUBCHEM_SHAPE_SELFOVERLAP>
991.942

> <PUBCHEM_SHAPE_VOLUME>
269.2

> <PUBCHEM_COORDINATE_TYPE>
2
5
10

$$$$
