10254588
  -OEChem-03292013303D

 57 62  0     1  0  0  0  0  0999 V2000
   -1.7202   -1.0508   -2.1442 S   0  0  0  0  0  0  0  0  0  0  0  0
   -5.6421    0.2873    1.1277 S   0  0  0  0  0  0  0  0  0  0  0  0
    0.0700    2.0249   -0.2984 O   0  0  0  0  0  0  0  0  0  0  0  0
   -2.1269    2.2127   -2.0677 O   0  0  0  0  0  0  0  0  0  0  0  0
   -3.2064   -0.9840    2.1057 O   0  0  0  0  0  0  0  0  0  0  0  0
   -1.7359   -0.2564    0.4888 N   0  0  0  0  0  0  0  0  0  0  0  0
   -0.4624   -2.0621    1.4277 N   0  0  0  0  0  0  0  0  0  0  0  0
   -3.6510    1.3712   -0.5144 N   0  0  0  0  0  0  0  0  0  0  0  0
    3.5225    0.6737    2.4183 N   0  0  0  0  0  0  0  0  0  0  0  0
    0.6780   -0.2650    0.2436 C   0  0  2  0  0  0  0  0  0  0  0  0
   -0.5068   -0.6196    1.2076 C   0  0  1  0  0  0  0  0  0  0  0  0
    0.0037    0.6767   -0.7888 C   0  0  1  0  0  0  0  0  0  0  0  0
   -1.4824    0.2350   -0.8598 C   0  0  1  0  0  0  0  0  0  0  0  0
    1.0544   -1.6388   -0.2740 C   0  0  0  0  0  0  0  0  0  0  0  0
    1.9541    0.2470    0.9014 C   0  0  0  0  0  0  0  0  0  0  0  0
    0.3622   -2.6151    0.4538 C   0  0  0  0  0  0  0  0  0  0  0  0
   -2.4231    1.3916   -1.1965 C   0  0  0  0  0  0  0  0  0  0  0  0
   -2.9992   -0.3957    1.0445 C   0  0  0  0  0  0  0  0  0  0  0  0
   -4.1127    0.1321    0.1448 C   0  0  1  0  0  0  0  0  0  0  0  0
    2.9921    0.9967    0.2755 C   0  0  0  0  0  0  0  0  0  0  0  0
    1.9175   -1.9948   -1.3016 C   0  0  0  0  0  0  0  0  0  0  0  0
    2.3120    0.0656    2.2198 C   0  0  0  0  0  0  0  0  0  0  0  0
    0.5684   -3.9622    0.2107 C   0  0  0  0  0  0  0  0  0  0  0  0
    3.9617    1.2505    1.2480 C   0  0  0  0  0  0  0  0  0  0  0  0
    2.1099   -3.3512   -1.5679 C   0  0  0  0  0  0  0  0  0  0  0  0
   -1.2538   -0.0559   -3.5760 C   0  0  0  0  0  0  0  0  0  0  0  0
   -4.5985    2.4511   -0.7859 C   0  0  0  0  0  0  0  0  0  0  0  0
    1.4453   -4.3283   -0.8125 C   0  0  0  0  0  0  0  0  0  0  0  0
    3.1977    1.4839   -1.0305 C   0  0  0  0  0  0  0  0  0  0  0  0
    5.1312    1.9703    0.9787 C   0  0  0  0  0  0  0  0  0  0  0  0
    4.3629    2.2053   -1.3144 C   0  0  0  0  0  0  0  0  0  0  0  0
    5.3135    2.4437   -0.3239 C   0  0  0  0  0  0  0  0  0  0  0  0
   -5.0354    1.4606    2.3599 C   0  0  0  0  0  0  0  0  0  0  0  0
   -0.5004   -0.0745    2.1576 H   0  0  0  0  0  0  0  0  0  0  0  0
    0.5281    0.6617   -1.7400 H   0  0  0  0  0  0  0  0  0  0  0  0
   -1.2031   -2.5819    1.8758 H   0  0  0  0  0  0  0  0  0  0  0  0
   -4.3027   -0.6075   -0.6397 H   0  0  0  0  0  0  0  0  0  0  0  0
   -0.1755    2.6137   -1.0322 H   0  0  0  0  0  0  0  0  0  0  0  0
    2.4376   -1.2493   -1.8913 H   0  0  0  0  0  0  0  0  0  0  0  0
    1.8209   -0.4431    3.0374 H   0  0  0  0  0  0  0  0  0  0  0  0
    0.0542   -4.7229    0.7891 H   0  0  0  0  0  0  0  0  0  0  0  0
    4.0224    0.6956    3.2963 H   0  0  0  0  0  0  0  0  0  0  0  0
    2.7839   -3.6545   -2.3644 H   0  0  0  0  0  0  0  0  0  0  0  0
   -0.3521    0.5443   -3.4718 H   0  0  0  0  0  0  0  0  0  0  0  0
   -2.0878    0.5755   -3.8934 H   0  0  0  0  0  0  0  0  0  0  0  0
   -1.0678   -0.7495   -4.4029 H   0  0  0  0  0  0  0  0  0  0  0  0
   -4.1357    3.2441   -1.3804 H   0  0  0  0  0  0  0  0  0  0  0  0
   -4.9498    2.9090    0.1388 H   0  0  0  0  0  0  0  0  0  0  0  0
   -5.4397    2.0489   -1.3586 H   0  0  0  0  0  0  0  0  0  0  0  0
    1.6131   -5.3800   -1.0284 H   0  0  0  0  0  0  0  0  0  0  0  0
    2.4957    1.3094   -1.8363 H   0  0  0  0  0  0  0  0  0  0  0  0
    5.8720    2.1561    1.7491 H   0  0  0  0  0  0  0  0  0  0  0  0
    4.5290    2.5803   -2.3210 H   0  0  0  0  0  0  0  0  0  0  0  0
    6.2118    3.0056   -0.5667 H   0  0  0  0  0  0  0  0  0  0  0  0
   -4.7632    0.9208    3.2714 H   0  0  0  0  0  0  0  0  0  0  0  0
   -5.8436    2.1522    2.6147 H   0  0  0  0  0  0  0  0  0  0  0  0
   -4.1724    2.0465    2.0370 H   0  0  0  0  0  0  0  0  0  0  0  0
  1 13  1  0  0  0  0
  1 26  1  0  0  0  0
  2 19  1  0  0  0  0
  2 33  1  0  0  0  0
  3 12  1  0  0  0  0
  3 38  1  0  0  0  0
  4 17  2  0  0  0  0
  5 18  2  0  0  0  0
  6 11  1  0  0  0  0
  6 13  1  0  0  0  0
  6 18  1  0  0  0  0
  7 11  1  0  0  0  0
  7 16  1  0  0  0  0
  7 36  1  0  0  0  0
  8 17  1  0  0  0  0
  8 19  1  0  0  0  0
  8 27  1  0  0  0  0
  9 22  1  0  0  0  0
  9 24  1  0  0  0  0
  9 42  1  0  0  0  0
 10 11  1  0  0  0  0
 10 12  1  0  0  0  0
 10 14  1  0  0  0  0
 10 15  1  0  0  0  0
 11 34  1  0  0  0  0
 12 13  1  0  0  0  0
 12 35  1  0  0  0  0
 13 17  1  0  0  0  0
 14 16  1  0  0  0  0
 14 21  2  0  0  0  0
 15 20  1  0  0  0  0
 15 22  2  0  0  0  0
 16 23  2  0  0  0  0
 18 19  1  0  0  0  0
 19 37  1  0  0  0  0
 20 24  1  0  0  0  0
 20 29  2  0  0  0  0
 21 25  1  0  0  0  0
 21 39  1  0  0  0  0
 22 40  1  0  0  0  0
 23 28  1  0  0  0  0
 23 41  1  0  0  0  0
 24 30  2  0  0  0  0
 25 28  2  0  0  0  0
 25 43  1  0  0  0  0
 26 44  1  0  0  0  0
 26 45  1  0  0  0  0
 26 46  1  0  0  0  0
 27 47  1  0  0  0  0
 27 48  1  0  0  0  0
 27 49  1  0  0  0  0
 28 50  1  0  0  0  0
 29 31  1  0  0  0  0
 29 51  1  0  0  0  0
 30 32  1  0  0  0  0
 30 52  1  0  0  0  0
 31 32  2  0  0  0  0
 31 53  1  0  0  0  0
 32 54  1  0  0  0  0
 33 55  1  0  0  0  0
 33 56  1  0  0  0  0
 33 57  1  0  0  0  0
M  END
> <PUBCHEM_COMPOUND_CID>
10254588

> <PUBCHEM_CONFORMER_RMSD>
0.8

> <PUBCHEM_CONFORMER_DIVERSEORDER>
1
7
6
2
5
9
4
10
8
3

> <PUBCHEM_MMFF94_PARTIAL_CHARGES>
44
1 -0.46
10 0.32
11 0.67
12 0.28
13 0.59
14 -0.14
15 -0.18
16 0.1
17 0.57
18 0.57
19 0.59
2 -0.46
21 -0.15
22 -0.3
23 -0.15
24 -0.15
25 -0.15
26 0.23
27 0.3
28 -0.15
29 -0.15
3 -0.68
30 -0.15
31 -0.15
32 -0.15
33 0.23
36 0.4
38 0.4
39 0.15
4 -0.57
40 0.15
41 0.15
42 0.27
43 0.15
5 -0.57
50 0.15
51 0.15
52 0.15
53 0.15
54 0.15
6 -0.66
7 -0.87
8 -0.66
9 0.03

> <PUBCHEM_EFFECTIVE_ROTOR_COUNT>
3.8

> <PUBCHEM_PHARMACOPHORE_FEATURES>
16
1 26 hydrophobe
1 3 acceptor
1 3 donor
1 33 hydrophobe
1 4 acceptor
1 5 acceptor
1 7 cation
1 7 donor
1 9 cation
1 9 donor
5 6 10 11 12 13 rings
5 7 10 11 14 16 rings
5 9 15 20 22 24 rings
6 14 16 21 23 25 28 rings
6 20 24 29 30 31 32 rings
6 6 8 13 17 18 19 rings

> <PUBCHEM_HEAVY_ATOM_COUNT>
33

> <PUBCHEM_ATOM_DEF_STEREO_COUNT>
4

> <PUBCHEM_ATOM_UDEF_STEREO_COUNT>
1

> <PUBCHEM_BOND_DEF_STEREO_COUNT>
0

> <PUBCHEM_BOND_UDEF_STEREO_COUNT>
0

> <PUBCHEM_ISOTOPIC_ATOM_COUNT>
0

> <PUBCHEM_COMPONENT_COUNT>
1

> <PUBCHEM_CACTVS_TAUTO_COUNT>
1

> <PUBCHEM_CONFORMER_ID>
009C78FC00000001

> <PUBCHEM_MMFF94_ENERGY>
133.2803

> <PUBCHEM_FEATURE_SELFOVERLAP>
81.998

> <PUBCHEM_SHAPE_FINGERPRINT>
10165383 225 18270134520572073424
10369192 42 18335989761060080108
105312 117 18269556207968968516
10906281 52 18040718078442729909
11135609 201 18271241732807842176
11445158 3 17604994904240926061
11578080 2 18267884817029521809
1200032 147 16412704136313631835
12156800 1 17759839169434926239
12160290 23 17765970059583593514
12422481 6 17822013120322086628
12788726 201 17481694677847914790
133893 2 18127139576057946450
13681431 1 17768807572772223542
15163728 17 18410299103192503416
15219462 58 17910432474305812811
17349148 13 13045947893018058896
17980427 23 17605282968003078639
1813 80 16841918162054788014
20600515 1 16733560436791807635
21033648 29 17896048646597271401
21120745 212 17184197678259151126
21756936 100 18264479754109624756
22149856 69 17973764400839191923
22182313 1 18041844987534784477
22907989 373 17832689541937858838
23559900 14 17971478399119687783
27425 322 17702660102340664749
3729539 64 18198367090973871718
469060 322 18196074759126240599
5081480 168 17981626878279700636
563151 40 18130231574153297198
57527585 21 18262219080545522877
6691757 9 18125411311825859960
70251023 43 17841424835334478607

> <PUBCHEM_SHAPE_MULTIPOLES>
649.29
9.67
3.89
2.51
2.72
4.55
-0.72
-9.9
3.04
-3.13
-0.9
1.06
-0.29
0.6

> <PUBCHEM_SHAPE_SELFOVERLAP>
1432.272

> <PUBCHEM_SHAPE_VOLUME>
354.8

> <PUBCHEM_COORDINATE_TYPE>
2
5
10

$$$$
