REMARK  Name = 102568
REMARK  11 active torsions:
REMARK  status: ('A' for Active; 'I' for Inactive)
REMARK    1  A    between atoms: N_1  and  C_5
REMARK    2  A    between atoms: C_5  and  O_6
REMARK    3  A    between atoms: O_6  and  C_7
REMARK    4  A    between atoms: C_7  and  C_8
REMARK    5  A    between atoms: C_14  and  C_15
REMARK    6  A    between atoms: C_15  and  C_16
REMARK    7  A    between atoms: C_16  and  C_17
REMARK    8  A    between atoms: C_17  and  C_18
REMARK    9  A    between atoms: C_18  and  N_19
REMARK   10  A    between atoms: C_18  and  C_24
REMARK   11  A    between atoms: C_24  and  O_25
REMARK                            x       y       z     vdW  Elec       q    Type
REMARK                         _______ _______ _______ _____ _____    ______ ____
ROOT
ATOM      1  C   UNK     1      -2.816  -1.035   0.808  0.00  0.00    +0.237 C 
ENDROOT
BRANCH   1   2
ATOM      2  C   UNK     1      -3.752   0.053   0.372  0.00  0.00    +0.021 C 
ATOM      3  C   UNK     1      -3.597   1.347   0.869  0.00  0.00    -0.001 C 
ATOM      4  C   UNK     1      -4.777  -0.229  -0.531  0.00  0.00    -0.001 C 
ATOM      5  C   UNK     1      -4.468   2.359   0.464  0.00  0.00    -0.000 C 
ATOM      6  C   UNK     1      -5.648   0.783  -0.936  0.00  0.00    -0.000 C 
ATOM      7  C   UNK     1      -5.493   2.077  -0.439  0.00  0.00    -0.000 C 
ENDBRANCH   1   2
BRANCH   1   8
ATOM      8  O   UNK     1      -1.698  -1.076  -0.086  0.00  0.00    -0.429 OA
BRANCH   8  10
ATOM      9  O   UNK     1      -0.808  -2.815   1.121  0.00  0.00    -0.225 OA
ATOM     10  C   UNK     1      -0.752  -2.025   0.185  0.00  0.00    +0.418 C 
BRANCH  10  11
ATOM     11  N   UNK     1       0.267  -1.958  -0.749  0.00  0.00    -0.197 NA
ATOM     12  H   UNK     1       0.200  -1.278  -1.458  0.00  0.00    +0.176 HD
ENDBRANCH  10  11
ENDBRANCH   8  10
ENDBRANCH   1   8
TORSDOF 4
REMARK  Name = 102568
REMARK  11 active torsions:
REMARK  status: ('A' for Active; 'I' for Inactive)
REMARK    1  A    between atoms: N_1  and  C_5
REMARK    2  A    between atoms: C_5  and  O_6
REMARK    3  A    between atoms: O_6  and  C_7
REMARK    4  A    between atoms: C_7  and  C_8
REMARK    5  A    between atoms: C_14  and  C_15
REMARK    6  A    between atoms: C_15  and  C_16
REMARK    7  A    between atoms: C_16  and  C_17
REMARK    8  A    between atoms: C_17  and  C_18
REMARK    9  A    between atoms: C_18  and  N_19
REMARK   10  A    between atoms: C_18  and  C_24
REMARK   11  A    between atoms: C_24  and  O_25
REMARK                            x       y       z     vdW  Elec       q    Type
REMARK                         _______ _______ _______ _____ _____    ______ ____
ROOT
ATOM      1  C   UNK     1       4.949   0.868  -0.256  0.00  0.00    +0.036 C 
ENDROOT
BRANCH   1   2
ATOM      2  N   UNK     1       6.138   1.254   0.508  0.00  0.00    +0.389 N 
ATOM      3  H   UNK     1       6.837   0.514   0.446  0.00  0.00    -0.088 HD
ATOM      4  H   UNK     1       5.883   1.400   1.484  0.00  0.00    -0.088 HD
ATOM      5  H   UNK     1       6.523   2.118   0.124  0.00  0.00    -0.088 HD
ENDBRANCH   1   2
BRANCH   1   7
ATOM      6  O   UNK     1       3.808   2.712   0.856  0.00  0.00    -0.253 OA
ATOM      7  C   UNK     1       3.945   2.001  -0.131  0.00  0.00    +0.293 C 
BRANCH   7   8
ATOM      8  O   UNK     1       3.176   2.133  -1.243  0.00  0.00    -0.482 OA
ATOM      9  H   UNK     1       3.314   1.567  -1.978  0.00  0.00    +0.295 HD
ENDBRANCH   7   8
ENDBRANCH   1   7
BRANCH   1  10
ATOM     10  C   UNK     1       4.388  -0.444   0.309  0.00  0.00    -0.011 C 
BRANCH  10  11
ATOM     11  C   UNK     1       3.142  -0.926  -0.440  0.00  0.00    -0.002 C 
BRANCH  11  13
ATOM     12  C   UNK     1       1.416  -2.818  -0.747  0.00  0.00    +0.005 C 
ATOM     13  C   UNK     1       2.579  -2.260   0.067  0.00  0.00    -0.005 C 
ENDBRANCH  11  13
ENDBRANCH  10  11
ENDBRANCH   1  10
TORSDOF 6
