102515291
  -OEChem-03292013293D

 42 42  0     1  0  0  0  0  0999 V2000
   -3.3886   -0.9941   -1.0739 O   0  0  0  0  0  0  0  0  0  0  0  0
   -1.5023   -2.8948   -1.2064 O   0  0  0  0  0  0  0  0  0  0  0  0
   -4.4211    0.8621    0.7225 O   0  0  0  0  0  0  0  0  0  0  0  0
    3.1660   -0.8486    1.3210 O   0  0  0  0  0  0  0  0  0  0  0  0
   -0.1547    1.2625    1.6182 O   0  5  0  0  0  0  0  0  0  0  0  0
    0.5300    3.3595    1.0432 O   0  0  0  0  0  0  0  0  0  0  0  0
   -0.4349   -2.1250    0.7155 N   0  0  0  0  0  0  0  0  0  0  0  0
    1.6138    0.1452   -0.0911 N   0  0  0  0  0  0  0  0  0  0  0  0
    3.0335   -3.1903   -0.2526 N   0  3  0  0  0  0  0  0  0  0  0  0
   -3.0014    2.4262   -0.2059 N   0  0  0  0  0  0  0  0  0  0  0  0
   -2.6003   -1.2589    0.0790 C   0  0  2  0  0  0  0  0  0  0  0  0
   -2.6184    0.0945   -0.5477 C   0  0  2  0  0  0  0  0  0  0  0  0
   -1.4618   -2.1793   -0.2124 C   0  0  0  0  0  0  0  0  0  0  0  0
    1.8753   -2.2552   -0.1622 C   0  0  1  0  0  0  0  0  0  0  0  0
    0.7549   -2.9296    0.6265 C   0  0  0  0  0  0  0  0  0  0  0  0
    1.8382    1.5098    0.3264 C   0  0  1  0  0  0  0  0  0  0  0  0
    2.3810    2.3568   -0.8469 C   0  0  0  0  0  0  0  0  0  0  0  0
   -3.4361    1.1479    0.0519 C   0  0  0  0  0  0  0  0  0  0  0  0
    2.3047   -0.9298    0.4480 C   0  0  0  0  0  0  0  0  0  0  0  0
    3.6118    1.7300   -1.5116 C   0  0  0  0  0  0  0  0  0  0  0  0
    1.2987    2.6141   -1.9019 C   0  0  0  0  0  0  0  0  0  0  0  0
    0.6116    2.0970    1.0601 C   0  0  0  0  0  0  0  0  0  0  0  0
   -3.1171   -1.4217    1.0167 H   0  0  0  0  0  0  0  0  0  0  0  0
   -1.7471    0.3966   -1.1191 H   0  0  0  0  0  0  0  0  0  0  0  0
    1.5609   -2.0918   -1.1998 H   0  0  0  0  0  0  0  0  0  0  0  0
    0.4941   -3.8916    0.1700 H   0  0  0  0  0  0  0  0  0  0  0  0
    1.0757   -3.1246    1.6565 H   0  0  0  0  0  0  0  0  0  0  0  0
    2.6237    1.5001    1.0945 H   0  0  0  0  0  0  0  0  0  0  0  0
   -0.5145   -1.4806    1.4970 H   0  0  0  0  0  0  0  0  0  0  0  0
    2.6865    3.3339   -0.4494 H   0  0  0  0  0  0  0  0  0  0  0  0
    0.8823   -0.0282   -0.7742 H   0  0  0  0  0  0  0  0  0  0  0  0
    2.7686   -4.0767   -0.7027 H   0  0  0  0  0  0  0  0  0  0  0  0
    3.4128   -3.4161    0.6768 H   0  0  0  0  0  0  0  0  0  0  0  0
    3.7988   -2.7841   -0.8073 H   0  0  0  0  0  0  0  0  0  0  0  0
    3.3682    0.7949   -2.0267 H   0  0  0  0  0  0  0  0  0  0  0  0
    4.3889    1.5210   -0.7689 H   0  0  0  0  0  0  0  0  0  0  0  0
    4.0366    2.4147   -2.2537 H   0  0  0  0  0  0  0  0  0  0  0  0
    0.9501    1.6812   -2.3574 H   0  0  0  0  0  0  0  0  0  0  0  0
    1.6957    3.2432   -2.7066 H   0  0  0  0  0  0  0  0  0  0  0  0
    0.4289    3.1331   -1.4907 H   0  0  0  0  0  0  0  0  0  0  0  0
   -2.1774    2.6199   -0.7662 H   0  0  0  0  0  0  0  0  0  0  0  0
   -3.4980    3.2300    0.1640 H   0  0  0  0  0  0  0  0  0  0  0  0
  1 11  1  0  0  0  0
  1 12  1  0  0  0  0
  2 13  2  0  0  0  0
  3 18  2  0  0  0  0
  4 19  2  0  0  0  0
  5 22  1  0  0  0  0
  6 22  2  0  0  0  0
  7 13  1  0  0  0  0
  7 15  1  0  0  0  0
  7 29  1  0  0  0  0
  8 16  1  0  0  0  0
  8 19  1  0  0  0  0
  8 31  1  0  0  0  0
  9 14  1  0  0  0  0
  9 32  1  0  0  0  0
  9 33  1  0  0  0  0
  9 34  1  0  0  0  0
 10 18  1  0  0  0  0
 10 41  1  0  0  0  0
 10 42  1  0  0  0  0
 11 12  1  0  0  0  0
 11 13  1  0  0  0  0
 11 23  1  0  0  0  0
 12 18  1  0  0  0  0
 12 24  1  0  0  0  0
 14 15  1  0  0  0  0
 14 19  1  0  0  0  0
 14 25  1  0  0  0  0
 15 26  1  0  0  0  0
 15 27  1  0  0  0  0
 16 17  1  0  0  0  0
 16 22  1  0  0  0  0
 16 28  1  0  0  0  0
 17 20  1  0  0  0  0
 17 21  1  0  0  0  0
 17 30  1  0  0  0  0
 20 35  1  0  0  0  0
 20 36  1  0  0  0  0
 20 37  1  0  0  0  0
 21 38  1  0  0  0  0
 21 39  1  0  0  0  0
 21 40  1  0  0  0  0
M  CHG  2   5  -1   9   1
M  END
> <PUBCHEM_COMPOUND_CID>
102515291

> <PUBCHEM_CONFORMER_RMSD>
1

> <PUBCHEM_CONFORMER_DIVERSEORDER>
1
113
128
46
24
71
102
13
97
74
82
83
54
86
47
11
63
39
30
116
72
26
92
67
58
125
51
76
6
81
45
115
114
14
42
55
53
9
60
123
119
103
121
118
89
84
132
107
62
138
22
91
122
130
35
129
105
43
10
65
15
25
131
44
27
93
56
33
57
61
98
117
120
66
87
49
18
48
21
127
28
70
29
108
85
7
12
52
124
20
64
2
79
137
59
135
16
110
88
5
73
69
136
106
38
101
34
40
23
19
100
32
80
109
17
3
133
134
111
8
41
112
78
36
95
96
77
68
99
75
90
126
31
94
37
104
50
4

> <PUBCHEM_MMFF94_PARTIAL_CHARGES>
28
1 -0.3
10 -0.8
11 0.05
12 0.05
13 0.63
14 0.56
15 0.3
16 0.19
18 0.63
19 0.57
2 -0.57
22 0.91
23 0.1
24 0.1
29 0.37
3 -0.57
31 0.37
32 0.45
33 0.45
34 0.45
4 -0.57
41 0.37
42 0.37
5 -0.9
6 -0.9
7 -0.73
8 -0.73
9 -0.85

> <PUBCHEM_EFFECTIVE_ROTOR_COUNT>
10.6

> <PUBCHEM_PHARMACOPHORE_FEATURES>
13
1 1 acceptor
1 10 donor
1 2 acceptor
1 3 acceptor
1 4 acceptor
1 5 acceptor
1 6 acceptor
1 7 donor
1 8 donor
1 9 cation
1 9 donor
3 17 20 21 hydrophobe
3 5 6 22 anion

> <PUBCHEM_HEAVY_ATOM_COUNT>
22

> <PUBCHEM_ATOM_DEF_STEREO_COUNT>
4

> <PUBCHEM_ATOM_UDEF_STEREO_COUNT>
0

> <PUBCHEM_BOND_DEF_STEREO_COUNT>
0

> <PUBCHEM_BOND_UDEF_STEREO_COUNT>
0

> <PUBCHEM_ISOTOPIC_ATOM_COUNT>
0

> <PUBCHEM_COMPONENT_COUNT>
1

> <PUBCHEM_CACTVS_TAUTO_COUNT>
12

> <PUBCHEM_CONFORMER_ID>
061C425B00000001

> <PUBCHEM_MMFF94_ENERGY>
29.4785

> <PUBCHEM_FEATURE_SELFOVERLAP>
66.042

> <PUBCHEM_SHAPE_FINGERPRINT>
11725454 13 16266566121652366648
12035759 4 18266479654185838804
128993 33 18192153913192902613
14251740 79 18050315809804468548
14251745 187 17908990155225817460
14251757 17 17984738655542877614
14713325 29 17246696036743221194
17093844 170 17110423213557126388
20465049 17 18195553534495061629
21141583 151 17692264348754213036
21160774 45 17040353515472893686
238 59 18054495074538579415
7832392 63 18270107999202319959
81228 2 18049162160040319946

> <PUBCHEM_SHAPE_MULTIPOLES>
397.61
6.19
4.54
1.36
3.56
1.27
-0.13
-1.75
-1.19
-1.7
-0.17
-0.59
-0.67
-1.24

> <PUBCHEM_SHAPE_SELFOVERLAP>
794.719

> <PUBCHEM_SHAPE_VOLUME>
233.2

> <PUBCHEM_COORDINATE_TYPE>
2
5
10

$$$$
