REMARK  Name = 102516030
REMARK  4 active torsions:
REMARK  status: ('A' for Active; 'I' for Inactive)
REMARK    1  A    between atoms: C_5  and  O_11
REMARK    2  A    between atoms: C_6  and  O_13
REMARK    3  A    between atoms: C_8  and  C_18
REMARK    4  A    between atoms: C_10  and  O_15
REMARK                            x       y       z     vdW  Elec       q    Type
REMARK                         _______ _______ _______ _____ _____    ______ ____
ROOT
ATOM      1  O   UNL     1      -2.855   0.545   0.220  0.00  0.00    -0.417 OA
ATOM      2  O   UNL     1      -3.172  -1.739   0.025  0.00  0.00    -0.245 OA
ATOM      3  C   UNL     1      -0.574   0.571   0.142  0.00  0.00    +0.087 C 
ATOM      4  C   UNL     1      -1.004  -0.738   0.044  0.00  0.00    +0.084 C 
ATOM      5  C   UNL     1      -1.741   1.471   0.262  0.00  0.00    +0.315 C 
ATOM      6  C   UNL     1       0.777   0.865   0.127  0.00  0.00    +0.142 C 
ATOM      7  C   UNL     1      -0.132  -1.804  -0.076  0.00  0.00    +0.043 C 
ATOM      8  C   UNL     1       1.686  -0.191   0.006  0.00  0.00    +0.109 C 
ATOM      9  C   UNL     1      -2.457  -0.759   0.089  0.00  0.00    +0.343 C 
ATOM     10  C   UNL     1       1.233  -1.518  -0.095  0.00  0.00    +0.140 C 
ENDROOT
BRANCH   5  11
ATOM     11  O   UNL     1      -1.779   2.382  -0.822  0.00  0.00    -0.347 OA
ATOM     12  H   UNL     1      -2.549   2.964  -0.728  0.00  0.00    +0.214 HD
ENDBRANCH   5  11
BRANCH   6  13
ATOM     13  O   UNL     1       1.201   2.153   0.231  0.00  0.00    -0.505 OA
ATOM     14  H   UNL     1       0.577   2.847   0.311  0.00  0.00    +0.292 HD
ENDBRANCH   6  13
BRANCH  10  15
ATOM     15  O   UNL     1       2.120  -2.548  -0.212  0.00  0.00    -0.505 OA
ATOM     16  H   UNL     1       1.808  -3.429  -0.279  0.00  0.00    +0.292 HD
ENDBRANCH  10  15
BRANCH   8  18
ATOM     17  O   UNL     1       3.580   1.224   0.072  0.00  0.00    -0.283 OA
ATOM     18  C   UNL     1       3.118   0.086  -0.013  0.00  0.00    +0.240 C 
ENDBRANCH   8  18
TORSDOF 4
