REMARK  Name = 10254660
REMARK  9 active torsions:
REMARK  status: ('A' for Active; 'I' for Inactive)
REMARK    1  A    between atoms: N_3  and  C_28
REMARK    2  A    between atoms: C_4  and  O_21
REMARK    3  A    between atoms: C_5  and  O_35
REMARK    4  A    between atoms: C_6  and  O_29
REMARK    5  A    between atoms: C_7  and  O_23
REMARK    6  A    between atoms: C_18  and  O_25
REMARK    7  A    between atoms: O_29  and  C_31
REMARK    8  A    between atoms: C_31  and  C_32
REMARK    9  A    between atoms: O_35  and  C_37
REMARK                            x       y       z     vdW  Elec       q    Type
REMARK                         _______ _______ _______ _____ _____    ______ ____
ROOT
ATOM      1  O   UNL     1      -2.042  -2.347   1.455  0.00  0.00    -0.287 OA
ATOM      2  O   UNL     1      -2.684   2.260  -1.307  0.00  0.00    -0.285 OA
ATOM      3  N   UNL     1      -0.040   1.012  -0.917  0.00  0.00    -0.243 N 
ATOM      4  C   UNL     1       3.208  -0.705   0.092  0.00  0.00    +0.170 C 
ATOM      5  C   UNL     1       2.526  -2.100   0.226  0.00  0.00    +0.228 C 
ATOM      6  C   UNL     1       2.381   0.247  -0.820  0.00  0.00    +0.235 C 
ATOM      7  C   UNL     1       1.083  -2.026   0.798  0.00  0.00    +0.177 C 
ATOM      8  C   UNL     1       0.929   0.138  -0.502  0.00  0.00    +0.092 A 
ATOM      9  C   UNL     1       0.320  -0.885   0.202  0.00  0.00    +0.029 A 
ATOM     10  C   UNL     1      -1.071  -0.598   0.227  0.00  0.00    +0.058 A 
ATOM     11  C   UNL     1       4.633  -0.840  -0.458  0.00  0.00    +0.037 C 
ATOM     12  C   UNL     1      -1.261   0.578  -0.471  0.00  0.00    +0.115 A 
ATOM     13  C   UNL     1      -2.182  -1.306   0.827  0.00  0.00    +0.197 C 
ATOM     14  C   UNL     1      -2.533   1.217  -0.684  0.00  0.00    +0.215 C 
ATOM     15  C   UNL     1      -3.530  -0.691   0.639  0.00  0.00    +0.045 C 
ATOM     16  C   UNL     1      -3.700   0.511  -0.080  0.00  0.00    +0.077 C 
ATOM     17  C   UNL     1      -4.645  -1.330   1.194  0.00  0.00    +0.003 C 
ATOM     18  C   UNL     1      -4.980   1.056  -0.233  0.00  0.00    +0.137 C 
ATOM     19  C   UNL     1      -5.917  -0.778   1.034  0.00  0.00    +0.003 C 
ATOM     20  C   UNL     1      -6.083   0.410   0.324  0.00  0.00    +0.037 C 
ENDROOT
BRANCH   4  21
ATOM     21  O   UNL     1       3.347  -0.133   1.400  0.00  0.00    -0.379 OA
ATOM     22  H   UNL     1       2.470  -0.024   1.800  0.00  0.00    +0.211 HD
ENDBRANCH   4  21
BRANCH   7  23
ATOM     23  O   UNL     1       1.145  -1.878   2.216  0.00  0.00    -0.376 OA
ATOM     24  H   UNL     1       1.640  -2.620   2.597  0.00  0.00    +0.211 HD
ENDBRANCH   7  23
BRANCH  18  25
ATOM     25  O   UNL     1      -5.217   2.213  -0.914  0.00  0.00    -0.505 OA
ATOM     26  H   UNL     1      -4.506   2.681  -1.305  0.00  0.00    +0.292 HD
ENDBRANCH  18  25
BRANCH   3  28
ATOM     27  N   UNL     1       0.348   3.041  -2.350  0.00  0.00    -0.171 NA
ATOM     28  C   UNL     1       0.169   2.104  -1.689  0.00  0.00    +0.189 C 
ENDBRANCH   3  28
BRANCH   6  29
ATOM     29  O   UNL     1       2.802   1.593  -0.633  0.00  0.00    -0.444 OA
BRANCH  29  31
ATOM     30  O   UNL     1       1.776   1.763   1.425  0.00  0.00    -0.250 OA
ATOM     31  C   UNL     1       2.645   2.096   0.631  0.00  0.00    +0.317 C 
BRANCH  31  32
ATOM     32  C   UNL     1       3.709   3.146   0.900  0.00  0.00    +0.099 C 
ATOM     33  C   UNL     1       3.595   4.268  -0.125  0.00  0.00    +0.012 C 
ATOM     34  C   UNL     1       3.587   3.689   2.321  0.00  0.00    +0.012 C 
ENDBRANCH  31  32
ENDBRANCH  29  31
ENDBRANCH   6  29
BRANCH   5  35
ATOM     35  O   UNL     1       2.484  -2.728  -1.057  0.00  0.00    -0.447 OA
BRANCH  35  37
ATOM     36  O   UNL     1       1.964  -4.798  -0.174  0.00  0.00    -0.250 OA
ATOM     37  C   UNL     1       1.941  -3.979  -1.083  0.00  0.00    +0.318 C 
ATOM     38  C   UNL     1       1.295  -4.221  -2.414  0.00  0.00    +0.121 C 
ENDBRANCH  35  37
ENDBRANCH   5  35
TORSDOF 9
