REMARK  Name = 102575880
REMARK  4 active torsions:
REMARK  status: ('A' for Active; 'I' for Inactive)
REMARK    1  A    between atoms: C_8  and  O_38
REMARK    2  A    between atoms: C_10  and  N_34
REMARK    3  A    between atoms: C_24  and  O_40
REMARK    4  A    between atoms: C_30  and  O_42
REMARK                            x       y       z     vdW  Elec       q    Type
REMARK                         _______ _______ _______ _____ _____    ______ ____
ROOT
ATOM      1  O   UNL     1      -0.407   2.573  -1.207  0.00  0.00    -0.319 OA
ATOM      2  O   UNL     1       0.113  -4.748   0.012  0.00  0.00    -0.270 OA
ATOM      3  O   UNL     1       4.333  -2.916   0.062  0.00  0.00    -0.270 OA
ATOM      4  N   UNL     1      -1.312   0.557  -0.344  0.00  0.00    -0.305 N 
ATOM      5  N   UNL     1       1.417   1.726  -0.109  0.00  0.00    -0.304 N 
ATOM      6  N   UNL     1       2.373  -4.180   0.071  0.00  0.00    -0.248 N 
ATOM      7  C   UNL     1      -1.608   1.933  -0.781  0.00  0.00    +0.188 C 
ATOM      8  C   UNL     1      -2.320   2.749   0.351  0.00  0.00    +0.141 C 
ATOM      9  C   UNL     1       0.537   2.856  -0.197  0.00  0.00    +0.204 C 
ATOM     10  C   UNL     1      -1.453   3.862   0.960  0.00  0.00    -0.029 C 
ATOM     11  C   UNL     1      -0.050   3.300   1.145  0.00  0.00    +0.035 C 
ATOM     12  C   UNL     1      -0.148  -0.168  -0.222  0.00  0.00    +0.078 A 
ATOM     13  C   UNL     1       1.162   0.389  -0.149  0.00  0.00    +0.078 A 
ATOM     14  C   UNL     1      -0.192  -1.616  -0.106  0.00  0.00    +0.026 A 
ATOM     15  C   UNL     1       2.254  -0.561  -0.062  0.00  0.00    +0.023 A 
ATOM     16  C   UNL     1      -2.273  -0.449  -0.130  0.00  0.00    +0.065 A 
ATOM     17  C   UNL     1      -2.420   1.901  -2.096  0.00  0.00    +0.056 C 
ATOM     18  C   UNL     1       2.804   1.762   0.007  0.00  0.00    +0.062 A 
ATOM     19  C   UNL     1      -1.649  -1.731  -0.040  0.00  0.00    +0.054 A 
ATOM     20  C   UNL     1       3.331   0.435   0.019  0.00  0.00    +0.017 A 
ATOM     21  C   UNL     1       0.890  -2.491  -0.056  0.00  0.00    +0.060 A 
ATOM     22  C   UNL     1       2.157  -1.946  -0.047  0.00  0.00    +0.060 A 
ATOM     23  C   UNL     1      -3.678  -0.338  -0.020  0.00  0.00    +0.021 C 
ATOM     24  C   UNL     1      -2.492  -2.861   0.129  0.00  0.00    +0.169 C 
ATOM     25  C   UNL     1       3.655   2.882   0.107  0.00  0.00    +0.017 C 
ATOM     26  C   UNL     1       1.020  -3.940   0.015  0.00  0.00    +0.252 C 
ATOM     27  C   UNL     1       3.124  -3.029   0.035  0.00  0.00    +0.252 C 
ATOM     28  C   UNL     1       4.738   0.296   0.126  0.00  0.00    +0.001 C 
ATOM     29  C   UNL     1      -4.463  -1.478   0.150  0.00  0.00    +0.041 C 
ATOM     30  C   UNL     1      -3.878  -2.728   0.218  0.00  0.00    +0.168 C 
ATOM     31  C   UNL     1       5.032   2.692   0.208  0.00  0.00    +0.001 C 
ATOM     32  C   UNL     1       5.570   1.416   0.215  0.00  0.00    +0.000 C 
ATOM     33  H   UNL     1       2.763  -5.082   0.129  0.00  0.00    +0.158 HD
ENDROOT
BRANCH  10  34
ATOM     34  N   UNL     1      -1.424   5.071   0.130  0.00  0.00    +0.384 N 
ATOM     35  H   UNL     1      -2.373   5.430   0.019  0.00  0.00    -0.089 HD
ATOM     36  H   UNL     1      -1.037   4.846  -0.786  0.00  0.00    -0.089 HD
ATOM     37  H   UNL     1      -0.843   5.779   0.580  0.00  0.00    -0.089 HD
ENDBRANCH  10  34
BRANCH   8  38
ATOM     38  O   UNL     1      -3.568   3.291  -0.081  0.00  0.00    -0.351 OA
ATOM     39  C   UNL     1      -4.461   3.451   1.008  0.00  0.00    +0.174 C 
ENDBRANCH   8  38
BRANCH  24  40
ATOM     40  O   UNL     1      -2.038  -4.141   0.282  0.00  0.00    -0.503 OA
ATOM     41  H   UNL     1      -1.120  -4.321   0.237  0.00  0.00    +0.292 HD
ENDBRANCH  24  40
BRANCH  30  42
ATOM     42  O   UNL     1      -4.676  -3.821   0.395  0.00  0.00    -0.503 OA
ATOM     43  H   UNL     1      -4.296  -4.676   0.443  0.00  0.00    +0.292 HD
ENDBRANCH  30  42
TORSDOF 4
