REMARK  Name = 10255275
REMARK  5 active torsions:
REMARK  status: ('A' for Active; 'I' for Inactive)
REMARK    1  A    between atoms: C_6  and  O_35
REMARK    2  A    between atoms: C_7  and  O_37
REMARK    3  A    between atoms: C_24  and  C_25
REMARK    4  A    between atoms: C_28  and  O_31
REMARK    5  A    between atoms: C_30  and  O_33
REMARK                            x       y       z     vdW  Elec       q    Type
REMARK                         _______ _______ _______ _____ _____    ______ ____
ROOT
ATOM      1  O   UNL     1       0.491   1.488   0.148  0.00  0.00    -0.480 OA
ATOM      2  O   UNL     1       3.626  -2.634  -0.823  0.00  0.00    -0.291 OA
ATOM      3  O   UNL     1      -2.443  -1.416   0.541  0.00  0.00    -0.421 OA
ATOM      4  O   UNL     1      -0.884  -3.017   0.909  0.00  0.00    -0.245 OA
ATOM      5  C   UNL     1       3.882  -0.440   0.249  0.00  0.00    +0.104 C 
ATOM      6  C   UNL     1       4.708   0.774  -0.376  0.00  0.00    +0.100 C 
ATOM      7  C   UNL     1       2.317  -0.184   0.054  0.00  0.00    +0.134 C 
ATOM      8  C   UNL     1       1.846   1.212   0.602  0.00  0.00    +0.156 C 
ATOM      9  C   UNL     1       4.221   2.119   0.212  0.00  0.00    +0.031 C 
ATOM     10  C   UNL     1       6.282   0.603  -0.317  0.00  0.00    +0.042 C 
ATOM     11  C   UNL     1       2.716   2.342   0.015  0.00  0.00    +0.045 C 
ATOM     12  C   UNL     1       1.355  -1.276   0.595  0.00  0.00    +0.067 C 
ATOM     13  C   UNL     1       4.368  -1.712  -0.489  0.00  0.00    +0.177 C 
ATOM     14  C   UNL     1       4.230  -0.711   1.734  0.00  0.00    +0.013 C 
ATOM     15  C   UNL     1       1.804   1.375   2.139  0.00  0.00    +0.046 C 
ATOM     16  C   UNL     1       6.668  -0.836  -0.621  0.00  0.00    -0.022 C 
ATOM     17  C   UNL     1       6.993   1.476  -1.390  0.00  0.00    +0.007 C 
ATOM     18  C   UNL     1       6.918   1.004   1.033  0.00  0.00    +0.007 C 
ATOM     19  C   UNL     1       5.826  -1.868  -0.738  0.00  0.00    +0.033 C 
ATOM     20  C   UNL     1      -0.081  -0.822   0.516  0.00  0.00    +0.090 C 
ATOM     21  C   UNL     1      -0.414   0.456   0.281  0.00  0.00    +0.144 C 
ATOM     22  C   UNL     1      -1.149  -1.843   0.672  0.00  0.00    +0.345 C 
ATOM     23  C   UNL     1      -1.786   0.859   0.148  0.00  0.00    +0.074 C 
ATOM     24  C   UNL     1      -2.753  -0.059   0.272  0.00  0.00    +0.152 C 
ENDROOT
BRANCH  24  25
ATOM     25  C   UNL     1      -4.162   0.248   0.154  0.00  0.00    +0.038 C 
ATOM     26  C   UNL     1      -5.056  -0.715  -0.325  0.00  0.00    +0.043 C 
ATOM     27  C   UNL     1      -4.641   1.510   0.519  0.00  0.00    +0.006 C 
ATOM     28  C   UNL     1      -6.414  -0.419  -0.438  0.00  0.00    +0.172 C 
ATOM     29  C   UNL     1      -5.999   1.807   0.406  0.00  0.00    +0.040 C 
ATOM     30  C   UNL     1      -6.886   0.842  -0.073  0.00  0.00    +0.172 C 
BRANCH  28  31
ATOM     31  O   UNL     1      -7.271  -1.368  -0.908  0.00  0.00    -0.468 OA
ATOM     32  C   UNL     1      -7.869  -2.235   0.054  0.00  0.00    +0.253 C 
ENDBRANCH  28  31
BRANCH  30  33
ATOM     33  O   UNL     1      -8.210   1.143  -0.179  0.00  0.00    -0.468 OA
ATOM     34  C   UNL     1      -8.651   1.701  -1.416  0.00  0.00    +0.253 C 
ENDBRANCH  30  33
ENDBRANCH  24  25
BRANCH   6  35
ATOM     35  O   UNL     1       4.372   0.810  -1.787  0.00  0.00    -0.386 OA
ATOM     36  H   UNL     1       3.413   0.915  -1.888  0.00  0.00    +0.210 HD
ENDBRANCH   6  35
BRANCH   7  37
ATOM     37  O   UNL     1       2.048  -0.213  -1.373  0.00  0.00    -0.383 OA
ATOM     38  H   UNL     1       2.605   0.443  -1.821  0.00  0.00    +0.210 HD
ENDBRANCH   7  37
TORSDOF 5
