REMARK  Name = 10252425
REMARK  11 active torsions:
REMARK  status: ('A' for Active; 'I' for Inactive)
REMARK    1  A    between atoms: C_3  and  C_10
REMARK    2  A    between atoms: C_7  and  C_24
REMARK    3  A    between atoms: N_9  and  C_12
REMARK    4  A    between atoms: C_12  and  C_14
REMARK    5  A    between atoms: C_12  and  C_17
REMARK    6  A    between atoms: C_14  and  O_15
REMARK    7  A    between atoms: C_17  and  C_18
REMARK    8  A    between atoms: C_24  and  N_26
REMARK    9  A    between atoms: C_24  and  C_29
REMARK   10  A    between atoms: C_29  and  C_30
REMARK   11  A    between atoms: C_30  and  S_31
REMARK                            x       y       z     vdW  Elec       q    Type
REMARK                         _______ _______ _______ _____ _____    ______ ____
ROOT
ATOM      1  O   UNL     1      -1.408   1.330   0.171  0.00  0.00    -0.273 OA
ATOM      2  N   UNL     1      -1.836  -0.789   0.997  0.00  0.00    -0.272 N 
ATOM      3  C   UNL     1      -0.480  -1.069   1.450  0.00  0.00    +0.152 C 
ATOM      4  C   UNL     1      -0.619  -2.279   2.366  0.00  0.00    +0.031 C 
ATOM      5  C   UNL     1      -1.836  -3.011   1.804  0.00  0.00    +0.024 C 
ATOM      6  C   UNL     1      -2.743  -1.879   1.346  0.00  0.00    +0.094 C 
ATOM      7  C   UNL     1      -2.203   0.432   0.453  0.00  0.00    +0.244 C 
ENDROOT
BRANCH   3  10
ATOM      8  O   UNL     1      -0.160  -1.899  -0.765  0.00  0.00    -0.273 OA
ATOM      9  N   UNL     1       1.670  -1.046   0.395  0.00  0.00    -0.295 N 
ATOM     10  C   UNL     1       0.337  -1.383   0.233  0.00  0.00    +0.241 C 
ATOM     11  H   UNL     1       1.949  -0.635   1.245  0.00  0.00    +0.150 HD
BRANCH   9  12
ATOM     12  C   UNL     1       2.671  -1.268  -0.624  0.00  0.00    +0.176 C 
BRANCH  12  14
ATOM     13  O   UNL     1       4.245  -1.633   1.173  0.00  0.00    -0.248 OA
ATOM     14  C   UNL     1       4.026  -1.634  -0.034  0.00  0.00    +0.335 C 
BRANCH  14  15
ATOM     15  O   UNL     1       4.941  -1.936  -0.997  0.00  0.00    -0.443 OA
ATOM     16  C   UNL     1       6.250  -2.274  -0.527  0.00  0.00    +0.256 C 
ENDBRANCH  14  15
ENDBRANCH  12  14
BRANCH  12  17
ATOM     17  C   UNL     1       2.765  -0.073  -1.584  0.00  0.00    +0.057 C 
BRANCH  17  18
ATOM     18  C   UNL     1       3.224   1.218  -0.944  0.00  0.00    -0.020 C 
ATOM     19  C   UNL     1       2.288   2.100  -0.404  0.00  0.00    -0.004 C 
ATOM     20  C   UNL     1       4.584   1.526  -0.894  0.00  0.00    -0.004 C 
ATOM     21  C   UNL     1       2.712   3.290   0.187  0.00  0.00    -0.000 C 
ATOM     22  C   UNL     1       5.007   2.716  -0.303  0.00  0.00    -0.000 C 
ATOM     23  C   UNL     1       4.071   3.598   0.237  0.00  0.00    -0.000 C 
ENDBRANCH  17  18
ENDBRANCH  12  17
ENDBRANCH   9  12
ENDBRANCH   3  10
BRANCH   7  24
ATOM     24  C   UNL     1      -3.678   0.615   0.202  0.00  0.00    +0.150 C 
BRANCH  24  26
ATOM     25  O   UNL     1      -4.206   1.905   2.783  0.00  0.00    -0.265 OA
ATOM     26  N   UNL     1      -3.901   2.008   0.466  0.00  0.00    -0.291 N 
ATOM     27  C   UNL     1      -4.144   2.520   1.726  0.00  0.00    +0.300 C 
ATOM     28  H   UNL     1      -3.881   2.634  -0.294  0.00  0.00    +0.150 HD
ENDBRANCH  24  26
BRANCH  24  29
ATOM     29  C   UNL     1      -4.059   0.246  -1.225  0.00  0.00    +0.041 C 
BRANCH  29  30
ATOM     30  C   UNL     1      -5.550   0.453  -1.489  0.00  0.00    +0.060 C 
BRANCH  30  31
ATOM     31  S   UNL     1      -5.967   0.005  -3.200  0.00  0.00    -0.139 S 
ATOM     32  C   UNL     1      -6.000  -1.791  -2.999  0.00  0.00    +0.069 C 
ENDBRANCH  30  31
ENDBRANCH  29  30
ENDBRANCH  24  29
ENDBRANCH   7  24
TORSDOF 11
