REMARK  Name = 10255246
REMARK  12 active torsions:
REMARK  status: ('A' for Active; 'I' for Inactive)
REMARK    1  A    between atoms: N_4  and  C_12
REMARK    2  A    between atoms: N_4  and  C_39
REMARK    3  A    between atoms: C_7  and  C_24
REMARK    4  A    between atoms: C_15  and  C_21
REMARK    5  A    between atoms: C_21  and  O_22
REMARK    6  A    between atoms: C_24  and  C_25
REMARK    7  A    between atoms: C_25  and  C_26
REMARK    8  A    between atoms: C_26  and  N_27
REMARK    9  A    between atoms: N_29  and  C_30
REMARK   10  A    between atoms: N_29  and  C_34
REMARK   11  A    between atoms: C_34  and  C_35
REMARK   12  A    between atoms: C_39  and  C_40
REMARK                            x       y       z     vdW  Elec       q    Type
REMARK                         _______ _______ _______ _____ _____    ______ ____
ROOT
ATOM      1  N   UNL     1       2.899   0.936  -1.533  0.00  0.00    -0.280 N 
ATOM      2  N   UNL     1      -1.140   0.979  -2.068  0.00  0.00    -0.334 N 
ATOM      3  N   UNL     1       5.004   0.151  -1.749  0.00  0.00    -0.374 N 
ATOM      4  C   UNL     1       0.949   2.225  -1.711  0.00  0.00    +0.042 C 
ATOM      5  C   UNL     1       1.556   1.031  -0.942  0.00  0.00    +0.101 C 
ATOM      6  C   UNL     1      -0.578   2.267  -1.701  0.00  0.00    +0.071 C 
ATOM      7  C   UNL     1       1.556   2.072  -3.112  0.00  0.00    +0.025 C 
ATOM      8  C   UNL     1       2.983   1.629  -2.817  0.00  0.00    +0.094 C 
ATOM      9  C   UNL     1       0.753  -0.249  -1.115  0.00  0.00    +0.009 C 
ATOM     10  C   UNL     1      -0.546  -0.210  -1.667  0.00  0.00    +0.042 C 
ATOM     11  C   UNL     1       3.993   0.490  -0.880  0.00  0.00    +0.176 C 
ATOM     12  C   UNL     1       1.273  -1.482  -0.685  0.00  0.00    +0.005 C 
ATOM     13  C   UNL     1      -1.252  -1.414  -1.837  0.00  0.00    +0.014 C 
ATOM     14  C   UNL     1       0.551  -2.664  -0.846  0.00  0.00    +0.075 C 
ATOM     15  C   UNL     1      -0.709  -2.631  -1.430  0.00  0.00    +0.008 C 
ATOM     16  H   UNL     1      -1.959   0.949  -2.613  0.00  0.00    +0.147 HD
ATOM     17  H   UNL     1       4.872   0.250  -2.720  0.00  0.00    +0.158 HD
ATOM     18  H   UNL     1       5.859  -0.189  -1.401  0.00  0.00    +0.158 HD
ENDROOT
BRANCH  14  20
ATOM     19  O   UNL     1       2.222  -4.073   0.126  0.00  0.00    -0.245 OA
ATOM     20  C   UNL     1       1.115  -3.929  -0.404  0.00  0.00    +0.338 C 
BRANCH  20  21
ATOM     21  O   UNL     1       0.282  -4.980  -0.635  0.00  0.00    -0.477 OA
ATOM     22  H   UNL     1      -0.551  -4.838  -1.040  0.00  0.00    +0.295 HD
ENDBRANCH  20  21
ENDBRANCH  14  20
BRANCH  11  23
ATOM     23  N   UNL     1       4.155   0.365   0.403  0.00  0.00    -0.205 NA
BRANCH  23  24
ATOM     24  C   UNL     1       5.442  -0.144   0.861  0.00  0.00    +0.140 C 
BRANCH  24  25
ATOM     25  C   UNL     1       5.440  -0.240   2.354  0.00  0.00    -0.011 C 
ATOM     26  C   UNL     1       5.826   0.698   3.240  0.00  0.00    -0.046 C 
ATOM     27  C   UNL     1       5.794   0.412   4.718  0.00  0.00    +0.026 C 
ATOM     28  C   UNL     1       6.300   2.079   2.884  0.00  0.00    +0.026 C 
ENDBRANCH  24  25
ENDBRANCH  23  24
ENDBRANCH  11  23
BRANCH   6  29
ATOM     29  C   UNL     1      -1.131   2.689  -0.339  0.00  0.00    +0.022 C 
BRANCH  29  30
ATOM     30  C   UNL     1      -2.657   2.758  -0.362  0.00  0.00    +0.026 C 
BRANCH  30  31
ATOM     31  C   UNL     1      -3.243   3.115   1.001  0.00  0.00    +0.100 C 
BRANCH  31  32
ATOM     32  N   UNL     1      -4.685   3.127   0.951  0.00  0.00    -0.346 N 
ATOM     33  N   UNL     1      -6.825   2.350   1.043  0.00  0.00    -0.370 N 
ATOM     34  C   UNL     1      -5.491   2.019   1.155  0.00  0.00    +0.192 C 
ATOM     35  H   UNL     1      -5.128   3.984   0.758  0.00  0.00    +0.163 HD
ATOM     36  H   UNL     1      -7.087   3.277   0.841  0.00  0.00    +0.159 HD
ATOM     37  H   UNL     1      -7.516   1.659   1.164  0.00  0.00    +0.159 HD
BRANCH  34  38
ATOM     38  N   UNL     1      -4.999   0.843   1.416  0.00  0.00    -0.235 NA
BRANCH  38  39
ATOM     39  C   UNL     1      -5.944  -0.248   1.612  0.00  0.00    +0.154 C 
BRANCH  39  40
ATOM     40  C   UNL     1      -5.198  -1.508   1.920  0.00  0.00    -0.008 C 
ATOM     41  C   UNL     1      -4.756  -2.437   1.050  0.00  0.00    -0.046 C 
ATOM     42  C   UNL     1      -4.053  -3.673   1.545  0.00  0.00    +0.026 C 
ATOM     43  C   UNL     1      -4.890  -2.353  -0.444  0.00  0.00    +0.026 C 
ENDBRANCH  39  40
ENDBRANCH  38  39
ENDBRANCH  34  38
ENDBRANCH  31  32
ENDBRANCH  30  31
ENDBRANCH  29  30
ENDBRANCH   6  29
TORSDOF 12
