REMARK  Name = 10252115
REMARK  8 active torsions:
REMARK  status: ('A' for Active; 'I' for Inactive)
REMARK    1  A    between atoms: C_2  and  C_10
REMARK    2  A    between atoms: C_3  and  C_20
REMARK    3  A    between atoms: C_4  and  C_27
REMARK    4  A    between atoms: C_13  and  N_18
REMARK    5  A    between atoms: C_20  and  O_21
REMARK    6  A    between atoms: O_21  and  C_22
REMARK    7  A    between atoms: C_27  and  O_28
REMARK    8  A    between atoms: O_28  and  C_29
REMARK                            x       y       z     vdW  Elec       q    Type
REMARK                         _______ _______ _______ _____ _____    ______ ____
ROOT
ATOM      1  N   UNL     1       0.002  -3.430   0.687  0.00  0.00    -0.334 N 
ATOM      2  C   UNL     1      -0.001  -0.889  -0.563  0.00  0.00    +0.011 C 
ATOM      3  C   UNL     1      -1.277  -1.683  -0.269  0.00  0.00    +0.071 C 
ATOM      4  C   UNL     1       1.279  -1.681  -0.268  0.00  0.00    +0.085 C 
ATOM      5  C   UNL     1      -1.227  -2.881   0.356  0.00  0.00    +0.098 C 
ATOM      6  C   UNL     1       1.231  -2.885   0.347  0.00  0.00    +0.028 C 
ATOM      7  C   UNL     1      -2.419  -3.716   0.738  0.00  0.00    +0.026 C 
ATOM      8  C   UNL     1       2.421  -3.726   0.719  0.00  0.00    +0.047 C 
ATOM      9  H   UNL     1       0.002  -4.268   1.202  0.00  0.00    +0.147 HD
ENDROOT
BRANCH   2  10
ATOM     10  C   UNL     1      -0.002   0.392   0.223  0.00  0.00    +0.002 C 
ATOM     11  C   UNL     1      -0.001   1.609  -0.448  0.00  0.00    +0.024 C 
ATOM     12  C   UNL     1      -0.002   0.346   1.611  0.00  0.00    +0.000 C 
ATOM     13  C   UNL     1      -0.002   2.798   0.282  0.00  0.00    +0.143 C 
ATOM     14  C   UNL     1      -0.003   1.534   2.341  0.00  0.00    +0.002 C 
ATOM     15  C   UNL     1      -0.002   2.761   1.676  0.00  0.00    +0.024 C 
BRANCH  13  18
ATOM     16  O   UNL     1      -0.004   5.101   0.285  0.00  0.00    -0.126 OA
ATOM     17  O   UNL     1      -0.001   4.053  -1.649  0.00  0.00    -0.126 OA
ATOM     18  N   UNL     1      -0.003   4.046  -0.395  0.00  0.00    +0.058 N 
ENDBRANCH  13  18
ENDBRANCH   2  10
BRANCH   3  20
ATOM     19  O   UNL     1      -2.995  -1.293  -1.854  0.00  0.00    -0.245 OA
ATOM     20  C   UNL     1      -2.542  -1.097  -0.741  0.00  0.00    +0.339 C 
BRANCH  20  21
ATOM     21  O   UNL     1      -3.063  -0.343   0.256  0.00  0.00    -0.453 OA
BRANCH  21  22
ATOM     22  C   UNL     1      -4.304   0.298  -0.053  0.00  0.00    +0.137 C 
ATOM     23  C   UNL     1      -5.336  -0.777  -0.390  0.00  0.00    +0.044 C 
ATOM     24  C   UNL     1      -4.735   1.088   1.181  0.00  0.00    +0.044 C 
ATOM     25  C   UNL     1      -4.086   1.234  -1.241  0.00  0.00    +0.044 C 
ENDBRANCH  21  22
ENDBRANCH  20  21
ENDBRANCH   3  20
BRANCH   4  27
ATOM     26  O   UNL     1       2.991  -1.278  -1.857  0.00  0.00    -0.245 OA
ATOM     27  C   UNL     1       2.542  -1.091  -0.741  0.00  0.00    +0.342 C 
BRANCH  27  28
ATOM     28  O   UNL     1       3.067  -0.344   0.260  0.00  0.00    -0.453 OA
BRANCH  28  29
ATOM     29  C   UNL     1       4.307   0.300  -0.050  0.00  0.00    +0.137 C 
ATOM     30  C   UNL     1       4.086   1.234  -1.240  0.00  0.00    +0.044 C 
ATOM     31  C   UNL     1       4.735   1.093   1.183  0.00  0.00    +0.044 C 
ATOM     32  C   UNL     1       5.343  -0.772  -0.385  0.00  0.00    +0.044 C 
ENDBRANCH  28  29
ENDBRANCH  27  28
ENDBRANCH   4  27
TORSDOF 8
