REMARK  Name = 10254449
REMARK  2 active torsions:
REMARK  status: ('A' for Active; 'I' for Inactive)
REMARK    1  A    between atoms: C_10  and  O_34
REMARK    2  A    between atoms: C_14  and  O_36
REMARK                            x       y       z     vdW  Elec       q    Type
REMARK                         _______ _______ _______ _____ _____    ______ ____
ROOT
ATOM      1  S   UNL     1      -4.073   0.299  -1.832  0.00  0.00    -0.107 S 
ATOM      2  O   UNL     1      -3.691  -1.705   0.695  0.00  0.00    -0.451 OA
ATOM      3  O   UNL     1       3.608  -3.288  -0.392  0.00  0.00    -0.447 OA
ATOM      4  O   UNL     1      -1.769  -0.571   1.293  0.00  0.00    -0.248 OA
ATOM      5  O   UNL     1      -0.571  -4.016  -0.727  0.00  0.00    -0.268 OA
ATOM      6  O   UNL     1      -3.372   3.350  -1.650  0.00  0.00    -0.270 OA
ATOM      7  N   UNL     1      -0.593  -1.702  -0.907  0.00  0.00    -0.291 N 
ATOM      8  N   UNL     1       2.114  -1.621  -0.692  0.00  0.00    -0.367 NA
ATOM      9  N   UNL     1      -2.159   2.763   0.250  0.00  0.00    -0.297 N 
ATOM     10  C   UNL     1       4.597  -0.308   0.886  0.00  0.00    +0.124 C 
ATOM     11  C   UNL     1       5.482   0.946   0.863  0.00  0.00    +0.064 C 
ATOM     12  C   UNL     1       4.550  -1.039  -0.463  0.00  0.00    +0.128 C 
ATOM     13  C   UNL     1      -2.034  -1.484  -0.949  0.00  0.00    +0.183 C 
ATOM     14  C   UNL     1       4.939   2.116   0.029  0.00  0.00    +0.135 C 
ATOM     15  C   UNL     1      -4.470  -1.125   1.764  0.00  0.00    +0.173 C 
ATOM     16  C   UNL     1      -5.362  -0.028   1.156  0.00  0.00    +0.070 C 
ATOM     17  C   UNL     1      -2.346  -0.304  -1.879  0.00  0.00    +0.093 C 
ATOM     18  C   UNL     1       3.377  -1.948  -0.528  0.00  0.00    +0.255 C 
ATOM     19  C   UNL     1      -2.430  -1.217   0.492  0.00  0.00    +0.336 C 
ATOM     20  C   UNL     1      -4.561   1.175   0.721  0.00  0.00    -0.012 C 
ATOM     21  C   UNL     1      -5.317  -2.245   2.354  0.00  0.00    +0.048 C 
ATOM     22  C   UNL     1      -3.984   1.380  -0.477  0.00  0.00    +0.075 C 
ATOM     23  C   UNL     1       3.637   2.653   0.555  0.00  0.00    +0.003 C 
ATOM     24  C   UNL     1       1.452  -2.828  -0.651  0.00  0.00    +0.209 C 
ATOM     25  C   UNL     1       0.013  -2.938  -0.767  0.00  0.00    +0.276 C 
ATOM     26  C   UNL     1       2.365  -3.842  -0.474  0.00  0.00    +0.271 C 
ATOM     27  C   UNL     1      -3.168   2.613  -0.690  0.00  0.00    +0.251 C 
ATOM     28  C   UNL     1       2.495   2.669  -0.150  0.00  0.00    -0.002 C 
ATOM     29  C   UNL     1      -1.166   3.819   0.192  0.00  0.00    +0.116 C 
ATOM     30  C   UNL     1       1.255   3.205   0.368  0.00  0.00    -0.003 C 
ATOM     31  C   UNL     1       0.114   3.245  -0.338  0.00  0.00    -0.005 C 
ATOM     32  H   UNL     1      -0.010  -0.912  -0.984  0.00  0.00    +0.150 HD
ATOM     33  H   UNL     1      -2.115   2.120   0.994  0.00  0.00    +0.150 HD
ENDROOT
BRANCH  10  34
ATOM     34  O   UNL     1       5.157  -1.192   1.864  0.00  0.00    -0.384 OA
ATOM     35  H   UNL     1       5.192  -0.742   2.723  0.00  0.00    +0.210 HD
ENDBRANCH  10  34
BRANCH  14  36
ATOM     36  O   UNL     1       5.911   3.165   0.086  0.00  0.00    -0.380 OA
ATOM     37  H   UNL     1       6.760   2.837  -0.250  0.00  0.00    +0.211 HD
ENDBRANCH  14  36
TORSDOF 2
