REMARK  Name = 10253806
REMARK  12 active torsions:
REMARK  status: ('A' for Active; 'I' for Inactive)
REMARK    1  A    between atoms: C_1  and  C_5
REMARK    2  A    between atoms: C_2  and  C_23
REMARK    3  A    between atoms: C_5  and  O_6
REMARK    4  A    between atoms: O_6  and  C_12
REMARK    5  A    between atoms: C_8  and  O_13
REMARK    6  A    between atoms: C_9  and  O_15
REMARK    7  A    between atoms: C_10  and  C_19
REMARK    8  A    between atoms: C_11  and  O_17
REMARK    9  A    between atoms: C_19  and  O_20
REMARK   10  A    between atoms: C_22  and  C_26
REMARK   11  A    between atoms: C_24  and  C_28
REMARK   12  A    between atoms: C_27  and  C_32
REMARK                            x       y       z     vdW  Elec       q    Type
REMARK                         _______ _______ _______ _____ _____    ______ ____
ROOT
ATOM      1  C   UNL     1       2.225  -0.048  -0.745  0.00  0.00    +0.078 C 
ATOM      2  C   UNL     1       1.193  -0.898  -0.572  0.00  0.00    -0.015 C 
ATOM      3  C   UNL     1       1.321  -2.396  -0.466  0.00  0.00    +0.031 C 
ENDROOT
BRANCH   1   5
ATOM      4  O   UNL     1       4.060  -1.480  -1.370  0.00  0.00    -0.245 OA
ATOM      5  C   UNL     1       3.649  -0.438  -0.888  0.00  0.00    +0.343 C 
BRANCH   5   6
ATOM      6  O   UNL     1       4.400   0.589  -0.405  0.00  0.00    -0.419 OA
BRANCH   6  12
ATOM      7  O   UNL     1       6.249  -0.430   0.587  0.00  0.00    -0.316 OA
ATOM      8  C   UNL     1       8.420   0.638   0.735  0.00  0.00    +0.169 C 
ATOM      9  C   UNL     1       7.996   1.663  -0.316  0.00  0.00    +0.173 C 
ATOM     10  C   UNL     1       7.657  -0.676   0.552  0.00  0.00    +0.177 C 
ATOM     11  C   UNL     1       6.473   1.781  -0.392  0.00  0.00    +0.211 C 
ATOM     12  C   UNL     1       5.813   0.405  -0.483  0.00  0.00    +0.321 C 
BRANCH   8  13
ATOM     13  O   UNL     1       9.818   0.391   0.615  0.00  0.00    -0.379 OA
ATOM     14  H   UNL     1      10.305   1.222   0.731  0.00  0.00    +0.211 HD
ENDBRANCH   8  13
BRANCH   9  15
ATOM     15  O   UNL     1       8.553   2.927   0.049  0.00  0.00    -0.379 OA
ATOM     16  H   UNL     1       9.518   2.853   0.097  0.00  0.00    +0.211 HD
ENDBRANCH   9  15
BRANCH  11  17
ATOM     17  O   UNL     1       6.113   2.527  -1.554  0.00  0.00    -0.377 OA
ATOM     18  H   UNL     1       6.523   3.405  -1.514  0.00  0.00    +0.211 HD
ENDBRANCH  11  17
BRANCH  10  19
ATOM     19  C   UNL     1       7.977  -1.674   1.660  0.00  0.00    +0.169 C 
BRANCH  19  20
ATOM     20  O   UNL     1       7.230  -2.855   1.432  0.00  0.00    -0.379 OA
ATOM     21  H   UNL     1       7.424  -3.500   2.130  0.00  0.00    +0.211 HD
ENDBRANCH  19  20
ENDBRANCH  10  19
ENDBRANCH   6  12
ENDBRANCH   5   6
ENDBRANCH   1   5
BRANCH   2  23
ATOM     22  C   UNL     1      -1.302  -1.003  -0.273  0.00  0.00    -0.001 C 
ATOM     23  C   UNL     1      -0.153  -0.327  -0.449  0.00  0.00    -0.004 C 
BRANCH  22  26
ATOM     24  C   UNL     1      -3.809  -0.895   0.008  0.00  0.00    -0.022 C 
ATOM     25  C   UNL     1      -3.907  -2.399   0.118  0.00  0.00    +0.031 C 
ATOM     26  C   UNL     1      -2.590  -0.341  -0.168  0.00  0.00    -0.004 C 
BRANCH  24  28
ATOM     27  C   UNL     1      -6.285  -0.637   0.276  0.00  0.00    -0.005 C 
ATOM     28  C   UNL     1      -5.054  -0.131   0.102  0.00  0.00    -0.005 C 
BRANCH  27  32
ATOM     29  C   UNL     1      -8.721  -0.354  -0.388  0.00  0.00    +0.018 C 
ATOM     30  C   UNL     1     -10.006   0.429  -0.004  0.00  0.00    +0.004 C 
ATOM     31  C   UNL     1      -9.778   1.930   0.025  0.00  0.00    +0.005 C 
ATOM     32  C   UNL     1      -7.480   0.188   0.360  0.00  0.00    -0.031 C 
ATOM     33  C   UNL     1      -8.710   2.275   1.052  0.00  0.00    +0.022 C 
ATOM     34  C   UNL     1      -7.497   1.368   1.030  0.00  0.00    -0.048 C 
ATOM     35  C   UNL     1      -9.007  -1.837  -0.045  0.00  0.00    +0.004 C 
ATOM     36  C   UNL     1      -8.497  -0.237  -1.913  0.00  0.00    +0.004 C 
ATOM     37  C   UNL     1      -6.351   1.945   1.829  0.00  0.00    +0.026 C 
ENDBRANCH  27  32
ENDBRANCH  24  28
ENDBRANCH  22  26
ENDBRANCH   2  23
TORSDOF 12
