102571616
  -OEChem-03292013293D

 46 47  0     1  0  0  0  0  0999 V2000
   -3.0621   -0.2521   -1.4156 O   0  0  0  0  0  0  0  0  0  0  0  0
   -2.3197    0.9997    2.4268 O   0  0  0  0  0  0  0  0  0  0  0  0
    2.1221    3.1033    0.1169 O   0  0  0  0  0  0  0  0  0  0  0  0
    5.2244   -1.0636   -0.9595 O   0  0  0  0  0  0  0  0  0  0  0  0
    1.9769   -2.2434    1.8360 O   0  0  0  0  0  0  0  0  0  0  0  0
    0.0819    1.7249    1.7827 N   0  0  0  0  0  0  0  0  0  0  0  0
    2.4285   -1.2110   -0.2008 N   0  0  0  0  0  0  0  0  0  0  0  0
   -3.8528   -0.7672   -0.3304 C   0  0  0  0  0  0  0  0  0  0  0  0
   -3.9361    0.2255    0.8344 C   0  0  0  0  0  0  0  0  0  0  0  0
   -1.5412    0.7377    0.2169 C   0  0  0  0  0  0  0  0  0  0  0  0
   -2.5648    0.6629    1.2747 C   0  0  0  0  0  0  0  0  0  0  0  0
   -1.8583    0.2974   -1.0687 C   0  0  0  0  0  0  0  0  0  0  0  0
   -5.2629   -0.9694   -0.9060 C   0  0  0  0  0  0  0  0  0  0  0  0
   -3.3088   -2.1382    0.1058 C   0  0  0  0  0  0  0  0  0  0  0  0
   -0.2799    1.2740    0.4910 C   0  0  0  0  0  0  0  0  0  0  0  0
    0.6611    1.3816   -0.5329 C   0  0  0  0  0  0  0  0  0  0  0  0
    3.2376    1.0743   -0.5719 C   0  0  0  0  0  0  0  0  0  0  0  0
    3.3330   -0.1936    0.2906 C   0  0  2  0  0  0  0  0  0  0  0  0
   -0.9172    0.4233   -2.0926 C   0  0  0  0  0  0  0  0  0  0  0  0
    1.9894    1.9360   -0.2972 C   0  0  0  0  0  0  0  0  0  0  0  0
    0.3418    0.9613   -1.8236 C   0  0  0  0  0  0  0  0  0  0  0  0
    4.7608   -0.7425    0.3458 C   0  0  0  0  0  0  0  0  0  0  0  0
    1.8291   -2.1489    0.6204 C   0  0  0  0  0  0  0  0  0  0  0  0
    0.9172   -3.0719   -0.1429 C   0  0  0  0  0  0  0  0  0  0  0  0
   -4.4572   -0.2244    1.6870 H   0  0  0  0  0  0  0  0  0  0  0  0
   -4.4737    1.1350    0.5390 H   0  0  0  0  0  0  0  0  0  0  0  0
   -5.9535   -1.3684   -0.1558 H   0  0  0  0  0  0  0  0  0  0  0  0
   -2.2954   -2.0674    0.5142 H   0  0  0  0  0  0  0  0  0  0  0  0
   -3.9476   -2.5974    0.8677 H   0  0  0  0  0  0  0  0  0  0  0  0
   -3.2458   -2.8192   -0.7508 H   0  0  0  0  0  0  0  0  0  0  0  0
   -5.6691   -0.0239   -1.2839 H   0  0  0  0  0  0  0  0  0  0  0  0
   -5.2418   -1.6573   -1.7594 H   0  0  0  0  0  0  0  0  0  0  0  0
    3.0307    0.0521    1.3166 H   0  0  0  0  0  0  0  0  0  0  0  0
    3.2776    0.8459   -1.6433 H   0  0  0  0  0  0  0  0  0  0  0  0
    4.1010    1.7188   -0.3603 H   0  0  0  0  0  0  0  0  0  0  0  0
   -1.1541    0.0956   -3.1014 H   0  0  0  0  0  0  0  0  0  0  0  0
    1.0592    1.0496   -2.6354 H   0  0  0  0  0  0  0  0  0  0  0  0
    5.4398   -0.0008    0.7794 H   0  0  0  0  0  0  0  0  0  0  0  0
    4.8064   -1.6507    0.9564 H   0  0  0  0  0  0  0  0  0  0  0  0
    2.2818   -1.2749   -1.2043 H   0  0  0  0  0  0  0  0  0  0  0  0
   -0.5639    1.6442    2.5550 H   0  0  0  0  0  0  0  0  0  0  0  0
    1.0072    2.0907    1.9610 H   0  0  0  0  0  0  0  0  0  0  0  0
    6.1313   -1.4015   -0.8650 H   0  0  0  0  0  0  0  0  0  0  0  0
    1.5066   -3.6846   -0.8306 H   0  0  0  0  0  0  0  0  0  0  0  0
    0.3868   -3.7266    0.5540 H   0  0  0  0  0  0  0  0  0  0  0  0
    0.1834   -2.4913   -0.7087 H   0  0  0  0  0  0  0  0  0  0  0  0
  1  8  1  0  0  0  0
  1 12  1  0  0  0  0
  2 11  2  0  0  0  0
  3 20  2  0  0  0  0
  4 22  1  0  0  0  0
  4 43  1  0  0  0  0
  5 23  2  0  0  0  0
  6 15  1  0  0  0  0
  6 41  1  0  0  0  0
  6 42  1  0  0  0  0
  7 18  1  0  0  0  0
  7 23  1  0  0  0  0
  7 40  1  0  0  0  0
  8  9  1  0  0  0  0
  8 13  1  0  0  0  0
  8 14  1  0  0  0  0
  9 11  1  0  0  0  0
  9 25  1  0  0  0  0
  9 26  1  0  0  0  0
 10 11  1  0  0  0  0
 10 12  2  0  0  0  0
 10 15  1  0  0  0  0
 12 19  1  0  0  0  0
 13 27  1  0  0  0  0
 13 31  1  0  0  0  0
 13 32  1  0  0  0  0
 14 28  1  0  0  0  0
 14 29  1  0  0  0  0
 14 30  1  0  0  0  0
 15 16  2  0  0  0  0
 16 20  1  0  0  0  0
 16 21  1  0  0  0  0
 17 18  1  0  0  0  0
 17 20  1  0  0  0  0
 17 34  1  0  0  0  0
 17 35  1  0  0  0  0
 18 22  1  0  0  0  0
 18 33  1  0  0  0  0
 19 21  2  0  0  0  0
 19 36  1  0  0  0  0
 21 37  1  0  0  0  0
 22 38  1  0  0  0  0
 22 39  1  0  0  0  0
 23 24  1  0  0  0  0
 24 44  1  0  0  0  0
 24 45  1  0  0  0  0
 24 46  1  0  0  0  0
M  END
> <PUBCHEM_COMPOUND_CID>
102571616

> <PUBCHEM_CONFORMER_RMSD>
1

> <PUBCHEM_CONFORMER_DIVERSEORDER>
1
92
56
38
99
24
65
48
89
85
95
13
102
91
8
100
71
83
54
82
74
108
103
88
63
33
113
110
27
67
96
9
76
45
46
78
68
101
64
44
23
4
105
72
43
109
41
90
20
47
51
37
39
98
42
14
16
75
66
81
50
86
53
28
94
97
2
52
93
21
106
10
69
59
70
60
11
17
35
84
80
87
49
7
5
6
3
111
61
25
79
107
62
19
15
30
26
12
104
32
22
18
58
36
77
31
55
29
73
57
34
40
112

> <PUBCHEM_MMFF94_PARTIAL_CHARGES>
28
1 -0.36
10 0.09
11 0.42
12 0.08
15 0.1
16 0.09
17 0.06
18 0.3
19 -0.15
2 -0.57
20 0.42
21 -0.15
22 0.28
23 0.57
24 0.06
3 -0.57
36 0.15
37 0.15
4 -0.68
40 0.37
41 0.4
42 0.4
43 0.4
5 -0.57
6 -0.9
7 -0.73
8 0.28
9 0.06

> <PUBCHEM_EFFECTIVE_ROTOR_COUNT>
6.6

> <PUBCHEM_PHARMACOPHORE_FEATURES>
12
1 1 acceptor
1 2 acceptor
1 3 acceptor
1 4 acceptor
1 4 donor
1 5 acceptor
1 6 cation
1 6 donor
1 7 donor
3 8 13 14 hydrophobe
6 1 8 9 10 11 12 rings
6 10 12 15 16 19 21 rings

> <PUBCHEM_HEAVY_ATOM_COUNT>
24

> <PUBCHEM_ATOM_DEF_STEREO_COUNT>
0

> <PUBCHEM_ATOM_UDEF_STEREO_COUNT>
1

> <PUBCHEM_BOND_DEF_STEREO_COUNT>
0

> <PUBCHEM_BOND_UDEF_STEREO_COUNT>
0

> <PUBCHEM_ISOTOPIC_ATOM_COUNT>
0

> <PUBCHEM_COMPONENT_COUNT>
1

> <PUBCHEM_CACTVS_TAUTO_COUNT>
60

> <PUBCHEM_CONFORMER_ID>
061D1E6000000001

> <PUBCHEM_MMFF94_ENERGY>
78.9106

> <PUBCHEM_FEATURE_SELFOVERLAP>
60.928

> <PUBCHEM_SHAPE_FINGERPRINT>
10064457 181 18193002735942848143
10366900 7 17675925378474216886
11370993 70 18119243106669053009
11578080 2 17914585368005095385
11796584 16 18342172306811981463
12236239 1 18059860575191401900
12553582 1 18337389335976600674
12596599 1 18342751692914212614
12596602 18 17917426553252677536
13583140 156 18200301243179657601
13965767 371 16982688661470620672
14178342 30 16486154824284613465
14787075 74 18059568165713252736
15209289 33 18342741814842528326
15295992 7 11599422733415655710
15635459 17 17821722814966689427
17138139 8 17695613439972084311
17349148 13 16558736928513946397
17492 54 17968104139926576094
1813 80 18342750581024105220
200 152 18410570686759090173
20028762 73 18272929432228949846
20645477 70 18187357770247246109
21421861 104 18200614522573395963
23557571 272 15213315122448323817
23559900 14 18262790895480071877
3323516 105 18114455738420508503
4340502 62 18124587849813746385
6287921 2 17915186702065189014
7097593 13 18127424357895626713
9981440 41 15975798128435772816

> <PUBCHEM_SHAPE_MULTIPOLES>
454.6
8.54
2.71
1.71
0.12
0.98
0.24
3.43
-0.8
-1.86
0.47
0.87
-0.41
-0.77

> <PUBCHEM_SHAPE_SELFOVERLAP>
958.19

> <PUBCHEM_SHAPE_VOLUME>
255.8

> <PUBCHEM_COORDINATE_TYPE>
2
5
10

$$$$
