REMARK  Name = 102585874
REMARK  5 active torsions:
REMARK  status: ('A' for Active; 'I' for Inactive)
REMARK    1  A    between atoms: C_7  and  O_25
REMARK    2  A    between atoms: C_11  and  O_27
REMARK    3  A    between atoms: C_14  and  O_29
REMARK    4  A    between atoms: C_15  and  O_31
REMARK    5  A    between atoms: C_17  and  O_33
REMARK                            x       y       z     vdW  Elec       q    Type
REMARK                         _______ _______ _______ _____ _____    ______ ____
ROOT
ATOM      1  O   UNL     1       2.661   1.030   1.765  0.00  0.00    -0.354 OA
ATOM      2  O   UNL     1       0.558  -2.406  -0.632  0.00  0.00    -0.449 OA
ATOM      3  O   UNL     1       1.637  -2.949  -2.529  0.00  0.00    -0.250 OA
ATOM      4  O   UNL     1      -4.509   2.062  -1.147  0.00  0.00    -0.289 OA
ATOM      5  C   UNL     1       1.063  -0.363   0.659  0.00  0.00    +0.094 C 
ATOM      6  C   UNL     1       0.161   0.657  -0.149  0.00  0.00    +0.041 C 
ATOM      7  C   UNL     1       2.459  -0.501   0.026  0.00  0.00    +0.129 C 
ATOM      8  C   UNL     1      -1.405   0.598   0.206  0.00  0.00    +0.040 C 
ATOM      9  C   UNL     1       3.031   0.878   0.363  0.00  0.00    +0.142 C 
ATOM     10  C   UNL     1       0.451  -1.757   0.683  0.00  0.00    +0.200 C 
ATOM     11  C   UNL     1       0.822   2.071  -0.229  0.00  0.00    +0.140 C 
ATOM     12  C   UNL     1       1.486   0.212   2.021  0.00  0.00    +0.148 C 
ATOM     13  C   UNL     1      -1.887  -0.910   0.116  0.00  0.00    +0.052 C 
ATOM     14  C   UNL     1       2.354   2.036  -0.408  0.00  0.00    +0.164 C 
ATOM     15  C   UNL     1      -1.035  -1.796   1.065  0.00  0.00    +0.154 C 
ATOM     16  C   UNL     1       2.406  -0.988  -1.407  0.00  0.00    +0.139 C 
ATOM     17  C   UNL     1      -2.210   1.393  -0.869  0.00  0.00    +0.172 C 
ATOM     18  C   UNL     1      -1.749   1.174   1.611  0.00  0.00    +0.003 C 
ATOM     19  C   UNL     1       4.556   0.962   0.261  0.00  0.00    +0.035 C 
ATOM     20  C   UNL     1      -3.414  -1.024   0.243  0.00  0.00    -0.039 C 
ATOM     21  C   UNL     1       1.528  -2.207  -1.555  0.00  0.00    +0.319 C 
ATOM     22  C   UNL     1      -3.712   1.208  -0.757  0.00  0.00    +0.199 C 
ATOM     23  C   UNL     1      -4.234  -0.047  -0.178  0.00  0.00    +0.032 C 
ATOM     24  C   UNL     1      -4.043  -2.276   0.792  0.00  0.00    +0.027 C 
ENDROOT
BRANCH   7  25
ATOM     25  O   UNL     1       3.243  -1.509   0.706  0.00  0.00    -0.384 OA
ATOM     26  H   UNL     1       3.328  -1.274   1.643  0.00  0.00    +0.210 HD
ENDBRANCH   7  25
BRANCH  11  27
ATOM     27  O   UNL     1       0.545   2.840   0.936  0.00  0.00    -0.382 OA
ATOM     28  H   UNL     1      -0.414   2.881   1.076  0.00  0.00    +0.210 HD
ENDBRANCH  11  27
BRANCH  14  29
ATOM     29  O   UNL     1       2.652   1.990  -1.799  0.00  0.00    -0.380 OA
ATOM     30  H   UNL     1       3.613   1.967  -1.924  0.00  0.00    +0.211 HD
ENDBRANCH  14  29
BRANCH  15  31
ATOM     31  O   UNL     1      -1.427  -3.169   0.974  0.00  0.00    -0.380 OA
ATOM     32  H   UNL     1      -0.882  -3.701   1.575  0.00  0.00    +0.211 HD
ENDBRANCH  15  31
BRANCH  17  33
ATOM     33  O   UNL     1      -1.987   2.792  -0.771  0.00  0.00    -0.377 OA
ATOM     34  H   UNL     1      -1.036   2.974  -0.836  0.00  0.00    +0.211 HD
ENDBRANCH  17  33
TORSDOF 5
