REMARK  Name = 102571782
REMARK  19 active torsions:
REMARK  status: ('A' for Active; 'I' for Inactive)
REMARK    1  A    between atoms: C_1  and  C_18
REMARK    2  A    between atoms: C_2  and  C_3
REMARK    3  A    between atoms: C_4  and  C_6
REMARK    4  A    between atoms: C_5  and  C_8
REMARK    5  A    between atoms: C_7  and  C_9
REMARK    6  A    between atoms: C_9  and  O_10
REMARK    7  A    between atoms: C_9  and  C_12
REMARK    8  A    between atoms: C_12  and  C_13
REMARK    9  A    between atoms: C_13  and  C_14
REMARK   10  A    between atoms: C_14  and  C_17
REMARK   11  A    between atoms: C_18  and  O_19
REMARK   12  A    between atoms: C_18  and  C_21
REMARK   13  A    between atoms: C_21  and  O_22
REMARK   14  A    between atoms: C_21  and  C_24
REMARK   15  A    between atoms: C_24  and  C_25
REMARK   16  A    between atoms: C_25  and  C_26
REMARK   17  A    between atoms: C_26  and  C_27
REMARK   18  A    between atoms: C_27  and  C_28
REMARK   19  A    between atoms: C_28  and  O_29
REMARK                            x       y       z     vdW  Elec       q    Type
REMARK                         _______ _______ _______ _____ _____    ______ ____
ROOT
ATOM      1  C   UNL     1       2.275  -0.346  -1.597  0.00  0.00    +0.005 C 
ATOM      2  C   UNL     1       1.068  -0.010  -1.116  0.00  0.00    -0.002 C 
ENDROOT
BRANCH   2   3
ATOM      3  C   UNL     1       0.064   0.667  -1.908  0.00  0.00    -0.000 C 
ATOM      4  C   UNL     1      -1.143   1.003  -1.427  0.00  0.00    -0.000 C 
BRANCH   4   6
ATOM      5  C   UNL     1      -3.353   2.015  -1.738  0.00  0.00    -0.000 C 
ATOM      6  C   UNL     1      -2.147   1.680  -2.219  0.00  0.00    -0.000 C 
BRANCH   5   8
ATOM      7  C   UNL     1      -4.975   2.068   0.101  0.00  0.00    +0.003 C 
ATOM      8  C   UNL     1      -3.768   1.732  -0.380  0.00  0.00    -0.002 C 
BRANCH   7   9
ATOM      9  C   UNL     1      -5.487   1.804   1.496  0.00  0.00    +0.132 C 
BRANCH   9  10
ATOM     10  O   UNL     1      -5.730   3.035   2.180  0.00  0.00    -0.380 OA
ATOM     11  H   UNL     1      -6.058   2.849   3.074  0.00  0.00    +0.211 HD
ENDBRANCH   9  10
BRANCH   9  12
ATOM     12  C   UNL     1      -6.789   0.991   1.506  0.00  0.00    +0.034 C 
BRANCH  12  13
ATOM     13  C   UNL     1      -6.717  -0.427   0.924  0.00  0.00    +0.015 C 
BRANCH  13  14
ATOM     14  C   UNL     1      -8.027  -1.206   1.029  0.00  0.00    +0.114 C 
BRANCH  14  17
ATOM     15  O   UNL     1      -9.110  -3.236   0.520  0.00  0.00    -0.246 OA
ATOM     16  O   UNL     1      -6.929  -2.971  -0.109  0.00  0.00    -0.246 OA
ATOM     17  C   UNL     1      -8.015  -2.612   0.427  0.00  0.00    +0.365 C 
ENDBRANCH  14  17
ENDBRANCH  13  14
ENDBRANCH  12  13
ENDBRANCH   9  12
ENDBRANCH   7   9
ENDBRANCH   5   8
ENDBRANCH   4   6
ENDBRANCH   2   3
BRANCH   1  18
ATOM     18  C   UNL     1       3.381  -1.046  -0.837  0.00  0.00    +0.159 C 
BRANCH  18  19
ATOM     19  O   UNL     1       3.664  -2.310  -1.429  0.00  0.00    -0.378 OA
ATOM     20  H   UNL     1       4.373  -2.748  -0.933  0.00  0.00    +0.211 HD
ENDBRANCH  18  19
BRANCH  18  21
ATOM     21  C   UNL     1       4.657  -0.181  -0.787  0.00  0.00    +0.141 C 
BRANCH  21  22
ATOM     22  O   UNL     1       4.326   1.065  -0.174  0.00  0.00    -0.382 OA
ATOM     23  H   UNL     1       5.116   1.625  -0.133  0.00  0.00    +0.210 HD
ENDBRANCH  21  22
BRANCH  21  24
ATOM     24  C   UNL     1       5.791  -0.852   0.008  0.00  0.00    +0.032 C 
BRANCH  24  25
ATOM     25  C   UNL     1       7.052   0.018   0.099  0.00  0.00    +0.003 C 
BRANCH  25  26
ATOM     26  C   UNL     1       8.164  -0.702   0.868  0.00  0.00    +0.003 C 
BRANCH  26  27
ATOM     27  C   UNL     1       9.461   0.109   0.958  0.00  0.00    +0.032 C 
BRANCH  27  28
ATOM     28  C   UNL     1      10.561  -0.548   1.786  0.00  0.00    +0.137 C 
BRANCH  28  29
ATOM     29  O   UNL     1      11.727   0.262   1.818  0.00  0.00    -0.382 OA
ATOM     30  H   UNL     1      12.410  -0.175   2.349  0.00  0.00    +0.210 HD
ENDBRANCH  28  29
ENDBRANCH  27  28
ENDBRANCH  26  27
ENDBRANCH  25  26
ENDBRANCH  24  25
ENDBRANCH  21  24
ENDBRANCH  18  21
ENDBRANCH   1  18
TORSDOF 19
