REMARK  Name = 102556
REMARK  8 active torsions:
REMARK  status: ('A' for Active; 'I' for Inactive)
REMARK    1  A    between atoms: S_1  and  C_4
REMARK    2  A    between atoms: S_1  and  N_17
REMARK    3  A    between atoms: C_7  and  N_14
REMARK    4  A    between atoms: N_17  and  C_19
REMARK    5  A    between atoms: C_19  and  C_21
REMARK    6  A    between atoms: C_19  and  C_24
REMARK    7  A    between atoms: C_21  and  O_22
REMARK    8  A    between atoms: C_24  and  C_27
REMARK                            x       y       z     vdW  Elec       q    Type
REMARK                         _______ _______ _______ _____ _____    ______ ____
ROOT
ATOM      1  S   UNL     1       1.497  -1.554  -0.557  0.00  0.00    +0.061 S 
ATOM      2  O   UNL     1       2.399  -2.182   0.394  0.00  0.00    -0.153 OA
ATOM      3  O   UNL     1       1.149  -2.246  -1.787  0.00  0.00    -0.153 OA
ENDROOT
BRANCH   1   4
ATOM      4  C   UNL     1      -0.005  -1.173   0.273  0.00  0.00    +0.122 C 
ATOM      5  C   UNL     1      -1.127  -0.648  -0.388  0.00  0.00    +0.020 C 
ATOM      6  C   UNL     1      -2.299  -0.369   0.355  0.00  0.00    +0.015 C 
ATOM      7  C   UNL     1      -3.422   0.156  -0.306  0.00  0.00    +0.048 C 
ATOM      8  C   UNL     1      -0.037  -1.419   1.645  0.00  0.00    +0.020 C 
ATOM      9  C   UNL     1      -1.113  -0.394  -1.769  0.00  0.00    +0.001 C 
ATOM     10  C   UNL     1      -2.314  -0.623   1.736  0.00  0.00    +0.001 C 
ATOM     11  C   UNL     1      -1.189  -1.145   2.376  0.00  0.00    +0.001 C 
ATOM     12  C   UNL     1      -3.390   0.402  -1.679  0.00  0.00    +0.015 C 
ATOM     13  C   UNL     1      -2.238   0.127  -2.409  0.00  0.00    +0.001 C 
BRANCH   7  14
ATOM     14  N   UNL     1      -4.620   0.453   0.390  0.00  0.00    -0.304 N 
ATOM     15  C   UNL     1      -5.649  -0.553   0.529  0.00  0.00    +0.112 C 
ATOM     16  C   UNL     1      -4.816   1.760   0.976  0.00  0.00    +0.112 C 
ENDBRANCH   7  14
ENDBRANCH   1   4
BRANCH   1  17
ATOM     17  N   UNL     1       2.093  -0.003  -0.946  0.00  0.00    -0.169 NA
ATOM     18  H   UNL     1       1.403   0.433  -1.559  0.00  0.00    +0.149 HD
BRANCH  17  19
ATOM     19  C   UNL     1       2.381   0.964   0.123  0.00  0.00    +0.183 C 
BRANCH  19  21
ATOM     20  O   UNL     1       0.662   2.287  -0.980  0.00  0.00    -0.249 OA
ATOM     21  C   UNL     1       1.448   2.139  -0.052  0.00  0.00    +0.330 C 
BRANCH  21  22
ATOM     22  O   UNL     1       1.569   3.040   0.958  0.00  0.00    -0.479 OA
ATOM     23  H   UNL     1       2.183   2.889   1.649  0.00  0.00    +0.295 HD
ENDBRANCH  21  22
ENDBRANCH  19  21
BRANCH  19  24
ATOM     24  C   UNL     1       3.857   1.358   0.091  0.00  0.00    +0.114 C 
BRANCH  24  27
ATOM     25  O   UNL     1       5.203  -0.462  -0.738  0.00  0.00    -0.275 OA
ATOM     26  N   UNL     1       5.163  -0.091   1.532  0.00  0.00    -0.329 N 
ATOM     27  C   UNL     1       4.799   0.176   0.232  0.00  0.00    +0.221 C 
ATOM     28  H   UNL     1       5.772  -0.839   1.729  0.00  0.00    +0.145 HD
ATOM     29  H   UNL     1       4.813   0.466   2.265  0.00  0.00    +0.145 HD
ENDBRANCH  24  27
ENDBRANCH  19  24
ENDBRANCH  17  19
ENDBRANCH   1  17
TORSDOF 8
