REMARK  Name = 102514950
REMARK  7 active torsions:
REMARK  status: ('A' for Active; 'I' for Inactive)
REMARK    1  A    between atoms: C_5  and  C_25
REMARK    2  A    between atoms: C_7  and  O_21
REMARK    3  A    between atoms: C_9  and  O_17
REMARK    4  A    between atoms: C_13  and  O_19
REMARK    5  A    between atoms: O_21  and  C_23
REMARK    6  A    between atoms: C_25  and  O_26
REMARK    7  A    between atoms: O_26  and  C_28
REMARK                            x       y       z     vdW  Elec       q    Type
REMARK                         _______ _______ _______ _____ _____    ______ ____
ROOT
ATOM      1  O   UNL     1       0.513  -2.044  -2.410  0.00  0.00    -0.351 OA
ATOM      2  O   UNL     1       0.079  -2.497   0.566  0.00  0.00    -0.349 OA
ATOM      3  C   UNL     1       0.779  -0.086  -0.784  0.00  0.00    +0.073 C 
ATOM      4  C   UNL     1       1.152  -1.467  -1.282  0.00  0.00    +0.151 C 
ATOM      5  C   UNL     1      -0.665  -0.189  -0.089  0.00  0.00    +0.078 C 
ATOM      6  C   UNL     1       1.348  -2.291  -0.063  0.00  0.00    +0.173 C 
ATOM      7  C   UNL     1       1.902   0.065   0.332  0.00  0.00    +0.200 C 
ATOM      8  C   UNL     1       1.916  -1.766  -2.555  0.00  0.00    +0.172 C 
ATOM      9  C   UNL     1       2.305  -1.384   0.729  0.00  0.00    +0.180 C 
ATOM     10  C   UNL     1      -0.633  -1.323   0.991  0.00  0.00    +0.140 C 
ATOM     11  C   UNL     1       0.852   1.012  -1.850  0.00  0.00    +0.006 C 
ATOM     12  C   UNL     1      -1.797  -0.524  -1.117  0.00  0.00    +0.040 C 
ATOM     13  C   UNL     1      -3.185  -0.763  -0.494  0.00  0.00    +0.129 C 
ATOM     14  C   UNL     1      -1.990  -1.800   1.435  0.00  0.00    -0.003 C 
ATOM     15  C   UNL     1      -3.144  -1.538   0.799  0.00  0.00    -0.020 C 
ATOM     16  C   UNL     1      -4.457  -2.041   1.327  0.00  0.00    +0.029 C 
ENDROOT
BRANCH   9  17
ATOM     17  O   UNL     1       2.235  -1.589   2.126  0.00  0.00    -0.379 OA
ATOM     18  H   UNL     1       2.492  -2.502   2.331  0.00  0.00    +0.211 HD
ENDBRANCH   9  17
BRANCH  13  19
ATOM     19  O   UNL     1      -3.835   0.491  -0.298  0.00  0.00    -0.380 OA
ATOM     20  H   UNL     1      -3.855   0.979  -1.136  0.00  0.00    +0.211 HD
ENDBRANCH  13  19
BRANCH   7  21
ATOM     21  O   UNL     1       3.057   0.718  -0.196  0.00  0.00    -0.450 OA
BRANCH  21  23
ATOM     22  O   UNL     1       3.620   1.460   1.918  0.00  0.00    -0.250 OA
ATOM     23  C   UNL     1       3.828   1.381   0.715  0.00  0.00    +0.318 C 
ATOM     24  C   UNL     1       4.996   2.014   0.021  0.00  0.00    +0.121 C 
ENDBRANCH  21  23
ENDBRANCH   7  21
BRANCH   5  25
ATOM     25  C   UNL     1      -1.035   1.159   0.593  0.00  0.00    +0.211 C 
BRANCH  25  26
ATOM     26  O   UNL     1      -1.553   2.007  -0.403  0.00  0.00    -0.448 OA
BRANCH  26  28
ATOM     27  O   UNL     1      -1.875   3.689   1.147  0.00  0.00    -0.250 OA
ATOM     28  C   UNL     1      -1.942   3.260   0.003  0.00  0.00    +0.318 C 
ATOM     29  C   UNL     1      -2.470   4.047  -1.158  0.00  0.00    +0.121 C 
ENDBRANCH  26  28
ENDBRANCH  25  26
ENDBRANCH   5  25
TORSDOF 7
