REMARK  Name = 102515038
REMARK  5 active torsions:
REMARK  status: ('A' for Active; 'I' for Inactive)
REMARK    1  A    between atoms: C_6  and  C_22
REMARK    2  A    between atoms: C_10  and  O_18
REMARK    3  A    between atoms: C_13  and  O_20
REMARK    4  A    between atoms: C_22  and  O_23
REMARK    5  A    between atoms: O_23  and  C_25
REMARK                            x       y       z     vdW  Elec       q    Type
REMARK                         _______ _______ _______ _____ _____    ______ ____
ROOT
ATOM      1  O   UNL     1       2.730  -1.840  -0.402  0.00  0.00    -0.351 OA
ATOM      2  O   UNL     1       1.336  -0.294   1.790  0.00  0.00    -0.349 OA
ATOM      3  O   UNL     1      -2.437  -2.489  -0.666  0.00  0.00    -0.289 OA
ATOM      4  C   UNL     1       1.634   0.399  -0.953  0.00  0.00    +0.039 C 
ATOM      5  C   UNL     1       2.632  -0.440  -0.186  0.00  0.00    +0.147 C 
ATOM      6  C   UNL     1       0.164   0.039  -0.414  0.00  0.00    +0.103 C 
ATOM      7  C   UNL     1       2.591   0.071   1.207  0.00  0.00    +0.169 C 
ATOM      8  C   UNL     1       2.074   1.824  -0.422  0.00  0.00    +0.035 C 
ATOM      9  C   UNL     1       3.886  -1.063  -0.759  0.00  0.00    +0.172 C 
ATOM     10  C   UNL     1       2.748   1.579   0.952  0.00  0.00    +0.140 C 
ATOM     11  C   UNL     1       0.155   0.212   1.145  0.00  0.00    +0.143 C 
ATOM     12  C   UNL     1       1.801   0.341  -2.473  0.00  0.00    +0.003 C 
ATOM     13  C   UNL     1      -0.272  -1.423  -0.737  0.00  0.00    +0.177 C 
ATOM     14  C   UNL     1      -1.009  -0.439   1.842  0.00  0.00    +0.002 C 
ATOM     15  C   UNL     1      -1.602  -1.793  -0.089  0.00  0.00    +0.196 C 
ATOM     16  C   UNL     1      -1.848  -1.336   1.308  0.00  0.00    +0.013 C 
ATOM     17  C   UNL     1      -3.022  -1.908   2.037  0.00  0.00    +0.034 C 
ENDROOT
BRANCH  10  18
ATOM     18  O   UNL     1       2.196   2.384   1.972  0.00  0.00    -0.382 OA
ATOM     19  H   UNL     1       2.647   2.197   2.811  0.00  0.00    +0.210 HD
ENDBRANCH  10  18
BRANCH  13  20
ATOM     20  O   UNL     1      -0.409  -1.632  -2.133  0.00  0.00    -0.377 OA
ATOM     21  H   UNL     1       0.422  -1.405  -2.577  0.00  0.00    +0.211 HD
ENDBRANCH  13  20
BRANCH   6  22
ATOM     22  C   UNL     1      -0.895   0.999  -1.038  0.00  0.00    +0.214 C 
BRANCH  22  23
ATOM     23  O   UNL     1      -2.028   0.966  -0.206  0.00  0.00    -0.448 OA
BRANCH  23  25
ATOM     24  O   UNL     1      -3.120   2.470  -1.577  0.00  0.00    -0.250 OA
ATOM     25  C   UNL     1      -3.088   1.754  -0.586  0.00  0.00    +0.318 C 
ATOM     26  C   UNL     1      -4.218   1.619   0.389  0.00  0.00    +0.121 C 
ENDBRANCH  23  25
ENDBRANCH  22  23
ENDBRANCH   6  22
TORSDOF 5
