REMARK  Name = 102515056
REMARK  5 active torsions:
REMARK  status: ('A' for Active; 'I' for Inactive)
REMARK    1  A    between atoms: C_1  and  C_4
REMARK    2  A    between atoms: C_2  and  C_19
REMARK    3  A    between atoms: C_4  and  C_10
REMARK    4  A    between atoms: C_20  and  C_24
REMARK    5  A    between atoms: C_24  and  O_30
REMARK                            x       y       z     vdW  Elec       q    Type
REMARK                         _______ _______ _______ _____ _____    ______ ____
ROOT
ATOM      1  C   UNL     1      -0.519   0.032   1.414  0.00  0.00    -0.028 C 
ATOM      2  C   UNL     1       0.676  -0.552   1.182  0.00  0.00    -0.026 C 
ATOM      3  C   UNL     1       0.946  -2.023   1.358  0.00  0.00    +0.031 C 
ENDROOT
BRANCH   1   4
ATOM      4  C   UNL     1      -1.807  -0.603   1.892  0.00  0.00    +0.049 C 
ATOM      5  C   UNL     1      -2.226   0.018   3.227  0.00  0.00    +0.007 C 
BRANCH   4  10
ATOM      6  O   UNL     1      -3.136   0.999   0.745  0.00  0.00    -0.333 OA
ATOM      7  O   UNL     1      -3.538   0.901  -1.596  0.00  0.00    -0.326 OA
ATOM      8  O   UNL     1      -5.272  -2.073  -2.071  0.00  0.00    -0.289 OA
ATOM      9  C   UNL     1      -2.528  -1.012  -0.527  0.00  0.00    +0.062 C 
ATOM     10  C   UNL     1      -2.904  -0.415   0.849  0.00  0.00    +0.125 C 
ATOM     11  C   UNL     1      -3.482  -0.519  -1.628  0.00  0.00    +0.181 C 
ATOM     12  C   UNL     1      -4.019   1.367  -0.325  0.00  0.00    +0.204 C 
ATOM     13  C   UNL     1      -5.432   0.851  -0.080  0.00  0.00    +0.009 C 
ATOM     14  C   UNL     1      -2.421  -2.535  -0.503  0.00  0.00    +0.005 C 
ATOM     15  C   UNL     1      -4.911  -1.034  -1.524  0.00  0.00    +0.200 C 
ATOM     16  C   UNL     1      -3.968   2.894  -0.423  0.00  0.00    +0.066 C 
ATOM     17  C   UNL     1      -5.868  -0.264  -0.690  0.00  0.00    +0.036 C 
ATOM     18  C   UNL     1      -6.309   1.579   0.897  0.00  0.00    +0.031 C 
ENDBRANCH   4  10
ENDBRANCH   1   4
BRANCH   2  19
ATOM     19  C   UNL     1       1.787   0.291   0.726  0.00  0.00    -0.001 C 
ATOM     20  C   UNL     1       3.039  -0.114   0.447  0.00  0.00    +0.037 C 
BRANCH  20  24
ATOM     21  O   UNL     1       5.075  -2.059   0.216  0.00  0.00    -0.289 OA
ATOM     22  O   UNL     1       6.507   2.281  -0.932  0.00  0.00    -0.270 OA
ATOM     23  N   UNL     1       7.529   0.160  -0.851  0.00  0.00    -0.294 N 
ATOM     24  C   UNL     1       4.120   0.746  -0.003  0.00  0.00    +0.141 C 
ATOM     25  C   UNL     1       5.349   0.278  -0.264  0.00  0.00    +0.123 C 
ATOM     26  C   UNL     1       5.780  -1.130  -0.141  0.00  0.00    +0.200 C 
ATOM     27  C   UNL     1       7.230  -1.229  -0.527  0.00  0.00    +0.160 C 
ATOM     28  C   UNL     1       6.494   1.082  -0.722  0.00  0.00    +0.252 C 
ATOM     29  H   UNL     1       8.426   0.435  -1.149  0.00  0.00    +0.150 HD
BRANCH  24  30
ATOM     30  O   UNL     1       3.807   2.084  -0.147  0.00  0.00    -0.505 OA
ATOM     31  H   UNL     1       2.941   2.385   0.042  0.00  0.00    +0.292 HD
ENDBRANCH  24  30
ENDBRANCH  20  24
ENDBRANCH   2  19
TORSDOF 5
