10250021
  -OEChem-03292013303D

 46 47  0     1  0  0  0  0  0999 V2000
   -2.1622   -1.1897   -0.2777 O   0  0  0  0  0  0  0  0  0  0  0  0
   -3.3116    0.8583    1.2239 O   0  0  0  0  0  0  0  0  0  0  0  0
   -2.8583   -2.9184   -1.6310 O   0  0  0  0  0  0  0  0  0  0  0  0
   -1.4768    1.8100   -1.7865 O   0  0  0  0  0  0  0  0  0  0  0  0
    5.2062    1.4097    1.0353 O   0  0  0  0  0  0  0  0  0  0  0  0
   -3.7852    3.0111    1.1024 O   0  5  0  0  0  0  0  0  0  0  0  0
   -3.9130    2.0100    3.0907 O   0  0  0  0  0  0  0  0  0  0  0  0
    0.4255    2.6739   -1.0590 O   0  5  0  0  0  0  0  0  0  0  0  0
    0.0823    2.5651   -3.2594 O   0  0  0  0  0  0  0  0  0  0  0  0
   -3.7049    2.0561    1.8761 N   0  3  0  0  0  0  0  0  0  0  0  0
   -0.2157    2.4001   -2.0743 N   0  3  0  0  0  0  0  0  0  0  0  0
   -1.0090   -3.2688   -0.0753 C   0  0  2  0  0  0  0  0  0  0  0  0
    0.1400   -2.4251    0.3625 C   0  0  0  0  0  0  0  0  0  0  0  0
    1.9935   -0.9492   -0.1891 C   0  0  0  0  0  0  0  0  0  0  0  0
    0.9081   -1.7477   -0.5848 C   0  0  0  0  0  0  0  0  0  0  0  0
    2.3040   -0.8363    1.1871 C   0  0  0  0  0  0  0  0  0  0  0  0
    0.4452   -2.3141    1.7158 C   0  0  0  0  0  0  0  0  0  0  0  0
   -0.5965   -4.4383   -0.9925 C   0  0  0  0  0  0  0  0  0  0  0  0
   -2.1136   -2.4635   -0.7721 C   0  0  0  0  0  0  0  0  0  0  0  0
   -3.0966    1.0242   -0.1794 C   0  0  2  0  0  0  0  0  0  0  0  0
    1.5199   -1.5252    2.1269 C   0  0  0  0  0  0  0  0  0  0  0  0
   -3.1788   -0.3491   -0.8330 C   0  0  0  0  0  0  0  0  0  0  0  0
    2.7773   -0.2603   -1.1290 C   0  0  0  0  0  0  0  0  0  0  0  0
    3.3894   -0.0377    1.5828 C   0  0  0  0  0  0  0  0  0  0  0  0
   -1.7286    1.6620   -0.3929 C   0  0  0  0  0  0  0  0  0  0  0  0
    4.1575    0.6396    0.6354 C   0  0  0  0  0  0  0  0  0  0  0  0
    3.8523    0.5284   -0.7179 C   0  0  0  0  0  0  0  0  0  0  0  0
    5.9495    2.0748    0.0151 C   0  0  0  0  0  0  0  0  0  0  0  0
   -1.4935   -3.7096    0.8068 H   0  0  0  0  0  0  0  0  0  0  0  0
    0.6630   -1.8319   -1.6421 H   0  0  0  0  0  0  0  0  0  0  0  0
   -0.1435   -2.8349    2.4663 H   0  0  0  0  0  0  0  0  0  0  0  0
   -1.4474   -5.1010   -1.1857 H   0  0  0  0  0  0  0  0  0  0  0  0
    0.1954   -5.0357   -0.5276 H   0  0  0  0  0  0  0  0  0  0  0  0
   -0.2292   -4.0851   -1.9626 H   0  0  0  0  0  0  0  0  0  0  0  0
   -3.8901    1.6162   -0.6563 H   0  0  0  0  0  0  0  0  0  0  0  0
    1.7403   -1.4525    3.1899 H   0  0  0  0  0  0  0  0  0  0  0  0
   -4.1545   -0.7999   -0.6146 H   0  0  0  0  0  0  0  0  0  0  0  0
   -3.0484   -0.2784   -1.9189 H   0  0  0  0  0  0  0  0  0  0  0  0
    2.5549   -0.3320   -2.1918 H   0  0  0  0  0  0  0  0  0  0  0  0
    3.6414    0.0599    2.6373 H   0  0  0  0  0  0  0  0  0  0  0  0
   -1.6774    2.6434    0.0913 H   0  0  0  0  0  0  0  0  0  0  0  0
   -0.9568    1.0336    0.0724 H   0  0  0  0  0  0  0  0  0  0  0  0
    4.4060    1.0275   -1.5057 H   0  0  0  0  0  0  0  0  0  0  0  0
    6.7445    2.6410    0.5114 H   0  0  0  0  0  0  0  0  0  0  0  0
    5.3313    2.7994   -0.5258 H   0  0  0  0  0  0  0  0  0  0  0  0
    6.4376    1.3613   -0.6575 H   0  0  0  0  0  0  0  0  0  0  0  0
  1 19  1  0  0  0  0
  1 22  1  0  0  0  0
  2 10  1  0  0  0  0
  2 20  1  0  0  0  0
  3 19  2  0  0  0  0
  4 11  1  0  0  0  0
  4 25  1  0  0  0  0
  5 26  1  0  0  0  0
  5 28  1  0  0  0  0
  6 10  1  0  0  0  0
  7 10  2  0  0  0  0
  8 11  1  0  0  0  0
  9 11  2  0  0  0  0
 12 13  1  0  0  0  0
 12 18  1  0  0  0  0
 12 19  1  0  0  0  0
 12 29  1  0  0  0  0
 13 15  2  0  0  0  0
 13 17  1  0  0  0  0
 14 15  1  0  0  0  0
 14 16  2  0  0  0  0
 14 23  1  0  0  0  0
 15 30  1  0  0  0  0
 16 21  1  0  0  0  0
 16 24  1  0  0  0  0
 17 21  2  0  0  0  0
 17 31  1  0  0  0  0
 18 32  1  0  0  0  0
 18 33  1  0  0  0  0
 18 34  1  0  0  0  0
 20 22  1  0  0  0  0
 20 25  1  0  0  0  0
 20 35  1  0  0  0  0
 21 36  1  0  0  0  0
 22 37  1  0  0  0  0
 22 38  1  0  0  0  0
 23 27  2  0  0  0  0
 23 39  1  0  0  0  0
 24 26  2  0  0  0  0
 24 40  1  0  0  0  0
 25 41  1  0  0  0  0
 25 42  1  0  0  0  0
 26 27  1  0  0  0  0
 27 43  1  0  0  0  0
 28 44  1  0  0  0  0
 28 45  1  0  0  0  0
 28 46  1  0  0  0  0
M  CHG  4   6  -1   8  -1  10   1  11   1
M  END
> <PUBCHEM_COMPOUND_CID>
10250021

> <PUBCHEM_CONFORMER_RMSD>
1

> <PUBCHEM_CONFORMER_DIVERSEORDER>
1
20
23
139
117
54
135
153
88
9
145
104
138
27
94
37
103
46
105
41
96
92
114
99
134
119
122
43
25
69
142
56
42
32
80
24
76
4
14
83
144
152
53
146
87
150
36
66
148
50
137
62
136
149
75
90
68
93
72
40
140
125
97
47
147
70
128
17
110
112
2
157
100
57
67
143
84
120
16
74
156
106
18
44
109
95
98
126
107
129
55
12
102
8
10
108
49
155
59
33
35
7
6
31
132
45
131
26
86
116
22
89
28
101
123
39
58
3
151
130
63
61
77
73
71
79
13
60
115
30
29
82
15
81
111
65
48
85
113
38
127
141
19
21
11
78
64
52
133
51
34
118
5
121
124
91
154

> <PUBCHEM_MMFF94_PARTIAL_CHARGES>
31
1 -0.43
10 1.03
11 1.03
12 0.2
13 -0.14
15 -0.15
17 -0.15
19 0.66
2 -0.27
20 0.28
21 -0.15
22 0.28
23 -0.15
24 -0.15
25 0.28
26 0.08
27 -0.15
28 0.28
3 -0.57
30 0.15
31 0.15
36 0.15
39 0.15
4 -0.27
40 0.15
43 0.15
5 -0.36
6 -0.52
7 -0.52
8 -0.52
9 -0.52

> <PUBCHEM_EFFECTIVE_ROTOR_COUNT>
11

> <PUBCHEM_PHARMACOPHORE_FEATURES>
9
1 18 hydrophobe
1 3 acceptor
1 5 acceptor
1 6 acceptor
1 7 acceptor
1 8 acceptor
1 9 acceptor
6 13 14 15 16 17 21 rings
6 14 16 23 24 26 27 rings

> <PUBCHEM_HEAVY_ATOM_COUNT>
28

> <PUBCHEM_ATOM_DEF_STEREO_COUNT>
2

> <PUBCHEM_ATOM_UDEF_STEREO_COUNT>
0

> <PUBCHEM_BOND_DEF_STEREO_COUNT>
0

> <PUBCHEM_BOND_UDEF_STEREO_COUNT>
0

> <PUBCHEM_ISOTOPIC_ATOM_COUNT>
0

> <PUBCHEM_COMPONENT_COUNT>
1

> <PUBCHEM_CACTVS_TAUTO_COUNT>
1

> <PUBCHEM_CONFORMER_ID>
009C672500000001

> <PUBCHEM_MMFF94_ENERGY>
88.7095

> <PUBCHEM_FEATURE_SELFOVERLAP>
45.841

> <PUBCHEM_SHAPE_FINGERPRINT>
10165383 225 18055370040875514959
10382601 240 18189343355134782514
10871710 139 18115008809922924982
10937287 8 18200597977921379099
1100329 8 17827633970024781127
11578080 2 18057349313031291780
12104220 4 17485683422761727176
12156800 1 16982139159513152291
13965767 371 18191588540688022233
14142880 1 18408602586994925123
14279260 333 17346326939075723352
14363568 33 17691418412064333502
14840074 17 18113624481865913804
151778 21 17840877269900891307
20600515 1 17619305090973329171
21033650 10 18194979641571962738
23557571 272 18056473091715046614
238 59 17255360888180883599
3493558 16 17762892565234502088
445580 8 18114758043988806389
469060 322 17676764366017852671
57527585 21 16985151829510058056
6287921 2 18051708650265146043
6438718 38 18337118976707840670
7471813 234 17472403826601190590
7808743 9 18272650151351864073

> <PUBCHEM_SHAPE_MULTIPOLES>
513.44
8.48
4.63
2.36
8.28
1.87
-0.3
-6.87
-2.88
-3.92
1.09
-1.38
-1.59
-2.51

> <PUBCHEM_SHAPE_SELFOVERLAP>
1080.463

> <PUBCHEM_SHAPE_VOLUME>
289

> <PUBCHEM_COORDINATE_TYPE>
2
5
10

$$$$
