REMARK  Name = 102594489
REMARK  3 active torsions:
REMARK  status: ('A' for Active; 'I' for Inactive)
REMARK    1  A    between atoms: C_11  and  C_24
REMARK    2  A    between atoms: C_13  and  O_28
REMARK    3  A    between atoms: C_16  and  O_30
REMARK                            x       y       z     vdW  Elec       q    Type
REMARK                         _______ _______ _______ _____ _____    ______ ____
ROOT
ATOM      1  O   UNL     1       0.393  -0.576  -1.712  0.00  0.00    -0.314 OA
ATOM      2  O   UNL     1      -0.192  -2.658   0.889  0.00  0.00    -0.451 OA
ATOM      3  O   UNL     1      -0.119   1.742  -1.705  0.00  0.00    -0.423 OA
ATOM      4  O   UNL     1       3.415   0.723   1.334  0.00  0.00    -0.450 OA
ATOM      5  O   UNL     1       1.065  -3.346  -0.893  0.00  0.00    -0.248 OA
ATOM      6  O   UNL     1      -0.391   3.716  -0.568  0.00  0.00    -0.247 OA
ATOM      7  O   UNL     1       5.235   0.909  -0.066  0.00  0.00    -0.250 OA
ATOM      8  C   UNL     1      -0.063  -0.276   0.633  0.00  0.00    +0.106 C 
ATOM      9  C   UNL     1      -1.232   0.309  -0.197  0.00  0.00    +0.108 C 
ATOM     10  C   UNL     1       0.798  -0.981  -0.421  0.00  0.00    +0.194 C 
ATOM     11  C   UNL     1      -2.336  -0.775  -0.078  0.00  0.00    +0.013 C 
ATOM     12  C   UNL     1      -0.633  -1.422   1.477  0.00  0.00    +0.174 C 
ATOM     13  C   UNL     1       0.918   0.669   1.385  0.00  0.00    +0.157 C 
ATOM     14  C   UNL     1      -0.641   0.407  -1.595  0.00  0.00    +0.293 C 
ATOM     15  C   UNL     1      -2.146  -1.313   1.341  0.00  0.00    +0.044 C 
ATOM     16  C   UNL     1      -1.676   1.743   0.049  0.00  0.00    +0.216 C 
ATOM     17  C   UNL     1       2.182  -0.579  -0.063  0.00  0.00    +0.089 C 
ATOM     18  C   UNL     1       2.244  -0.076   1.319  0.00  0.00    +0.199 C 
ATOM     19  C   UNL     1       0.597  -2.453  -0.203  0.00  0.00    +0.342 C 
ATOM     20  C   UNL     1      -0.672   2.541  -0.742  0.00  0.00    +0.346 C 
ATOM     21  C   UNL     1       3.287  -0.310  -0.749  0.00  0.00    +0.105 C 
ATOM     22  C   UNL     1       4.119   0.482   0.179  0.00  0.00    +0.317 C 
ATOM     23  C   UNL     1       3.634  -0.521  -2.170  0.00  0.00    +0.012 C 
ENDROOT
BRANCH  11  24
ATOM     24  C   UNL     1      -3.773  -0.342  -0.331  0.00  0.00    +0.000 C 
ATOM     25  C   UNL     1      -4.728  -1.528  -0.102  0.00  0.00    +0.000 C 
ATOM     26  C   UNL     1      -3.925   0.151  -1.782  0.00  0.00    +0.000 C 
ATOM     27  C   UNL     1      -4.154   0.800   0.629  0.00  0.00    +0.000 C 
ENDBRANCH  11  24
BRANCH  13  28
ATOM     28  O   UNL     1       0.530   0.876   2.733  0.00  0.00    -0.381 OA
ATOM     29  H   UNL     1      -0.315   1.351   2.757  0.00  0.00    +0.210 HD
ENDBRANCH  13  28
BRANCH  16  30
ATOM     30  O   UNL     1      -1.738   2.088   1.405  0.00  0.00    -0.374 OA
ATOM     31  H   UNL     1      -2.402   1.536   1.848  0.00  0.00    +0.211 HD
ENDBRANCH  16  30
TORSDOF 3
