102515038
  -OEChem-03292013293D

 46 49  0     1  0  0  0  0  0999 V2000
    2.7298   -1.8397   -0.4015 O   0  0  0  0  0  0  0  0  0  0  0  0
    1.3362   -0.2942    1.7898 O   0  0  0  0  0  0  0  0  0  0  0  0
    2.1961    2.3838    1.9723 O   0  0  0  0  0  0  0  0  0  0  0  0
   -0.4095   -1.6317   -2.1327 O   0  0  0  0  0  0  0  0  0  0  0  0
   -2.0276    0.9661   -0.2060 O   0  0  0  0  0  0  0  0  0  0  0  0
   -2.4365   -2.4890   -0.6665 O   0  0  0  0  0  0  0  0  0  0  0  0
   -3.1202    2.4704   -1.5775 O   0  0  0  0  0  0  0  0  0  0  0  0
    1.6343    0.3988   -0.9533 C   0  0  1  0  0  0  0  0  0  0  0  0
    2.6323   -0.4401   -0.1859 C   0  0  1  0  0  0  0  0  0  0  0  0
    0.1643    0.0391   -0.4142 C   0  0  2  0  0  0  0  0  0  0  0  0
    2.5914    0.0711    1.2069 C   0  0  1  0  0  0  0  0  0  0  0  0
    2.0740    1.8236   -0.4225 C   0  0  0  0  0  0  0  0  0  0  0  0
    3.8864   -1.0632   -0.7587 C   0  0  0  0  0  0  0  0  0  0  0  0
    2.7476    1.5790    0.9516 C   0  0  1  0  0  0  0  0  0  0  0  0
    0.1546    0.2121    1.1452 C   0  0  1  0  0  0  0  0  0  0  0  0
    1.8006    0.3406   -2.4733 C   0  0  0  0  0  0  0  0  0  0  0  0
   -0.2721   -1.4230   -0.7367 C   0  0  1  0  0  0  0  0  0  0  0  0
   -0.8950    0.9986   -1.0376 C   0  0  0  0  0  0  0  0  0  0  0  0
   -1.0089   -0.4386    1.8423 C   0  0  0  0  0  0  0  0  0  0  0  0
   -1.6023   -1.7934   -0.0886 C   0  0  0  0  0  0  0  0  0  0  0  0
   -1.8479   -1.3358    1.3076 C   0  0  0  0  0  0  0  0  0  0  0  0
   -3.0218   -1.9079    2.0365 C   0  0  0  0  0  0  0  0  0  0  0  0
   -3.0879    1.7541   -0.5861 C   0  0  0  0  0  0  0  0  0  0  0  0
   -4.2179    1.6194    0.3891 C   0  0  0  0  0  0  0  0  0  0  0  0
    3.3875   -0.3140    1.8511 H   0  0  0  0  0  0  0  0  0  0  0  0
    1.2670    2.5554   -0.3605 H   0  0  0  0  0  0  0  0  0  0  0  0
    2.8297    2.2551   -1.0921 H   0  0  0  0  0  0  0  0  0  0  0  0
    4.1106   -0.9689   -1.8117 H   0  0  0  0  0  0  0  0  0  0  0  0
    4.7586   -1.1526   -0.1233 H   0  0  0  0  0  0  0  0  0  0  0  0
    3.8137    1.8247    0.8648 H   0  0  0  0  0  0  0  0  0  0  0  0
    0.0807    1.2797    1.3842 H   0  0  0  0  0  0  0  0  0  0  0  0
    1.7284   -0.6821   -2.8536 H   0  0  0  0  0  0  0  0  0  0  0  0
    2.7834    0.7143   -2.7834 H   0  0  0  0  0  0  0  0  0  0  0  0
    1.0529    0.9548   -2.9839 H   0  0  0  0  0  0  0  0  0  0  0  0
    0.4458   -2.1540   -0.3586 H   0  0  0  0  0  0  0  0  0  0  0  0
   -1.1637    0.7006   -2.0574 H   0  0  0  0  0  0  0  0  0  0  0  0
   -0.5366    2.0293   -1.0838 H   0  0  0  0  0  0  0  0  0  0  0  0
   -1.1754   -0.1187    2.8694 H   0  0  0  0  0  0  0  0  0  0  0  0
    2.2867    3.3114    1.6953 H   0  0  0  0  0  0  0  0  0  0  0  0
   -0.5526   -2.5828   -2.2764 H   0  0  0  0  0  0  0  0  0  0  0  0
   -3.1039   -1.5125    3.0544 H   0  0  0  0  0  0  0  0  0  0  0  0
   -2.9325   -2.9967    2.1089 H   0  0  0  0  0  0  0  0  0  0  0  0
   -3.9525   -1.6692    1.5120 H   0  0  0  0  0  0  0  0  0  0  0  0
   -4.6410    0.6142    0.3254 H   0  0  0  0  0  0  0  0  0  0  0  0
   -4.9963    2.3481    0.1457 H   0  0  0  0  0  0  0  0  0  0  0  0
   -3.8610    1.8234    1.4019 H   0  0  0  0  0  0  0  0  0  0  0  0
  1  9  1  0  0  0  0
  1 13  1  0  0  0  0
  2 11  1  0  0  0  0
  2 15  1  0  0  0  0
  3 14  1  0  0  0  0
  3 39  1  0  0  0  0
  4 17  1  0  0  0  0
  4 40  1  0  0  0  0
  5 18  1  0  0  0  0
  5 23  1  0  0  0  0
  6 20  2  0  0  0  0
  7 23  2  0  0  0  0
  8  9  1  0  0  0  0
  8 10  1  0  0  0  0
  8 12  1  0  0  0  0
  8 16  1  0  0  0  0
  9 11  1  0  0  0  0
  9 13  1  0  0  0  0
 10 15  1  0  0  0  0
 10 17  1  0  0  0  0
 10 18  1  0  0  0  0
 11 14  1  0  0  0  0
 11 25  1  0  0  0  0
 12 14  1  0  0  0  0
 12 26  1  0  0  0  0
 12 27  1  0  0  0  0
 13 28  1  0  0  0  0
 13 29  1  0  0  0  0
 14 30  1  0  0  0  0
 15 19  1  0  0  0  0
 15 31  1  0  0  0  0
 16 32  1  0  0  0  0
 16 33  1  0  0  0  0
 16 34  1  0  0  0  0
 17 20  1  0  0  0  0
 17 35  1  0  0  0  0
 18 36  1  0  0  0  0
 18 37  1  0  0  0  0
 19 21  2  0  0  0  0
 19 38  1  0  0  0  0
 20 21  1  0  0  0  0
 21 22  1  0  0  0  0
 22 41  1  0  0  0  0
 22 42  1  0  0  0  0
 22 43  1  0  0  0  0
 23 24  1  0  0  0  0
 24 44  1  0  0  0  0
 24 45  1  0  0  0  0
 24 46  1  0  0  0  0
M  END
> <PUBCHEM_COMPOUND_CID>
102515038

> <PUBCHEM_CONFORMER_RMSD>
0.8

> <PUBCHEM_CONFORMER_DIVERSEORDER>
2
5
1
3
4

> <PUBCHEM_MMFF94_PARTIAL_CHARGES>
26
1 -0.3
11 0.38
13 -0.05
14 0.28
15 0.42
17 0.34
18 0.28
19 -0.29
2 -0.56
20 0.49
21 -0.12
22 0.14
23 0.66
24 0.06
28 0.1
29 0.1
3 -0.68
38 0.15
39 0.4
4 -0.68
40 0.4
5 -0.43
6 -0.57
7 -0.57
8 0.09
9 -0.04

> <PUBCHEM_EFFECTIVE_ROTOR_COUNT>
4.2

> <PUBCHEM_PHARMACOPHORE_FEATURES>
10
1 1 acceptor
1 2 acceptor
1 3 acceptor
1 3 donor
1 4 acceptor
1 4 donor
1 6 acceptor
1 7 acceptor
6 10 15 17 19 20 21 rings
8 2 8 9 10 11 12 14 15 rings

> <PUBCHEM_HEAVY_ATOM_COUNT>
24

> <PUBCHEM_ATOM_DEF_STEREO_COUNT>
4

> <PUBCHEM_ATOM_UDEF_STEREO_COUNT>
3

> <PUBCHEM_BOND_DEF_STEREO_COUNT>
0

> <PUBCHEM_BOND_UDEF_STEREO_COUNT>
0

> <PUBCHEM_ISOTOPIC_ATOM_COUNT>
0

> <PUBCHEM_COMPONENT_COUNT>
1

> <PUBCHEM_CACTVS_TAUTO_COUNT>
2

> <PUBCHEM_CONFORMER_ID>
061C415E00000002

> <PUBCHEM_MMFF94_ENERGY>
93.0493

> <PUBCHEM_FEATURE_SELFOVERLAP>
50.77

> <PUBCHEM_SHAPE_FINGERPRINT>
10863032 1 18271515472837920436
10948715 1 17750244612011444398
11578080 2 18271254926963037168
12293681 4 18199474263810525184
13134695 92 17774154596676088712
13538477 17 17385448725857848533
13583140 156 18341335564866035826
14178342 30 17530953718074350032
14223421 5 18056761163761160194
15295992 7 18272092664903077513
16752209 62 18040719194875893947
16945 1 18118381978558274940
17349148 13 16486973955661676590
17980427 23 17751067227578390492
18186145 218 17988350460819382973
18981168 100 17988362684095795560
192875 21 16701734947823607248
21069387 34 17131543930178068062
21524375 3 18189337862462239909
22112679 90 16370716041858951296
23419403 2 18271255979229628457
23557571 272 17971187281841346299
238 59 17632567237060834965
2748010 2 18413109489167199364
394222 165 16197573759747497730
427121 178 18044102263511263825
5845 1 17828755480342886279
81228 2 18115018740383087661
9999458 23 16299534698242573477

> <PUBCHEM_SHAPE_MULTIPOLES>
452.82
5.83
2.55
2.09
1.42
0.29
-0.06
1.1
-0.43
2.06
0.13
-0.55
-0.03
1.25

> <PUBCHEM_SHAPE_SELFOVERLAP>
984.351

> <PUBCHEM_SHAPE_VOLUME>
241

> <PUBCHEM_COORDINATE_TYPE>
2
5
10

$$$$
