REMARK  Name = 102515211
REMARK  5 active torsions:
REMARK  status: ('A' for Active; 'I' for Inactive)
REMARK    1  A    between atoms: C_6  and  C_24
REMARK    2  A    between atoms: C_8  and  O_18
REMARK    3  A    between atoms: C_10  and  O_20
REMARK    4  A    between atoms: C_13  and  O_22
REMARK    5  A    between atoms: C_24  and  O_25
REMARK                            x       y       z     vdW  Elec       q    Type
REMARK                         _______ _______ _______ _____ _____    ______ ____
ROOT
ATOM      1  O   UNL     1      -2.790  -1.214  -1.489  0.00  0.00    -0.351 OA
ATOM      2  O   UNL     1      -0.372   1.491  -1.148  0.00  0.00    -0.349 OA
ATOM      3  O   UNL     1       3.661  -1.292  -0.356  0.00  0.00    -0.289 OA
ATOM      4  C   UNL     1      -1.251  -0.726   0.431  0.00  0.00    +0.062 C 
ATOM      5  C   UNL     1      -1.630  -0.507  -1.023  0.00  0.00    +0.150 C 
ATOM      6  C   UNL     1       0.285  -0.254   0.546  0.00  0.00    +0.092 C 
ATOM      7  C   UNL     1      -1.705   0.972  -1.188  0.00  0.00    +0.172 C 
ATOM      8  C   UNL     1      -2.196   0.347   1.127  0.00  0.00    +0.142 C 
ATOM      9  C   UNL     1      -1.553  -1.496  -2.160  0.00  0.00    +0.172 C 
ATOM     10  C   UNL     1      -2.561   1.372   0.023  0.00  0.00    +0.167 C 
ATOM     11  C   UNL     1       0.383   1.233   0.050  0.00  0.00    +0.142 C 
ATOM     12  C   UNL     1      -1.526  -2.149   0.932  0.00  0.00    +0.005 C 
ATOM     13  C   UNL     1       1.255  -1.104  -0.333  0.00  0.00    +0.176 C 
ATOM     14  C   UNL     1       1.780   1.706  -0.239  0.00  0.00    +0.002 C 
ATOM     15  C   UNL     1       2.677  -0.552  -0.345  0.00  0.00    +0.196 C 
ATOM     16  C   UNL     1       2.856   0.925  -0.402  0.00  0.00    +0.013 C 
ATOM     17  C   UNL     1       4.234   1.457  -0.642  0.00  0.00    +0.034 C 
ENDROOT
BRANCH   8  18
ATOM     18  O   UNL     1      -3.418  -0.227   1.588  0.00  0.00    -0.382 OA
ATOM     19  H   UNL     1      -3.229  -0.876   2.283  0.00  0.00    +0.210 HD
ENDBRANCH   8  18
BRANCH  10  20
ATOM     20  O   UNL     1      -2.333   2.710   0.419  0.00  0.00    -0.379 OA
ATOM     21  H   UNL     1      -2.577   3.308  -0.305  0.00  0.00    +0.211 HD
ENDBRANCH  10  20
BRANCH  13  22
ATOM     22  O   UNL     1       1.342  -2.444   0.123  0.00  0.00    -0.377 OA
ATOM     23  H   UNL     1       0.455  -2.836   0.147  0.00  0.00    +0.211 HD
ENDBRANCH  13  22
BRANCH   6  24
ATOM     24  C   UNL     1       0.763  -0.341   2.025  0.00  0.00    +0.143 C 
BRANCH  24  25
ATOM     25  O   UNL     1       2.100   0.094   2.060  0.00  0.00    -0.382 OA
ATOM     26  H   UNL     1       2.430   0.052   2.972  0.00  0.00    +0.210 HD
ENDBRANCH  24  25
ENDBRANCH   6  24
TORSDOF 5
