102568
  -OEChem-03292013323D

 40 40  0     1  0  0  0  0  0999 V2000
   -1.6981   -1.0762   -0.0862 O   0  0  0  0  0  0  0  0  0  0  0  0
    3.1762    2.1329   -1.2433 O   0  0  0  0  0  0  0  0  0  0  0  0
    3.8076    2.7124    0.8561 O   0  0  0  0  0  0  0  0  0  0  0  0
   -0.8078   -2.8151    1.1215 O   0  0  0  0  0  0  0  0  0  0  0  0
    0.2674   -1.9581   -0.7488 N   0  0  0  0  0  0  0  0  0  0  0  0
    6.1383    1.2542    0.5076 N   0  0  0  0  0  0  0  0  0  0  0  0
    3.1420   -0.9263   -0.4403 C   0  0  0  0  0  0  0  0  0  0  0  0
    4.3884   -0.4442    0.3089 C   0  0  0  0  0  0  0  0  0  0  0  0
    2.5795   -2.2605    0.0669 C   0  0  0  0  0  0  0  0  0  0  0  0
    4.9488    0.8678   -0.2558 C   0  0  1  0  0  0  0  0  0  0  0  0
    1.4158   -2.8183   -0.7474 C   0  0  0  0  0  0  0  0  0  0  0  0
    3.9446    2.0006   -0.1309 C   0  0  0  0  0  0  0  0  0  0  0  0
   -0.7524   -2.0247    0.1852 C   0  0  0  0  0  0  0  0  0  0  0  0
   -2.8155   -1.0348    0.8084 C   0  0  0  0  0  0  0  0  0  0  0  0
   -3.7520    0.0533    0.3721 C   0  0  0  0  0  0  0  0  0  0  0  0
   -3.5974    1.3474    0.8691 C   0  0  0  0  0  0  0  0  0  0  0  0
   -4.7772   -0.2291   -0.5308 C   0  0  0  0  0  0  0  0  0  0  0  0
   -4.4678    2.3592    0.4635 C   0  0  0  0  0  0  0  0  0  0  0  0
   -5.6476    0.7828   -0.9365 C   0  0  0  0  0  0  0  0  0  0  0  0
   -5.4928    2.0768   -0.4393 C   0  0  0  0  0  0  0  0  0  0  0  0
    3.3836   -1.0253   -1.5060 H   0  0  0  0  0  0  0  0  0  0  0  0
    2.3501   -0.1735   -0.3613 H   0  0  0  0  0  0  0  0  0  0  0  0
    4.1314   -0.3189    1.3692 H   0  0  0  0  0  0  0  0  0  0  0  0
    5.1584   -1.2246    0.2573 H   0  0  0  0  0  0  0  0  0  0  0  0
    3.3848   -3.0054    0.0660 H   0  0  0  0  0  0  0  0  0  0  0  0
    2.2672   -2.1365    1.1116 H   0  0  0  0  0  0  0  0  0  0  0  0
    5.2330    0.7512   -1.3076 H   0  0  0  0  0  0  0  0  0  0  0  0
    1.1255   -3.7955   -0.3461 H   0  0  0  0  0  0  0  0  0  0  0  0
    1.7175   -2.9610   -1.7905 H   0  0  0  0  0  0  0  0  0  0  0  0
    0.1986   -1.2517   -1.4752 H   0  0  0  0  0  0  0  0  0  0  0  0
    6.8375    0.5148    0.4477 H   0  0  0  0  0  0  0  0  0  0  0  0
    6.5621    2.0791    0.0839 H   0  0  0  0  0  0  0  0  0  0  0  0
   -2.4646   -0.8448    1.8304 H   0  0  0  0  0  0  0  0  0  0  0  0
   -3.3312   -2.0032    0.8017 H   0  0  0  0  0  0  0  0  0  0  0  0
    2.5211    2.8571   -1.1509 H   0  0  0  0  0  0  0  0  0  0  0  0
   -2.8013    1.5803    1.5713 H   0  0  0  0  0  0  0  0  0  0  0  0
   -4.9066   -1.2328   -0.9268 H   0  0  0  0  0  0  0  0  0  0  0  0
   -4.3470    3.3669    0.8501 H   0  0  0  0  0  0  0  0  0  0  0  0
   -6.4454    0.5632   -1.6400 H   0  0  0  0  0  0  0  0  0  0  0  0
   -6.1702    2.8646   -0.7554 H   0  0  0  0  0  0  0  0  0  0  0  0
  1 13  1  0  0  0  0
  1 14  1  0  0  0  0
  2 12  1  0  0  0  0
  2 35  1  0  0  0  0
  3 12  2  0  0  0  0
  4 13  2  0  0  0  0
  5 11  1  0  0  0  0
  5 13  1  0  0  0  0
  5 30  1  0  0  0  0
  6 10  1  0  0  0  0
  6 31  1  0  0  0  0
  6 32  1  0  0  0  0
  7  8  1  0  0  0  0
  7  9  1  0  0  0  0
  7 21  1  0  0  0  0
  7 22  1  0  0  0  0
  8 10  1  0  0  0  0
  8 23  1  0  0  0  0
  8 24  1  0  0  0  0
  9 11  1  0  0  0  0
  9 25  1  0  0  0  0
  9 26  1  0  0  0  0
 10 12  1  0  0  0  0
 10 27  1  0  0  0  0
 11 28  1  0  0  0  0
 11 29  1  0  0  0  0
 14 15  1  0  0  0  0
 14 33  1  0  0  0  0
 14 34  1  0  0  0  0
 15 16  2  0  0  0  0
 15 17  1  0  0  0  0
 16 18  1  0  0  0  0
 16 36  1  0  0  0  0
 17 19  2  0  0  0  0
 17 37  1  0  0  0  0
 18 20  2  0  0  0  0
 18 38  1  0  0  0  0
 19 20  1  0  0  0  0
 19 39  1  0  0  0  0
 20 40  1  0  0  0  0
M  END
> <PUBCHEM_COMPOUND_CID>
102568

> <PUBCHEM_CONFORMER_RMSD>
1

> <PUBCHEM_CONFORMER_DIVERSEORDER>
1
160
11
123
182
99
18
102
8
4
171
54
170
34
164
98
127
58
5
42
95
168
43
19
24
12
152
103
73
46
176
71
96
57
3
7
72
59
81
86
157
37
178
70
133
107
122
151
64
85
136
61
146
62
180
175
110
100
88
174
121
145
172
21
106
179
162
82
65
166
167
53
101
181
104
20
67
109
10
163
173
35
75
149
84
153
78
129
25
137
40
32
183
117
169
126
119
161
63
138
48
120
17
113
134
97
116
147
38
50
158
118
26
108
69
135
144
74
55
44
45
9
148
29
150
105
156
140
79
94
165
68
128
139
115
159
141
130
47
89
80
111
155
87
51
14
39
92
56
66
112
124
131
52
13
27
2
114
142
91
23
6
33
125
49
16
90
83
77
28
154
31
177
76
22
36
15
30
132
143
41
93
60

> <PUBCHEM_MMFF94_PARTIAL_CHARGES>
26
1 -0.43
10 0.33
11 0.3
12 0.66
13 0.78
14 0.42
15 -0.14
16 -0.15
17 -0.15
18 -0.15
19 -0.15
2 -0.65
20 -0.15
3 -0.57
30 0.37
31 0.36
32 0.36
35 0.5
36 0.15
37 0.15
38 0.15
39 0.15
4 -0.57
40 0.15
5 -0.73
6 -0.99

> <PUBCHEM_EFFECTIVE_ROTOR_COUNT>
10

> <PUBCHEM_PHARMACOPHORE_FEATURES>
8
1 2 acceptor
1 3 acceptor
1 4 acceptor
1 5 donor
1 6 cation
1 6 donor
3 2 3 12 anion
6 15 16 17 18 19 20 rings

> <PUBCHEM_HEAVY_ATOM_COUNT>
20

> <PUBCHEM_ATOM_DEF_STEREO_COUNT>
0

> <PUBCHEM_ATOM_UDEF_STEREO_COUNT>
1

> <PUBCHEM_BOND_DEF_STEREO_COUNT>
0

> <PUBCHEM_BOND_UDEF_STEREO_COUNT>
0

> <PUBCHEM_ISOTOPIC_ATOM_COUNT>
0

> <PUBCHEM_COMPONENT_COUNT>
1

> <PUBCHEM_CACTVS_TAUTO_COUNT>
2

> <PUBCHEM_CONFORMER_ID>
000190A800000001

> <PUBCHEM_MMFF94_ENERGY>
24.3878

> <PUBCHEM_FEATURE_SELFOVERLAP>
40.655

> <PUBCHEM_SHAPE_FINGERPRINT>
10763959 59 18338243665571101670
12107183 9 18261943078016607874
12596602 18 14201697350216159932
12633257 1 16515965977437414782
12769317 202 18341325600415068098
13103583 49 11963391795895055479
13402501 40 18409448072565948300
14251751 18 10159704590139324074
14251764 38 18335989748011387701
14251764 75 18266473164021593872
14528608 73 18271805696620893247
14774955 27 18412260610303435231
14848178 96 18410296886751696369
15003188 100 18412827958271732295
15142526 21 18260828228216358490
15322535 138 17550095309382416880
15322687 12 18343860035005143296
17810953 82 18409452462180546604
17834072 32 18410014329438257754
20715895 44 18411135810182260720
21315763 76 18341609291684762800
21475661 188 18333453148995393310
21623110 236 18341618054082938209
21860390 5 18200039417361536542
22950370 63 9367340448998268319
23559900 14 18196094339529526643
245318 6 18042703842996427660
2838139 119 18341608222290698886
325973 47 18339365270010248161
3472631 163 17983014450029167069
34797466 226 17917997127485381479
351380 3 8430315740417226776
474 4 18410011001049807739
5104073 3 18041567936306350251
5312510 48 18340487742975702577
6328613 192 18188503470897751188
9981440 41 18335988648653143955

> <PUBCHEM_SHAPE_MULTIPOLES>
378.15
15.11
3.59
0.98
1.04
0.33
-0.02
-12.21
-0.93
-2.16
0.16
0.28
-0.03
0.42

> <PUBCHEM_SHAPE_SELFOVERLAP>
757.653

> <PUBCHEM_SHAPE_VOLUME>
221

> <PUBCHEM_COORDINATE_TYPE>
2
5
10

$$$$
