102504931
  -OEChem-03292013293D

 60 63  0     1  0  0  0  0  0999 V2000
    0.6376   -1.1867   -0.1341 O   0  0  0  0  0  0  0  0  0  0  0  0
   -1.7512    2.0540    2.3969 O   0  0  0  0  0  0  0  0  0  0  0  0
    1.9839    0.7008   -0.3956 O   0  0  0  0  0  0  0  0  0  0  0  0
    2.8745   -2.6192    0.8431 O   0  0  0  0  0  0  0  0  0  0  0  0
    4.8531   -0.8394    2.1069 O   0  0  0  0  0  0  0  0  0  0  0  0
    5.5098    1.3568    0.3457 O   0  0  0  0  0  0  0  0  0  0  0  0
    2.3331    2.9681   -1.9265 O   0  0  0  0  0  0  0  0  0  0  0  0
   -3.4762   -0.7968    0.7329 C   0  0  2  0  0  0  0  0  0  0  0  0
   -1.9639   -0.0850   -0.5918 C   0  0  1  0  0  0  0  0  0  0  0  0
   -3.5331    0.1082   -0.5717 C   0  0  2  0  0  0  0  0  0  0  0  0
   -2.1199    0.0063    0.9863 C   0  0  1  0  0  0  0  0  0  0  0  0
   -1.5103   -1.4275   -1.1787 C   0  0  2  0  0  0  0  0  0  0  0  0
   -3.2993   -2.2933    0.3730 C   0  0  0  0  0  0  0  0  0  0  0  0
   -1.9257   -2.5558   -0.2347 C   0  0  0  0  0  0  0  0  0  0  0  0
   -3.9260    1.5527   -0.3439 C   0  0  0  0  0  0  0  0  0  0  0  0
   -4.5998   -0.6519    1.7563 C   0  0  0  0  0  0  0  0  0  0  0  0
    0.0010   -1.4270   -1.3903 C   0  0  0  0  0  0  0  0  0  0  0  0
   -2.3213    1.4954    1.4629 C   0  0  0  0  0  0  0  0  0  0  0  0
   -3.3216    2.2394    0.6432 C   0  0  0  0  0  0  0  0  0  0  0  0
   -4.9644    2.1446   -1.2409 C   0  0  0  0  0  0  0  0  0  0  0  0
    0.4127   -0.2999   -2.3360 C   0  0  0  0  0  0  0  0  0  0  0  0
    0.4785   -2.7769   -1.9258 C   0  0  0  0  0  0  0  0  0  0  0  0
    1.9755   -0.7225   -0.3124 C   0  0  1  0  0  0  0  0  0  0  0  0
    2.8011   -1.1944    0.8845 C   0  0  2  0  0  0  0  0  0  0  0  0
    4.2142   -0.6122    0.8497 C   0  0  1  0  0  0  0  0  0  0  0  0
    3.2950    1.2301   -0.5997 C   0  0  2  0  0  0  0  0  0  0  0  0
    4.1853    0.8958    0.5994 C   0  0  2  0  0  0  0  0  0  0  0  0
    3.1573    2.7361   -0.7988 C   0  0  0  0  0  0  0  0  0  0  0  0
   -1.4760    0.7816   -1.0453 H   0  0  0  0  0  0  0  0  0  0  0  0
   -4.0669   -0.3315   -1.4217 H   0  0  0  0  0  0  0  0  0  0  0  0
   -1.3656   -0.5186    1.5796 H   0  0  0  0  0  0  0  0  0  0  0  0
   -2.0108   -1.5738   -2.1456 H   0  0  0  0  0  0  0  0  0  0  0  0
   -4.0869   -2.5982   -0.3271 H   0  0  0  0  0  0  0  0  0  0  0  0
   -3.4072   -2.9221    1.2653 H   0  0  0  0  0  0  0  0  0  0  0  0
   -1.2117   -2.6599    0.5921 H   0  0  0  0  0  0  0  0  0  0  0  0
   -1.9343   -3.5216   -0.7529 H   0  0  0  0  0  0  0  0  0  0  0  0
   -4.7960    0.3844    2.0418 H   0  0  0  0  0  0  0  0  0  0  0  0
   -4.3543   -1.1940    2.6762 H   0  0  0  0  0  0  0  0  0  0  0  0
   -5.5357   -1.0631    1.3622 H   0  0  0  0  0  0  0  0  0  0  0  0
   -3.5355    3.2740    0.8765 H   0  0  0  0  0  0  0  0  0  0  0  0
   -5.9026    1.5875   -1.1532 H   0  0  0  0  0  0  0  0  0  0  0  0
   -5.1704    3.1911   -0.9936 H   0  0  0  0  0  0  0  0  0  0  0  0
   -4.6330    2.1043   -2.2834 H   0  0  0  0  0  0  0  0  0  0  0  0
    1.5252   -2.7545   -2.2469 H   0  0  0  0  0  0  0  0  0  0  0  0
    0.4231   -3.5587   -1.1603 H   0  0  0  0  0  0  0  0  0  0  0  0
    1.4230   -0.3994   -2.7484 H   0  0  0  0  0  0  0  0  0  0  0  0
    0.3155    0.7102   -1.9334 H   0  0  0  0  0  0  0  0  0  0  0  0
   -0.2325   -0.3280   -3.2252 H   0  0  0  0  0  0  0  0  0  0  0  0
   -0.1130   -3.0916   -2.7926 H   0  0  0  0  0  0  0  0  0  0  0  0
    2.4530   -1.1609   -1.1965 H   0  0  0  0  0  0  0  0  0  0  0  0
    2.2997   -0.9306    1.8233 H   0  0  0  0  0  0  0  0  0  0  0  0
    4.8296   -1.1212    0.0986 H   0  0  0  0  0  0  0  0  0  0  0  0
    3.7040    0.8026   -1.5254 H   0  0  0  0  0  0  0  0  0  0  0  0
    3.8258    1.4118    1.4981 H   0  0  0  0  0  0  0  0  0  0  0  0
    3.3205   -2.8758    0.0180 H   0  0  0  0  0  0  0  0  0  0  0  0
    4.1285    3.2093   -0.9717 H   0  0  0  0  0  0  0  0  0  0  0  0
    2.6761    3.2018    0.0678 H   0  0  0  0  0  0  0  0  0  0  0  0
    4.3194   -0.4129    2.7989 H   0  0  0  0  0  0  0  0  0  0  0  0
    5.8330    0.9149   -0.4580 H   0  0  0  0  0  0  0  0  0  0  0  0
    2.2541    3.9316   -2.0312 H   0  0  0  0  0  0  0  0  0  0  0  0
  1 17  1  0  0  0  0
  1 23  1  0  0  0  0
  2 18  2  0  0  0  0
  3 23  1  0  0  0  0
  3 26  1  0  0  0  0
  4 24  1  0  0  0  0
  4 55  1  0  0  0  0
  5 25  1  0  0  0  0
  5 58  1  0  0  0  0
  6 27  1  0  0  0  0
  6 59  1  0  0  0  0
  7 28  1  0  0  0  0
  7 60  1  0  0  0  0
  8 10  1  0  0  0  0
  8 11  1  0  0  0  0
  8 13  1  0  0  0  0
  8 16  1  0  0  0  0
  9 10  1  0  0  0  0
  9 11  1  0  0  0  0
  9 12  1  0  0  0  0
  9 29  1  0  0  0  0
 10 15  1  0  0  0  0
 10 30  1  0  0  0  0
 11 18  1  0  0  0  0
 11 31  1  0  0  0  0
 12 14  1  0  0  0  0
 12 17  1  0  0  0  0
 12 32  1  0  0  0  0
 13 14  1  0  0  0  0
 13 33  1  0  0  0  0
 13 34  1  0  0  0  0
 14 35  1  0  0  0  0
 14 36  1  0  0  0  0
 15 19  2  0  0  0  0
 15 20  1  0  0  0  0
 16 37  1  0  0  0  0
 16 38  1  0  0  0  0
 16 39  1  0  0  0  0
 17 21  1  0  0  0  0
 17 22  1  0  0  0  0
 18 19  1  0  0  0  0
 19 40  1  0  0  0  0
 20 41  1  0  0  0  0
 20 42  1  0  0  0  0
 20 43  1  0  0  0  0
 21 46  1  0  0  0  0
 21 47  1  0  0  0  0
 21 48  1  0  0  0  0
 22 44  1  0  0  0  0
 22 45  1  0  0  0  0
 22 49  1  0  0  0  0
 23 24  1  0  0  0  0
 23 50  1  0  0  0  0
 24 25  1  0  0  0  0
 24 51  1  0  0  0  0
 25 27  1  0  0  0  0
 25 52  1  0  0  0  0
 26 27  1  0  0  0  0
 26 28  1  0  0  0  0
 26 53  1  0  0  0  0
 27 54  1  0  0  0  0
 28 56  1  0  0  0  0
 28 57  1  0  0  0  0
M  END
> <PUBCHEM_COMPOUND_CID>
102504931

> <PUBCHEM_CONFORMER_RMSD>
0.8

> <PUBCHEM_CONFORMER_DIVERSEORDER>
1
20
23
35
14
7
2
19
12
27
17
30
16
21
10
26
40
4
29
8
9
13
3
24
11
38
39
32
25
34
18
28
33
36
37
6
5
31
15
22

> <PUBCHEM_MMFF94_PARTIAL_CHARGES>
25
1 -0.56
10 0.12
11 0.05
15 -0.25
17 0.28
18 0.5
19 -0.14
2 -0.57
20 0.14
23 0.56
24 0.28
25 0.28
26 0.28
27 0.28
28 0.28
3 -0.56
4 -0.68
40 0.15
5 -0.68
55 0.4
58 0.4
59 0.4
6 -0.68
60 0.4
7 -0.68

> <PUBCHEM_EFFECTIVE_ROTOR_COUNT>
5.8

> <PUBCHEM_PHARMACOPHORE_FEATURES>
15
1 1 acceptor
1 2 acceptor
1 3 acceptor
1 4 acceptor
1 4 donor
1 5 acceptor
1 5 donor
1 6 acceptor
1 6 donor
1 7 acceptor
1 7 donor
3 17 21 22 hydrophobe
6 3 23 24 25 26 27 rings
7 8 9 10 11 12 13 14 rings
7 8 9 10 11 15 18 19 rings

> <PUBCHEM_HEAVY_ATOM_COUNT>
28

> <PUBCHEM_ATOM_DEF_STEREO_COUNT>
9

> <PUBCHEM_ATOM_UDEF_STEREO_COUNT>
1

> <PUBCHEM_BOND_DEF_STEREO_COUNT>
0

> <PUBCHEM_BOND_UDEF_STEREO_COUNT>
0

> <PUBCHEM_ISOTOPIC_ATOM_COUNT>
0

> <PUBCHEM_COMPONENT_COUNT>
1

> <PUBCHEM_CACTVS_TAUTO_COUNT>
8

> <PUBCHEM_CONFORMER_ID>
061C19E300000001

> <PUBCHEM_MMFF94_ENERGY>
99.8479

> <PUBCHEM_FEATURE_SELFOVERLAP>
76.663

> <PUBCHEM_SHAPE_FINGERPRINT>
10498660 4 17632850936619251097
10670039 82 17988657267930118528
10759866 29 18337961185329183872
11370993 144 17603577504824087834
11552529 35 17752767106714282146
11640471 11 18341898506261054060
12107183 9 18116701916380447106
12363563 72 14562807793674023055
12403259 118 18409157831365300843
12422481 6 18197197193384975858
12467345 10 18333729121860282043
12507557 5 18333729121855305712
12633257 1 17968088673422009658
12788726 201 17838049665250039686
12892183 10 18259704501441582963
12978246 48 18340209690613108240
13224815 77 17632582638681364787
13583140 156 18040157301436655867
13726171 33 17843149109737600920
13782708 43 15069163629805219200
13994607 96 18131345332603818525
14251764 38 18056479439750244929
14341114 176 18408891741230749386
14341114 328 18340214088754506747
14787075 74 17687753052640562439
17349148 13 18129376012736378511
17492 54 17345166967003827413
17492 89 18335143106678340291
1813 80 14490476361253739854
18981168 100 17914083969532927935
192875 21 18058720287365579377
20715895 44 18121775029083522445
20739085 24 18259979367486498104
21033648 29 17774426236098278474
21756936 100 18199181970607319142
21864079 5 18340486772091210132
22749437 52 18129667387407198873
235170 7 13901897878347084249
23558518 356 17556030082770201427
23559900 14 18128831741227099415
35225 105 13995979012496302893
392239 28 17969797469084413011
469060 322 17611466728466080417
474 4 18199185088331641583
5081480 168 17485960469662902926
5104073 3 18040984160071860584
513202 73 17467343432025090530
633830 44 14836135367816548610
7097593 13 18262233326920283730
9981440 41 18131062685180715755

> <PUBCHEM_SHAPE_MULTIPOLES>
535.14
10.15
3.23
1.96
4.74
0.27
-0.05
4.22
3.31
-0.19
-0.81
0.05
0.14
-0.79

> <PUBCHEM_SHAPE_SELFOVERLAP>
1139.633

> <PUBCHEM_SHAPE_VOLUME>
295.8

> <PUBCHEM_COORDINATE_TYPE>
2
5
10

$$$$
