102585874
  -OEChem-03292013293D

 55 59  0     1  0  0  0  0  0999 V2000
    2.6609    1.0304    1.7652 O   0  0  0  0  0  0  0  0  0  0  0  0
    0.5576   -2.4064   -0.6325 O   0  0  0  0  0  0  0  0  0  0  0  0
    3.2425   -1.5090    0.7062 O   0  0  0  0  0  0  0  0  0  0  0  0
    0.5453    2.8402    0.9364 O   0  0  0  0  0  0  0  0  0  0  0  0
    2.6516    1.9899   -1.7994 O   0  0  0  0  0  0  0  0  0  0  0  0
   -1.4268   -3.1688    0.9743 O   0  0  0  0  0  0  0  0  0  0  0  0
   -1.9868    2.7923   -0.7707 O   0  0  0  0  0  0  0  0  0  0  0  0
    1.6372   -2.9489   -2.5294 O   0  0  0  0  0  0  0  0  0  0  0  0
   -4.5094    2.0616   -1.1466 O   0  0  0  0  0  0  0  0  0  0  0  0
    1.0632   -0.3632    0.6593 C   0  0  2  0  0  0  0  0  0  0  0  0
    0.1608    0.6567   -0.1487 C   0  0  1  0  0  0  0  0  0  0  0  0
    2.4590   -0.5010    0.0261 C   0  0  1  0  0  0  0  0  0  0  0  0
   -1.4045    0.5981    0.2065 C   0  0  2  0  0  0  0  0  0  0  0  0
    3.0312    0.8778    0.3628 C   0  0  1  0  0  0  0  0  0  0  0  0
    0.4511   -1.7570    0.6835 C   0  0  1  0  0  0  0  0  0  0  0  0
    0.8224    2.0714   -0.2288 C   0  0  2  0  0  0  0  0  0  0  0  0
    1.4862    0.2119    2.0208 C   0  0  0  0  0  0  0  0  0  0  0  0
   -1.8873   -0.9101    0.1163 C   0  0  1  0  0  0  0  0  0  0  0  0
    2.3541    2.0362   -0.4081 C   0  0  2  0  0  0  0  0  0  0  0  0
   -1.0348   -1.7960    1.0655 C   0  0  1  0  0  0  0  0  0  0  0  0
    2.4064   -0.9882   -1.4067 C   0  0  0  0  0  0  0  0  0  0  0  0
   -2.2100    1.3928   -0.8691 C   0  0  1  0  0  0  0  0  0  0  0  0
   -1.7492    1.1736    1.6106 C   0  0  0  0  0  0  0  0  0  0  0  0
    4.5556    0.9621    0.2610 C   0  0  0  0  0  0  0  0  0  0  0  0
   -3.4144   -1.0242    0.2435 C   0  0  0  0  0  0  0  0  0  0  0  0
    1.5277   -2.2074   -1.5547 C   0  0  0  0  0  0  0  0  0  0  0  0
   -3.7125    1.2084   -0.7567 C   0  0  0  0  0  0  0  0  0  0  0  0
   -4.2345   -0.0473   -0.1784 C   0  0  0  0  0  0  0  0  0  0  0  0
   -4.0426   -2.2761    0.7918 C   0  0  0  0  0  0  0  0  0  0  0  0
    0.1812    0.3030   -1.1884 H   0  0  0  0  0  0  0  0  0  0  0  0
    0.9950   -2.4201    1.3681 H   0  0  0  0  0  0  0  0  0  0  0  0
    0.3855    2.6101   -1.0761 H   0  0  0  0  0  0  0  0  0  0  0  0
    0.7520    0.8314    2.5293 H   0  0  0  0  0  0  0  0  0  0  0  0
    1.7913   -0.5732    2.7219 H   0  0  0  0  0  0  0  0  0  0  0  0
   -1.6905   -1.2710   -0.9055 H   0  0  0  0  0  0  0  0  0  0  0  0
    2.7705    2.9802   -0.0316 H   0  0  0  0  0  0  0  0  0  0  0  0
   -1.1743   -1.4945    2.1081 H   0  0  0  0  0  0  0  0  0  0  0  0
    3.4095   -1.2663   -1.7524 H   0  0  0  0  0  0  0  0  0  0  0  0
    2.0134   -0.2490   -2.1062 H   0  0  0  0  0  0  0  0  0  0  0  0
   -1.9164    1.0700   -1.8758 H   0  0  0  0  0  0  0  0  0  0  0  0
   -1.5132    2.2345    1.7051 H   0  0  0  0  0  0  0  0  0  0  0  0
   -1.2503    0.6417    2.4199 H   0  0  0  0  0  0  0  0  0  0  0  0
   -2.8182    1.1018    1.8362 H   0  0  0  0  0  0  0  0  0  0  0  0
    5.0475    0.2933    0.9753 H   0  0  0  0  0  0  0  0  0  0  0  0
    4.9022    1.9701    0.5172 H   0  0  0  0  0  0  0  0  0  0  0  0
    4.9071    0.7249   -0.7477 H   0  0  0  0  0  0  0  0  0  0  0  0
    4.1018   -1.5888    0.2591 H   0  0  0  0  0  0  0  0  0  0  0  0
    0.8614    3.7459    0.7777 H   0  0  0  0  0  0  0  0  0  0  0  0
    2.2868    2.7932   -2.2080 H   0  0  0  0  0  0  0  0  0  0  0  0
   -0.9084   -3.6675    1.6286 H   0  0  0  0  0  0  0  0  0  0  0  0
   -5.3141   -0.1353   -0.1111 H   0  0  0  0  0  0  0  0  0  0  0  0
   -2.3842    3.2104   -1.5538 H   0  0  0  0  0  0  0  0  0  0  0  0
   -5.1372   -2.2191    0.8076 H   0  0  0  0  0  0  0  0  0  0  0  0
   -3.7245   -2.4495    1.8244 H   0  0  0  0  0  0  0  0  0  0  0  0
   -3.7827   -3.1403    0.1729 H   0  0  0  0  0  0  0  0  0  0  0  0
  1 14  1  0  0  0  0
  1 17  1  0  0  0  0
  2 15  1  0  0  0  0
  2 26  1  0  0  0  0
  3 12  1  0  0  0  0
  3 47  1  0  0  0  0
  4 16  1  0  0  0  0
  4 48  1  0  0  0  0
  5 19  1  0  0  0  0
  5 49  1  0  0  0  0
  6 20  1  0  0  0  0
  6 50  1  0  0  0  0
  7 22  1  0  0  0  0
  7 52  1  0  0  0  0
  8 26  2  0  0  0  0
  9 27  2  0  0  0  0
 10 11  1  0  0  0  0
 10 12  1  0  0  0  0
 10 15  1  0  0  0  0
 10 17  1  0  0  0  0
 11 13  1  0  0  0  0
 11 16  1  0  0  0  0
 11 30  1  0  0  0  0
 12 14  1  0  0  0  0
 12 21  1  0  0  0  0
 13 18  1  0  0  0  0
 13 22  1  0  0  0  0
 13 23  1  0  0  0  0
 14 19  1  0  0  0  0
 14 24  1  0  0  0  0
 15 20  1  0  0  0  0
 15 31  1  0  0  0  0
 16 19  1  0  0  0  0
 16 32  1  0  0  0  0
 17 33  1  0  0  0  0
 17 34  1  0  0  0  0
 18 20  1  0  0  0  0
 18 25  1  0  0  0  0
 18 35  1  0  0  0  0
 19 36  1  0  0  0  0
 20 37  1  0  0  0  0
 21 26  1  0  0  0  0
 21 38  1  0  0  0  0
 21 39  1  0  0  0  0
 22 27  1  0  0  0  0
 22 40  1  0  0  0  0
 23 41  1  0  0  0  0
 23 42  1  0  0  0  0
 23 43  1  0  0  0  0
 24 44  1  0  0  0  0
 24 45  1  0  0  0  0
 24 46  1  0  0  0  0
 25 28  2  0  0  0  0
 25 29  1  0  0  0  0
 27 28  1  0  0  0  0
 28 51  1  0  0  0  0
 29 53  1  0  0  0  0
 29 54  1  0  0  0  0
 29 55  1  0  0  0  0
M  END
> <PUBCHEM_COMPOUND_CID>
102585874

> <PUBCHEM_CONFORMER_RMSD>
0.6

> <PUBCHEM_CONFORMER_DIVERSEORDER>
1

> <PUBCHEM_MMFF94_PARTIAL_CHARGES>
30
1 -0.56
12 0.28
14 0.28
15 0.28
16 0.28
17 0.28
18 0.14
19 0.28
2 -0.43
20 0.28
21 0.06
22 0.34
25 -0.28
26 0.66
27 0.49
28 -0.14
29 0.14
3 -0.68
4 -0.68
47 0.4
48 0.4
49 0.4
5 -0.68
50 0.4
51 0.15
52 0.4
6 -0.68
7 -0.68
8 -0.57
9 -0.57

> <PUBCHEM_EFFECTIVE_ROTOR_COUNT>
1.6

> <PUBCHEM_PHARMACOPHORE_FEATURES>
17
1 1 acceptor
1 3 acceptor
1 3 donor
1 4 acceptor
1 4 donor
1 5 acceptor
1 5 donor
1 6 acceptor
1 6 donor
1 7 acceptor
1 7 donor
1 8 acceptor
1 9 acceptor
6 10 11 13 15 18 20 rings
6 13 18 22 25 27 28 rings
6 2 10 12 15 21 26 rings
8 1 10 11 12 14 16 17 19 rings

> <PUBCHEM_HEAVY_ATOM_COUNT>
29

> <PUBCHEM_ATOM_DEF_STEREO_COUNT>
11

> <PUBCHEM_ATOM_UDEF_STEREO_COUNT>
0

> <PUBCHEM_BOND_DEF_STEREO_COUNT>
0

> <PUBCHEM_BOND_UDEF_STEREO_COUNT>
0

> <PUBCHEM_ISOTOPIC_ATOM_COUNT>
0

> <PUBCHEM_COMPONENT_COUNT>
1

> <PUBCHEM_CACTVS_TAUTO_COUNT>
10

> <PUBCHEM_CONFORMER_ID>
061D561200000001

> <PUBCHEM_MMFF94_ENERGY>
137.6018

> <PUBCHEM_FEATURE_SELFOVERLAP>
86.462

> <PUBCHEM_SHAPE_FINGERPRINT>
10498660 4 18260545598230782141
10675989 125 17541639635594716349
10759866 29 17895197774351268804
10863032 1 18408599241109653264
10871710 139 16536796495592734628
10906281 52 18341060605692349184
10948715 1 18334852870331543200
10967382 1 18190460643821834121
1100329 8 16969414120344354881
11370993 70 18408877438947358117
11640471 11 16298683761978672334
13140716 1 18266743484788096633
13224815 77 18272652359371190115
13583140 156 16702032997691244603
14223421 5 18191587660509883505
14790565 3 18120375355066054165
16945 1 18118671347732433042
17093844 170 18265044739260281588
17349148 13 18341889709993809112
17492 54 17757833703486161087
17980427 23 18118937373838919404
20600515 1 18045477756509785072
20691752 17 17968106313011144915
20715895 44 17970330539420061957
20905425 154 18046070620741325215
21033648 29 17844509188794237848
21285901 2 18337398261657704759
22182313 1 18341624719138893478
23114952 82 18341627979119161751
2334 1 18410575063351811963
23419403 2 16831450768803930146
23557571 272 18408045126083437615
23558518 356 18198358272619788841
23559900 14 18337950091444424134
238 59 17917423220326530711
25222932 49 17319016427019956731
2748010 2 18411707560186171731
335352 9 18189607246694497351
350125 39 18190182467306556489
35225 105 14133501215134369254
4280585 95 17908146473773713558
495365 180 17774420763808906657
5262128 65 17842847616001978567
70251023 43 17627789713415325519
9709674 26 18411698747435455015

> <PUBCHEM_SHAPE_MULTIPOLES>
543.98
6.9
3.32
1.65
3.19
0.63
-0.23
-1.29
-0.54
0.6
-0.85
-0.75
0.41
1.48

> <PUBCHEM_SHAPE_SELFOVERLAP>
1205.352

> <PUBCHEM_SHAPE_VOLUME>
280.4

> <PUBCHEM_COORDINATE_TYPE>
2
5
10

$$$$
