REMARK  Name = 10251859
REMARK  13 active torsions:
REMARK  status: ('A' for Active; 'I' for Inactive)
REMARK    1  A    between atoms: C_1  and  O_2
REMARK    2  A    between atoms: C_1  and  C_6
REMARK    3  A    between atoms: C_1  and  C_17
REMARK    4  A    between atoms: O_2  and  C_4
REMARK    5  A    between atoms: C_6  and  C_7
REMARK    6  A    between atoms: C_6  and  O_13
REMARK    7  A    between atoms: C_7  and  O_9
REMARK    8  A    between atoms: O_9  and  C_11
REMARK    9  A    between atoms: O_13  and  C_15
REMARK   10  A    between atoms: C_17  and  C_18
REMARK   11  A    between atoms: C_17  and  O_27
REMARK   12  A    between atoms: C_19  and  C_22
REMARK   13  A    between atoms: O_27  and  C_29
REMARK                            x       y       z     vdW  Elec       q    Type
REMARK                         _______ _______ _______ _____ _____    ______ ____
ROOT
ATOM      1  C   UNL     1      -1.201  -0.400   0.853  0.00  0.00    +0.256 C 
ENDROOT
BRANCH   1   2
ATOM      2  O   UNL     1      -0.042  -1.218   1.047  0.00  0.00    -0.444 OA
BRANCH   2   4
ATOM      3  O   UNL     1      -1.273  -2.665   2.361  0.00  0.00    -0.250 OA
ATOM      4  C   UNL     1      -0.228  -2.321   1.826  0.00  0.00    +0.318 C 
ATOM      5  C   UNL     1       1.062  -3.077   1.939  0.00  0.00    +0.121 C 
ENDBRANCH   2   4
ENDBRANCH   1   2
BRANCH   1   6
ATOM      6  C   UNL     1      -1.989  -0.920  -0.368  0.00  0.00    +0.252 C 
BRANCH   6   7
ATOM      7  C   UNL     1      -1.197  -0.894  -1.688  0.00  0.00    +0.212 C 
ATOM      8  C   UNL     1      -2.030  -1.397  -2.864  0.00  0.00    +0.051 C 
BRANCH   7   9
ATOM      9  O   UNL     1      -0.033  -1.710  -1.587  0.00  0.00    -0.448 OA
BRANCH   9  11
ATOM     10  O   UNL     1       1.084  -0.328  -3.063  0.00  0.00    -0.250 OA
ATOM     11  C   UNL     1       1.039  -1.308  -2.332  0.00  0.00    +0.318 C 
ATOM     12  C   UNL     1       2.183  -2.255  -2.126  0.00  0.00    +0.121 C 
ENDBRANCH   9  11
ENDBRANCH   7   9
ENDBRANCH   6   7
BRANCH   6  13
ATOM     13  O   UNL     1      -3.193  -0.167  -0.515  0.00  0.00    -0.445 OA
BRANCH  13  15
ATOM     14  O   UNL     1      -4.287  -1.612   0.917  0.00  0.00    -0.250 OA
ATOM     15  C   UNL     1      -4.268  -0.629   0.188  0.00  0.00    +0.318 C 
ATOM     16  C   UNL     1      -5.452   0.254  -0.062  0.00  0.00    +0.121 C 
ENDBRANCH  13  15
ENDBRANCH   6  13
ENDBRANCH   1   6
BRANCH   1  17
ATOM     17  C   UNL     1      -0.719   1.058   0.717  0.00  0.00    +0.234 C 
BRANCH  17  18
ATOM     18  C   UNL     1       0.113   1.522   1.879  0.00  0.00    +0.020 C 
ATOM     19  C   UNL     1       1.453   1.479   1.896  0.00  0.00    +0.016 C 
BRANCH  19  22
ATOM     20  O   UNL     1       3.451   0.325   1.323  0.00  0.00    -0.444 OA
ATOM     21  O   UNL     1       5.331  -0.857   0.864  0.00  0.00    -0.245 OA
ATOM     22  C   UNL     1       2.283   0.966   0.765  0.00  0.00    +0.195 C 
ATOM     23  C   UNL     1       2.691   2.086  -0.185  0.00  0.00    +0.075 C 
ATOM     24  C   UNL     1       3.705   1.563  -1.145  0.00  0.00    -0.015 C 
ATOM     25  C   UNL     1       4.463  -0.068   0.505  0.00  0.00    +0.341 C 
ATOM     26  C   UNL     1       4.502   0.535  -0.839  0.00  0.00    +0.077 C 
ENDBRANCH  19  22
ENDBRANCH  17  18
BRANCH  17  27
ATOM     27  O   UNL     1      -1.883   1.890   0.649  0.00  0.00    -0.444 OA
BRANCH  27  29
ATOM     28  O   UNL     1      -0.762   3.358  -0.739  0.00  0.00    -0.250 OA
ATOM     29  C   UNL     1      -1.758   3.010  -0.118  0.00  0.00    +0.318 C 
ATOM     30  C   UNL     1      -3.044   3.778  -0.096  0.00  0.00    +0.121 C 
ENDBRANCH  27  29
ENDBRANCH  17  27
ENDBRANCH   1  17
TORSDOF 13
