REMARK  Name = 10250021
REMARK  11 active torsions:
REMARK  status: ('A' for Active; 'I' for Inactive)
REMARK    1  A    between atoms: C_1  and  C_3
REMARK    2  A    between atoms: C_1  and  C_16
REMARK    3  A    between atoms: C_11  and  O_13
REMARK    4  A    between atoms: C_16  and  O_17
REMARK    5  A    between atoms: O_17  and  C_18
REMARK    6  A    between atoms: C_18  and  C_19
REMARK    7  A    between atoms: C_19  and  O_20
REMARK    8  A    between atoms: C_19  and  C_24
REMARK    9  A    between atoms: O_20  and  N_23
REMARK   10  A    between atoms: C_24  and  O_25
REMARK   11  A    between atoms: O_25  and  N_28
REMARK                            x       y       z     vdW  Elec       q    Type
REMARK                         _______ _______ _______ _____ _____    ______ ____
ROOT
ATOM      1  C   UNL     1      -1.009  -3.269  -0.075  0.00  0.00    +0.121 C 
ATOM      2  C   UNL     1      -0.597  -4.438  -0.993  0.00  0.00    +0.016 C 
ENDROOT
BRANCH   1   3
ATOM      3  C   UNL     1       0.140  -2.425   0.362  0.00  0.00    -0.012 C 
ATOM      4  C   UNL     1       1.994  -0.949  -0.189  0.00  0.00    -0.000 C 
ATOM      5  C   UNL     1       0.908  -1.748  -0.585  0.00  0.00    -0.004 C 
ATOM      6  C   UNL     1       2.304  -0.836   1.187  0.00  0.00    +0.003 C 
ATOM      7  C   UNL     1       0.445  -2.314   1.716  0.00  0.00    -0.004 C 
ATOM      8  C   UNL     1       1.520  -1.525   2.127  0.00  0.00    -0.000 C 
ATOM      9  C   UNL     1       2.777  -0.260  -1.129  0.00  0.00    +0.003 C 
ATOM     10  C   UNL     1       3.389  -0.038   1.583  0.00  0.00    +0.037 C 
ATOM     11  C   UNL     1       4.157   0.640   0.635  0.00  0.00    +0.139 C 
ATOM     12  C   UNL     1       3.852   0.528  -0.718  0.00  0.00    +0.037 C 
BRANCH  11  13
ATOM     13  O   UNL     1       5.206   1.410   1.035  0.00  0.00    -0.471 OA
ATOM     14  C   UNL     1       5.949   2.075   0.015  0.00  0.00    +0.252 C 
ENDBRANCH  11  13
ENDBRANCH   1   3
BRANCH   1  16
ATOM     15  O   UNL     1      -2.858  -2.918  -1.631  0.00  0.00    -0.250 OA
ATOM     16  C   UNL     1      -2.114  -2.463  -0.772  0.00  0.00    +0.321 C 
BRANCH  16  17
ATOM     17  O   UNL     1      -2.162  -1.190  -0.278  0.00  0.00    -0.444 OA
BRANCH  17  18
ATOM     18  C   UNL     1      -3.179  -0.349  -0.833  0.00  0.00    +0.259 C 
BRANCH  18  19
ATOM     19  C   UNL     1      -3.097   1.024  -0.179  0.00  0.00    +0.290 C 
BRANCH  19  20
ATOM     20  O   UNL     1      -3.312   0.858   1.224  0.00  0.00    -0.332 OA
BRANCH  20  23
ATOM     21  O   UNL     1      -3.785   3.011   1.102  0.00  0.00    -0.090 OA
ATOM     22  O   UNL     1      -3.913   2.010   3.091  0.00  0.00    -0.090 OA
ATOM     23  N   UNL     1      -3.705   2.056   1.876  0.00  0.00    +0.218 N 
ENDBRANCH  20  23
ENDBRANCH  19  20
BRANCH  19  24
ATOM     24  C   UNL     1      -1.729   1.662  -0.393  0.00  0.00    +0.293 C 
BRANCH  24  25
ATOM     25  O   UNL     1      -1.477   1.810  -1.786  0.00  0.00    -0.332 OA
BRANCH  25  28
ATOM     26  O   UNL     1       0.425   2.674  -1.059  0.00  0.00    -0.090 OA
ATOM     27  O   UNL     1       0.082   2.565  -3.259  0.00  0.00    -0.090 OA
ATOM     28  N   UNL     1      -0.216   2.400  -2.074  0.00  0.00    +0.218 N 
ENDBRANCH  25  28
ENDBRANCH  24  25
ENDBRANCH  19  24
ENDBRANCH  18  19
ENDBRANCH  17  18
ENDBRANCH  16  17
ENDBRANCH   1  16
TORSDOF 11
