10255275
  -OEChem-03292013303D

 68 72  0     1  0  0  0  0  0999 V2000
    0.4906    1.4881    0.1483 O   0  0  0  0  0  0  0  0  0  0  0  0
    4.3720    0.8105   -1.7869 O   0  0  0  0  0  0  0  0  0  0  0  0
    2.0478   -0.2133   -1.3732 O   0  0  0  0  0  0  0  0  0  0  0  0
    3.6262   -2.6341   -0.8227 O   0  0  0  0  0  0  0  0  0  0  0  0
   -2.4432   -1.4156    0.5415 O   0  0  0  0  0  0  0  0  0  0  0  0
   -0.8844   -3.0173    0.9089 O   0  0  0  0  0  0  0  0  0  0  0  0
   -7.2708   -1.3680   -0.9081 O   0  0  0  0  0  0  0  0  0  0  0  0
   -8.2100    1.1431   -0.1793 O   0  0  0  0  0  0  0  0  0  0  0  0
    3.8825   -0.4404    0.2495 C   0  0  1  0  0  0  0  0  0  0  0  0
    4.7077    0.7742   -0.3760 C   0  0  2  0  0  0  0  0  0  0  0  0
    2.3165   -0.1842    0.0543 C   0  0  1  0  0  0  0  0  0  0  0  0
    1.8456    1.2118    0.6018 C   0  0  1  0  0  0  0  0  0  0  0  0
    4.2212    2.1195    0.2118 C   0  0  0  0  0  0  0  0  0  0  0  0
    6.2825    0.6026   -0.3170 C   0  0  0  0  0  0  0  0  0  0  0  0
    2.7158    2.3418    0.0151 C   0  0  0  0  0  0  0  0  0  0  0  0
    1.3551   -1.2758    0.5946 C   0  0  0  0  0  0  0  0  0  0  0  0
    4.3677   -1.7125   -0.4890 C   0  0  0  0  0  0  0  0  0  0  0  0
    4.2300   -0.7114    1.7344 C   0  0  0  0  0  0  0  0  0  0  0  0
    1.8043    1.3753    2.1391 C   0  0  0  0  0  0  0  0  0  0  0  0
    6.6677   -0.8357   -0.6208 C   0  0  0  0  0  0  0  0  0  0  0  0
    6.9929    1.4757   -1.3896 C   0  0  0  0  0  0  0  0  0  0  0  0
    6.9178    1.0036    1.0327 C   0  0  0  0  0  0  0  0  0  0  0  0
    5.8258   -1.8682   -0.7379 C   0  0  0  0  0  0  0  0  0  0  0  0
   -0.0810   -0.8224    0.5158 C   0  0  0  0  0  0  0  0  0  0  0  0
   -0.4139    0.4563    0.2805 C   0  0  0  0  0  0  0  0  0  0  0  0
   -1.1489   -1.8429    0.6718 C   0  0  0  0  0  0  0  0  0  0  0  0
   -1.7859    0.8589    0.1485 C   0  0  0  0  0  0  0  0  0  0  0  0
   -2.7531   -0.0595    0.2719 C   0  0  0  0  0  0  0  0  0  0  0  0
   -4.1624    0.2482    0.1538 C   0  0  0  0  0  0  0  0  0  0  0  0
   -5.0560   -0.7150   -0.3252 C   0  0  0  0  0  0  0  0  0  0  0  0
   -4.6408    1.5105    0.5187 C   0  0  0  0  0  0  0  0  0  0  0  0
   -6.4143   -0.4188   -0.4381 C   0  0  0  0  0  0  0  0  0  0  0  0
   -5.9992    1.8066    0.4056 C   0  0  0  0  0  0  0  0  0  0  0  0
   -6.8859    0.8421   -0.0728 C   0  0  0  0  0  0  0  0  0  0  0  0
   -7.8692   -2.2346    0.0539 C   0  0  0  0  0  0  0  0  0  0  0  0
   -8.6506    1.7008   -1.4159 C   0  0  0  0  0  0  0  0  0  0  0  0
    4.7307    2.9493   -0.2924 H   0  0  0  0  0  0  0  0  0  0  0  0
    4.4682    2.2018    1.2739 H   0  0  0  0  0  0  0  0  0  0  0  0
    2.4297    3.3051    0.4582 H   0  0  0  0  0  0  0  0  0  0  0  0
    2.4969    2.4561   -1.0550 H   0  0  0  0  0  0  0  0  0  0  0  0
    1.5609   -1.5290    1.6375 H   0  0  0  0  0  0  0  0  0  0  0  0
    1.4469   -2.1970    0.0103 H   0  0  0  0  0  0  0  0  0  0  0  0
    4.3077    0.1987    2.3270 H   0  0  0  0  0  0  0  0  0  0  0  0
    3.5026   -1.3647    2.2207 H   0  0  0  0  0  0  0  0  0  0  0  0
    5.1818   -1.2412    1.8506 H   0  0  0  0  0  0  0  0  0  0  0  0
    1.2140    2.2616    2.4060 H   0  0  0  0  0  0  0  0  0  0  0  0
    1.3147    0.5341    2.6377 H   0  0  0  0  0  0  0  0  0  0  0  0
    2.7853    1.5090    2.5927 H   0  0  0  0  0  0  0  0  0  0  0  0
    7.7256   -1.0370   -0.7828 H   0  0  0  0  0  0  0  0  0  0  0  0
    8.0846    1.3888   -1.3175 H   0  0  0  0  0  0  0  0  0  0  0  0
    6.7240    1.1821   -2.4108 H   0  0  0  0  0  0  0  0  0  0  0  0
    6.7469    2.5357   -1.2688 H   0  0  0  0  0  0  0  0  0  0  0  0
    6.7620    2.0659    1.2495 H   0  0  0  0  0  0  0  0  0  0  0  0
    6.5412    0.4316    1.8803 H   0  0  0  0  0  0  0  0  0  0  0  0
    8.0041    0.8453    1.0178 H   0  0  0  0  0  0  0  0  0  0  0  0
    4.6800   -0.0027   -2.2174 H   0  0  0  0  0  0  0  0  0  0  0  0
    2.2794   -1.0932   -1.7141 H   0  0  0  0  0  0  0  0  0  0  0  0
    6.1865   -2.8561   -1.0018 H   0  0  0  0  0  0  0  0  0  0  0  0
   -1.9830    1.9022   -0.0738 H   0  0  0  0  0  0  0  0  0  0  0  0
   -4.7078   -1.7016   -0.6240 H   0  0  0  0  0  0  0  0  0  0  0  0
   -3.9865    2.2825    0.9155 H   0  0  0  0  0  0  0  0  0  0  0  0
   -6.3609    2.7890    0.6968 H   0  0  0  0  0  0  0  0  0  0  0  0
   -8.4663   -1.6615    0.7703 H   0  0  0  0  0  0  0  0  0  0  0  0
   -7.1019   -2.8112    0.5801 H   0  0  0  0  0  0  0  0  0  0  0  0
   -8.5284   -2.9292   -0.4739 H   0  0  0  0  0  0  0  0  0  0  0  0
   -8.4623    1.0065   -2.2408 H   0  0  0  0  0  0  0  0  0  0  0  0
   -8.1498    2.6554   -1.6059 H   0  0  0  0  0  0  0  0  0  0  0  0
   -9.7274    1.8783   -1.3473 H   0  0  0  0  0  0  0  0  0  0  0  0
  1 12  1  0  0  0  0
  1 25  1  0  0  0  0
  2 10  1  0  0  0  0
  2 56  1  0  0  0  0
  3 11  1  0  0  0  0
  3 57  1  0  0  0  0
  4 17  2  0  0  0  0
  5 26  1  0  0  0  0
  5 28  1  0  0  0  0
  6 26  2  0  0  0  0
  7 32  1  0  0  0  0
  7 35  1  0  0  0  0
  8 34  1  0  0  0  0
  8 36  1  0  0  0  0
  9 10  1  0  0  0  0
  9 11  1  0  0  0  0
  9 17  1  0  0  0  0
  9 18  1  0  0  0  0
 10 13  1  0  0  0  0
 10 14  1  0  0  0  0
 11 12  1  0  0  0  0
 11 16  1  0  0  0  0
 12 15  1  0  0  0  0
 12 19  1  0  0  0  0
 13 15  1  0  0  0  0
 13 37  1  0  0  0  0
 13 38  1  0  0  0  0
 14 20  1  0  0  0  0
 14 21  1  0  0  0  0
 14 22  1  0  0  0  0
 15 39  1  0  0  0  0
 15 40  1  0  0  0  0
 16 24  1  0  0  0  0
 16 41  1  0  0  0  0
 16 42  1  0  0  0  0
 17 23  1  0  0  0  0
 18 43  1  0  0  0  0
 18 44  1  0  0  0  0
 18 45  1  0  0  0  0
 19 46  1  0  0  0  0
 19 47  1  0  0  0  0
 19 48  1  0  0  0  0
 20 23  2  0  0  0  0
 20 49  1  0  0  0  0
 21 50  1  0  0  0  0
 21 51  1  0  0  0  0
 21 52  1  0  0  0  0
 22 53  1  0  0  0  0
 22 54  1  0  0  0  0
 22 55  1  0  0  0  0
 23 58  1  0  0  0  0
 24 25  2  0  0  0  0
 24 26  1  0  0  0  0
 25 27  1  0  0  0  0
 27 28  2  0  0  0  0
 27 59  1  0  0  0  0
 28 29  1  0  0  0  0
 29 30  2  0  0  0  0
 29 31  1  0  0  0  0
 30 32  1  0  0  0  0
 30 60  1  0  0  0  0
 31 33  2  0  0  0  0
 31 61  1  0  0  0  0
 32 34  2  0  0  0  0
 33 34  1  0  0  0  0
 33 62  1  0  0  0  0
 35 63  1  0  0  0  0
 35 64  1  0  0  0  0
 35 65  1  0  0  0  0
 36 66  1  0  0  0  0
 36 67  1  0  0  0  0
 36 68  1  0  0  0  0
M  END
> <PUBCHEM_COMPOUND_CID>
10255275

> <PUBCHEM_CONFORMER_RMSD>
0.8

> <PUBCHEM_CONFORMER_DIVERSEORDER>
1
4
2
3

> <PUBCHEM_MMFF94_PARTIAL_CHARGES>
38
1 -0.36
10 0.28
11 0.28
12 0.28
14 0.14
16 0.14
17 0.49
2 -0.68
20 -0.29
23 -0.14
24 -0.12
25 0.08
26 0.71
27 -0.15
28 0.05
29 0.03
3 -0.68
30 -0.15
31 -0.15
32 0.08
33 -0.15
34 0.08
35 0.28
36 0.28
4 -0.57
49 0.15
5 -0.23
56 0.4
57 0.4
58 0.15
59 0.15
6 -0.57
60 0.15
61 0.15
62 0.15
7 -0.36
8 -0.36
9 0.06

> <PUBCHEM_EFFECTIVE_ROTOR_COUNT>
4

> <PUBCHEM_PHARMACOPHORE_FEATURES>
15
1 1 acceptor
1 2 acceptor
1 2 donor
1 3 acceptor
1 3 donor
1 4 acceptor
1 6 acceptor
1 7 acceptor
1 8 acceptor
3 14 21 22 hydrophobe
6 1 11 12 16 24 25 rings
6 29 30 31 32 33 34 rings
6 5 24 25 26 27 28 rings
6 9 10 11 12 13 15 rings
6 9 10 14 17 20 23 rings

> <PUBCHEM_HEAVY_ATOM_COUNT>
36

> <PUBCHEM_ATOM_DEF_STEREO_COUNT>
4

> <PUBCHEM_ATOM_UDEF_STEREO_COUNT>
0

> <PUBCHEM_BOND_DEF_STEREO_COUNT>
0

> <PUBCHEM_BOND_UDEF_STEREO_COUNT>
0

> <PUBCHEM_ISOTOPIC_ATOM_COUNT>
0

> <PUBCHEM_COMPONENT_COUNT>
1

> <PUBCHEM_CACTVS_TAUTO_COUNT>
1

> <PUBCHEM_CONFORMER_ID>
009C7BAB00000001

> <PUBCHEM_MMFF94_ENERGY>
167.2177

> <PUBCHEM_FEATURE_SELFOVERLAP>
76.221

> <PUBCHEM_SHAPE_FINGERPRINT>
10 15 8502368945710715293
10299344 5 18342741810589752541
10625338 86 15719386214800887565
10835480 77 18340208591782053456
11007060 377 18334582356311819843
11135609 127 18338796836026992852
11315181 36 18272653446741994057
11578080 2 16700592714657408618
11719270 70 17704071772186038646
12166972 35 18131633408877185393
12516196 113 17775567541984402192
13782708 43 17988641935012702011
13811026 1 18411139138455237619
14117953 113 18271533001364860246
14170010 4 18342457041389119088
14251764 18 18334011709386489819
15064981 113 17416955146649963525
15131766 46 14275457083434723966
15142383 8 17530684299377066544
15183329 4 18341896277431581249
15439362 3 18048882094182758012
1577012 14 18187641397762071315
15840311 113 17748831830476404284
18608769 82 18338239388063496523
18681886 176 18342168999507425593
19315092 285 14260527721168262318
19319366 153 17167854253998635938
19611394 137 17751655462552273507
21150785 3 18186801413495781367
21267235 1 18341897420367525163
21792934 111 18340758261959885240
221357 26 18412825759338270704
23522609 53 18195839338615275097
23559900 14 18341328997813561096
23569943 247 17840600197187771570
23576562 1 18189059866145308549
24771750 20 17975143346121870052
255183 451 17912937085065562070
27425 322 16806455884728767392
3004659 81 18335703823727840904
335352 9 18410016520694238838
335507 130 18339644546733187055
350125 39 18335981991274291697
3633792 109 18411982429819809377
4073 2 18187089489531726123
4098825 35 18412544297478362717
504579 68 18340758283503429917
6328613 192 18261118503776120036
99344 41 18411417289507082319

> <PUBCHEM_SHAPE_MULTIPOLES>
693.91
23.81
2.5
1.25
34.3
0.76
0.09
-3.24
-7.4
0.22
0.05
-1.14
-0.19
0.58

> <PUBCHEM_SHAPE_SELFOVERLAP>
1523.951

> <PUBCHEM_SHAPE_VOLUME>
370.6

> <PUBCHEM_COORDINATE_TYPE>
2
5
10

$$$$
