10255246
  -OEChem-03292013303D

 77 79  0     1  0  0  0  0  0999 V2000
    0.2821   -4.9802   -0.6353 O   0  0  0  0  0  0  0  0  0  0  0  0
    2.2220   -4.0728    0.1262 O   0  0  0  0  0  0  0  0  0  0  0  0
    2.8988    0.9365   -1.5332 N   0  0  0  0  0  0  0  0  0  0  0  0
   -1.1398    0.9792   -2.0681 N   0  0  0  0  0  0  0  0  0  0  0  0
    5.0038    0.1515   -1.7493 N   0  0  0  0  0  0  0  0  0  0  0  0
    4.1555    0.3652    0.4030 N   0  0  0  0  0  0  0  0  0  0  0  0
   -4.6847    3.1267    0.9511 N   0  0  0  0  0  0  0  0  0  0  0  0
   -6.8254    2.3499    1.0428 N   0  0  0  0  0  0  0  0  0  0  0  0
   -4.9991    0.8432    1.4159 N   0  0  0  0  0  0  0  0  0  0  0  0
    0.9490    2.2250   -1.7112 C   0  0  2  0  0  0  0  0  0  0  0  0
    1.5564    1.0313   -0.9422 C   0  0  1  0  0  0  0  0  0  0  0  0
   -0.5776    2.2668   -1.7014 C   0  0  2  0  0  0  0  0  0  0  0  0
    1.5560    2.0725   -3.1119 C   0  0  0  0  0  0  0  0  0  0  0  0
    2.9830    1.6291   -2.8166 C   0  0  0  0  0  0  0  0  0  0  0  0
    0.7526   -0.2490   -1.1153 C   0  0  0  0  0  0  0  0  0  0  0  0
   -1.1306    2.6887   -0.3390 C   0  0  0  0  0  0  0  0  0  0  0  0
   -0.5456   -0.2104   -1.6668 C   0  0  0  0  0  0  0  0  0  0  0  0
   -2.6566    2.7576   -0.3621 C   0  0  0  0  0  0  0  0  0  0  0  0
    3.9933    0.4903   -0.8805 C   0  0  0  0  0  0  0  0  0  0  0  0
    1.2732   -1.4819   -0.6849 C   0  0  0  0  0  0  0  0  0  0  0  0
   -1.2515   -1.4139   -1.8366 C   0  0  0  0  0  0  0  0  0  0  0  0
    0.5506   -2.6639   -0.8460 C   0  0  0  0  0  0  0  0  0  0  0  0
   -3.2427    3.1147    1.0012 C   0  0  0  0  0  0  0  0  0  0  0  0
   -0.7086   -2.6314   -1.4304 C   0  0  0  0  0  0  0  0  0  0  0  0
    1.1154   -3.9289   -0.4041 C   0  0  0  0  0  0  0  0  0  0  0  0
    5.4419   -0.1439    0.8608 C   0  0  0  0  0  0  0  0  0  0  0  0
   -5.4909    2.0187    1.1553 C   0  0  0  0  0  0  0  0  0  0  0  0
    5.4401   -0.2402    2.3545 C   0  0  0  0  0  0  0  0  0  0  0  0
    5.8262    0.6980    3.2400 C   0  0  0  0  0  0  0  0  0  0  0  0
    5.7943    0.4121    4.7179 C   0  0  0  0  0  0  0  0  0  0  0  0
    6.3000    2.0788    2.8841 C   0  0  0  0  0  0  0  0  0  0  0  0
   -5.9444   -0.2482    1.6116 C   0  0  0  0  0  0  0  0  0  0  0  0
   -5.1983   -1.5085    1.9198 C   0  0  0  0  0  0  0  0  0  0  0  0
   -4.7558   -2.4365    1.0501 C   0  0  0  0  0  0  0  0  0  0  0  0
   -4.0527   -3.6726    1.5446 C   0  0  0  0  0  0  0  0  0  0  0  0
   -4.8898   -2.3535   -0.4442 C   0  0  0  0  0  0  0  0  0  0  0  0
    1.3436    3.1593   -1.2857 H   0  0  0  0  0  0  0  0  0  0  0  0
    1.6030    1.2742    0.1268 H   0  0  0  0  0  0  0  0  0  0  0  0
   -0.9090    3.0029   -2.4449 H   0  0  0  0  0  0  0  0  0  0  0  0
    1.5261    3.0052   -3.6838 H   0  0  0  0  0  0  0  0  0  0  0  0
    1.0395    1.3052   -3.7001 H   0  0  0  0  0  0  0  0  0  0  0  0
    3.6417    2.5012   -2.7327 H   0  0  0  0  0  0  0  0  0  0  0  0
    3.3324    0.9889   -3.6326 H   0  0  0  0  0  0  0  0  0  0  0  0
   -0.7265    3.6705   -0.0636 H   0  0  0  0  0  0  0  0  0  0  0  0
   -0.8167    1.9850    0.4419 H   0  0  0  0  0  0  0  0  0  0  0  0
   -2.0655    0.9471   -2.4792 H   0  0  0  0  0  0  0  0  0  0  0  0
   -2.9831    3.4956   -1.1058 H   0  0  0  0  0  0  0  0  0  0  0  0
   -3.0818    1.7959   -0.6717 H   0  0  0  0  0  0  0  0  0  0  0  0
    2.2530   -1.5188   -0.2179 H   0  0  0  0  0  0  0  0  0  0  0  0
   -2.2424   -1.4037   -2.2854 H   0  0  0  0  0  0  0  0  0  0  0  0
   -2.8957    4.1122    1.2946 H   0  0  0  0  0  0  0  0  0  0  0  0
   -2.8872    2.4218    1.7727 H   0  0  0  0  0  0  0  0  0  0  0  0
   -1.3069   -3.5251   -1.5822 H   0  0  0  0  0  0  0  0  0  0  0  0
    5.9118   -0.1762   -1.4425 H   0  0  0  0  0  0  0  0  0  0  0  0
    4.8613    0.0953   -2.7500 H   0  0  0  0  0  0  0  0  0  0  0  0
   -5.1235    4.0136    0.7198 H   0  0  0  0  0  0  0  0  0  0  0  0
    5.6278   -1.1533    0.4716 H   0  0  0  0  0  0  0  0  0  0  0  0
    6.2685    0.4987    0.5363 H   0  0  0  0  0  0  0  0  0  0  0  0
    5.0999   -1.2000    2.7413 H   0  0  0  0  0  0  0  0  0  0  0  0
    0.6719   -5.8282   -0.3331 H   0  0  0  0  0  0  0  0  0  0  0  0
   -7.5647    1.6667    1.1614 H   0  0  0  0  0  0  0  0  0  0  0  0
   -7.1130    3.3004    0.8365 H   0  0  0  0  0  0  0  0  0  0  0  0
    6.7961    0.5225    5.1461 H   0  0  0  0  0  0  0  0  0  0  0  0
    5.1202    1.1102    5.2249 H   0  0  0  0  0  0  0  0  0  0  0  0
    5.4490   -0.6032    4.9396 H   0  0  0  0  0  0  0  0  0  0  0  0
    7.3476    2.2050    3.1759 H   0  0  0  0  0  0  0  0  0  0  0  0
    6.2202    2.2983    1.8164 H   0  0  0  0  0  0  0  0  0  0  0  0
    5.7017    2.8298    3.4110 H   0  0  0  0  0  0  0  0  0  0  0  0
   -6.5733   -0.3881    0.7247 H   0  0  0  0  0  0  0  0  0  0  0  0
   -6.6133   -0.0370    2.4553 H   0  0  0  0  0  0  0  0  0  0  0  0
   -5.0246   -1.6779    2.9817 H   0  0  0  0  0  0  0  0  0  0  0  0
   -3.9841   -3.7054    2.6370 H   0  0  0  0  0  0  0  0  0  0  0  0
   -3.0334   -3.7142    1.1466 H   0  0  0  0  0  0  0  0  0  0  0  0
   -4.5903   -4.5691    1.2189 H   0  0  0  0  0  0  0  0  0  0  0  0
   -5.6128   -3.0954   -0.7981 H   0  0  0  0  0  0  0  0  0  0  0  0
   -3.9286   -2.5594   -0.9228 H   0  0  0  0  0  0  0  0  0  0  0  0
   -5.2159   -1.3684   -0.7885 H   0  0  0  0  0  0  0  0  0  0  0  0
  1 25  1  0  0  0  0
  1 60  1  0  0  0  0
  2 25  2  0  0  0  0
  3 11  1  0  0  0  0
  3 14  1  0  0  0  0
  3 19  1  0  0  0  0
  4 12  1  0  0  0  0
  4 17  1  0  0  0  0
  4 46  1  0  0  0  0
  5 19  1  0  0  0  0
  5 54  1  0  0  0  0
  5 55  1  0  0  0  0
  6 19  2  0  0  0  0
  6 26  1  0  0  0  0
  7 23  1  0  0  0  0
  7 27  1  0  0  0  0
  7 56  1  0  0  0  0
  8 27  1  0  0  0  0
  8 61  1  0  0  0  0
  8 62  1  0  0  0  0
  9 27  2  0  0  0  0
  9 32  1  0  0  0  0
 10 11  1  0  0  0  0
 10 12  1  0  0  0  0
 10 13  1  0  0  0  0
 10 37  1  0  0  0  0
 11 15  1  0  0  0  0
 11 38  1  0  0  0  0
 12 16  1  0  0  0  0
 12 39  1  0  0  0  0
 13 14  1  0  0  0  0
 13 40  1  0  0  0  0
 13 41  1  0  0  0  0
 14 42  1  0  0  0  0
 14 43  1  0  0  0  0
 15 17  2  0  0  0  0
 15 20  1  0  0  0  0
 16 18  1  0  0  0  0
 16 44  1  0  0  0  0
 16 45  1  0  0  0  0
 17 21  1  0  0  0  0
 18 23  1  0  0  0  0
 18 47  1  0  0  0  0
 18 48  1  0  0  0  0
 20 22  2  0  0  0  0
 20 49  1  0  0  0  0
 21 24  2  0  0  0  0
 21 50  1  0  0  0  0
 22 24  1  0  0  0  0
 22 25  1  0  0  0  0
 23 51  1  0  0  0  0
 23 52  1  0  0  0  0
 24 53  1  0  0  0  0
 26 28  1  0  0  0  0
 26 57  1  0  0  0  0
 26 58  1  0  0  0  0
 28 29  2  0  0  0  0
 28 59  1  0  0  0  0
 29 30  1  0  0  0  0
 29 31  1  0  0  0  0
 30 63  1  0  0  0  0
 30 64  1  0  0  0  0
 30 65  1  0  0  0  0
 31 66  1  0  0  0  0
 31 67  1  0  0  0  0
 31 68  1  0  0  0  0
 32 33  1  0  0  0  0
 32 69  1  0  0  0  0
 32 70  1  0  0  0  0
 33 34  2  0  0  0  0
 33 71  1  0  0  0  0
 34 35  1  0  0  0  0
 34 36  1  0  0  0  0
 35 72  1  0  0  0  0
 35 73  1  0  0  0  0
 35 74  1  0  0  0  0
 36 75  1  0  0  0  0
 36 76  1  0  0  0  0
 36 77  1  0  0  0  0
M  END
> <PUBCHEM_COMPOUND_CID>
10255246

> <PUBCHEM_CONFORMER_RMSD>
1.2

> <PUBCHEM_CONFORMER_DIVERSEORDER>
1
100
38
82
11
107
45
88
27
46
97
40
16
108
49
71
21
106
14
52
109
15
70
78
23
75
19
118
77
93
60
113
74
61
102
119
73
54
95
103
36
92
68
117
34
25
9
55
72
26
42
66
4
76
94
20
56
64
104
13
101
29
114
32
67
110
111
17
105
12
98
37
90
39
53
28
8
59
51
87
115
50
3
83
112
18
120
57
7
22
48
58
24
86
35
65
81
89
62
10
84
96
47
44
69
41
6
33
63
99
79
91
31
116
43
5
85
80
2
30

> <PUBCHEM_MMFF94_PARTIAL_CHARGES>
44
1 -0.65
11 0.51
12 0.37
14 0.37
15 -0.14
17 0.1
19 0.55
2 -0.57
20 -0.15
21 -0.15
22 0.09
23 0.37
24 -0.15
25 0.63
26 0.38
27 0.55
28 -0.29
29 -0.28
3 -0.79
30 0.14
31 0.14
32 0.38
33 -0.29
34 -0.28
35 0.14
36 0.14
4 -0.87
46 0.4
49 0.15
5 -0.85
50 0.15
53 0.15
54 0.4
55 0.4
56 0.4
59 0.15
6 -0.7
60 0.5
61 0.4
62 0.4
7 -0.82
71 0.15
8 -0.85
9 -0.7

> <PUBCHEM_EFFECTIVE_ROTOR_COUNT>
12

> <PUBCHEM_PHARMACOPHORE_FEATURES>
15
1 1 acceptor
1 2 acceptor
1 4 cation
1 4 donor
1 5 donor
1 7 donor
1 8 donor
3 1 2 25 anion
3 29 30 31 hydrophobe
3 34 35 36 hydrophobe
4 3 5 6 19 cation
4 7 8 9 27 cation
5 3 10 11 13 14 rings
6 15 17 20 21 22 24 rings
6 4 10 11 12 15 17 rings

> <PUBCHEM_HEAVY_ATOM_COUNT>
36

> <PUBCHEM_ATOM_DEF_STEREO_COUNT>
3

> <PUBCHEM_ATOM_UDEF_STEREO_COUNT>
0

> <PUBCHEM_BOND_DEF_STEREO_COUNT>
0

> <PUBCHEM_BOND_UDEF_STEREO_COUNT>
0

> <PUBCHEM_ISOTOPIC_ATOM_COUNT>
0

> <PUBCHEM_COMPONENT_COUNT>
1

> <PUBCHEM_CACTVS_TAUTO_COUNT>
12

> <PUBCHEM_CONFORMER_ID>
009C7B8E00000001

> <PUBCHEM_MMFF94_ENERGY>
101.183

> <PUBCHEM_FEATURE_SELFOVERLAP>
76.463

> <PUBCHEM_SHAPE_FINGERPRINT>
10079526 769 16299775645960588520
11479125 193 15841256130156089440
11578080 2 15984829293491266204
12422481 6 18409450258540583126
12717326 150 15866012617987087696
12788726 201 18051720993605789676
12839892 36 18336560351754818717
14020679 6 17845069896864537624
14790565 3 17975442370561143285
19438510 23 16701434833237653208
20771845 35 17756431460988377388
21033648 29 18060140959314653635
354706 109 18046337532017263529
4173938 306 18265318544370153757

> <PUBCHEM_SHAPE_MULTIPOLES>
694.26
15.18
5.22
3.75
0.43
4.39
2.78
-4.05
19.49
5.59
-0.66
-6.84
-1.46
-0.3

> <PUBCHEM_SHAPE_SELFOVERLAP>
1436.274

> <PUBCHEM_SHAPE_VOLUME>
396.9

> <PUBCHEM_COORDINATE_TYPE>
2
5
10

$$$$
