10252640
  -OEChem-03292013303D

 56 60  0     0  0  0  0  0  0999 V2000
    5.4286   -0.0916   -0.4100 S   0  0  0  0  0  0  0  0  0  0  0  0
    0.7965    4.3074    0.5908 O   0  0  0  0  0  0  0  0  0  0  0  0
    1.0675   -1.2927   -1.1609 O   0  0  0  0  0  0  0  0  0  0  0  0
   -1.6153    1.8002   -0.5213 N   0  0  0  0  0  0  0  0  0  0  0  0
   -4.9186   -1.3305    0.3846 N   0  0  0  0  0  0  0  0  0  0  0  0
   -2.8656   -2.2847   -0.4667 N   0  0  0  0  0  0  0  0  0  0  0  0
   -5.4503   -0.1353    0.6985 N   0  0  0  0  0  0  0  0  0  0  0  0
    0.6497    0.7401   -1.9962 N   0  0  0  0  0  0  0  0  0  0  0  0
    1.9863    0.4578   -2.2079 N   0  0  0  0  0  0  0  0  0  0  0  0
    5.0811   -1.4895    1.7366 N   0  0  0  0  0  0  0  0  0  0  0  0
   -1.5627    2.6370    0.6614 C   0  0  0  0  0  0  0  0  0  0  0  0
   -1.6019    4.1115    0.2569 C   0  0  0  0  0  0  0  0  0  0  0  0
   -0.3040    2.3264    1.4740 C   0  0  0  0  0  0  0  0  0  0  0  0
   -0.2687    4.5787   -0.3185 C   0  0  0  0  0  0  0  0  0  0  0  0
    0.9522    2.9104    0.8341 C   0  0  0  0  0  0  0  0  0  0  0  0
   -2.0191    0.4781   -0.5035 C   0  0  0  0  0  0  0  0  0  0  0  0
   -3.3068    0.0906   -0.0681 C   0  0  0  0  0  0  0  0  0  0  0  0
   -1.1776   -0.5719   -0.9185 C   0  0  0  0  0  0  0  0  0  0  0  0
   -3.6387   -1.2552   -0.0797 C   0  0  0  0  0  0  0  0  0  0  0  0
   -4.4656    0.7256    0.4213 C   0  0  0  0  0  0  0  0  0  0  0  0
   -1.6387   -1.8835   -0.8788 C   0  0  0  0  0  0  0  0  0  0  0  0
    0.1630   -0.3070   -1.3862 C   0  0  0  0  0  0  0  0  0  0  0  0
   -5.7077   -2.5273    0.5579 C   0  0  0  0  0  0  0  0  0  0  0  0
    2.1854   -0.7379   -1.7044 C   0  0  0  0  0  0  0  0  0  0  0  0
   -5.5379   -3.1326    1.9407 C   0  0  0  0  0  0  0  0  0  0  0  0
    3.4154   -1.5376   -1.6483 C   0  0  0  0  0  0  0  0  0  0  0  0
    4.2485   -1.3015   -0.3904 C   0  0  0  0  0  0  0  0  0  0  0  0
    4.1816   -1.9437    0.7920 C   0  0  0  0  0  0  0  0  0  0  0  0
    5.7906   -0.5144    1.2134 C   0  0  0  0  0  0  0  0  0  0  0  0
    3.2753   -3.0475    1.1698 C   0  0  0  0  0  0  0  0  0  0  0  0
    6.8575    0.2206    1.9271 C   0  0  0  0  0  0  0  0  0  0  0  0
   -2.4376    2.4443    1.2914 H   0  0  0  0  0  0  0  0  0  0  0  0
   -1.8136    4.7045    1.1559 H   0  0  0  0  0  0  0  0  0  0  0  0
   -2.4086    4.3034   -0.4598 H   0  0  0  0  0  0  0  0  0  0  0  0
   -0.1782    1.2501    1.6347 H   0  0  0  0  0  0  0  0  0  0  0  0
   -0.4237    2.7870    2.4634 H   0  0  0  0  0  0  0  0  0  0  0  0
   -0.0532    4.1109   -1.2858 H   0  0  0  0  0  0  0  0  0  0  0  0
   -0.2976    5.6610   -0.4809 H   0  0  0  0  0  0  0  0  0  0  0  0
    1.8022    2.7851    1.5128 H   0  0  0  0  0  0  0  0  0  0  0  0
    1.2097    2.4080   -0.1014 H   0  0  0  0  0  0  0  0  0  0  0  0
   -1.0469    2.0805   -1.3137 H   0  0  0  0  0  0  0  0  0  0  0  0
   -4.6434    1.7789    0.5844 H   0  0  0  0  0  0  0  0  0  0  0  0
   -1.0117   -2.7121   -1.2017 H   0  0  0  0  0  0  0  0  0  0  0  0
   -6.7572   -2.2675    0.3791 H   0  0  0  0  0  0  0  0  0  0  0  0
   -5.4116   -3.2455   -0.2142 H   0  0  0  0  0  0  0  0  0  0  0  0
   -4.4941   -3.4071    2.1263 H   0  0  0  0  0  0  0  0  0  0  0  0
   -6.1508   -4.0339    2.0389 H   0  0  0  0  0  0  0  0  0  0  0  0
   -5.8410   -2.4261    2.7207 H   0  0  0  0  0  0  0  0  0  0  0  0
    4.0236   -1.3276   -2.5376 H   0  0  0  0  0  0  0  0  0  0  0  0
    3.1664   -2.6045   -1.7122 H   0  0  0  0  0  0  0  0  0  0  0  0
    3.4066   -3.9037    0.5007 H   0  0  0  0  0  0  0  0  0  0  0  0
    3.4724   -3.3885    2.1913 H   0  0  0  0  0  0  0  0  0  0  0  0
    2.2308   -2.7243    1.1207 H   0  0  0  0  0  0  0  0  0  0  0  0
    6.9706   -0.1612    2.9470 H   0  0  0  0  0  0  0  0  0  0  0  0
    7.8209    0.1060    1.4198 H   0  0  0  0  0  0  0  0  0  0  0  0
    6.6217    1.2876    1.9952 H   0  0  0  0  0  0  0  0  0  0  0  0
  1 27  1  0  0  0  0
  1 29  1  0  0  0  0
  2 14  1  0  0  0  0
  2 15  1  0  0  0  0
  3 22  1  0  0  0  0
  3 24  1  0  0  0  0
  4 11  1  0  0  0  0
  4 16  1  0  0  0  0
  4 41  1  0  0  0  0
  5  7  1  0  0  0  0
  5 19  1  0  0  0  0
  5 23  1  0  0  0  0
  6 19  2  0  0  0  0
  6 21  1  0  0  0  0
  7 20  2  0  0  0  0
  8  9  1  0  0  0  0
  8 22  2  0  0  0  0
  9 24  2  0  0  0  0
 10 28  1  0  0  0  0
 10 29  2  0  0  0  0
 11 12  1  0  0  0  0
 11 13  1  0  0  0  0
 11 32  1  0  0  0  0
 12 14  1  0  0  0  0
 12 33  1  0  0  0  0
 12 34  1  0  0  0  0
 13 15  1  0  0  0  0
 13 35  1  0  0  0  0
 13 36  1  0  0  0  0
 14 37  1  0  0  0  0
 14 38  1  0  0  0  0
 15 39  1  0  0  0  0
 15 40  1  0  0  0  0
 16 17  2  0  0  0  0
 16 18  1  0  0  0  0
 17 19  1  0  0  0  0
 17 20  1  0  0  0  0
 18 21  2  0  0  0  0
 18 22  1  0  0  0  0
 20 42  1  0  0  0  0
 21 43  1  0  0  0  0
 23 25  1  0  0  0  0
 23 44  1  0  0  0  0
 23 45  1  0  0  0  0
 24 26  1  0  0  0  0
 25 46  1  0  0  0  0
 25 47  1  0  0  0  0
 25 48  1  0  0  0  0
 26 27  1  0  0  0  0
 26 49  1  0  0  0  0
 26 50  1  0  0  0  0
 27 28  2  0  0  0  0
 28 30  1  0  0  0  0
 29 31  1  0  0  0  0
 30 51  1  0  0  0  0
 30 52  1  0  0  0  0
 30 53  1  0  0  0  0
 31 54  1  0  0  0  0
 31 55  1  0  0  0  0
 31 56  1  0  0  0  0
M  END
> <PUBCHEM_COMPOUND_CID>
10252640

> <PUBCHEM_CONFORMER_RMSD>
1

> <PUBCHEM_CONFORMER_DIVERSEORDER>
2
87
53
151
165
63
88
161
164
76
115
166
129
35
105
155
44
29
124
172
27
17
184
60
182
101
159
110
102
68
175
67
85
19
135
169
42
154
160
49
5
145
156
12
79
111
170
18
15
113
23
153
80
54
185
126
137
39
93
82
177
120
104
83
127
99
64
92
186
188
14
38
134
20
32
152
26
116
28
71
7
173
84
157
73
187
8
55
65
62
4
98
171
141
33
96
148
34
125
149
78
139
179
122
142
91
30
174
36
45
58
50
119
167
131
25
11
132
86
140
112
123
22
3
130
94
41
180
6
158
143
103
59
163
56
168
138
77
24
144
118
72
150
107
47
75
136
70
95
9
109
51
133
108
66
128
40
97
121
52
74
57
21
176
81
178
147
1
10
37
181
90
146
69
114
13
43
162
183
48
89
106
16
61
117
46
100
31

> <PUBCHEM_MMFF94_PARTIAL_CHARGES>
30
1 -0.08
10 -0.57
11 0.37
14 0.28
15 0.28
16 0.1
18 0.05
19 0.11
2 -0.56
20 0.14
21 0.16
22 0.43
23 0.26
24 0.3
26 0.36
27 -0.14
28 0.05
29 0.2
3 -0.28
30 0.18
31 0.18
4 -0.87
41 0.4
42 0.15
43 0.15
5 0.31
6 -0.57
7 -0.71
8 -0.34
9 -0.34

> <PUBCHEM_EFFECTIVE_ROTOR_COUNT>
7.2

> <PUBCHEM_PHARMACOPHORE_FEATURES>
11
1 10 acceptor
1 2 acceptor
1 4 cation
1 4 donor
1 7 acceptor
3 5 6 19 cation
5 1 10 27 28 29 rings
5 3 8 9 22 24 rings
5 5 7 17 19 20 rings
6 2 11 12 13 14 15 rings
6 6 16 17 18 19 21 rings

> <PUBCHEM_HEAVY_ATOM_COUNT>
31

> <PUBCHEM_ATOM_DEF_STEREO_COUNT>
0

> <PUBCHEM_ATOM_UDEF_STEREO_COUNT>
0

> <PUBCHEM_BOND_DEF_STEREO_COUNT>
0

> <PUBCHEM_BOND_UDEF_STEREO_COUNT>
0

> <PUBCHEM_ISOTOPIC_ATOM_COUNT>
0

> <PUBCHEM_COMPONENT_COUNT>
1

> <PUBCHEM_CACTVS_TAUTO_COUNT>
6

> <PUBCHEM_CONFORMER_ID>
009C716000000002

> <PUBCHEM_MMFF94_ENERGY>
56.9145

> <PUBCHEM_FEATURE_SELFOVERLAP>
55.934

> <PUBCHEM_SHAPE_FINGERPRINT>
10074138 170 18124324809401244633
10256941 240 17397260538963587396
10290309 65 18130505211358024606
10930396 42 18198032881407031608
11456790 92 18261406538132769233
11578080 2 18041826416033537101
11595378 159 18340483345034335686
11963148 33 17189252137882662183
12035758 1 18198919024215158057
12342043 65 17343530837192292054
12422481 6 17846778516005376216
12596602 18 18259984851817149202
12788726 201 18264790803724454486
12892183 10 18267013973840246854
13726171 33 17988082176283565648
14178342 30 18120661227724681974
14840074 17 14117799119769841675
14950920 106 17973704910641032410
15131766 46 15769191909104870890
15163728 17 10159714486134467955
15324884 4 17129330588155972037
15475509 35 17898303946471985363
15927050 60 17548983711953085276
17980427 23 16845004727732940189
19315092 285 17531228553648844976
20642791 105 18189337862494350133
20775438 99 11604830213105352875
21033648 29 17131287783256998267
23366157 5 17977107078589506045
23559900 14 18056776329406877222
24771293 8 17846217727169512849
3187 122 18341887451205560304
392239 28 18411691106857499042
4058900 60 17543366298009255741
469060 322 18269011820141573033
50009960 94 18047461511847410731
5104073 3 18197238030028920003
5252454 2 16128072500591048902
57527293 21 17274814727794794350
57527585 21 15983400851666882864
58260988 393 18410005504108458096
6004065 56 18130777980741416271
613672 6 18342460318359495727
9981440 41 17255689594966494473

> <PUBCHEM_SHAPE_MULTIPOLES>
595.21
13.49
4.87
1.83
6.52
5.99
-0.13
-11.83
7.88
-3.24
1.66
1.69
-0.59
0.78

> <PUBCHEM_SHAPE_SELFOVERLAP>
1284.098

> <PUBCHEM_SHAPE_VOLUME>
333.9

> <PUBCHEM_COORDINATE_TYPE>
2
5
10

$$$$
