REMARK  Name = 102572963
REMARK  3 active torsions:
REMARK  status: ('A' for Active; 'I' for Inactive)
REMARK    1  A    between atoms: C_8  and  O_23
REMARK    2  A    between atoms: C_12  and  O_25
REMARK    3  A    between atoms: C_19  and  O_27
REMARK                            x       y       z     vdW  Elec       q    Type
REMARK                         _______ _______ _______ _____ _____    ______ ____
ROOT
ATOM      1  O   UNL     1      -2.668  -0.917  -1.599  0.00  0.00    -0.450 OA
ATOM      2  O   UNL     1      -1.200   3.074  -0.165  0.00  0.00    -0.296 OA
ATOM      3  O   UNL     1      -2.675   1.296  -2.245  0.00  0.00    -0.250 OA
ATOM      4  C   UNL     1      -0.324  -0.374   0.045  0.00  0.00    +0.040 C 
ATOM      5  C   UNL     1      -1.190   0.793   0.663  0.00  0.00    +0.064 C 
ATOM      6  C   UNL     1       1.223  -0.335   0.386  0.00  0.00    +0.034 C 
ATOM      7  C   UNL     1      -2.660   0.682   0.127  0.00  0.00    +0.109 C 
ATOM      8  C   UNL     1      -1.082  -1.739   0.045  0.00  0.00    +0.151 C 
ATOM      9  C   UNL     1       1.739   1.060  -0.160  0.00  0.00    +0.028 C 
ATOM     10  C   UNL     1      -3.309  -0.621   0.599  0.00  0.00    +0.054 C 
ATOM     11  C   UNL     1      -2.579  -1.582  -0.324  0.00  0.00    +0.196 C 
ATOM     12  C   UNL     1       2.010  -1.431  -0.414  0.00  0.00    +0.142 C 
ATOM     13  C   UNL     1      -0.539   2.116   0.237  0.00  0.00    +0.151 C 
ATOM     14  C   UNL     1       0.965   2.248   0.438  0.00  0.00    +0.069 C 
ATOM     15  C   UNL     1      -1.267   0.829   2.207  0.00  0.00    +0.008 C 
ATOM     16  C   UNL     1       1.525  -0.515   1.893  0.00  0.00    +0.003 C 
ATOM     17  C   UNL     1      -2.682   0.443  -1.374  0.00  0.00    +0.317 C 
ATOM     18  C   UNL     1       3.255   1.200  -0.114  0.00  0.00    -0.046 C 
ATOM     19  C   UNL     1       3.541  -1.291  -0.305  0.00  0.00    +0.159 C 
ATOM     20  C   UNL     1      -4.827  -0.632   0.392  0.00  0.00    +0.004 C 
ATOM     21  C   UNL     1       4.045   0.116  -0.198  0.00  0.00    -0.003 C 
ATOM     22  C   UNL     1       3.864   2.573  -0.058  0.00  0.00    +0.026 C 
ENDROOT
BRANCH   8  23
ATOM     23  O   UNL     1      -0.981  -2.380   1.308  0.00  0.00    -0.381 OA
ATOM     24  H   UNL     1      -0.046  -2.481   1.545  0.00  0.00    +0.210 HD
ENDBRANCH   8  23
BRANCH  12  25
ATOM     25  O   UNL     1       1.676  -2.733   0.074  0.00  0.00    -0.382 OA
ATOM     26  H   UNL     1       0.716  -2.862   0.023  0.00  0.00    +0.210 HD
ENDBRANCH  12  25
BRANCH  19  27
ATOM     27  O   UNL     1       4.141  -1.880  -1.460  0.00  0.00    -0.378 OA
ATOM     28  H   UNL     1       3.832  -2.795  -1.555  0.00  0.00    +0.211 HD
ENDBRANCH  19  27
TORSDOF 3
