REMARK  Name = 102571616
REMARK  7 active torsions:
REMARK  status: ('A' for Active; 'I' for Inactive)
REMARK    1  A    between atoms: C_10  and  N_14
REMARK    2  A    between atoms: C_11  and  C_18
REMARK    3  A    between atoms: C_18  and  C_19
REMARK    4  A    between atoms: C_19  and  CA_20
REMARK    5  A    between atoms: CA_20  and  N_22
REMARK    6  A    between atoms: CA_20  and  C_26
REMARK    7  A    between atoms: C_26  and  O_27
REMARK                            x       y       z     vdW  Elec       q    Type
REMARK                         _______ _______ _______ _____ _____    ______ ____
ROOT
ATOM      1  O   UNL     1      -3.062  -0.252  -1.416  0.00  0.00    -0.482 OA
ATOM      2  O   UNL     1      -2.320   1.000   2.427  0.00  0.00    -0.291 OA
ATOM      3  C   UNL     1      -3.853  -0.767  -0.330  0.00  0.00    +0.141 C 
ATOM      4  C   UNL     1      -3.936   0.226   0.834  0.00  0.00    +0.109 C 
ATOM      5  C   UNL     1      -1.541   0.738   0.217  0.00  0.00    +0.082 C 
ATOM      6  C   UNL     1      -2.565   0.663   1.275  0.00  0.00    +0.181 C 
ATOM      7  C   UNL     1      -1.858   0.297  -1.069  0.00  0.00    +0.142 C 
ATOM      8  C   UNL     1      -5.263  -0.969  -0.906  0.00  0.00    +0.044 C 
ATOM      9  C   UNL     1      -3.309  -2.138   0.106  0.00  0.00    +0.044 C 
ATOM     10  C   UNL     1      -0.280   1.274   0.491  0.00  0.00    +0.050 C 
ATOM     11  C   UNL     1       0.661   1.382  -0.533  0.00  0.00    +0.048 C 
ATOM     12  C   UNL     1      -0.917   0.423  -2.093  0.00  0.00    +0.037 C 
ATOM     13  C   UNL     1       0.342   0.961  -1.824  0.00  0.00    +0.007 C 
ENDROOT
BRANCH  10  14
ATOM     14  N   UNL     1       0.082   1.725   1.783  0.00  0.00    -0.357 N 
ATOM     15  H   UNL     1      -0.562   1.661   2.525  0.00  0.00    +0.142 HD
ATOM     16  H   UNL     1       0.978   2.102   1.939  0.00  0.00    +0.142 HD
ENDBRANCH  10  14
BRANCH  11  18
ATOM     17  O   UNL     1       2.122   3.103   0.117  0.00  0.00    -0.291 OA
ATOM     18  C   UNL     1       1.989   1.936  -0.297  0.00  0.00    +0.176 C 
BRANCH  18  19
ATOM     19  C   UNL     1       3.238   1.074  -0.572  0.00  0.00    +0.091 C 
BRANCH  19  20
ATOM     20  CA  UNL     1       3.333  -0.194   0.291  0.00  0.00    +0.108 C 
BRANCH  20  22
ATOM     21  O   UNL     1       1.977  -2.243   1.836  0.00  0.00    -0.275 OA
ATOM     22  N   UNL     1       2.429  -1.211  -0.201  0.00  0.00    -0.303 N 
ATOM     23  C   UNL     1       1.829  -2.149   0.620  0.00  0.00    +0.223 C 
ATOM     24  C   UNL     1       0.917  -3.072  -0.143  0.00  0.00    +0.095 C 
ATOM     25  H   UNL     1       2.231  -1.237  -1.165  0.00  0.00    +0.149 HD
ENDBRANCH  20  22
BRANCH  20  26
ATOM     26  C   UNL     1       4.761  -0.743   0.346  0.00  0.00    +0.157 C 
BRANCH  26  27
ATOM     27  O   UNL     1       5.224  -1.064  -0.960  0.00  0.00    -0.380 OA
ATOM     28  H   UNL     1       6.129  -1.409  -0.905  0.00  0.00    +0.211 HD
ENDBRANCH  26  27
ENDBRANCH  20  26
ENDBRANCH  19  20
ENDBRANCH  18  19
ENDBRANCH  11  18
TORSDOF 7
