REMARK  Name = 102596857
REMARK  6 active torsions:
REMARK  status: ('A' for Active; 'I' for Inactive)
REMARK    1  A    between atoms: N_1  and  C_15
REMARK    2  A    between atoms: N_1  and  C_18
REMARK    3  A    between atoms: C_18  and  N_19
REMARK    4  A    between atoms: N_19  and  C_21
REMARK    5  A    between atoms: C_26  and  N_28
REMARK    6  A    between atoms: N_28  and  O_29
REMARK                            x       y       z     vdW  Elec       q    Type
REMARK                         _______ _______ _______ _____ _____    ______ ____
ROOT
ATOM      1  N   UNL     1       0.633  -0.498   0.286  0.00  0.00    -0.296 N 
ATOM      2  H   UNL     1       1.379   0.135   0.176  0.00  0.00    +0.154 HD
ENDROOT
BRANCH   1  15
ATOM      3  S   UNL     1      -4.713   2.174   0.510  0.00  0.00    -0.116 S 
ATOM      4  C   UNL     1      -4.148  -0.704  -0.989  0.00  0.00    +0.020 C 
ATOM      5  C   UNL     1      -5.508   0.051  -1.005  0.00  0.00    +0.014 C 
ATOM      6  C   UNL     1      -5.924   0.831   0.251  0.00  0.00    +0.044 C 
ATOM      7  C   UNL     1      -3.010   0.047  -0.287  0.00  0.00    -0.016 C 
ATOM      8  C   UNL     1      -3.772  -0.923  -2.482  0.00  0.00    +0.004 C 
ATOM      9  C   UNL     1      -4.334  -2.107  -0.361  0.00  0.00    +0.004 C 
ATOM     10  C   UNL     1      -3.170   1.284   0.367  0.00  0.00    +0.021 C 
ATOM     11  C   UNL     1      -6.041  -0.011   1.526  0.00  0.00    +0.011 C 
ATOM     12  C   UNL     1      -7.286   1.502  -0.011  0.00  0.00    +0.011 C 
ATOM     13  C   UNL     1      -1.716  -0.526  -0.287  0.00  0.00    +0.011 C 
ATOM     14  C   UNL     1      -2.060   1.915   0.963  0.00  0.00    +0.007 C 
ATOM     15  C   UNL     1      -0.626   0.103   0.315  0.00  0.00    +0.049 C 
ATOM     16  C   UNL     1      -0.797   1.328   0.938  0.00  0.00    +0.015 C 
ENDBRANCH   1  15
BRANCH   1  18
ATOM     17  S   UNL     1       0.020  -3.144   0.719  0.00  0.00    -0.018 S 
ATOM     18  C   UNL     1       1.028  -1.835   0.385  0.00  0.00    +0.139 C 
BRANCH  18  19
ATOM     19  N   UNL     1       2.388  -2.099   0.318  0.00  0.00    -0.296 N 
ATOM     20  H   UNL     1       2.621  -3.052   0.392  0.00  0.00    +0.154 HD
BRANCH  19  21
ATOM     21  C   UNL     1       3.500  -1.234   0.162  0.00  0.00    +0.050 C 
ATOM     22  C   UNL     1       4.513  -1.221   1.121  0.00  0.00    +0.016 C 
ATOM     23  C   UNL     1       3.583  -0.398  -0.951  0.00  0.00    +0.016 C 
ATOM     24  C   UNL     1       5.608  -0.370   0.968  0.00  0.00    +0.023 C 
ATOM     25  C   UNL     1       4.678   0.452  -1.105  0.00  0.00    +0.023 C 
ATOM     26  C   UNL     1       5.690   0.466  -0.146  0.00  0.00    +0.115 C 
BRANCH  26  28
ATOM     27  O   UNL     1       7.772   1.394   0.544  0.00  0.00    -0.057 OA
ATOM     28  N   UNL     1       6.807   1.333  -0.302  0.00  0.00    -0.092 N 
BRANCH  28  29
ATOM     29  O   UNL     1       6.887   2.191  -1.447  0.00  0.00    -0.260 OA
ATOM     30  H   UNL     1       7.622   2.764  -1.553  0.00  0.00    +0.247 HD
ENDBRANCH  28  29
ENDBRANCH  26  28
ENDBRANCH  19  21
ENDBRANCH  18  19
ENDBRANCH   1  18
TORSDOF 6
