REMARK  Name = 102569
REMARK  8 active torsions:
REMARK  status: ('A' for Active; 'I' for Inactive)
REMARK    1  A    between atoms: C_1  and  N_4
REMARK    2  A    between atoms: C_1  and  C_16
REMARK    3  A    between atoms: C_5  and  O_7
REMARK    4  A    between atoms: O_7  and  C_8
REMARK    5  A    between atoms: C_8  and  C_9
REMARK    6  A    between atoms: C_16  and  O_17
REMARK    7  A    between atoms: O_17  and  C_18
REMARK    8  A    between atoms: C_21  and  N_26
REMARK                            x       y       z     vdW  Elec       q    Type
REMARK                         _______ _______ _______ _____ _____    ______ ____
ROOT
ATOM      1  C   UNL     1       0.026  -2.682   0.013  0.00  0.00    +0.174 C 
ATOM      2  C   UNL     1       0.116  -3.682   1.156  0.00  0.00    +0.033 C 
ENDROOT
BRANCH   1   4
ATOM      3  O   UNL     1       2.715  -2.759  -1.082  0.00  0.00    -0.226 OA
ATOM      4  N   UNL     1       1.058  -1.685   0.138  0.00  0.00    -0.262 N 
ATOM      5  C   UNL     1       2.317  -1.806  -0.420  0.00  0.00    +0.402 C 
ATOM      6  H   UNL     1       0.855  -0.870   0.651  0.00  0.00    +0.153 HD
BRANCH   5   7
ATOM      7  O   UNL     1       3.063  -0.700  -0.125  0.00  0.00    -0.430 OA
BRANCH   7   8
ATOM      8  C   UNL     1       4.397  -0.691  -0.644  0.00  0.00    +0.237 C 
BRANCH   8   9
ATOM      9  C   UNL     1       5.074   0.584  -0.232  0.00  0.00    +0.021 C 
ATOM     10  C   UNL     1       4.988   1.704  -1.051  0.00  0.00    -0.001 C 
ATOM     11  C   UNL     1       5.780   0.633   0.965  0.00  0.00    -0.001 C 
ATOM     12  C   UNL     1       5.617   2.889  -0.668  0.00  0.00    -0.000 C 
ATOM     13  C   UNL     1       6.408   1.818   1.347  0.00  0.00    -0.000 C 
ATOM     14  C   UNL     1       6.327   2.946   0.531  0.00  0.00    -0.000 C 
ENDBRANCH   8   9
ENDBRANCH   7   8
ENDBRANCH   5   7
ENDBRANCH   1   4
BRANCH   1  16
ATOM     15  O   UNL     1      -2.382  -2.724  -0.207  0.00  0.00    -0.248 OA
ATOM     16  C   UNL     1      -1.363  -2.061  -0.036  0.00  0.00    +0.340 C 
BRANCH  16  17
ATOM     17  O   UNL     1      -1.310  -0.682   0.127  0.00  0.00    -0.423 OA
BRANCH  17  18
ATOM     18  C   UNL     1      -2.567  -0.073   0.088  0.00  0.00    +0.149 C 
ATOM     19  C   UNL     1      -3.265   0.078   1.266  0.00  0.00    +0.039 C 
ATOM     20  C   UNL     1      -3.059   0.353  -1.126  0.00  0.00    +0.039 C 
ATOM     21  C   UNL     1      -5.044   1.127   0.013  0.00  0.00    +0.143 C 
ATOM     22  C   UNL     1      -4.520   0.685   1.228  0.00  0.00    +0.027 C 
ATOM     23  C   UNL     1      -4.314   0.961  -1.164  0.00  0.00    +0.027 C 
BRANCH  21  26
ATOM     24  O   UNL     1      -6.964   1.885   1.041  0.00  0.00    -0.126 OA
ATOM     25  O   UNL     1      -6.774   2.135  -1.131  0.00  0.00    -0.126 OA
ATOM     26  N   UNL     1      -6.322   1.745  -0.028  0.00  0.00    +0.058 N 
ENDBRANCH  21  26
ENDBRANCH  17  18
ENDBRANCH  16  17
ENDBRANCH   1  16
TORSDOF 8
