REMARK  Name = 10254661
REMARK  14 active torsions:
REMARK  status: ('A' for Active; 'I' for Inactive)
REMARK    1  A    between atoms: C_1  and  C_4
REMARK    2  A    between atoms: C_1  and  N_12
REMARK    3  A    between atoms: C_1  and  C_27
REMARK    4  A    between atoms: N_3  and  C_6
REMARK    5  A    between atoms: C_6  and  C_7
REMARK    6  A    between atoms: C_7  and  C_9
REMARK    7  A    between atoms: C_9  and  O_10
REMARK    8  A    between atoms: N_12  and  C_15
REMARK    9  A    between atoms: C_15  and  P_16
REMARK   10  A    between atoms: P_16  and  O_18
REMARK   11  A    between atoms: P_16  and  O_20
REMARK   12  A    between atoms: O_20  and  C_21
REMARK   13  A    between atoms: C_27  and  C_28
REMARK   14  A    between atoms: C_31  and  C_34
REMARK                            x       y       z     vdW  Elec       q    Type
REMARK                         _______ _______ _______ _____ _____    ______ ____
ROOT
ATOM      1  C   UNL     1       0.666   0.378   0.228  0.00  0.00    +0.022 C 
ENDROOT
BRANCH   1   4
ATOM      2  O   UNL     1       1.200  -1.372  -1.361  0.00  0.00    -0.277 OA
ATOM      3  N   UNL     1       0.129  -1.955   0.612  0.00  0.00    -0.305 N 
ATOM      4  C   UNL     1       0.713  -1.062  -0.275  0.00  0.00    +0.203 C 
ATOM      5  H   UNL     1      -0.236  -1.614   1.460  0.00  0.00    +0.149 HD
BRANCH   3   6
ATOM      6  C   UNL     1       0.038  -3.367   0.330  0.00  0.00    +0.101 C 
BRANCH   6   7
ATOM      7  C   UNL     1      -1.249  -3.724  -0.401  0.00  0.00    +0.131 C 
BRANCH   7   9
ATOM      8  O   UNL     1      -2.511  -2.852   1.493  0.00  0.00    -0.250 OA
ATOM      9  C   UNL     1      -2.493  -3.350   0.376  0.00  0.00    +0.316 C 
BRANCH   9  10
ATOM     10  O   UNL     1      -3.620  -3.632  -0.328  0.00  0.00    -0.480 OA
ATOM     11  H   UNL     1      -3.556  -4.014  -1.182  0.00  0.00    +0.295 HD
ENDBRANCH   9  10
ENDBRANCH   7   9
ENDBRANCH   6   7
ENDBRANCH   3   6
ENDBRANCH   1   4
BRANCH   1  12
ATOM     12  N   UNL     1       2.054   0.821   0.367  0.00  0.00    +0.400 N 
ATOM     13  H   UNL     1       2.081   1.840   0.380  0.00  0.00    -0.083 HD
ATOM     14  H   UNL     1       2.595   0.464  -0.421  0.00  0.00    -0.083 HD
BRANCH  12  15
ATOM     15  C   UNL     1       2.630   0.312   1.599  0.00  0.00    +0.052 C 
BRANCH  15  16
ATOM     16  P   UNL     1       4.310   0.909   1.490  0.00  0.00    +0.367 P 
ATOM     17  O   UNL     1       4.431   2.404   1.409  0.00  0.00    -0.246 OA
BRANCH  16  18
ATOM     18  O   UNL     1       5.040   0.219   2.758  0.00  0.00    -0.316 OA
ATOM     19  H   UNL     1       5.972   0.490   2.782  0.00  0.00    +0.221 HD
ENDBRANCH  16  18
BRANCH  16  20
ATOM     20  O   UNL     1       4.879   0.093   0.219  0.00  0.00    -0.423 OA
BRANCH  20  21
ATOM     21  C   UNL     1       6.147   0.196  -0.285  0.00  0.00    +0.147 C 
ATOM     22  C   UNL     1       7.065   1.062   0.308  0.00  0.00    +0.037 C 
ATOM     23  C   UNL     1       6.521  -0.565  -1.393  0.00  0.00    +0.037 C 
ATOM     24  C   UNL     1       8.358   1.167  -0.206  0.00  0.00    +0.003 C 
ATOM     25  C   UNL     1       7.813  -0.460  -1.907  0.00  0.00    +0.003 C 
ATOM     26  C   UNL     1       8.731   0.406  -1.314  0.00  0.00    +0.000 C 
ENDBRANCH  20  21
ENDBRANCH  16  20
ENDBRANCH  15  16
ENDBRANCH  12  15
ENDBRANCH   1  12
BRANCH   1  27
ATOM     27  C   UNL     1      -0.072   1.280  -0.772  0.00  0.00    +0.014 C 
BRANCH  27  28
ATOM     28  C   UNL     1      -1.574   1.223  -0.614  0.00  0.00    -0.024 C 
ATOM     29  C   UNL     1      -2.316   0.283  -1.329  0.00  0.00    -0.004 C 
ATOM     30  C   UNL     1      -2.218   2.111   0.248  0.00  0.00    -0.004 C 
ATOM     31  C   UNL     1      -4.346   1.118  -0.321  0.00  0.00    -0.000 C 
ATOM     32  C   UNL     1      -3.702   0.231  -1.183  0.00  0.00    -0.000 C 
ATOM     33  C   UNL     1      -3.604   2.058   0.395  0.00  0.00    -0.000 C 
BRANCH  31  34
ATOM     34  C   UNL     1      -5.784   1.064  -0.169  0.00  0.00    -0.000 C 
ATOM     35  C   UNL     1      -6.602   1.826  -1.003  0.00  0.00    -0.000 C 
ATOM     36  C   UNL     1      -6.351   0.249   0.810  0.00  0.00    -0.000 C 
ATOM     37  C   UNL     1      -7.988   1.773  -0.857  0.00  0.00    +0.000 C 
ATOM     38  C   UNL     1      -7.738   0.196   0.956  0.00  0.00    +0.000 C 
ATOM     39  C   UNL     1      -8.556   0.958   0.122  0.00  0.00    +0.000 C 
ENDBRANCH  31  34
ENDBRANCH  27  28
ENDBRANCH   1  27
TORSDOF 14
