10266141
  -OEChem-03292013303D

 38 37  0     0  0  0  0  0  0999 V2000
    4.0692    2.8677    1.1251 S   0  0  0  0  0  0  0  0  0  0  0  0
   -4.0752    2.8618   -1.1253 S   0  0  0  0  0  0  0  0  0  0  0  0
    2.6963   -0.4870   -1.6286 O   0  0  0  0  0  0  0  0  0  0  0  0
   -2.6952   -0.4898    1.6286 O   0  0  0  0  0  0  0  0  0  0  0  0
    2.3541   -1.8328    0.2342 N   0  0  0  0  0  0  0  0  0  0  0  0
   -2.3502   -1.8351   -0.2340 N   0  0  0  0  0  0  0  0  0  0  0  0
    0.3843   -3.0053   -0.6652 C   0  0  0  0  0  0  0  0  0  0  0  0
   -0.3781   -3.0033    0.6653 C   0  0  0  0  0  0  0  0  0  0  0  0
    1.8976   -2.9982   -0.4713 C   0  0  0  0  0  0  0  0  0  0  0  0
   -1.8912   -2.9994    0.4716 C   0  0  0  0  0  0  0  0  0  0  0  0
    2.7195   -0.6603   -0.4143 C   0  0  0  0  0  0  0  0  0  0  0  0
   -2.7181   -0.6632    0.4144 C   0  0  0  0  0  0  0  0  0  0  0  0
    3.1589    0.3961    0.5397 C   0  0  0  0  0  0  0  0  0  0  0  0
   -3.1598    0.3922   -0.5397 C   0  0  0  0  0  0  0  0  0  0  0  0
    3.5462    1.5924    0.0788 C   0  0  0  0  0  0  0  0  0  0  0  0
   -3.5495    1.5876   -0.0790 C   0  0  0  0  0  0  0  0  0  0  0  0
    4.4287    4.1416   -0.1027 C   0  0  0  0  0  0  0  0  0  0  0  0
   -4.4373    4.1350    0.1024 C   0  0  0  0  0  0  0  0  0  0  0  0
    0.1042   -3.8939   -1.2434 H   0  0  0  0  0  0  0  0  0  0  0  0
    0.0985   -2.1303   -1.2610 H   0  0  0  0  0  0  0  0  0  0  0  0
   -0.0936   -2.1257    1.2581 H   0  0  0  0  0  0  0  0  0  0  0  0
   -0.0965   -3.8894    1.2467 H   0  0  0  0  0  0  0  0  0  0  0  0
    2.3933   -3.0456   -1.4471 H   0  0  0  0  0  0  0  0  0  0  0  0
    2.2120   -3.8738    0.1065 H   0  0  0  0  0  0  0  0  0  0  0  0
   -2.3867   -3.0474    1.4474 H   0  0  0  0  0  0  0  0  0  0  0  0
   -2.2041   -3.8759   -0.1059 H   0  0  0  0  0  0  0  0  0  0  0  0
    2.4041   -1.8859    1.2476 H   0  0  0  0  0  0  0  0  0  0  0  0
   -2.4001   -1.8885   -1.2473 H   0  0  0  0  0  0  0  0  0  0  0  0
    3.1540    0.1675    1.6009 H   0  0  0  0  0  0  0  0  0  0  0  0
   -3.1543    0.1635   -1.6008 H   0  0  0  0  0  0  0  0  0  0  0  0
    3.5415    1.7961   -0.9873 H   0  0  0  0  0  0  0  0  0  0  0  0
   -3.5454    1.7914    0.9871 H   0  0  0  0  0  0  0  0  0  0  0  0
    5.2085    3.8037   -0.7911 H   0  0  0  0  0  0  0  0  0  0  0  0
    3.5288    4.3937   -0.6708 H   0  0  0  0  0  0  0  0  0  0  0  0
    4.7817    5.0431    0.4052 H   0  0  0  0  0  0  0  0  0  0  0  0
   -5.2163    3.7955    0.7908 H   0  0  0  0  0  0  0  0  0  0  0  0
   -3.5379    4.3892    0.6703 H   0  0  0  0  0  0  0  0  0  0  0  0
   -4.7924    5.0356   -0.4056 H   0  0  0  0  0  0  0  0  0  0  0  0
  1 15  1  0  0  0  0
  1 17  1  0  0  0  0
  2 16  1  0  0  0  0
  2 18  1  0  0  0  0
  3 11  2  0  0  0  0
  4 12  2  0  0  0  0
  5  9  1  0  0  0  0
  5 11  1  0  0  0  0
  5 27  1  0  0  0  0
  6 10  1  0  0  0  0
  6 12  1  0  0  0  0
  6 28  1  0  0  0  0
  7  8  1  0  0  0  0
  7  9  1  0  0  0  0
  7 19  1  0  0  0  0
  7 20  1  0  0  0  0
  8 10  1  0  0  0  0
  8 21  1  0  0  0  0
  8 22  1  0  0  0  0
  9 23  1  0  0  0  0
  9 24  1  0  0  0  0
 10 25  1  0  0  0  0
 10 26  1  0  0  0  0
 11 13  1  0  0  0  0
 12 14  1  0  0  0  0
 13 15  2  0  0  0  0
 13 29  1  0  0  0  0
 14 16  2  0  0  0  0
 14 30  1  0  0  0  0
 15 31  1  0  0  0  0
 16 32  1  0  0  0  0
 17 33  1  0  0  0  0
 17 34  1  0  0  0  0
 17 35  1  0  0  0  0
 18 36  1  0  0  0  0
 18 37  1  0  0  0  0
 18 38  1  0  0  0  0
M  END
> <PUBCHEM_COMPOUND_CID>
10266141

> <PUBCHEM_CONFORMER_RMSD>
1

> <PUBCHEM_CONFORMER_DIVERSEORDER>
1
11
63
13
30
17
28
64
5
12
10
38
55
67
50
34
22
19
58
69
68
41
14
72
61
43
16
70
51
35
15
53
42
37
2
24
25
74
60
9
54
48
36
39
65
62
75
71
20
32
4
23
44
73
76
26
40
57
29
49
6
21
33
31
59
66
56
27
45
47
7
8
52
46
18
3

> <PUBCHEM_MMFF94_PARTIAL_CHARGES>
22
1 -0.33
10 0.3
11 0.62
12 0.62
13 -0.14
14 -0.14
15 -0.05
16 -0.05
17 0.23
18 0.23
2 -0.33
27 0.37
28 0.37
29 0.15
3 -0.57
30 0.15
31 0.15
32 0.15
4 -0.57
5 -0.73
6 -0.73
9 0.3

> <PUBCHEM_EFFECTIVE_ROTOR_COUNT>
11

> <PUBCHEM_PHARMACOPHORE_FEATURES>
6
1 17 hydrophobe
1 18 hydrophobe
1 3 acceptor
1 4 acceptor
1 5 donor
1 6 donor

> <PUBCHEM_HEAVY_ATOM_COUNT>
18

> <PUBCHEM_ATOM_DEF_STEREO_COUNT>
0

> <PUBCHEM_ATOM_UDEF_STEREO_COUNT>
0

> <PUBCHEM_BOND_DEF_STEREO_COUNT>
2

> <PUBCHEM_BOND_UDEF_STEREO_COUNT>
0

> <PUBCHEM_ISOTOPIC_ATOM_COUNT>
0

> <PUBCHEM_COMPONENT_COUNT>
1

> <PUBCHEM_CACTVS_TAUTO_COUNT>
3

> <PUBCHEM_CONFORMER_ID>
009CA61D00000001

> <PUBCHEM_MMFF94_ENERGY>
13.8469

> <PUBCHEM_FEATURE_SELFOVERLAP>
30.446

> <PUBCHEM_SHAPE_FINGERPRINT>
10670039 82 17905338669184820540
12100795 323 18334286578556521148
12596602 18 16665405134233073386
14251764 38 18410844465011897026
14251764 75 18341338816373147977
14468879 13 18333171669844898865
14957384 54 18336251406235932634
15322535 138 18337944688154747168
155225 5 18050567649344156744
1768 85 18194975050173146641
20398071 114 18411974797357183505
20621476 13 18267582407781128681
21049683 118 17096931244829389201
21344244 78 16529179547730342011
21388113 180 18410011014093225081
21734292 116 17185594062359187608
21860390 5 17840866274357677303
23503958 25 18262537960096611395
43658 37 18265045839388886439
5047190 92 18411982456059864977
5312510 48 17906165149731377725
54672768 99 18411133606811641072

> <PUBCHEM_SHAPE_MULTIPOLES>
356.43
10.13
6.45
1.13
0.05
2.94
0
14.56
0
-0.02
0
0
0.04
1.89

> <PUBCHEM_SHAPE_SELFOVERLAP>
651.315

> <PUBCHEM_SHAPE_VOLUME>
227.5

> <PUBCHEM_COORDINATE_TYPE>
2
5
10

$$$$
