102602220
  -OEChem-03292013293D

 40 40  0     1  0  0  0  0  0999 V2000
    1.8051   -2.8461    0.4192 O   0  0  0  0  0  0  0  0  0  0  0  0
   -2.3868   -1.6839   -1.3161 O   0  0  0  0  0  0  0  0  0  0  0  0
    5.0580    2.3176   -0.5998 O   0  5  0  0  0  0  0  0  0  0  0  0
    3.1134    3.3448   -0.7329 O   0  0  0  0  0  0  0  0  0  0  0  0
   -0.9394    0.1230   -1.1634 N   0  0  0  0  0  0  0  0  0  0  0  0
    3.8717    2.4770   -0.2731 N   0  3  0  0  0  0  0  0  0  0  0  0
    0.8640   -2.4351   -0.5321 N   0  0  0  0  0  0  0  0  0  0  0  0
   -5.5240    0.5917    0.2700 N   0  0  0  0  0  0  0  0  0  0  0  0
    3.3083    1.5464    0.7282 C   0  0  2  0  0  0  0  0  0  0  0  0
    0.1516   -0.4677   -1.8825 C   0  0  0  0  0  0  0  0  0  0  0  0
    1.0326   -1.1870   -0.8737 C   0  0  0  0  0  0  0  0  0  0  0  0
    2.1642    0.8613    0.0446 C   0  0  0  0  0  0  0  0  0  0  0  0
    2.1559   -0.4542   -0.2117 C   0  0  0  0  0  0  0  0  0  0  0  0
    2.8801    2.3654    1.9334 C   0  0  0  0  0  0  0  0  0  0  0  0
   -2.1400   -0.5430   -0.9342 C   0  0  0  0  0  0  0  0  0  0  0  0
   -3.1814    0.2164   -0.1955 C   0  0  0  0  0  0  0  0  0  0  0  0
   -2.8351    1.2264    0.6953 C   0  0  0  0  0  0  0  0  0  0  0  0
   -4.5278   -0.0599   -0.3710 C   0  0  0  0  0  0  0  0  0  0  0  0
    1.5511   -4.2069    0.7325 C   0  0  0  0  0  0  0  0  0  0  0  0
   -3.8316    1.9193    1.3736 C   0  0  0  0  0  0  0  0  0  0  0  0
   -5.1488    1.5669    1.1278 C   0  0  0  0  0  0  0  0  0  0  0  0
    2.5591   -4.6724    1.7615 C   0  0  0  0  0  0  0  0  0  0  0  0
    4.1019    0.8461    1.0130 H   0  0  0  0  0  0  0  0  0  0  0  0
    0.7070    0.3212   -2.3968 H   0  0  0  0  0  0  0  0  0  0  0  0
   -0.2178   -1.1866   -2.6202 H   0  0  0  0  0  0  0  0  0  0  0  0
    1.2987    1.4672   -0.2086 H   0  0  0  0  0  0  0  0  0  0  0  0
    3.0402   -1.0239    0.0611 H   0  0  0  0  0  0  0  0  0  0  0  0
    3.7237    2.9292    2.3481 H   0  0  0  0  0  0  0  0  0  0  0  0
    2.4979    1.7100    2.7242 H   0  0  0  0  0  0  0  0  0  0  0  0
    2.0875    3.0850    1.6954 H   0  0  0  0  0  0  0  0  0  0  0  0
   -0.8293    1.0884   -0.8729 H   0  0  0  0  0  0  0  0  0  0  0  0
   -1.8016    1.4828    0.9077 H   0  0  0  0  0  0  0  0  0  0  0  0
   -4.8668   -0.8331   -1.0537 H   0  0  0  0  0  0  0  0  0  0  0  0
    0.5363   -4.3087    1.1338 H   0  0  0  0  0  0  0  0  0  0  0  0
    1.6380   -4.8157   -0.1746 H   0  0  0  0  0  0  0  0  0  0  0  0
   -3.5852    2.7060    2.0775 H   0  0  0  0  0  0  0  0  0  0  0  0
   -5.9633    2.0759    1.6327 H   0  0  0  0  0  0  0  0  0  0  0  0
    3.5793   -4.5630    1.3789 H   0  0  0  0  0  0  0  0  0  0  0  0
    2.4930   -4.0632    2.6691 H   0  0  0  0  0  0  0  0  0  0  0  0
    2.3920   -5.7201    2.0266 H   0  0  0  0  0  0  0  0  0  0  0  0
  1  7  1  0  0  0  0
  1 19  1  0  0  0  0
  2 15  2  0  0  0  0
  3  6  1  0  0  0  0
  4  6  2  0  0  0  0
  5 10  1  0  0  0  0
  5 15  1  0  0  0  0
  5 31  1  0  0  0  0
  6  9  1  0  0  0  0
  7 11  2  0  0  0  0
  8 18  1  0  0  0  0
  8 21  2  0  0  0  0
  9 12  1  0  0  0  0
  9 14  1  0  0  0  0
  9 23  1  0  0  0  0
 10 11  1  0  0  0  0
 10 24  1  0  0  0  0
 10 25  1  0  0  0  0
 11 13  1  0  0  0  0
 12 13  2  0  0  0  0
 12 26  1  0  0  0  0
 13 27  1  0  0  0  0
 14 28  1  0  0  0  0
 14 29  1  0  0  0  0
 14 30  1  0  0  0  0
 15 16  1  0  0  0  0
 16 17  1  0  0  0  0
 16 18  2  0  0  0  0
 17 20  2  0  0  0  0
 17 32  1  0  0  0  0
 18 33  1  0  0  0  0
 19 22  1  0  0  0  0
 19 34  1  0  0  0  0
 19 35  1  0  0  0  0
 20 21  1  0  0  0  0
 20 36  1  0  0  0  0
 21 37  1  0  0  0  0
 22 38  1  0  0  0  0
 22 39  1  0  0  0  0
 22 40  1  0  0  0  0
M  CHG  2   3  -1   6   1
M  END
> <PUBCHEM_COMPOUND_CID>
102602220

> <PUBCHEM_CONFORMER_RMSD>
1

> <PUBCHEM_CONFORMER_DIVERSEORDER>
3
54
79
74
93
132
120
65
133
101
122
145
23
64
14
52
127
53
21
78
31
24
80
113
42
142
134
99
139
98
13
19
100
147
117
137
39
146
62
50
36
81
114
118
75
108
102
69
90
72
115
16
17
135
18
143
32
136
105
29
46
106
44
63
82
61
83
128
48
49
15
123
28
87
41
67
95
96
68
35
121
140
27
11
10
86
129
26
57
43
8
37
22
144
130
2
45
124
7
107
112
9
58
138
40
55
56
104
34
73
38
131
66
125
109
88
25
126
20
33
6
51
110
92
76
71
91
116
85
84
119
47
70
103
60
12
94
59
30
77
111
4
1
5
97
141
89

> <PUBCHEM_MMFF94_PARTIAL_CHARGES>
27
1 -0.22
10 0.36
11 0.37
12 -0.29
13 -0.14
15 0.54
16 0.09
17 -0.15
18 0.16
19 0.28
2 -0.57
20 -0.15
21 0.16
26 0.15
27 0.15
3 -0.52
31 0.37
32 0.15
33 0.15
36 0.15
37 0.15
4 -0.52
5 -0.73
6 0.8
7 -0.51
8 -0.62
9 0.38

> <PUBCHEM_EFFECTIVE_ROTOR_COUNT>
9

> <PUBCHEM_PHARMACOPHORE_FEATURES>
8
1 2 acceptor
1 3 acceptor
1 3 anion
1 4 acceptor
1 5 donor
1 7 acceptor
1 8 acceptor
6 8 16 17 18 20 21 rings

> <PUBCHEM_HEAVY_ATOM_COUNT>
22

> <PUBCHEM_ATOM_DEF_STEREO_COUNT>
0

> <PUBCHEM_ATOM_UDEF_STEREO_COUNT>
1

> <PUBCHEM_BOND_DEF_STEREO_COUNT>
2

> <PUBCHEM_BOND_UDEF_STEREO_COUNT>
0

> <PUBCHEM_ISOTOPIC_ATOM_COUNT>
0

> <PUBCHEM_COMPONENT_COUNT>
1

> <PUBCHEM_CACTVS_TAUTO_COUNT>
20

> <PUBCHEM_CONFORMER_ID>
061D95EC00000003

> <PUBCHEM_MMFF94_ENERGY>
48.6814

> <PUBCHEM_FEATURE_SELFOVERLAP>
40.677

> <PUBCHEM_SHAPE_FINGERPRINT>
10382601 240 18411426072419478820
12160290 23 17545854476238499518
12549972 3 17171223024439541127
12633257 1 18041262310469824418
12788726 201 17618212258146324814
12892183 10 18335152964460753051
12930653 34 18264498445591201107
13533116 47 18189623748639622987
13878862 14 18195229032985133061
14178342 30 18187936139613645663
14251757 17 16271371932073917272
14739800 52 17774419651422777499
14787075 74 17764294442354058455
15142526 21 18268146641987774512
15475509 84 17761213211103421368
15842332 3 18058707162019746719
17868525 174 17905043655917181105
17980427 23 17199919221025176079
18785283 64 18260543399381781866
20739085 24 18259983777954240044
21344244 78 17912630324761239907
21524375 3 18200871880881393812
23845131 108 18262516017198653003
2637199 183 17917436461911450012
31174 14 18190459355231788951
345986 75 17322671868762718010
34797466 226 11743253067403992345
394222 165 18272371957741216922
458136 41 18334290976998216086
474 4 18409731802426765685
5104073 3 18269007388874715657
56616090 278 18269009621165692398
633830 44 18342738559098972166
7097593 13 18197768899985662815
7288768 16 17911499202332673880
9841814 1 18195531376490405718

> <PUBCHEM_SHAPE_MULTIPOLES>
409.35
10.17
4.94
1.6
10.34
4.49
0.21
-6.76
2.79
-9.22
2.43
-0.29
0.23
-2.5

> <PUBCHEM_SHAPE_SELFOVERLAP>
826.778

> <PUBCHEM_SHAPE_VOLUME>
237.8

> <PUBCHEM_COORDINATE_TYPE>
2
5
10

$$$$
