REMARK  Name = 102602220
REMARK  8 active torsions:
REMARK  status: ('A' for Active; 'I' for Inactive)
REMARK    1  A    between atoms: N_1  and  O_10
REMARK    2  A    between atoms: C_2  and  C_4
REMARK    3  A    between atoms: C_2  and  C_13
REMARK    4  A    between atoms: C_3  and  C_5
REMARK    5  A    between atoms: C_5  and  N_9
REMARK    6  A    between atoms: O_10  and  C_11
REMARK    7  A    between atoms: C_13  and  N_15
REMARK    8  A    between atoms: C_16  and  C_19
REMARK                            x       y       z     vdW  Elec       q    Type
REMARK                         _______ _______ _______ _____ _____    ______ ____
ROOT
ATOM      1  N   UNL     1       0.864  -2.435  -0.532  0.00  0.00    -0.086 NA
ATOM      2  C   UNL     1       1.033  -1.187  -0.874  0.00  0.00    +0.117 C 
ENDROOT
BRANCH   2   4
ATOM      3  C   UNL     1       2.164   0.861   0.045  0.00  0.00    +0.004 C 
ATOM      4  C   UNL     1       2.156  -0.454  -0.212  0.00  0.00    +0.017 C 
BRANCH   3   5
ATOM      5  C   UNL     1       3.308   1.546   0.728  0.00  0.00    +0.188 C 
ATOM      6  C   UNL     1       2.880   2.365   1.933  0.00  0.00    +0.037 C 
BRANCH   5   9
ATOM      7  O   UNL     1       5.058   2.318  -0.600  0.00  0.00    -0.131 OA
ATOM      8  O   UNL     1       3.113   3.345  -0.733  0.00  0.00    -0.131 OA
ATOM      9  N   UNL     1       3.872   2.477  -0.273  0.00  0.00    +0.037 N 
ENDBRANCH   5   9
ENDBRANCH   3   5
ENDBRANCH   2   4
BRANCH   1  10
ATOM     10  O   UNL     1       1.805  -2.846   0.419  0.00  0.00    -0.378 OA
BRANCH  10  11
ATOM     11  C   UNL     1       1.551  -4.207   0.733  0.00  0.00    +0.239 C 
ATOM     12  C   UNL     1       2.559  -4.672   1.762  0.00  0.00    +0.054 C 
ENDBRANCH  10  11
ENDBRANCH   1  10
BRANCH   2  13
ATOM     13  C   UNL     1       0.152  -0.468  -1.883  0.00  0.00    +0.139 C 
BRANCH  13  15
ATOM     14  O   UNL     1      -2.387  -1.684  -1.316  0.00  0.00    -0.270 OA
ATOM     15  N   UNL     1      -0.939   0.123  -1.163  0.00  0.00    -0.296 N 
ATOM     16  C   UNL     1      -2.140  -0.543  -0.934  0.00  0.00    +0.248 C 
ATOM     17  H   UNL     1      -0.835   1.039  -0.817  0.00  0.00    +0.150 HD
BRANCH  16  19
ATOM     18  N   UNL     1      -5.524   0.592   0.270  0.00  0.00    -0.242 NA
ATOM     19  C   UNL     1      -3.181   0.216  -0.196  0.00  0.00    +0.072 C 
ATOM     20  C   UNL     1      -2.835   1.226   0.695  0.00  0.00    +0.008 C 
ATOM     21  C   UNL     1      -4.528  -0.060  -0.371  0.00  0.00    +0.103 C 
ATOM     22  C   UNL     1      -3.832   1.919   1.374  0.00  0.00    +0.021 C 
ATOM     23  C   UNL     1      -5.149   1.567   1.128  0.00  0.00    +0.099 C 
ENDBRANCH  16  19
ENDBRANCH  13  15
ENDBRANCH   2  13
TORSDOF 8
