REMARK  Name = 10267534
REMARK  5 active torsions:
REMARK  status: ('A' for Active; 'I' for Inactive)
REMARK    1  A    between atoms: C_5  and  S_11
REMARK    2  A    between atoms: C_5  and  C_15
REMARK    3  A    between atoms: C_7  and  S_13
REMARK    4  A    between atoms: C_15  and  C_16
REMARK    5  A    between atoms: C_21  and  O_22
REMARK                            x       y       z     vdW  Elec       q    Type
REMARK                         _______ _______ _______ _____ _____    ______ ____
ROOT
ATOM      1  O   UNL     1       2.146  -2.604   0.938  0.00  0.00    -0.272 OA
ATOM      2  O   UNL     1       1.537   2.358  -0.980  0.00  0.00    -0.272 OA
ATOM      3  N   UNL     1       0.778   0.207  -0.759  0.00  0.00    -0.290 N 
ATOM      4  N   UNL     1       2.853  -0.434   0.759  0.00  0.00    -0.288 N 
ATOM      5  C   UNL     1       0.565  -0.961   0.086  0.00  0.00    +0.170 C 
ATOM      6  C   UNL     1       1.921  -1.443   0.599  0.00  0.00    +0.249 C 
ATOM      7  C   UNL     1       2.506   0.973   0.761  0.00  0.00    +0.198 C 
ATOM      8  C   UNL     1       1.608   1.262  -0.426  0.00  0.00    +0.252 C 
ATOM      9  H   UNL     1       0.301   0.248  -1.620  0.00  0.00    +0.151 HD
ATOM     10  H   UNL     1       3.798  -0.683   0.877  0.00  0.00    +0.151 HD
ENDROOT
BRANCH   5  11
ATOM     11  S   UNL     1      -0.167  -2.273  -0.965  0.00  0.00    -0.114 S 
ATOM     12  C   UNL     1       1.141  -2.349  -2.207  0.00  0.00    +0.071 C 
ENDBRANCH   5  11
BRANCH   7  13
ATOM     13  S   UNL     1       4.016   1.967   0.681  0.00  0.00    -0.111 S 
ATOM     14  C   UNL     1       4.656   1.357  -0.896  0.00  0.00    +0.071 C 
ENDBRANCH   7  13
BRANCH   5  15
ATOM     15  C   UNL     1      -0.389  -0.665   1.243  0.00  0.00    +0.064 C 
BRANCH  15  16
ATOM     16  C   UNL     1      -1.727  -0.190   0.750  0.00  0.00    -0.019 C 
ATOM     17  C   UNL     1      -1.943   1.168   0.557  0.00  0.00    -0.001 C 
ATOM     18  C   UNL     1      -2.730  -1.115   0.493  0.00  0.00    -0.001 C 
ATOM     19  C   UNL     1      -3.185   1.609   0.100  0.00  0.00    +0.036 C 
ATOM     20  C   UNL     1      -3.972  -0.674   0.036  0.00  0.00    +0.036 C 
ATOM     21  C   UNL     1      -4.200   0.688  -0.161  0.00  0.00    +0.134 C 
BRANCH  21  22
ATOM     22  O   UNL     1      -5.411   1.119  -0.607  0.00  0.00    -0.506 OA
ATOM     23  H   UNL     1      -5.564   2.034  -0.739  0.00  0.00    +0.292 HD
ENDBRANCH  21  22
ENDBRANCH  15  16
ENDBRANCH   5  15
TORSDOF 5
