REMARK  Name = 10264058
REMARK  6 active torsions:
REMARK  status: ('A' for Active; 'I' for Inactive)
REMARK    1  A    between atoms: N_2  and  C_10
REMARK    2  A    between atoms: C_3  and  C_16
REMARK    3  A    between atoms: C_6  and  O_8
REMARK    4  A    between atoms: C_10  and  C_11
REMARK    5  A    between atoms: C_11  and  S_12
REMARK    6  A    between atoms: C_16  and  O_17
REMARK                            x       y       z     vdW  Elec       q    Type
REMARK                         _______ _______ _______ _____ _____    ______ ____
ROOT
ATOM      1  O   UNL     1       4.336  -0.134   0.650  0.00  0.00    -0.283 OA
ATOM      2  N   UNL     1       0.399  -0.047  -0.352  0.00  0.00    -0.283 N 
ATOM      3  C   UNL     1       1.029   1.105   0.156  0.00  0.00    +0.062 C 
ATOM      4  C   UNL     1       1.160  -1.201  -0.499  0.00  0.00    +0.106 C 
ATOM      5  C   UNL     1       2.332   1.118   0.500  0.00  0.00    +0.058 C 
ATOM      6  C   UNL     1       2.460  -1.317  -0.195  0.00  0.00    +0.188 C 
ATOM      7  C   UNL     1       3.149  -0.116   0.345  0.00  0.00    +0.231 C 
ENDROOT
BRANCH   6   8
ATOM      8  O   UNL     1       3.159  -2.487  -0.363  0.00  0.00    -0.502 OA
ATOM      9  H   UNL     1       2.727  -3.246  -0.703  0.00  0.00    +0.292 HD
ENDBRANCH   6   8
BRANCH   2  10
ATOM     10  C   UNL     1      -1.017  -0.052  -0.724  0.00  0.00    +0.121 C 
BRANCH  10  11
ATOM     11  C   UNL     1      -1.877  -0.450   0.462  0.00  0.00    +0.180 C 
BRANCH  11  12
ATOM     12  S   UNL     1      -3.601  -0.426   0.080  0.00  0.00    +0.024 S 
ATOM     13  O   UNL     1      -4.135  -1.081   1.475  0.00  0.00    -0.069 OA
ATOM     14  O   UNL     1      -3.856  -1.360  -1.001  0.00  0.00    -0.069 OA
ATOM     15  O   UNL     1      -4.045   0.954   0.013  0.00  0.00    -0.069 OA
ENDBRANCH  11  12
ENDBRANCH  10  11
ENDBRANCH   2  10
BRANCH   3  16
ATOM     16  C   UNL     1       0.219   2.365   0.320  0.00  0.00    +0.179 C 
BRANCH  16  17
ATOM     17  O   UNL     1       0.290   3.128  -0.867  0.00  0.00    -0.376 OA
ATOM     18  H   UNL     1      -0.232   3.939  -0.762  0.00  0.00    +0.211 HD
ENDBRANCH  16  17
ENDBRANCH   3  16
TORSDOF 6
