REMARK  Name = 102602353
REMARK  9 active torsions:
REMARK  status: ('A' for Active; 'I' for Inactive)
REMARK    1  A    between atoms: C_5  and  C_28
REMARK    2  A    between atoms: C_7  and  O_17
REMARK    3  A    between atoms: C_9  and  O_19
REMARK    4  A    between atoms: C_13  and  O_21
REMARK    5  A    between atoms: O_21  and  C_23
REMARK    6  A    between atoms: C_23  and  C_24
REMARK    7  A    between atoms: C_24  and  C_25
REMARK    8  A    between atoms: C_28  and  O_29
REMARK    9  A    between atoms: O_29  and  C_31
REMARK                            x       y       z     vdW  Elec       q    Type
REMARK                         _______ _______ _______ _____ _____    ______ ____
ROOT
ATOM      1  O   UNL     1       2.869   0.885   2.351  0.00  0.00    -0.351 OA
ATOM      2  O   UNL     1       2.593   1.910  -0.499  0.00  0.00    -0.349 OA
ATOM      3  C   UNL     1       2.366  -0.765   0.461  0.00  0.00    +0.061 C 
ATOM      4  C   UNL     1       3.233   0.292   1.114  0.00  0.00    +0.149 C 
ATOM      5  C   UNL     1       1.054  -0.037  -0.112  0.00  0.00    +0.078 C 
ATOM      6  C   UNL     1       3.704   1.162   0.006  0.00  0.00    +0.172 C 
ATOM      7  C   UNL     1       3.337  -1.145  -0.741  0.00  0.00    +0.142 C 
ATOM      8  C   UNL     1       4.071   0.095   2.359  0.00  0.00    +0.172 C 
ATOM      9  C   UNL     1       4.243   0.099  -0.965  0.00  0.00    +0.167 C 
ATOM     10  C   UNL     1       1.490   1.155  -1.029  0.00  0.00    +0.140 C 
ATOM     11  C   UNL     1       2.041  -1.961   1.361  0.00  0.00    +0.005 C 
ATOM     12  C   UNL     1       0.142   0.529   1.027  0.00  0.00    +0.054 C 
ATOM     13  C   UNL     1      -1.066   1.349   0.539  0.00  0.00    +0.187 C 
ATOM     14  C   UNL     1       0.401   2.157  -1.310  0.00  0.00    -0.002 C 
ATOM     15  C   UNL     1      -0.758   2.241  -0.636  0.00  0.00    -0.007 C 
ATOM     16  C   UNL     1      -1.798   3.263  -0.999  0.00  0.00    +0.030 C 
ENDROOT
BRANCH   7  17
ATOM     17  O   UNL     1       4.173  -2.246  -0.387  0.00  0.00    -0.382 OA
ATOM     18  H   UNL     1       3.626  -3.034  -0.243  0.00  0.00    +0.210 HD
ENDBRANCH   7  17
BRANCH   9  19
ATOM     19  O   UNL     1       4.235   0.525  -2.313  0.00  0.00    -0.379 OA
ATOM     20  H   UNL     1       4.810   1.300  -2.411  0.00  0.00    +0.211 HD
ENDBRANCH   9  19
BRANCH  13  21
ATOM     21  O   UNL     1      -2.138   0.464   0.222  0.00  0.00    -0.448 OA
BRANCH  21  23
ATOM     22  O   UNL     1      -3.410   1.387   1.910  0.00  0.00    -0.250 OA
ATOM     23  C   UNL     1      -3.262   0.591   0.993  0.00  0.00    +0.317 C 
BRANCH  23  24
ATOM     24  C   UNL     1      -4.284  -0.437   0.558  0.00  0.00    +0.110 C 
BRANCH  24  25
ATOM     25  C   UNL     1      -5.632   0.183   0.159  0.00  0.00    +0.011 C 
ATOM     26  C   UNL     1      -5.475   1.161  -1.008  0.00  0.00    +0.001 C 
ATOM     27  C   UNL     1      -6.624  -0.919  -0.220  0.00  0.00    +0.001 C 
ENDBRANCH  24  25
ENDBRANCH  23  24
ENDBRANCH  21  23
ENDBRANCH  13  21
BRANCH   5  28
ATOM     28  C   UNL     1       0.200  -1.038  -0.943  0.00  0.00    +0.211 C 
BRANCH  28  29
ATOM     29  O   UNL     1      -0.581  -1.777  -0.037  0.00  0.00    -0.448 OA
BRANCH  29  31
ATOM     30  O   UNL     1      -1.527  -2.970  -1.775  0.00  0.00    -0.250 OA
ATOM     31  C   UNL     1      -1.415  -2.725  -0.582  0.00  0.00    +0.318 C 
ATOM     32  C   UNL     1      -2.181  -3.430   0.496  0.00  0.00    +0.121 C 
ENDBRANCH  29  31
ENDBRANCH  28  29
ENDBRANCH   5  28
TORSDOF 9
