REMARK  Name = 10266141
REMARK  9 active torsions:
REMARK  status: ('A' for Active; 'I' for Inactive)
REMARK    1  A    between atoms: C_1  and  C_2
REMARK    2  A    between atoms: C_1  and  C_12
REMARK    3  A    between atoms: C_2  and  C_3
REMARK    4  A    between atoms: C_3  and  N_5
REMARK    5  A    between atoms: C_6  and  C_8
REMARK    6  A    between atoms: C_9  and  S_10
REMARK    7  A    between atoms: C_12  and  N_14
REMARK    8  A    between atoms: C_15  and  C_17
REMARK    9  A    between atoms: C_18  and  S_19
REMARK                            x       y       z     vdW  Elec       q    Type
REMARK                         _______ _______ _______ _____ _____    ______ ____
ROOT
ATOM      1  C   UNL     1       0.384  -3.005  -0.665  0.00  0.00    +0.023 C 
ENDROOT
BRANCH   1   2
ATOM      2  C   UNL     1      -0.378  -3.003   0.665  0.00  0.00    +0.023 C 
BRANCH   2   3
ATOM      3  C   UNL     1      -1.891  -2.999   0.472  0.00  0.00    +0.090 C 
BRANCH   3   5
ATOM      4  O   UNL     1      -2.695  -0.490   1.629  0.00  0.00    -0.270 OA
ATOM      5  N   UNL     1      -2.350  -1.835  -0.234  0.00  0.00    -0.301 N 
ATOM      6  C   UNL     1      -2.718  -0.663   0.414  0.00  0.00    +0.246 C 
ATOM      7  H   UNL     1      -2.406  -1.869  -1.216  0.00  0.00    +0.150 HD
BRANCH   6   8
ATOM      8  C   UNL     1      -3.160   0.392  -0.540  0.00  0.00    +0.064 C 
ATOM      9  C   UNL     1      -3.550   1.588  -0.079  0.00  0.00    +0.036 C 
BRANCH   9  10
ATOM     10  S   UNL     1      -4.075   2.862  -1.125  0.00  0.00    -0.112 S 
ATOM     11  C   UNL     1      -4.437   4.135   0.102  0.00  0.00    +0.074 C 
ENDBRANCH   9  10
ENDBRANCH   6   8
ENDBRANCH   3   5
ENDBRANCH   2   3
ENDBRANCH   1   2
BRANCH   1  12
ATOM     12  C   UNL     1       1.898  -2.998  -0.471  0.00  0.00    +0.090 C 
BRANCH  12  14
ATOM     13  O   UNL     1       2.696  -0.487  -1.629  0.00  0.00    -0.270 OA
ATOM     14  N   UNL     1       2.354  -1.833   0.234  0.00  0.00    -0.301 N 
ATOM     15  C   UNL     1       2.720  -0.660  -0.414  0.00  0.00    +0.246 C 
ATOM     16  H   UNL     1       2.410  -1.867   1.217  0.00  0.00    +0.150 HD
BRANCH  15  17
ATOM     17  C   UNL     1       3.159   0.396   0.540  0.00  0.00    +0.064 C 
ATOM     18  C   UNL     1       3.546   1.592   0.079  0.00  0.00    +0.036 C 
BRANCH  18  19
ATOM     19  S   UNL     1       4.069   2.868   1.125  0.00  0.00    -0.112 S 
ATOM     20  C   UNL     1       4.429   4.142  -0.103  0.00  0.00    +0.074 C 
ENDBRANCH  18  19
ENDBRANCH  15  17
ENDBRANCH  12  14
ENDBRANCH   1  12
TORSDOF 9
