REMARK  Name = 10266777
REMARK  3 active torsions:
REMARK  status: ('A' for Active; 'I' for Inactive)
REMARK    1  A    between atoms: N_2  and  C_13
REMARK    2  A    between atoms: C_12  and  O_18
REMARK    3  A    between atoms: C_14  and  O_20
REMARK                            x       y       z     vdW  Elec       q    Type
REMARK                         _______ _______ _______ _____ _____    ______ ____
ROOT
ATOM      1 CL   UNL     1       3.749  -2.819  -0.696  0.00  0.00    +0.024 Cl
ATOM      2  N   UNL     1      -0.045   0.444  -0.288  0.00  0.00    -0.236 N 
ATOM      3  N   UNL     1       1.187   2.177   0.387  0.00  0.00    -0.240 NA
ATOM      4  N   UNL     1       1.695  -1.234  -0.527  0.00  0.00    -0.314 NA
ATOM      5  N   UNL     1       3.887  -0.328   0.047  0.00  0.00    -0.314 NA
ATOM      6  C   UNL     1       1.244  -0.005  -0.235  0.00  0.00    +0.221 C 
ATOM      7  C   UNL     1      -0.028   1.760   0.094  0.00  0.00    +0.224 C 
ATOM      8  C   UNL     1       1.992   1.084   0.186  0.00  0.00    +0.167 C 
ATOM      9  C   UNL     1       3.362   0.890   0.325  0.00  0.00    +0.212 C 
ATOM     10  C   UNL     1       3.033  -1.300  -0.356  0.00  0.00    +0.207 C 
ATOM     11  N   UNL     1       4.197   1.939   0.748  0.00  0.00    -0.331 N 
ATOM     12  H   UNL     1       5.165   1.790   0.842  0.00  0.00    +0.145 HD
ATOM     13  H   UNL     1       3.813   2.823   0.949  0.00  0.00    +0.145 HD
ENDROOT
BRANCH   2  16
ATOM     14  O   UNL     1      -2.134   0.550  -1.393  0.00  0.00    -0.336 OA
ATOM     15  C   UNL     1      -2.034  -0.983   0.454  0.00  0.00    +0.158 C 
ATOM     16  C   UNL     1      -1.226  -0.324  -0.679  0.00  0.00    +0.223 C 
ATOM     17  C   UNL     1      -3.187  -0.005   0.640  0.00  0.00    +0.166 C 
ATOM     18  C   UNL     1      -3.434   0.473  -0.782  0.00  0.00    +0.146 C 
ATOM     19  C   UNL     1      -1.288  -1.295   1.745  0.00  0.00    +0.036 C 
ATOM     20  C   UNL     1      -4.114   1.829  -0.858  0.00  0.00    +0.035 C 
BRANCH  15  21
ATOM     21  O   UNL     1      -2.529  -2.241  -0.028  0.00  0.00    -0.380 OA
ATOM     22  H   UNL     1      -3.016  -2.101  -0.855  0.00  0.00    +0.211 HD
ENDBRANCH  15  21
BRANCH  17  23
ATOM     23  O   UNL     1      -4.325  -0.614   1.216  0.00  0.00    -0.380 OA
ATOM     24  H   UNL     1      -4.117  -0.900   2.119  0.00  0.00    +0.211 HD
ENDBRANCH  17  23
ENDBRANCH   2  16
TORSDOF 3
