10266740
  -OEChem-03292013303D

 38 39  0     1  0  0  0  0  0999 V2000
   -2.4358   -1.8581   -1.1510 O   0  0  0  0  0  0  0  0  0  0  0  0
   -3.6212    0.2199    0.3384 O   0  0  0  0  0  0  0  0  0  0  0  0
   -1.4026   -4.4278    0.6417 O   0  0  0  0  0  0  0  0  0  0  0  0
   -3.0339    2.9753   -0.7989 O   0  0  0  0  0  0  0  0  0  0  0  0
    5.5936    0.9170   -0.0204 O   0  0  0  0  0  0  0  0  0  0  0  0
    3.7727    0.9041    1.3380 O   0  0  0  0  0  0  0  0  0  0  0  0
    0.3038   -1.2061    0.0123 N   0  0  0  0  0  0  0  0  0  0  0  0
   -1.2226    2.0212    0.3093 N   0  0  0  0  0  0  0  0  0  0  0  0
    1.1498    0.7075   -0.7329 N   0  0  0  0  0  0  0  0  0  0  0  0
   -0.6923   -2.1498    0.5188 C   0  0  1  0  0  0  0  0  0  0  0  0
   -2.1267   -1.6564    0.2305 C   0  0  1  0  0  0  0  0  0  0  0  0
   -2.2714   -0.1708    0.5835 C   0  0  1  0  0  0  0  0  0  0  0  0
   -1.3220    0.6952   -0.2549 C   0  0  2  0  0  0  0  0  0  0  0  0
    0.0477    0.1049   -0.3284 C   0  0  0  0  0  0  0  0  0  0  0  0
   -0.4842   -3.5730   -0.0102 C   0  0  0  0  0  0  0  0  0  0  0  0
    1.6473   -1.4139   -0.1168 C   0  0  0  0  0  0  0  0  0  0  0  0
    2.1439   -0.2255   -0.5963 C   0  0  0  0  0  0  0  0  0  0  0  0
    3.5354    0.1073   -0.9369 C   0  0  0  0  0  0  0  0  0  0  0  0
   -2.0918    3.0489   -0.0144 C   0  0  0  0  0  0  0  0  0  0  0  0
   -1.7791    4.3166    0.7345 C   0  0  0  0  0  0  0  0  0  0  0  0
    4.2895    0.6636    0.2541 C   0  0  0  0  0  0  0  0  0  0  0  0
   -0.5513   -2.1477    1.6088 H   0  0  0  0  0  0  0  0  0  0  0  0
   -2.8613   -2.2325    0.8063 H   0  0  0  0  0  0  0  0  0  0  0  0
   -2.0818   -0.0311    1.6553 H   0  0  0  0  0  0  0  0  0  0  0  0
   -1.7130    0.7990   -1.2751 H   0  0  0  0  0  0  0  0  0  0  0  0
    0.5200   -3.9395    0.2243 H   0  0  0  0  0  0  0  0  0  0  0  0
   -0.6166   -3.6433   -1.0948 H   0  0  0  0  0  0  0  0  0  0  0  0
    2.1281   -2.3499    0.1291 H   0  0  0  0  0  0  0  0  0  0  0  0
   -0.5087    2.1913    1.0130 H   0  0  0  0  0  0  0  0  0  0  0  0
   -2.6484   -2.7989   -1.2720 H   0  0  0  0  0  0  0  0  0  0  0  0
   -3.8131    0.0549   -0.6005 H   0  0  0  0  0  0  0  0  0  0  0  0
    3.5569    0.8583   -1.7342 H   0  0  0  0  0  0  0  0  0  0  0  0
    4.0617   -0.7874   -1.2877 H   0  0  0  0  0  0  0  0  0  0  0  0
   -1.2545   -5.3252    0.2979 H   0  0  0  0  0  0  0  0  0  0  0  0
   -2.3301    5.1509    0.2919 H   0  0  0  0  0  0  0  0  0  0  0  0
   -2.0752    4.2036    1.7810 H   0  0  0  0  0  0  0  0  0  0  0  0
   -0.7090    4.5367    0.6798 H   0  0  0  0  0  0  0  0  0  0  0  0
    6.0630    1.2975    0.7524 H   0  0  0  0  0  0  0  0  0  0  0  0
  1 11  1  0  0  0  0
  1 30  1  0  0  0  0
  2 12  1  0  0  0  0
  2 31  1  0  0  0  0
  3 15  1  0  0  0  0
  3 34  1  0  0  0  0
  4 19  2  0  0  0  0
  5 21  1  0  0  0  0
  5 38  1  0  0  0  0
  6 21  2  0  0  0  0
  7 10  1  0  0  0  0
  7 14  1  0  0  0  0
  7 16  1  0  0  0  0
  8 13  1  0  0  0  0
  8 19  1  0  0  0  0
  8 29  1  0  0  0  0
  9 14  2  0  0  0  0
  9 17  1  0  0  0  0
 10 11  1  0  0  0  0
 10 15  1  0  0  0  0
 10 22  1  0  0  0  0
 11 12  1  0  0  0  0
 11 23  1  0  0  0  0
 12 13  1  0  0  0  0
 12 24  1  0  0  0  0
 13 14  1  0  0  0  0
 13 25  1  0  0  0  0
 15 26  1  0  0  0  0
 15 27  1  0  0  0  0
 16 17  2  0  0  0  0
 16 28  1  0  0  0  0
 17 18  1  0  0  0  0
 18 21  1  0  0  0  0
 18 32  1  0  0  0  0
 18 33  1  0  0  0  0
 19 20  1  0  0  0  0
 20 35  1  0  0  0  0
 20 36  1  0  0  0  0
 20 37  1  0  0  0  0
M  END
> <PUBCHEM_COMPOUND_CID>
10266740

> <PUBCHEM_CONFORMER_RMSD>
0.8

> <PUBCHEM_CONFORMER_DIVERSEORDER>
1
13
20
17
9
4
15
19
16
7
5
10
6
14
12
3
8
11
18
2

> <PUBCHEM_MMFF94_PARTIAL_CHARGES>
27
1 -0.68
10 0.26
11 0.28
12 0.28
13 0.48
14 0.01
15 0.28
16 -0.3
17 0.05
18 0.24
19 0.57
2 -0.68
20 0.06
21 0.66
28 0.15
29 0.37
3 -0.68
30 0.4
31 0.4
34 0.4
38 0.5
4 -0.57
5 -0.65
6 -0.57
7 0.05
8 -0.73
9 -0.57

> <PUBCHEM_EFFECTIVE_ROTOR_COUNT>
5.8

> <PUBCHEM_PHARMACOPHORE_FEATURES>
14
1 1 acceptor
1 1 donor
1 2 acceptor
1 2 donor
1 3 acceptor
1 3 donor
1 4 acceptor
1 5 acceptor
1 6 acceptor
1 8 donor
3 5 6 21 anion
3 7 9 14 cation
5 7 9 14 16 17 rings
6 7 10 11 12 13 14 rings

> <PUBCHEM_HEAVY_ATOM_COUNT>
21

> <PUBCHEM_ATOM_DEF_STEREO_COUNT>
4

> <PUBCHEM_ATOM_UDEF_STEREO_COUNT>
0

> <PUBCHEM_BOND_DEF_STEREO_COUNT>
0

> <PUBCHEM_BOND_UDEF_STEREO_COUNT>
0

> <PUBCHEM_ISOTOPIC_ATOM_COUNT>
0

> <PUBCHEM_COMPONENT_COUNT>
1

> <PUBCHEM_CACTVS_TAUTO_COUNT>
2

> <PUBCHEM_CONFORMER_ID>
009CA87400000001

> <PUBCHEM_MMFF94_ENERGY>
31.4865

> <PUBCHEM_FEATURE_SELFOVERLAP>
71.215

> <PUBCHEM_SHAPE_FINGERPRINT>
10319926 262 18341035416421029440
10411042 1 17833555978407226690
1100329 8 18266184022817760585
12107183 9 18046615721733688242
12173636 292 18338519642435421734
12293681 160 18266717191525805093
12390115 104 18269856232625185008
12507560 14 16537639159812504711
12788726 201 18338502119043037947
13083527 12 16828672822305952090
13140716 1 18121226638546215640
138480 1 16824464385478031625
13955234 65 17544482955546942857
13965767 371 17608936374364618428
14081887 123 18340479071388739682
14142880 1 18114458972710705197
14508225 48 17909821369005430503
15042514 8 18263655124082600915
16945 1 18336274538639631782
1741750 31 18267306430505001132
20510252 161 18341900653644637737
20600515 1 17984448461677118635
20671657 1 17617945729523448341
21524375 3 18052537668768013252
21650355 55 18266178529100979802
2334 1 17761785360844830388
23366157 5 16892016773898199283
23402539 116 18199465639869758879
23419403 2 17413299531515041099
23557571 272 18200604721041230158
23558518 356 18263653874262545711
23559900 14 18056762019198435918
2748010 2 18119547443661702399
283562 15 18411420583952284969
3071541 12 17617664254467655287
3091708 16 8982702651112741170
350125 39 18193286186604586450
7364860 26 17474107600934165639
81228 2 18270419289609358299
84936 182 17838330779280412776
90316 7 18194127545096971826
9709674 26 18342465871974073574
9981440 41 18264483979819277145

> <PUBCHEM_SHAPE_MULTIPOLES>
382.01
6.74
4.86
0.91
9.46
0.77
0
-4.93
-0.28
-5.2
-0.94
0.15
-0.09
0.26

> <PUBCHEM_SHAPE_SELFOVERLAP>
800.692

> <PUBCHEM_SHAPE_VOLUME>
212.2

> <PUBCHEM_COORDINATE_TYPE>
2
5
10

$$$$
