REMARK  Name = 10268029
REMARK  12 active torsions:
REMARK  status: ('A' for Active; 'I' for Inactive)
REMARK    1  A    between atoms: N_2  and  CA_5
REMARK    2  A    between atoms: C_3  and  CA_21
REMARK    3  A    between atoms: CA_5  and  C_7
REMARK    4  A    between atoms: CA_5  and  CB_10
REMARK    5  A    between atoms: C_7  and  O_8
REMARK    6  A    between atoms: CB_10  and  CG_11
REMARK    7  A    between atoms: CG_11  and  CD_12
REMARK    8  A    between atoms: CD_12  and  NE_13
REMARK    9  A    between atoms: NE_13  and  CZ_16
REMARK   10  A    between atoms: CA_21  and  N_22
REMARK   11  A    between atoms: CA_21  and  CB_26
REMARK   12  A    between atoms: CB_26  and  CG_27
REMARK                            x       y       z     vdW  Elec       q    Type
REMARK                         _______ _______ _______ _____ _____    ______ ____
ROOT
ATOM      1  O   PHE A   1      -1.041   1.301  -1.981  0.00  0.00    -0.277 OA
ATOM      2  N   ARG A   2      -0.274   0.072  -0.170  0.00  0.00    -0.298 N 
ATOM      3  C   PHE A   1      -0.935   1.137  -0.766  0.00  0.00    +0.203 C 
ATOM      4  H   ARG A   2      -0.240   0.024   0.813  0.00  0.00    +0.150 HD
ENDROOT
BRANCH   2   5
ATOM      5  CA  ARG A   2       0.364  -0.965  -0.941  0.00  0.00    +0.171 C 
BRANCH   5   7
ATOM      6  OXT ARG A   2       0.549  -3.373  -0.612  0.00  0.00    -0.248 OA
ATOM      7  C   ARG A   2       0.219  -2.273  -0.187  0.00  0.00    +0.332 C 
BRANCH   7   8
ATOM      8  O   ARG A   2      -0.294  -2.088   1.058  0.00  0.00    -0.479 OA
ATOM      9  H   ARG A   2      -0.534  -1.228   1.342  0.00  0.00    +0.295 HD
ENDBRANCH   7   8
ENDBRANCH   5   7
BRANCH   5  10
ATOM     10  CB  ARG A   2       1.824  -0.638  -1.266  0.00  0.00    +0.033 C 
BRANCH  10  11
ATOM     11  CG  ARG A   2       2.719  -0.460  -0.034  0.00  0.00    +0.029 C 
BRANCH  11  12
ATOM     12  CD  ARG A   2       4.144  -0.096  -0.437  0.00  0.00    +0.129 C 
BRANCH  12  13
ATOM     13  NE  ARG A   2       4.955   0.067   0.772  0.00  0.00    -0.240 NA
BRANCH  13  16
ATOM     14  NH1 ARG A   2       6.875   0.545  -0.589  0.00  0.00    -0.370 N 
ATOM     15  NH2 ARG A   2       7.033   0.532   1.685  0.00  0.00    -0.370 N 
ATOM     16  CZ  ARG A   2       6.205   0.362   0.600  0.00  0.00    +0.189 C 
ATOM     17 HH11 ARG A   2       6.396   0.451  -1.444  0.00  0.00    +0.159 HD
ATOM     18 HH12 ARG A   2       7.834   0.768  -0.585  0.00  0.00    +0.159 HD
ATOM     19 HH21 ARG A   2       6.677   0.429   2.597  0.00  0.00    +0.159 HD
ATOM     20 HH22 ARG A   2       7.982   0.756   1.549  0.00  0.00    +0.159 HD
ENDBRANCH  13  16
ENDBRANCH  12  13
ENDBRANCH  11  12
ENDBRANCH  10  11
ENDBRANCH   5  10
ENDBRANCH   2   5
BRANCH   3  21
ATOM     21  CA  PHE A   1      -1.552   2.091   0.252  0.00  0.00    +0.017 C 
BRANCH  21  22
ATOM     22  N   PHE A   1      -0.914   3.393   0.052  0.00  0.00    +0.388 N 
ATOM     23  H1  PHE A   1      -1.299   4.065   0.715  0.00  0.00    -0.089 HD
ATOM     24  H2  PHE A   1      -1.090   3.715  -0.900  0.00  0.00    -0.089 HD
ATOM     25  H3  PHE A   1       0.091   3.305   0.201  0.00  0.00    -0.089 HD
ENDBRANCH  21  22
BRANCH  21  26
ATOM     26  CB  PHE A   1      -3.068   2.213   0.034  0.00  0.00    +0.013 C 
BRANCH  26  27
ATOM     27  CG  PHE A   1      -3.796   0.905   0.236  0.00  0.00    -0.024 C 
ATOM     28  CD1 PHE A   1      -3.985   0.038  -0.841  0.00  0.00    -0.004 C 
ATOM     29  CD2 PHE A   1      -4.279   0.564   1.499  0.00  0.00    -0.004 C 
ATOM     30  CE1 PHE A   1      -4.657  -1.170  -0.654  0.00  0.00    -0.000 C 
ATOM     31  CE2 PHE A   1      -4.952  -0.644   1.685  0.00  0.00    -0.000 C 
ATOM     32  CZ  PHE A   1      -5.140  -1.511   0.609  0.00  0.00    -0.000 C 
ENDBRANCH  26  27
ENDBRANCH  21  26
ENDBRANCH   3  21
TORSDOF 12
