REMARK  Name = 10266740
REMARK  8 active torsions:
REMARK  status: ('A' for Active; 'I' for Inactive)
REMARK    1  A    between atoms: C_3  and  C_19
REMARK    2  A    between atoms: C_4  and  O_15
REMARK    3  A    between atoms: C_5  and  O_17
REMARK    4  A    between atoms: C_6  and  N_11
REMARK    5  A    between atoms: C_9  and  C_22
REMARK    6  A    between atoms: C_19  and  O_20
REMARK    7  A    between atoms: C_22  and  C_24
REMARK    8  A    between atoms: C_24  and  O_25
REMARK                            x       y       z     vdW  Elec       q    Type
REMARK                         _______ _______ _______ _____ _____    ______ ____
ROOT
ATOM      1  N   UNL     1       0.304  -1.206   0.012  0.00  0.00    -0.276 N 
ATOM      2  N   UNL     1       1.150   0.708  -0.733  0.00  0.00    -0.396 NA
ATOM      3  C   UNL     1      -0.692  -2.150   0.519  0.00  0.00    +0.134 C 
ATOM      4  C   UNL     1      -2.127  -1.656   0.231  0.00  0.00    +0.160 C 
ATOM      5  C   UNL     1      -2.271  -0.171   0.584  0.00  0.00    +0.165 C 
ATOM      6  C   UNL     1      -1.322   0.695  -0.255  0.00  0.00    +0.168 C 
ATOM      7  C   UNL     1       0.048   0.105  -0.328  0.00  0.00    +0.180 C 
ATOM      8  C   UNL     1       1.647  -1.414  -0.117  0.00  0.00    +0.148 C 
ATOM      9  C   UNL     1       2.144  -0.226  -0.596  0.00  0.00    +0.119 C 
ENDROOT
BRANCH   6  11
ATOM     10  O   UNL     1      -3.034   2.975  -0.799  0.00  0.00    -0.275 OA
ATOM     11  N   UNL     1      -1.223   2.021   0.309  0.00  0.00    -0.297 N 
ATOM     12  C   UNL     1      -2.092   3.049  -0.014  0.00  0.00    +0.223 C 
ATOM     13  C   UNL     1      -1.779   4.317   0.735  0.00  0.00    +0.095 C 
ATOM     14  H   UNL     1      -0.502   2.203   0.955  0.00  0.00    +0.150 HD
ENDBRANCH   6  11
BRANCH   4  15
ATOM     15  O   UNL     1      -2.436  -1.858  -1.151  0.00  0.00    -0.380 OA
ATOM     16  H   UNL     1      -2.343  -2.799  -1.369  0.00  0.00    +0.211 HD
ENDBRANCH   4  15
BRANCH   5  17
ATOM     17  O   UNL     1      -3.621   0.220   0.338  0.00  0.00    -0.380 OA
ATOM     18  H   UNL     1      -4.218  -0.329   0.870  0.00  0.00    +0.211 HD
ENDBRANCH   5  17
BRANCH   3  19
ATOM     19  C   UNL     1      -0.484  -3.573  -0.010  0.00  0.00    +0.159 C 
BRANCH  19  20
ATOM     20  O   UNL     1      -1.403  -4.428   0.642  0.00  0.00    -0.380 OA
ATOM     21  H   UNL     1      -1.285  -5.335   0.319  0.00  0.00    +0.211 HD
ENDBRANCH  19  20
ENDBRANCH   3  19
BRANCH   9  22
ATOM     22  C   UNL     1       3.535   0.107  -0.937  0.00  0.00    +0.165 C 
BRANCH  22  24
ATOM     23  O   UNL     1       3.773   0.904   1.338  0.00  0.00    -0.250 OA
ATOM     24  C   UNL     1       4.290   0.664   0.254  0.00  0.00    +0.321 C 
BRANCH  24  25
ATOM     25  O   UNL     1       5.594   0.917  -0.020  0.00  0.00    -0.480 OA
ATOM     26  H   UNL     1       5.942   0.715  -0.866  0.00  0.00    +0.295 HD
ENDBRANCH  24  25
ENDBRANCH  22  24
ENDBRANCH   9  22
TORSDOF 8
