10267534
  -OEChem-03292013303D

 36 37  0     1  0  0  0  0  0999 V2000
   -0.1669   -2.2733   -0.9653 S   0  0  0  0  0  0  0  0  0  0  0  0
    4.0165    1.9667    0.6812 S   0  0  0  0  0  0  0  0  0  0  0  0
    2.1456   -2.6041    0.9378 O   0  0  0  0  0  0  0  0  0  0  0  0
    1.5368    2.3581   -0.9797 O   0  0  0  0  0  0  0  0  0  0  0  0
   -5.4112    1.1187   -0.6071 O   0  0  0  0  0  0  0  0  0  0  0  0
    0.7776    0.2070   -0.7592 N   0  0  0  0  0  0  0  0  0  0  0  0
    2.8530   -0.4336    0.7586 N   0  0  0  0  0  0  0  0  0  0  0  0
    0.5645   -0.9611    0.0864 C   0  0  1  0  0  0  0  0  0  0  0  0
   -0.3886   -0.6649    1.2431 C   0  0  0  0  0  0  0  0  0  0  0  0
    1.9205   -1.4429    0.5986 C   0  0  0  0  0  0  0  0  0  0  0  0
    2.5056    0.9731    0.7608 C   0  0  2  0  0  0  0  0  0  0  0  0
   -1.7272   -0.1897    0.7497 C   0  0  0  0  0  0  0  0  0  0  0  0
    1.6084    1.2623   -0.4265 C   0  0  0  0  0  0  0  0  0  0  0  0
   -1.9433    1.1683    0.5573 C   0  0  0  0  0  0  0  0  0  0  0  0
   -2.7304   -1.1150    0.4931 C   0  0  0  0  0  0  0  0  0  0  0  0
    1.1406   -2.3493   -2.2073 C   0  0  0  0  0  0  0  0  0  0  0  0
   -3.1851    1.6091    0.1000 C   0  0  0  0  0  0  0  0  0  0  0  0
   -3.9723   -0.6742    0.0356 C   0  0  0  0  0  0  0  0  0  0  0  0
   -4.1996    0.6880   -0.1611 C   0  0  0  0  0  0  0  0  0  0  0  0
    4.6556    1.3565   -0.8964 C   0  0  0  0  0  0  0  0  0  0  0  0
    0.0270    0.0917    1.9203 H   0  0  0  0  0  0  0  0  0  0  0  0
   -0.5185   -1.5515    1.8804 H   0  0  0  0  0  0  0  0  0  0  0  0
    0.1339    0.3468   -1.5319 H   0  0  0  0  0  0  0  0  0  0  0  0
    1.9693    1.2021    1.6857 H   0  0  0  0  0  0  0  0  0  0  0  0
    3.7617   -0.6921    1.1300 H   0  0  0  0  0  0  0  0  0  0  0  0
   -1.1651    1.8974    0.7639 H   0  0  0  0  0  0  0  0  0  0  0  0
   -2.5881   -2.1763    0.6753 H   0  0  0  0  0  0  0  0  0  0  0  0
    2.1051   -2.6263   -1.7760 H   0  0  0  0  0  0  0  0  0  0  0  0
    1.2343   -1.4096   -2.7571 H   0  0  0  0  0  0  0  0  0  0  0  0
    0.8754   -3.1240   -2.9332 H   0  0  0  0  0  0  0  0  0  0  0  0
   -3.3500    2.6731   -0.0475 H   0  0  0  0  0  0  0  0  0  0  0  0
   -4.7613   -1.3957   -0.1579 H   0  0  0  0  0  0  0  0  0  0  0  0
    5.6063    1.8585   -1.0993 H   0  0  0  0  0  0  0  0  0  0  0  0
    3.9809    1.5836   -1.7248 H   0  0  0  0  0  0  0  0  0  0  0  0
    4.8515    0.2820   -0.8609 H   0  0  0  0  0  0  0  0  0  0  0  0
   -5.3915    2.0879   -0.6858 H   0  0  0  0  0  0  0  0  0  0  0  0
  1  8  1  0  0  0  0
  1 16  1  0  0  0  0
  2 11  1  0  0  0  0
  2 20  1  0  0  0  0
  3 10  2  0  0  0  0
  4 13  2  0  0  0  0
  5 19  1  0  0  0  0
  5 36  1  0  0  0  0
  6  8  1  0  0  0  0
  6 13  1  0  0  0  0
  6 23  1  0  0  0  0
  7 10  1  0  0  0  0
  7 11  1  0  0  0  0
  7 25  1  0  0  0  0
  8  9  1  0  0  0  0
  8 10  1  0  0  0  0
  9 12  1  0  0  0  0
  9 21  1  0  0  0  0
  9 22  1  0  0  0  0
 11 13  1  0  0  0  0
 11 24  1  0  0  0  0
 12 14  2  0  0  0  0
 12 15  1  0  0  0  0
 14 17  1  0  0  0  0
 14 26  1  0  0  0  0
 15 18  2  0  0  0  0
 15 27  1  0  0  0  0
 16 28  1  0  0  0  0
 16 29  1  0  0  0  0
 16 30  1  0  0  0  0
 17 19  2  0  0  0  0
 17 31  1  0  0  0  0
 18 19  1  0  0  0  0
 18 32  1  0  0  0  0
 20 33  1  0  0  0  0
 20 34  1  0  0  0  0
 20 35  1  0  0  0  0
M  END
> <PUBCHEM_COMPOUND_CID>
10267534

> <PUBCHEM_CONFORMER_RMSD>
0.6

> <PUBCHEM_CONFORMER_DIVERSEORDER>
1
25
22
9
16
26
17
20
4
24
23
27
18
8
11
21
13
14
19
2
12
15
10
5
7
3
6

> <PUBCHEM_MMFF94_PARTIAL_CHARGES>
27
1 -0.46
10 0.57
11 0.59
12 -0.14
13 0.57
14 -0.15
15 -0.15
16 0.23
17 -0.15
18 -0.15
19 0.08
2 -0.46
20 0.23
23 0.37
25 0.37
26 0.15
27 0.15
3 -0.57
31 0.15
32 0.15
36 0.45
4 -0.57
5 -0.53
6 -0.73
7 -0.73
8 0.59
9 0.14

> <PUBCHEM_EFFECTIVE_ROTOR_COUNT>
4.8

> <PUBCHEM_PHARMACOPHORE_FEATURES>
9
1 16 hydrophobe
1 20 hydrophobe
1 3 acceptor
1 4 acceptor
1 5 donor
1 6 donor
1 7 donor
6 12 14 15 17 18 19 rings
6 6 7 8 10 11 13 rings

> <PUBCHEM_HEAVY_ATOM_COUNT>
20

> <PUBCHEM_ATOM_DEF_STEREO_COUNT>
2

> <PUBCHEM_ATOM_UDEF_STEREO_COUNT>
0

> <PUBCHEM_BOND_DEF_STEREO_COUNT>
0

> <PUBCHEM_BOND_UDEF_STEREO_COUNT>
0

> <PUBCHEM_ISOTOPIC_ATOM_COUNT>
0

> <PUBCHEM_COMPONENT_COUNT>
1

> <PUBCHEM_CACTVS_TAUTO_COUNT>
8

> <PUBCHEM_CONFORMER_ID>
009CAB8E00000001

> <PUBCHEM_MMFF94_ENERGY>
71.056

> <PUBCHEM_FEATURE_SELFOVERLAP>
45.68

> <PUBCHEM_SHAPE_FINGERPRINT>
10871710 139 16394371269773919013
12011746 2 18334297552550883284
12633257 1 16515954982200103600
12788726 201 17471012952971171970
13134695 92 18115864105436342926
14178342 30 15647058187577350859
14181834 199 18268718220667415910
14790565 3 17896891061092799732
15536298 74 18409448063827892001
15775835 57 18271525402559637928
1601671 61 17967816085091818004
16945 1 18188782763081327418
17492 89 18408038507618826739
20600515 1 17185867299587715010
20645477 70 18343019952508382671
20715895 44 18048586037733541773
20739085 24 17967524680319172936
21524375 3 18269282437678264224
23114952 82 18058178219495561767
23227448 37 17699276986930082088
23402539 116 18129657629194133645
23419403 2 17262957444108267882
23557571 272 18263659492691705115
23559900 14 18268137674106811627
296302 2 17748826332263961777
298252 57 18200317735816832874
3060560 45 18131915936189000318
3323516 105 11384111963990919665
3545911 37 18334015003858741897
4280585 95 17411073742224287190
4325135 7 18334574698759676655
474 4 18040716991293875081
5104073 3 18261111842635019497
7164475 11 17623006115989869982
7364860 26 18201162044218319254
81228 2 17121415546991295850
81539 233 18410295817563555958
8272917 22 18187363212139556690
9709674 26 18335424569281475115

> <PUBCHEM_SHAPE_MULTIPOLES>
391.72
8.26
2.71
1.31
4.01
1.07
-0.31
-5.44
-0.74
-1.42
-0.71
-0.66
0.58
0.05

> <PUBCHEM_SHAPE_SELFOVERLAP>
797.705

> <PUBCHEM_SHAPE_VOLUME>
229.4

> <PUBCHEM_COORDINATE_TYPE>
2
5
10

$$$$
