REMARK  Name = 102764
REMARK  7 active torsions:
REMARK  status: ('A' for Active; 'I' for Inactive)
REMARK    1  A    between atoms: C_1  and  C_2
REMARK    2  A    between atoms: C_1  and  O_11
REMARK    3  A    between atoms: C_1  and  C_13
REMARK    4  A    between atoms: C_7  and  N_10
REMARK    5  A    between atoms: C_13  and  O_14
REMARK    6  A    between atoms: C_13  and  C_16
REMARK    7  A    between atoms: C_16  and  O_17
REMARK                            x       y       z     vdW  Elec       q    Type
REMARK                         _______ _______ _______ _____ _____    ______ ____
ROOT
ATOM      1  C   UNL     1       1.983   0.464  -0.629  0.00  0.00    +0.162 C 
ENDROOT
BRANCH   1   2
ATOM      2  C   UNL     1       0.495   0.302  -0.408  0.00  0.00    +0.007 C 
ATOM      3  C   UNL     1      -0.205  -0.618  -1.169  0.00  0.00    -0.000 C 
ATOM      4  C   UNL     1      -0.133   1.077   0.551  0.00  0.00    -0.000 C 
ATOM      5  C   UNL     1      -1.576  -0.767  -0.965  0.00  0.00    +0.024 C 
ATOM      6  C   UNL     1      -1.505   0.928   0.756  0.00  0.00    +0.024 C 
ATOM      7  C   UNL     1      -2.227   0.005  -0.002  0.00  0.00    +0.143 C 
BRANCH   7  10
ATOM      8  O   UNL     1      -4.248  -0.985  -0.487  0.00  0.00    -0.126 OA
ATOM      9  O   UNL     1      -4.183   0.558   1.079  0.00  0.00    -0.126 OA
ATOM     10  N   UNL     1      -3.623  -0.148   0.207  0.00  0.00    +0.058 N 
ENDBRANCH   7  10
ENDBRANCH   1   2
BRANCH   1  11
ATOM     11  O   UNL     1       2.239   1.775  -1.139  0.00  0.00    -0.377 OA
ATOM     12  H   UNL     1       3.192   1.886  -1.283  0.00  0.00    +0.211 HD
ENDBRANCH   1  11
BRANCH   1  13
ATOM     13  C   UNL     1       2.856   0.218   0.616  0.00  0.00    +0.171 C 
BRANCH  13  14
ATOM     14  O   UNL     1       4.221   0.508   0.308  0.00  0.00    -0.379 OA
ATOM     15  H   UNL     1       4.290   1.413  -0.035  0.00  0.00    +0.211 HD
ENDBRANCH  13  14
BRANCH  13  16
ATOM     16  C   UNL     1       2.755  -1.207   1.154  0.00  0.00    +0.169 C 
BRANCH  16  17
ATOM     17  O   UNL     1       3.151  -2.112   0.128  0.00  0.00    -0.379 OA
ATOM     18  H   UNL     1       3.091  -3.022   0.459  0.00  0.00    +0.211 HD
ENDBRANCH  16  17
ENDBRANCH  13  16
ENDBRANCH   1  13
TORSDOF 7
