REMARK  Name = 10275789
REMARK  5 active torsions:
REMARK  status: ('A' for Active; 'I' for Inactive)
REMARK    1  A    between atoms: N_1  and  S_3
REMARK    2  A    between atoms: N_1  and  N_16
REMARK    3  A    between atoms: S_3  and  C_6
REMARK    4  A    between atoms: C_10  and  N_15
REMARK    5  A    between atoms: N_16  and  C_17
REMARK                            x       y       z     vdW  Elec       q    Type
REMARK                         _______ _______ _______ _____ _____    ______ ____
ROOT
ATOM      1  N   UNL     1       0.624  -0.993  -0.416  0.00  0.00    -0.063 NA
ATOM      2  C   UNL     1       1.336  -1.561  -1.589  0.00  0.00    +0.140 C 
ENDROOT
BRANCH   1   3
ATOM      3  S   UNL     1       1.515  -0.882   1.062  0.00  0.00    +0.079 S 
ATOM      4  O   UNL     1       2.102  -2.171   1.376  0.00  0.00    -0.151 OA
ATOM      5  O   UNL     1       0.712  -0.184   2.047  0.00  0.00    -0.151 OA
BRANCH   3   6
ATOM      6  C   UNL     1       2.857   0.170   0.597  0.00  0.00    +0.121 C 
ATOM      7  C   UNL     1       2.751   1.546   0.726  0.00  0.00    -0.003 C 
ATOM      8  C   UNL     1       4.011  -0.419   0.102  0.00  0.00    +0.044 C 
ATOM      9  C   UNL     1       3.826   2.353   0.351  0.00  0.00    -0.001 C 
ATOM     10  C   UNL     1       5.085   0.388  -0.272  0.00  0.00    +0.144 C 
ATOM     11  C   UNL     1       1.516   2.198   1.256  0.00  0.00    +0.032 C 
ATOM     12  C   UNL     1       4.992   1.774  -0.147  0.00  0.00    +0.024 C 
BRANCH  10  15
ATOM     13  O   UNL     1       7.228   0.543  -1.110  0.00  0.00    -0.126 OA
ATOM     14  O   UNL     1       6.336  -1.450  -0.883  0.00  0.00    -0.126 OA
ATOM     15  N   UNL     1       6.273  -0.201  -0.780  0.00  0.00    +0.058 N 
ENDBRANCH  10  15
ENDBRANCH   3   6
ENDBRANCH   1   3
BRANCH   1  16
ATOM     16  N   UNL     1      -0.710  -1.585  -0.227  0.00  0.00    -0.141 NA
BRANCH  16  17
ATOM     17  C   UNL     1      -1.668  -0.699  -0.290  0.00  0.00    +0.115 C 
ATOM     18 BR   UNL     1      -5.393   3.718  -0.676  0.00  0.00    -0.048 Br
ATOM     19  N   UNL     1      -4.105  -0.160  -0.195  0.00  0.00    -0.250 N 
ATOM     20  N   UNL     1      -4.977  -2.187   0.169  0.00  0.00    -0.249 NA
ATOM     21  C   UNL     1      -3.049  -1.033  -0.141  0.00  0.00    +0.077 C 
ATOM     22  C   UNL     1      -5.260  -0.911  -0.001  0.00  0.00    +0.135 C 
ATOM     23  C   UNL     1      -3.611  -2.268   0.083  0.00  0.00    +0.170 C 
ATOM     24  C   UNL     1      -4.105   1.218  -0.399  0.00  0.00    +0.077 C 
ATOM     25  C   UNL     1      -6.499  -0.208  -0.016  0.00  0.00    +0.035 C 
ATOM     26  C   UNL     1      -5.277   1.878  -0.414  0.00  0.00    +0.050 C 
ATOM     27  C   UNL     1      -6.510   1.125  -0.213  0.00  0.00    +0.011 C 
ENDBRANCH  16  17
ENDBRANCH   1  16
TORSDOF 5
