REMARK  Name = 10273661
REMARK  5 active torsions:
REMARK  status: ('A' for Active; 'I' for Inactive)
REMARK    1  A    between atoms: N_3  and  C_29
REMARK    2  A    between atoms: C_21  and  O_22
REMARK    3  A    between atoms: O_22  and  S_23
REMARK    4  A    between atoms: S_23  and  N_26
REMARK    5  A    between atoms: C_29  and  C_30
REMARK                            x       y       z     vdW  Elec       q    Type
REMARK                         _______ _______ _______ _____ _____    ______ ____
ROOT
ATOM      1  O   UNL     1       4.341   2.302   0.099  0.00  0.00    -0.274 OA
ATOM      2  O   UNL     1       5.273  -2.251   0.447  0.00  0.00    -0.274 OA
ATOM      3  N   UNL     1       4.824   0.022   0.195  0.00  0.00    -0.230 N 
ATOM      4  C   UNL     1       2.082  -0.483   0.046  0.00  0.00    +0.018 C 
ATOM      5  C   UNL     1       0.572  -0.774   0.278  0.00  0.00    +0.005 C 
ATOM      6  C   UNL     1       2.528   0.836   0.718  0.00  0.00    +0.070 C 
ATOM      7  C   UNL     1      -0.300   0.396  -0.261  0.00  0.00    +0.022 C 
ATOM      8  C   UNL     1       1.612   1.986   0.246  0.00  0.00    +0.009 C 
ATOM      9  C   UNL     1       0.123   1.703   0.433  0.00  0.00    +0.005 C 
ATOM     10  C   UNL     1       0.098  -2.079  -0.379  0.00  0.00    +0.005 C 
ATOM     11  C   UNL     1       2.986  -1.622   0.512  0.00  0.00    +0.086 C 
ATOM     12  C   UNL     1      -1.796   0.102  -0.178  0.00  0.00    -0.026 C 
ATOM     13  C   UNL     1       3.968   1.141   0.283  0.00  0.00    +0.230 C 
ATOM     14  C   UNL     1       2.534   0.787   2.262  0.00  0.00    +0.009 C 
ATOM     15  C   UNL     1      -1.332  -2.395   0.049  0.00  0.00    +0.026 C 
ATOM     16  C   UNL     1      -2.268  -1.222  -0.066  0.00  0.00    -0.023 C 
ATOM     17  C   UNL     1       4.462  -1.324   0.372  0.00  0.00    +0.231 C 
ATOM     18  C   UNL     1      -2.745   1.133  -0.307  0.00  0.00    -0.001 C 
ATOM     19  C   UNL     1      -3.650  -1.474  -0.015  0.00  0.00    +0.035 C 
ATOM     20  C   UNL     1      -4.116   0.869  -0.267  0.00  0.00    +0.039 C 
ATOM     21  C   UNL     1      -4.569  -0.434  -0.114  0.00  0.00    +0.172 C 
ENDROOT
BRANCH  21  22
ATOM     22  O   UNL     1      -5.904  -0.695  -0.070  0.00  0.00    -0.349 OA
BRANCH  22  23
ATOM     23  S   UNL     1      -7.057   0.466  -0.191  0.00  0.00    +0.086 S 
ATOM     24  O   UNL     1      -6.997   1.032  -1.526  0.00  0.00    -0.046 OA
ATOM     25  O   UNL     1      -6.971   1.318   0.982  0.00  0.00    -0.046 OA
BRANCH  23  26
ATOM     26  N   UNL     1      -8.521  -0.422  -0.074  0.00  0.00    -0.194 NA
ATOM     27  H   UNL     1      -8.613  -1.033  -0.885  0.00  0.00    +0.145 HD
ATOM     28  H   UNL     1      -9.309   0.225  -0.044  0.00  0.00    +0.145 HD
ENDBRANCH  23  26
ENDBRANCH  22  23
ENDBRANCH  21  22
BRANCH   3  29
ATOM     29  C   UNL     1       6.236   0.278  -0.070  0.00  0.00    +0.101 C 
BRANCH  29  30
ATOM     30  C   UNL     1       6.556   0.281  -1.560  0.00  0.00    +0.022 C 
ATOM     31  C   UNL     1       8.031   0.525  -1.844  0.00  0.00    +0.002 C 
ENDBRANCH  29  30
ENDBRANCH   3  29
TORSDOF 5
