REMARK  Name = 10274158
REMARK  4 active torsions:
REMARK  status: ('A' for Active; 'I' for Inactive)
REMARK    1  A    between atoms: C_7  and  O_26
REMARK    2  A    between atoms: C_9  and  O_28
REMARK    3  A    between atoms: C_24  and  O_30
REMARK    4  A    between atoms: C_25  and  O_32
REMARK                            x       y       z     vdW  Elec       q    Type
REMARK                         _______ _______ _______ _____ _____    ______ ____
ROOT
ATOM      1  O   UNL     1       0.520  -0.845   1.186  0.00  0.00    -0.475 OA
ATOM      2  O   UNL     1       4.396   0.946  -1.052  0.00  0.00    -0.480 OA
ATOM      3  O   UNL     1      -1.938  -2.244   1.371  0.00  0.00    -0.472 OA
ATOM      4  O   UNL     1      -0.982   2.937   1.620  0.00  0.00    -0.291 OA
ATOM      5  C   UNL     1       5.073  -0.321  -0.962  0.00  0.00    +0.160 C 
ATOM      6  C   UNL     1      -1.361   0.580   1.904  0.00  0.00    +0.131 C 
ATOM      7  C   UNL     1       4.091  -1.504  -1.111  0.00  0.00    +0.178 C 
ATOM      8  C   UNL     1      -0.392  -0.550   2.251  0.00  0.00    +0.220 C 
ATOM      9  C   UNL     1       2.937  -1.434  -0.110  0.00  0.00    +0.169 C 
ATOM     10  C   UNL     1       2.443  -0.021   0.070  0.00  0.00    +0.075 C 
ATOM     11  C   UNL     1       1.224   0.237   0.727  0.00  0.00    +0.142 C 
ATOM     12  C   UNL     1       0.752   1.545   0.854  0.00  0.00    +0.069 C 
ATOM     13  C   UNL     1       3.193   1.063  -0.409  0.00  0.00    +0.140 C 
ATOM     14  C   UNL     1      -0.563   1.792   1.480  0.00  0.00    +0.183 C 
ATOM     15  C   UNL     1      -2.390   0.117   0.899  0.00  0.00    +0.026 C 
ATOM     16  C   UNL     1      -1.192  -1.820   2.517  0.00  0.00    +0.249 C 
ATOM     17  C   UNL     1       6.097  -0.318  -2.111  0.00  0.00    +0.046 C 
ATOM     18  C   UNL     1       5.858  -0.363   0.362  0.00  0.00    +0.046 C 
ATOM     19  C   UNL     1      -2.619  -1.256   0.708  0.00  0.00    +0.138 C 
ATOM     20  C   UNL     1       1.499   2.615   0.359  0.00  0.00    +0.009 C 
ATOM     21  C   UNL     1       2.718   2.370  -0.270  0.00  0.00    +0.037 C 
ATOM     22  C   UNL     1      -3.178   1.029   0.180  0.00  0.00    +0.039 C 
ATOM     23  C   UNL     1      -3.566  -1.698  -0.222  0.00  0.00    +0.077 C 
ATOM     24  C   UNL     1      -4.131   0.585  -0.739  0.00  0.00    +0.172 C 
ATOM     25  C   UNL     1      -4.320  -0.777  -0.945  0.00  0.00    +0.175 C 
ENDROOT
BRANCH   7  26
ATOM     26  O   UNL     1       3.509  -1.506  -2.419  0.00  0.00    -0.378 OA
ATOM     27  H   UNL     1       4.212  -1.550  -3.085  0.00  0.00    +0.211 HD
ENDBRANCH   7  26
BRANCH   9  28
ATOM     28  O   UNL     1       3.348  -1.934   1.158  0.00  0.00    -0.377 OA
ATOM     29  H   UNL     1       3.669  -2.844   1.059  0.00  0.00    +0.211 HD
ENDBRANCH   9  28
BRANCH  24  30
ATOM     30  O   UNL     1      -4.872   1.499  -1.427  0.00  0.00    -0.468 OA
ATOM     31  C   UNL     1      -4.348   1.950  -2.674  0.00  0.00    +0.253 C 
ENDBRANCH  24  30
BRANCH  25  32
ATOM     32  O   UNL     1      -5.243  -1.223  -1.841  0.00  0.00    -0.468 OA
ATOM     33  C   UNL     1      -6.564  -1.451  -1.354  0.00  0.00    +0.253 C 
ENDBRANCH  25  32
TORSDOF 4
