10274158
  -OEChem-03292013303D

 55 59  0     1  0  0  0  0  0999 V2000
    0.5201   -0.8451    1.1856 O   0  0  0  0  0  0  0  0  0  0  0  0
    4.3958    0.9460   -1.0523 O   0  0  0  0  0  0  0  0  0  0  0  0
   -1.9383   -2.2441    1.3708 O   0  0  0  0  0  0  0  0  0  0  0  0
    3.5091   -1.5063   -2.4186 O   0  0  0  0  0  0  0  0  0  0  0  0
    3.3480   -1.9336    1.1583 O   0  0  0  0  0  0  0  0  0  0  0  0
   -0.9819    2.9367    1.6201 O   0  0  0  0  0  0  0  0  0  0  0  0
   -4.8718    1.4986   -1.4269 O   0  0  0  0  0  0  0  0  0  0  0  0
   -5.2431   -1.2228   -1.8415 O   0  0  0  0  0  0  0  0  0  0  0  0
    5.0732   -0.3206   -0.9615 C   0  0  0  0  0  0  0  0  0  0  0  0
   -1.3608    0.5797    1.9043 C   0  0  1  0  0  0  0  0  0  0  0  0
    4.0913   -1.5043   -1.1109 C   0  0  1  0  0  0  0  0  0  0  0  0
   -0.3922   -0.5500    2.2514 C   0  0  1  0  0  0  0  0  0  0  0  0
    2.9368   -1.4342   -0.1103 C   0  0  2  0  0  0  0  0  0  0  0  0
    2.4433   -0.0205    0.0696 C   0  0  0  0  0  0  0  0  0  0  0  0
    1.2236    0.2367    0.7270 C   0  0  0  0  0  0  0  0  0  0  0  0
    0.7520    1.5453    0.8540 C   0  0  0  0  0  0  0  0  0  0  0  0
    3.1926    1.0628   -0.4092 C   0  0  0  0  0  0  0  0  0  0  0  0
   -0.5625    1.7920    1.4804 C   0  0  0  0  0  0  0  0  0  0  0  0
   -2.3898    0.1165    0.8986 C   0  0  0  0  0  0  0  0  0  0  0  0
   -1.1921   -1.8199    2.5168 C   0  0  0  0  0  0  0  0  0  0  0  0
    6.0966   -0.3178   -2.1114 C   0  0  0  0  0  0  0  0  0  0  0  0
    5.8578   -0.3630    0.3618 C   0  0  0  0  0  0  0  0  0  0  0  0
   -2.6186   -1.2555    0.7077 C   0  0  0  0  0  0  0  0  0  0  0  0
    1.4993    2.6146    0.3593 C   0  0  0  0  0  0  0  0  0  0  0  0
    2.7176    2.3703   -0.2697 C   0  0  0  0  0  0  0  0  0  0  0  0
   -3.1775    1.0292    0.1800 C   0  0  0  0  0  0  0  0  0  0  0  0
   -3.5656   -1.6978   -0.2219 C   0  0  0  0  0  0  0  0  0  0  0  0
   -4.1309    0.5853   -0.7388 C   0  0  0  0  0  0  0  0  0  0  0  0
   -4.3200   -0.7775   -0.9448 C   0  0  0  0  0  0  0  0  0  0  0  0
   -4.3482    1.9503   -2.6742 C   0  0  0  0  0  0  0  0  0  0  0  0
   -6.5640   -1.4507   -1.3536 C   0  0  0  0  0  0  0  0  0  0  0  0
   -1.8999    0.8522    2.8224 H   0  0  0  0  0  0  0  0  0  0  0  0
    4.6291   -2.4533   -0.9999 H   0  0  0  0  0  0  0  0  0  0  0  0
    0.1953   -0.2979    3.1448 H   0  0  0  0  0  0  0  0  0  0  0  0
    2.1148   -2.0651   -0.4717 H   0  0  0  0  0  0  0  0  0  0  0  0
   -0.5109   -2.6422    2.7622 H   0  0  0  0  0  0  0  0  0  0  0  0
   -1.8799   -1.6943    3.3618 H   0  0  0  0  0  0  0  0  0  0  0  0
    6.8013    0.5157   -2.0067 H   0  0  0  0  0  0  0  0  0  0  0  0
    6.6673   -1.2517   -2.1429 H   0  0  0  0  0  0  0  0  0  0  0  0
    5.6063   -0.1748   -3.0810 H   0  0  0  0  0  0  0  0  0  0  0  0
    6.5970    0.4464    0.3985 H   0  0  0  0  0  0  0  0  0  0  0  0
    5.2138   -0.2073    1.2324 H   0  0  0  0  0  0  0  0  0  0  0  0
    6.3853   -1.3148    0.4831 H   0  0  0  0  0  0  0  0  0  0  0  0
    1.1491    3.6393    0.4454 H   0  0  0  0  0  0  0  0  0  0  0  0
    3.2957    3.2076   -0.6532 H   0  0  0  0  0  0  0  0  0  0  0  0
   -3.0580    2.0988    0.3306 H   0  0  0  0  0  0  0  0  0  0  0  0
    3.1019   -0.6373   -2.5727 H   0  0  0  0  0  0  0  0  0  0  0  0
    2.5938   -1.8733    1.7690 H   0  0  0  0  0  0  0  0  0  0  0  0
   -3.7198   -2.7634   -0.3756 H   0  0  0  0  0  0  0  0  0  0  0  0
   -3.3849    2.4490   -2.5275 H   0  0  0  0  0  0  0  0  0  0  0  0
   -5.0528    2.6689   -3.1015 H   0  0  0  0  0  0  0  0  0  0  0  0
   -4.2361    1.1135   -3.3709 H   0  0  0  0  0  0  0  0  0  0  0  0
   -6.5586   -2.2251   -0.5800 H   0  0  0  0  0  0  0  0  0  0  0  0
   -7.1827   -1.7936   -2.1875 H   0  0  0  0  0  0  0  0  0  0  0  0
   -6.9934   -0.5255   -0.9565 H   0  0  0  0  0  0  0  0  0  0  0  0
  1 12  1  0  0  0  0
  1 15  1  0  0  0  0
  2  9  1  0  0  0  0
  2 17  1  0  0  0  0
  3 20  1  0  0  0  0
  3 23  1  0  0  0  0
  4 11  1  0  0  0  0
  4 47  1  0  0  0  0
  5 13  1  0  0  0  0
  5 48  1  0  0  0  0
  6 18  2  0  0  0  0
  7 28  1  0  0  0  0
  7 30  1  0  0  0  0
  8 29  1  0  0  0  0
  8 31  1  0  0  0  0
  9 11  1  0  0  0  0
  9 21  1  0  0  0  0
  9 22  1  0  0  0  0
 10 12  1  0  0  0  0
 10 18  1  0  0  0  0
 10 19  1  0  0  0  0
 10 32  1  0  0  0  0
 11 13  1  0  0  0  0
 11 33  1  0  0  0  0
 12 20  1  0  0  0  0
 12 34  1  0  0  0  0
 13 14  1  0  0  0  0
 13 35  1  0  0  0  0
 14 15  1  0  0  0  0
 14 17  2  0  0  0  0
 15 16  2  0  0  0  0
 16 18  1  0  0  0  0
 16 24  1  0  0  0  0
 17 25  1  0  0  0  0
 19 23  1  0  0  0  0
 19 26  2  0  0  0  0
 20 36  1  0  0  0  0
 20 37  1  0  0  0  0
 21 38  1  0  0  0  0
 21 39  1  0  0  0  0
 21 40  1  0  0  0  0
 22 41  1  0  0  0  0
 22 42  1  0  0  0  0
 22 43  1  0  0  0  0
 23 27  2  0  0  0  0
 24 25  2  0  0  0  0
 24 44  1  0  0  0  0
 25 45  1  0  0  0  0
 26 28  1  0  0  0  0
 26 46  1  0  0  0  0
 27 29  1  0  0  0  0
 27 49  1  0  0  0  0
 28 29  2  0  0  0  0
 30 50  1  0  0  0  0
 30 51  1  0  0  0  0
 30 52  1  0  0  0  0
 31 53  1  0  0  0  0
 31 54  1  0  0  0  0
 31 55  1  0  0  0  0
M  END
> <PUBCHEM_COMPOUND_CID>
10274158

> <PUBCHEM_CONFORMER_RMSD>
0.8

> <PUBCHEM_CONFORMER_DIVERSEORDER>
1
4
2
3

> <PUBCHEM_MMFF94_PARTIAL_CHARGES>
35
1 -0.36
10 0.2
11 0.28
12 0.28
13 0.42
14 -0.14
15 0.08
16 0.09
17 0.08
18 0.42
19 -0.14
2 -0.36
20 0.28
23 0.08
24 -0.15
25 -0.15
26 -0.15
27 -0.15
28 0.08
29 0.08
3 -0.36
30 0.28
31 0.28
4 -0.68
44 0.15
45 0.15
46 0.15
47 0.4
48 0.4
49 0.15
5 -0.68
6 -0.57
7 -0.36
8 -0.36
9 0.28

> <PUBCHEM_EFFECTIVE_ROTOR_COUNT>
3.4

> <PUBCHEM_PHARMACOPHORE_FEATURES>
16
1 1 acceptor
1 2 acceptor
1 3 acceptor
1 4 acceptor
1 4 donor
1 5 acceptor
1 5 donor
1 6 acceptor
1 7 acceptor
1 8 acceptor
3 9 21 22 hydrophobe
6 1 10 12 15 16 18 rings
6 14 15 16 17 24 25 rings
6 19 23 26 27 28 29 rings
6 2 9 11 13 14 17 rings
6 3 10 12 19 20 23 rings

> <PUBCHEM_HEAVY_ATOM_COUNT>
31

> <PUBCHEM_ATOM_DEF_STEREO_COUNT>
4

> <PUBCHEM_ATOM_UDEF_STEREO_COUNT>
0

> <PUBCHEM_BOND_DEF_STEREO_COUNT>
0

> <PUBCHEM_BOND_UDEF_STEREO_COUNT>
0

> <PUBCHEM_ISOTOPIC_ATOM_COUNT>
0

> <PUBCHEM_COMPONENT_COUNT>
1

> <PUBCHEM_CACTVS_TAUTO_COUNT>
2

> <PUBCHEM_CONFORMER_ID>
009CC56E00000001

> <PUBCHEM_MMFF94_ENERGY>
130.3065

> <PUBCHEM_FEATURE_SELFOVERLAP>
81.399

> <PUBCHEM_SHAPE_FINGERPRINT>
10498660 4 17095510838640239797
105312 117 16878234103332926779
10670039 82 17167853145749198189
11578080 2 17386580201181283948
11763715 3 16558208059131235512
1200032 147 16952245405634119141
12166972 35 17275103967861021671
12553582 1 18338817627725360880
12596602 18 14979955848653964558
12788726 201 18127700330940409320
12892183 10 9223231875377568749
13103583 49 12679458716345255271
13544653 18 16056871429704148339
13690498 29 17827100668436663738
13944108 23 16885798524706133877
14251757 17 18335696135514997365
14341114 328 11455888109091063423
14713325 29 16588319297353774793
14848178 5 17060340721036128102
14931854 50 18334573525484681391
14950920 106 12031782543970454310
15163728 17 16370726985319421129
15183329 4 18040994042206091023
17349148 13 16988574514954758078
17909252 39 18060415837068818280
1813 80 15338843122502282505
20511986 3 17968087626114810050
20775438 99 17267752771032010191
20775530 9 16557920991416067607
21033650 10 18113615664630409665
21458453 9 11167358665560501398
21756936 100 13407081448116285680
22122407 14 13045932483297731655
221357 26 18410285948161103077
22182313 1 18045228381796690352
22393880 68 18408320016500763126
23536364 44 18410009919013370313
23559900 14 18339367465397510544
25223398 141 17096378404322108355
2838139 119 16805318860208080981
3004659 81 18272647965429800775
3027735 51 17131280030503211159
339767 52 18060414695087428902
392239 28 12895348889141697916
4015057 19 18341056301934964200
4098825 35 18041287655034816761
46194498 28 18265326386436552661
463206 1 17844807173419511895
474113 269 17895742999792746802
50009960 94 12965685808561765509
508706 21 17967252026624981269
5104073 3 10663280873027375548
5283173 99 18114179739822850036
57527295 17 18335417950488607899
57724786 102 15430311378546921192
6669772 16 16984891305942934632

> <PUBCHEM_SHAPE_MULTIPOLES>
591.01
13.06
2.61
2.38
0.35
0.93
-0.29
-3.33
-11.4
-0.72
0.4
-1.08
-0.18
0.91

> <PUBCHEM_SHAPE_SELFOVERLAP>
1315.292

> <PUBCHEM_SHAPE_VOLUME>
313.3

> <PUBCHEM_COORDINATE_TYPE>
2
5
10

$$$$
