REMARK  Name = 102831
REMARK  5 active torsions:
REMARK  status: ('A' for Active; 'I' for Inactive)
REMARK    1  A    between atoms: N_2  and  C_7
REMARK    2  A    between atoms: C_4  and  N_17
REMARK    3  A    between atoms: C_6  and  C_22
REMARK    4  A    between atoms: C_10  and  S_13
REMARK    5  A    between atoms: C_22  and  O_23
REMARK                            x       y       z     vdW  Elec       q    Type
REMARK                         _______ _______ _______ _____ _____    ______ ____
ROOT
ATOM      1  O   UNL     1      -1.298   2.570   0.100  0.00  0.00    -0.275 OA
ATOM      2  N   UNL     1      -1.108   0.211  -0.064  0.00  0.00    -0.160 N 
ATOM      3  N   UNL     1      -1.964  -0.868  -0.140  0.00  0.00    -0.171 NA
ATOM      4  C   UNL     1      -3.239   1.098  -0.017  0.00  0.00    +0.065 C 
ATOM      5  C   UNL     1      -1.773   1.450   0.012  0.00  0.00    +0.233 C 
ATOM      6  C   UNL     1      -3.161  -0.383  -0.116  0.00  0.00    +0.140 C 
ENDROOT
BRANCH   2   7
ATOM      7  C   UNL     1       0.273   0.088  -0.063  0.00  0.00    +0.077 C 
ATOM      8  C   UNL     1       1.074   1.104  -0.597  0.00  0.00    +0.018 C 
ATOM      9  C   UNL     1       0.881  -1.054   0.471  0.00  0.00    +0.018 C 
ATOM     10  C   UNL     1       3.061  -0.160  -0.062  0.00  0.00    +0.112 C 
ATOM     11  C   UNL     1       2.463   0.981  -0.597  0.00  0.00    +0.020 C 
ATOM     12  C   UNL     1       2.270  -1.177   0.472  0.00  0.00    +0.020 C 
BRANCH  10  13
ATOM     13  S   UNL     1       4.800  -0.316  -0.061  0.00  0.00    +0.042 S 
ATOM     14  O   UNL     1       5.290   0.342   1.353  0.00  0.00    -0.065 OA
ATOM     15  O   UNL     1       5.125  -1.734  -0.005  0.00  0.00    -0.065 OA
ATOM     16  O   UNL     1       5.301   0.518  -1.143  0.00  0.00    -0.065 OA
ENDBRANCH  10  13
ENDBRANCH   2   7
BRANCH   4  17
ATOM     17  N   UNL     1      -3.851   1.474   1.243  0.00  0.00    +0.391 N 
ATOM     18  H   UNL     1      -3.903   2.490   1.306  0.00  0.00    -0.088 HD
ATOM     19  H   UNL     1      -3.289   1.113   2.014  0.00  0.00    -0.088 HD
ATOM     20  H   UNL     1      -4.791   1.081   1.295  0.00  0.00    -0.088 HD
ENDBRANCH   4  17
BRANCH   6  22
ATOM     21  O   UNL     1      -4.429  -2.364   0.226  0.00  0.00    -0.244 OA
ATOM     22  C   UNL     1      -4.367  -1.233  -0.200  0.00  0.00    +0.352 C 
BRANCH  22  23
ATOM     23  O   UNL     1      -5.347  -0.545  -0.812  0.00  0.00    -0.476 OA
ATOM     24  H   UNL     1      -5.193   0.332  -1.104  0.00  0.00    +0.295 HD
ENDBRANCH  22  23
ENDBRANCH   6  22
TORSDOF 5
