REMARK  Name = 1028
REMARK  7 active torsions:
REMARK  status: ('A' for Active; 'I' for Inactive)
REMARK    1  A    between atoms: C_1  and  C_10
REMARK    2  A    between atoms: C_1  and  C_13
REMARK    3  A    between atoms: C_4  and  O_7
REMARK    4  A    between atoms: C_10  and  O_11
REMARK    5  A    between atoms: C_13  and  C_15
REMARK    6  A    between atoms: C_15  and  C_17
REMARK    7  A    between atoms: C_17  and  O_18
REMARK                            x       y       z     vdW  Elec       q    Type
REMARK                         _______ _______ _______ _____ _____    ______ ____
ROOT
ATOM      1  C   UNL     1      -0.498  -0.700   0.024  0.00  0.00    +0.133 C 
ATOM      2  C   UNL     1      -0.894   0.082   1.253  0.00  0.00    -0.014 C 
ATOM      3  C   UNL     1      -0.924  -0.049  -1.268  0.00  0.00    -0.014 C 
ATOM      4  C   UNL     1      -1.996   1.882  -0.090  0.00  0.00    +0.154 C 
ATOM      5  C   UNL     1      -1.563   1.243   1.197  0.00  0.00    +0.003 C 
ATOM      6  C   UNL     1      -1.593   1.113  -1.317  0.00  0.00    +0.003 C 
ENDROOT
BRANCH   4   7
ATOM      7  O   UNL     1      -3.416   2.010  -0.096  0.00  0.00    -0.376 OA
ATOM      8  H   UNL     1      -3.699   2.504   0.689  0.00  0.00    +0.211 HD
ENDBRANCH   4   7
BRANCH   1  10
ATOM      9  O   UNL     1      -2.022  -2.312   0.999  0.00  0.00    -0.250 OA
ATOM     10  C   UNL     1      -1.254  -1.999   0.101  0.00  0.00    +0.321 C 
BRANCH  10  11
ATOM     11  O   UNL     1      -0.965  -2.784  -0.965  0.00  0.00    -0.480 OA
ATOM     12  H   UNL     1      -0.366  -2.484  -1.620  0.00  0.00    +0.295 HD
ENDBRANCH  10  11
ENDBRANCH   1  10
BRANCH   1  13
ATOM     13  C   UNL     1       1.009  -0.962   0.020  0.00  0.00    +0.095 C 
BRANCH  13  15
ATOM     14  O   UNL     1       1.334   1.454   0.030  0.00  0.00    -0.284 OA
ATOM     15  C   UNL     1       1.794   0.323   0.021  0.00  0.00    +0.249 C 
BRANCH  15  17
ATOM     16  O   UNL     1       3.841  -0.892   0.053  0.00  0.00    -0.242 OA
ATOM     17  C   UNL     1       3.290   0.189   0.016  0.00  0.00    +0.373 C 
BRANCH  17  18
ATOM     18  O   UNL     1       3.858   1.401   0.022  0.00  0.00    -0.475 OA
ATOM     19  H   UNL     1       3.323   2.170  -0.010  0.00  0.00    +0.295 HD
ENDBRANCH  17  18
ENDBRANCH  15  17
ENDBRANCH  13  15
ENDBRANCH   1  13
TORSDOF 7
