REMARK  Name = 10286593
REMARK  7 active torsions:
REMARK  status: ('A' for Active; 'I' for Inactive)
REMARK    1  A    between atoms: C_2  and  O_7
REMARK    2  A    between atoms: C_3  and  O_9
REMARK    3  A    between atoms: C_4  and  O_11
REMARK    4  A    between atoms: C_5  and  C_25
REMARK    5  A    between atoms: C_6  and  O_13
REMARK    6  A    between atoms: O_13  and  C_16
REMARK    7  A    between atoms: C_25  and  O_26
REMARK                            x       y       z     vdW  Elec       q    Type
REMARK                         _______ _______ _______ _____ _____    ______ ____
ROOT
ATOM      1  O   UNL     1       1.482  -0.615   0.247  0.00  0.00    -0.316 OA
ATOM      2  C   UNL     1       3.849   0.988  -0.030  0.00  0.00    +0.173 C 
ATOM      3  C   UNL     1       3.870  -0.403   0.604  0.00  0.00    +0.169 C 
ATOM      4  C   UNL     1       2.450   1.601   0.028  0.00  0.00    +0.210 C 
ATOM      5  C   UNL     1       2.736  -1.270   0.050  0.00  0.00    +0.177 C 
ATOM      6  C   UNL     1       1.390   0.616  -0.465  0.00  0.00    +0.318 C 
ENDROOT
BRANCH   2   7
ATOM      7  O   UNL     1       4.761   1.816   0.692  0.00  0.00    -0.379 OA
ATOM      8  H   UNL     1       5.649   1.427   0.655  0.00  0.00    +0.211 HD
ENDBRANCH   2   7
BRANCH   3   9
ATOM      9  O   UNL     1       5.120  -1.029   0.326  0.00  0.00    -0.379 OA
ATOM     10  H   UNL     1       5.840  -0.481   0.676  0.00  0.00    +0.211 HD
ENDBRANCH   3   9
BRANCH   4  11
ATOM     11  O   UNL     1       2.405   2.760  -0.804  0.00  0.00    -0.377 OA
ATOM     12  H   UNL     1       3.072   3.398  -0.506  0.00  0.00    +0.211 HD
ENDBRANCH   4  11
BRANCH   6  13
ATOM     13  O   UNL     1       0.108   1.204  -0.247  0.00  0.00    -0.449 OA
BRANCH  13  16
ATOM     14 CL   UNL     1      -6.602  -0.254   0.990  0.00  0.00    -0.082 Cl
ATOM     15  N   UNL     1      -2.212  -0.976  -1.729  0.00  0.00    -0.309 N 
ATOM     16  C   UNL     1      -0.978   0.463  -0.623  0.00  0.00    +0.157 C 
ATOM     17  C   UNL     1      -2.260   0.484  -0.044  0.00  0.00    +0.049 C 
ATOM     18  C   UNL     1      -3.027  -0.436  -0.761  0.00  0.00    +0.052 C 
ATOM     19  C   UNL     1      -0.958  -0.431  -1.649  0.00  0.00    +0.099 C 
ATOM     20  C   UNL     1      -2.862   1.188   1.018  0.00  0.00    +0.005 C 
ATOM     21  C   UNL     1      -4.372  -0.689  -0.468  0.00  0.00    +0.026 C 
ATOM     22  C   UNL     1      -4.207   0.945   1.323  0.00  0.00    +0.012 C 
ATOM     23  C   UNL     1      -4.948   0.020   0.590  0.00  0.00    +0.059 C 
ATOM     24  H   UNL     1      -2.489  -1.657  -2.384  0.00  0.00    +0.152 HD
ENDBRANCH  13  16
ENDBRANCH   6  13
BRANCH   5  25
ATOM     25  C   UNL     1       2.665  -2.622   0.752  0.00  0.00    +0.169 C 
BRANCH  25  26
ATOM     26  O   UNL     1       1.592  -3.361   0.198  0.00  0.00    -0.379 OA
ATOM     27  H   UNL     1       1.535  -4.225   0.636  0.00  0.00    +0.211 HD
ENDBRANCH  25  26
ENDBRANCH   5  25
TORSDOF 7
