REMARK  Name = 102826
REMARK  7 active torsions:
REMARK  status: ('A' for Active; 'I' for Inactive)
REMARK    1  A    between atoms: C_2  and  C_3
REMARK    2  A    between atoms: C_2  and  O_14
REMARK    3  A    between atoms: C_3  and  N_6
REMARK    4  A    between atoms: C_7  and  O_9
REMARK    5  A    between atoms: O_9  and  C_10
REMARK    6  A    between atoms: O_14  and  C_15
REMARK    7  A    between atoms: C_18  and  N_23
REMARK                            x       y       z     vdW  Elec       q    Type
REMARK                         _______ _______ _______ _____ _____    ______ ____
ROOT
ATOM      1  O   UNL     1      -0.849  -2.346  -0.787  0.00  0.00    -0.248 OA
ATOM      2  C   UNL     1      -0.059  -1.530  -0.324  0.00  0.00    +0.340 C 
ENDROOT
BRANCH   2   3
ATOM      3  C   UNL     1       1.441  -1.783  -0.254  0.00  0.00    +0.174 C 
ATOM      4  C   UNL     1       1.729  -3.007   0.602  0.00  0.00    +0.033 C 
BRANCH   3   6
ATOM      5  O   UNL     1       4.112  -0.897  -0.976  0.00  0.00    -0.226 OA
ATOM      6  N   UNL     1       2.160  -0.636   0.252  0.00  0.00    -0.262 N 
ATOM      7  C   UNL     1       3.433  -0.292  -0.153  0.00  0.00    +0.402 C 
ATOM      8  H   UNL     1       1.717  -0.069   0.923  0.00  0.00    +0.153 HD
BRANCH   7   9
ATOM      9  O   UNL     1       3.839   0.837   0.504  0.00  0.00    -0.442 OA
BRANCH   9  10
ATOM     10  C   UNL     1       5.147   1.313   0.183  0.00  0.00    +0.138 C 
ATOM     11  C   UNL     1       5.194   1.634  -1.310  0.00  0.00    +0.044 C 
ATOM     12  C   UNL     1       5.395   2.571   1.011  0.00  0.00    +0.044 C 
ATOM     13  C   UNL     1       6.161   0.226   0.538  0.00  0.00    +0.044 C 
ENDBRANCH   9  10
ENDBRANCH   7   9
ENDBRANCH   3   6
ENDBRANCH   2   3
BRANCH   2  14
ATOM     14  O   UNL     1      -0.388  -0.280   0.186  0.00  0.00    -0.423 OA
BRANCH  14  15
ATOM     15  C   UNL     1      -1.758  -0.009   0.139  0.00  0.00    +0.149 C 
ATOM     16  C   UNL     1      -2.539  -0.364   1.216  0.00  0.00    +0.039 C 
ATOM     17  C   UNL     1      -2.273   0.605  -0.981  0.00  0.00    +0.039 C 
ATOM     18  C   UNL     1      -4.457   0.528   0.048  0.00  0.00    +0.143 C 
ATOM     19  C   UNL     1      -3.907  -0.092   1.170  0.00  0.00    +0.027 C 
ATOM     20  C   UNL     1      -3.640   0.877  -1.027  0.00  0.00    +0.027 C 
BRANCH  18  23
ATOM     21  O   UNL     1      -6.567   0.479   0.978  0.00  0.00    -0.126 OA
ATOM     22  O   UNL     1      -6.324   1.362  -1.017  0.00  0.00    -0.126 OA
ATOM     23  N   UNL     1      -5.849   0.803   0.001  0.00  0.00    +0.058 N 
ENDBRANCH  18  23
ENDBRANCH  14  15
ENDBRANCH   2  14
TORSDOF 7
