REMARK  Name = 102818
REMARK  10 active torsions:
REMARK  status: ('A' for Active; 'I' for Inactive)
REMARK    1  A    between atoms: C_1  and  C_4
REMARK    2  A    between atoms: C_1  and  N_16
REMARK    3  A    between atoms: C_1  and  C_25
REMARK    4  A    between atoms: N_3  and  C_6
REMARK    5  A    between atoms: C_11  and  N_14
REMARK    6  A    between atoms: C_17  and  C_19
REMARK    7  A    between atoms: C_19  and  C_20
REMARK    8  A    between atoms: C_20  and  C_22
REMARK    9  A    between atoms: C_22  and  O_23
REMARK   10  A    between atoms: C_25  and  C_26
REMARK                            x       y       z     vdW  Elec       q    Type
REMARK                         _______ _______ _______ _____ _____    ______ ____
ROOT
ATOM      1  C   UNL     1       1.344   0.615  -0.073  0.00  0.00    +0.153 C 
ENDROOT
BRANCH   1   4
ATOM      2  O   UNL     1       0.150  -0.921  -1.500  0.00  0.00    -0.273 OA
ATOM      3  N   UNL     1      -0.932  -0.045   0.389  0.00  0.00    -0.283 N 
ATOM      4  C   UNL     1       0.123  -0.200  -0.506  0.00  0.00    +0.244 C 
ATOM      5  H   UNL     1      -0.765   0.547   1.158  0.00  0.00    +0.155 HD
BRANCH   3   6
ATOM      6  C   UNL     1      -2.215  -0.637   0.324  0.00  0.00    +0.050 C 
ATOM      7  C   UNL     1      -3.158  -0.367   1.316  0.00  0.00    +0.016 C 
ATOM      8  C   UNL     1      -2.537  -1.490  -0.731  0.00  0.00    +0.016 C 
ATOM      9  C   UNL     1      -4.423  -0.952   1.253  0.00  0.00    +0.025 C 
ATOM     10  C   UNL     1      -3.802  -2.074  -0.795  0.00  0.00    +0.025 C 
ATOM     11  C   UNL     1      -4.745  -1.805   0.197  0.00  0.00    +0.143 C 
BRANCH  11  14
ATOM     12  O   UNL     1      -6.866  -2.144   1.035  0.00  0.00    -0.126 OA
ATOM     13  O   UNL     1      -6.302  -3.164  -0.825  0.00  0.00    -0.126 OA
ATOM     14  N   UNL     1      -6.032  -2.400   0.133  0.00  0.00    +0.058 N 
ENDBRANCH  11  14
ENDBRANCH   3   6
ENDBRANCH   1   4
BRANCH   1  16
ATOM     15  O   UNL     1       3.849   0.533   1.373  0.00  0.00    -0.275 OA
ATOM     16  N   UNL     1       2.508  -0.183  -0.385  0.00  0.00    -0.298 N 
ATOM     17  C   UNL     1       3.670  -0.155   0.372  0.00  0.00    +0.223 C 
ATOM     18  H   UNL     1       2.474  -0.775  -1.171  0.00  0.00    +0.150 HD
BRANCH  17  19
ATOM     19  C   UNL     1       4.725  -1.092  -0.191  0.00  0.00    +0.097 C 
BRANCH  19  20
ATOM     20  C   UNL     1       6.013  -1.077   0.626  0.00  0.00    +0.119 C 
BRANCH  20  22
ATOM     21  O   UNL     1       6.910  -2.716  -0.934  0.00  0.00    -0.250 OA
ATOM     22  C   UNL     1       7.056  -2.007   0.052  0.00  0.00    +0.314 C 
BRANCH  22  23
ATOM     23  O   UNL     1       8.208  -1.966   0.772  0.00  0.00    -0.480 OA
ATOM     24  H   UNL     1       8.272  -1.407   1.521  0.00  0.00    +0.295 HD
ENDBRANCH  22  23
ENDBRANCH  20  22
ENDBRANCH  19  20
ENDBRANCH  17  19
ENDBRANCH   1  16
BRANCH   1  25
ATOM     25  C   UNL     1       1.408   1.964  -0.799  0.00  0.00    +0.055 C 
BRANCH  25  26
ATOM     26  C   UNL     1       0.248   2.873  -0.479  0.00  0.00    -0.020 C 
ATOM     27  C   UNL     1      -0.910   2.826  -1.256  0.00  0.00    -0.004 C 
ATOM     28  C   UNL     1       0.333   3.762   0.593  0.00  0.00    -0.004 C 
ATOM     29  C   UNL     1      -1.984   3.666  -0.960  0.00  0.00    -0.000 C 
ATOM     30  C   UNL     1      -0.741   4.603   0.888  0.00  0.00    -0.000 C 
ATOM     31  C   UNL     1      -1.899   4.555   0.112  0.00  0.00    -0.000 C 
ENDBRANCH  25  26
ENDBRANCH   1  25
TORSDOF 10
