REMARK  Name = 10293154
REMARK  5 active torsions:
REMARK  status: ('A' for Active; 'I' for Inactive)
REMARK    1  A    between atoms: N_1  and  C_22
REMARK    2  A    between atoms: C_4  and  C_11
REMARK    3  A    between atoms: C_11  and  C_14
REMARK    4  A    between atoms: N_13  and  C_18
REMARK    5  A    between atoms: C_22  and  C_25
REMARK                            x       y       z     vdW  Elec       q    Type
REMARK                         _______ _______ _______ _____ _____    ______ ____
ROOT
ATOM      1  N   UNL     1       1.922  -0.230  -1.043  0.00  0.00    -0.279 N 
ATOM      2  C   UNL     1       2.635  -1.202  -0.378  0.00  0.00    +0.052 C 
ATOM      3  C   UNL     1       1.707  -2.099   0.155  0.00  0.00    +0.018 C 
ATOM      4  C   UNL     1       0.415  -1.631  -0.213  0.00  0.00    +0.060 C 
ATOM      5  C   UNL     1       0.580  -0.481  -0.949  0.00  0.00    +0.069 C 
ATOM      6  C   UNL     1       4.016  -1.353  -0.210  0.00  0.00    +0.015 C 
ATOM      7  C   UNL     1       2.178  -3.203   0.893  0.00  0.00    +0.001 C 
ATOM      8  C   UNL     1       4.460  -2.456   0.526  0.00  0.00    +0.001 C 
ATOM      9  C   UNL     1       3.557  -3.368   1.070  0.00  0.00    +0.000 C 
ENDROOT
BRANCH   4  11
ATOM     10  O   UNL     1      -1.023  -3.257   0.752  0.00  0.00    -0.282 OA
ATOM     11  C   UNL     1      -0.860  -2.213   0.099  0.00  0.00    +0.250 C 
BRANCH  11  14
ATOM     12  O   UNL     1      -2.591  -1.962  -1.448  0.00  0.00    -0.266 OA
ATOM     13  N   UNL     1      -2.663  -0.708   0.562  0.00  0.00    -0.272 N 
ATOM     14  C   UNL     1      -2.166  -1.602  -0.363  0.00  0.00    +0.289 C 
ATOM     15  H   UNL     1      -2.130  -0.579   1.380  0.00  0.00    +0.156 HD
BRANCH  13  18
ATOM     16  S   UNL     1      -4.229   1.077   1.745  0.00  0.00    +0.028 S 
ATOM     17  N   UNL     1      -5.643   1.627   1.066  0.00  0.00    -0.212 NA
ATOM     18  C   UNL     1      -3.857   0.043   0.461  0.00  0.00    +0.100 C 
ATOM     19  C   UNL     1      -4.793   0.094  -0.503  0.00  0.00    +0.038 C 
ATOM     20  C   UNL     1      -5.800   1.020  -0.108  0.00  0.00    +0.069 C 
ATOM     21  C   UNL     1      -7.000   1.353  -0.904  0.00  0.00    +0.053 C 
ENDBRANCH  13  18
ENDBRANCH  11  14
ENDBRANCH   4  11
BRANCH   1  22
ATOM     22  C   UNL     1       2.493   0.901  -1.744  0.00  0.00    +0.163 C 
BRANCH  22  25
ATOM     23  O   UNL     1       1.589   2.908  -0.779  0.00  0.00    -0.356 OA
ATOM     24  N   UNL     1       1.890   3.936   0.105  0.00  0.00    -0.082 NA
ATOM     25  C   UNL     1       2.646   2.082  -0.826  0.00  0.00    +0.174 C 
ATOM     26  C   UNL     1       3.645   2.491  -0.024  0.00  0.00    +0.055 C 
ATOM     27  C   UNL     1       3.123   3.666   0.543  0.00  0.00    +0.101 C 
ATOM     28  C   UNL     1       3.770   4.565   1.512  0.00  0.00    +0.056 C 
ENDBRANCH  22  25
ENDBRANCH   1  22
TORSDOF 5
