10298879
  -OEChem-03292013303D

 60 63  0     1  0  0  0  0  0999 V2000
   -2.6758    1.0156   -1.0324 O   0  0  0  0  0  0  0  0  0  0  0  0
   -1.1612   -2.3189   -1.5085 O   0  0  0  0  0  0  0  0  0  0  0  0
   -3.3788   -2.4727   -0.1520 O   0  0  0  0  0  0  0  0  0  0  0  0
   -4.5939   -0.4726    0.1706 O   0  0  0  0  0  0  0  0  0  0  0  0
    2.9814   -2.3993    1.7697 O   0  0  0  0  0  0  0  0  0  0  0  0
    0.7809   -2.7845    1.2508 O   0  0  0  0  0  0  0  0  0  0  0  0
    0.4783    4.6779    2.9487 O   0  5  0  0  0  0  0  0  0  0  0  0
    1.8030    2.9273    2.9581 O   0  0  0  0  0  0  0  0  0  0  0  0
    1.1741   -0.5383   -0.6997 N   0  0  0  0  0  0  0  0  0  0  0  0
    0.7757    3.5243    2.5546 N   0  3  0  0  0  0  0  0  0  0  0  0
   -2.6291   -0.4172   -1.1609 C   0  0  1  0  0  0  0  0  0  0  0  0
   -1.1837   -0.8962   -1.4048 C   0  0  1  0  0  0  0  0  0  0  0  0
   -0.2394   -0.4446   -0.2736 C   0  0  2  0  0  0  0  0  0  0  0  0
   -0.5873    0.9381    0.2348 C   0  0  0  0  0  0  0  0  0  0  0  0
   -3.2988   -1.0672    0.0644 C   0  0  0  0  0  0  0  0  0  0  0  0
   -3.4923   -0.7458   -2.3924 C   0  0  0  0  0  0  0  0  0  0  0  0
   -1.7614    1.5781   -0.1824 C   0  0  0  0  0  0  0  0  0  0  0  0
    1.7279    0.1763   -1.7333 C   0  0  0  0  0  0  0  0  0  0  0  0
    2.1091   -1.3472   -0.1198 C   0  0  0  0  0  0  0  0  0  0  0  0
    0.2354    1.5925    1.1680 C   0  0  0  0  0  0  0  0  0  0  0  0
    3.0716   -0.1966   -1.8107 C   0  0  0  0  0  0  0  0  0  0  0  0
   -2.0641    2.8695    0.2616 C   0  0  0  0  0  0  0  0  0  0  0  0
    3.2975   -1.1584   -0.7867 C   0  0  0  0  0  0  0  0  0  0  0  0
   -0.0770    2.8742    1.6236 C   0  0  0  0  0  0  0  0  0  0  0  0
    1.1535    1.1144   -2.5984 C   0  0  0  0  0  0  0  0  0  0  0  0
   -1.2218    3.5165    1.1626 C   0  0  0  0  0  0  0  0  0  0  0  0
    1.8604   -2.2226    0.9848 C   0  0  0  0  0  0  0  0  0  0  0  0
    3.8836    0.3945   -2.7988 C   0  0  0  0  0  0  0  0  0  0  0  0
    1.9782    1.6871   -3.5709 C   0  0  0  0  0  0  0  0  0  0  0  0
   -3.9855   -3.1674    0.9292 C   0  0  0  0  0  0  0  0  0  0  0  0
   -5.3211   -0.9935    1.2754 C   0  0  0  0  0  0  0  0  0  0  0  0
    3.3225    1.3341   -3.6713 C   0  0  0  0  0  0  0  0  0  0  0  0
    2.8545   -3.2585    2.9086 C   0  0  0  0  0  0  0  0  0  0  0  0
    4.1833   -3.3189    3.6311 C   0  0  0  0  0  0  0  0  0  0  0  0
   -0.8616   -0.5183   -2.3775 H   0  0  0  0  0  0  0  0  0  0  0  0
   -0.3906   -1.0981    0.5829 H   0  0  0  0  0  0  0  0  0  0  0  0
   -2.7363   -0.8554    0.9817 H   0  0  0  0  0  0  0  0  0  0  0  0
   -4.5068   -0.3412   -2.3019 H   0  0  0  0  0  0  0  0  0  0  0  0
   -3.5627   -1.8200   -2.5902 H   0  0  0  0  0  0  0  0  0  0  0  0
   -3.0703   -0.2705   -3.2867 H   0  0  0  0  0  0  0  0  0  0  0  0
    1.1253    1.0794    1.5257 H   0  0  0  0  0  0  0  0  0  0  0  0
   -1.3498   -2.6936   -0.6319 H   0  0  0  0  0  0  0  0  0  0  0  0
   -2.9670    3.3696   -0.0796 H   0  0  0  0  0  0  0  0  0  0  0  0
    4.2341   -1.6554   -0.5707 H   0  0  0  0  0  0  0  0  0  0  0  0
    0.1176    1.4237   -2.5321 H   0  0  0  0  0  0  0  0  0  0  0  0
   -1.4958    4.5158    1.4904 H   0  0  0  0  0  0  0  0  0  0  0  0
    4.9331    0.1290   -2.8880 H   0  0  0  0  0  0  0  0  0  0  0  0
    1.5645    2.4228   -4.2559 H   0  0  0  0  0  0  0  0  0  0  0  0
   -3.5353   -4.1689    0.9005 H   0  0  0  0  0  0  0  0  0  0  0  0
   -5.0394   -3.3812    0.7552 H   0  0  0  0  0  0  0  0  0  0  0  0
   -3.7072   -2.7977    1.9183 H   0  0  0  0  0  0  0  0  0  0  0  0
   -4.7290   -1.1439    2.1803 H   0  0  0  0  0  0  0  0  0  0  0  0
   -6.0100   -1.7862    0.9865 H   0  0  0  0  0  0  0  0  0  0  0  0
   -6.0060   -0.1830    1.5597 H   0  0  0  0  0  0  0  0  0  0  0  0
    3.9443    1.7941   -4.4348 H   0  0  0  0  0  0  0  0  0  0  0  0
    2.5661   -4.2617    2.5762 H   0  0  0  0  0  0  0  0  0  0  0  0
    2.0845   -2.8612    3.5789 H   0  0  0  0  0  0  0  0  0  0  0  0
    4.4931   -2.3189    3.9520 H   0  0  0  0  0  0  0  0  0  0  0  0
    4.9669   -3.6959    2.9656 H   0  0  0  0  0  0  0  0  0  0  0  0
    4.1222   -3.9686    4.5088 H   0  0  0  0  0  0  0  0  0  0  0  0
  1 11  1  0  0  0  0
  1 17  1  0  0  0  0
  2 12  1  0  0  0  0
  2 42  1  0  0  0  0
  3 15  1  0  0  0  0
  3 30  1  0  0  0  0
  4 15  1  0  0  0  0
  4 31  1  0  0  0  0
  5 27  1  0  0  0  0
  5 33  1  0  0  0  0
  6 27  2  0  0  0  0
  7 10  1  0  0  0  0
  8 10  2  0  0  0  0
  9 13  1  0  0  0  0
  9 18  1  0  0  0  0
  9 19  1  0  0  0  0
 10 24  1  0  0  0  0
 11 12  1  0  0  0  0
 11 15  1  0  0  0  0
 11 16  1  0  0  0  0
 12 13  1  0  0  0  0
 12 35  1  0  0  0  0
 13 14  1  0  0  0  0
 13 36  1  0  0  0  0
 14 17  2  0  0  0  0
 14 20  1  0  0  0  0
 15 37  1  0  0  0  0
 16 38  1  0  0  0  0
 16 39  1  0  0  0  0
 16 40  1  0  0  0  0
 17 22  1  0  0  0  0
 18 21  1  0  0  0  0
 18 25  2  0  0  0  0
 19 23  2  0  0  0  0
 19 27  1  0  0  0  0
 20 24  2  0  0  0  0
 20 41  1  0  0  0  0
 21 23  1  0  0  0  0
 21 28  2  0  0  0  0
 22 26  2  0  0  0  0
 22 43  1  0  0  0  0
 23 44  1  0  0  0  0
 24 26  1  0  0  0  0
 25 29  1  0  0  0  0
 25 45  1  0  0  0  0
 26 46  1  0  0  0  0
 28 32  1  0  0  0  0
 28 47  1  0  0  0  0
 29 32  2  0  0  0  0
 29 48  1  0  0  0  0
 30 49  1  0  0  0  0
 30 50  1  0  0  0  0
 30 51  1  0  0  0  0
 31 52  1  0  0  0  0
 31 53  1  0  0  0  0
 31 54  1  0  0  0  0
 32 55  1  0  0  0  0
 33 34  1  0  0  0  0
 33 56  1  0  0  0  0
 33 57  1  0  0  0  0
 34 58  1  0  0  0  0
 34 59  1  0  0  0  0
 34 60  1  0  0  0  0
M  CHG  2   7  -1  10   1
M  END
> <PUBCHEM_COMPOUND_CID>
10298879

> <PUBCHEM_CONFORMER_RMSD>
1

> <PUBCHEM_CONFORMER_DIVERSEORDER>
1
9
10
5
2
7
8
3
6
4

> <PUBCHEM_MMFF94_PARTIAL_CHARGES>
40
1 -0.36
10 0.91
11 0.28
12 0.28
13 0.4
14 -0.14
15 0.56
17 0.08
18 -0.15
19 -0.24
2 -0.68
20 -0.15
22 -0.15
23 -0.15
24 0.13
25 -0.15
26 -0.15
27 0.81
28 -0.15
29 -0.15
3 -0.56
30 0.28
31 0.28
32 -0.15
33 0.28
4 -0.56
41 0.15
42 0.4
43 0.15
44 0.15
45 0.15
46 0.15
47 0.15
48 0.15
5 -0.43
55 0.15
6 -0.57
7 -0.52
8 -0.52
9 0.05

> <PUBCHEM_EFFECTIVE_ROTOR_COUNT>
8.8

> <PUBCHEM_PHARMACOPHORE_FEATURES>
14
1 1 acceptor
1 2 acceptor
1 2 donor
1 3 acceptor
1 4 acceptor
1 6 acceptor
1 7 acceptor
1 7 anion
1 8 acceptor
1 9 cation
5 9 18 19 21 23 rings
6 1 11 12 13 14 17 rings
6 14 17 20 22 24 26 rings
6 18 21 25 28 29 32 rings

> <PUBCHEM_HEAVY_ATOM_COUNT>
34

> <PUBCHEM_ATOM_DEF_STEREO_COUNT>
3

> <PUBCHEM_ATOM_UDEF_STEREO_COUNT>
0

> <PUBCHEM_BOND_DEF_STEREO_COUNT>
0

> <PUBCHEM_BOND_UDEF_STEREO_COUNT>
0

> <PUBCHEM_ISOTOPIC_ATOM_COUNT>
0

> <PUBCHEM_COMPONENT_COUNT>
1

> <PUBCHEM_CACTVS_TAUTO_COUNT>
1

> <PUBCHEM_CONFORMER_ID>
009D25FF00000001

> <PUBCHEM_MMFF94_ENERGY>
126.7823

> <PUBCHEM_FEATURE_SELFOVERLAP>
71.307

> <PUBCHEM_SHAPE_FINGERPRINT>
10305334 12 17407925114689258784
11007060 377 17680182752823582212
11421498 54 18265358203253535591
11578080 2 17756945040488508060
11582403 64 12877711902662376612
11640471 11 17905922213168913508
12160290 23 17841433631375051925
12553582 1 18202003222717723831
12788726 201 18198085611089840989
13009979 54 18191587441530250978
133893 2 17700672220204567333
13911987 19 16445350853083919318
14713325 29 17125410828538130292
14955137 171 17414193310325600583
15513586 35 16190227999919815490
15684970 41 18058723736362091678
15815584 197 17908959326309159121
1813 80 17130454413007917925
19319366 153 17969795257171369703
20600515 1 17631710721755449939
20905425 154 17988630922305501160
23419403 2 17328519252293162380
23559900 14 17750489885300213135
238918 7 16398604376507566723
392239 28 18266716121942214714
50150288 127 17762667985203687232
550186 7 17056368048798462338
57527293 21 16987410084949427230

> <PUBCHEM_SHAPE_MULTIPOLES>
642.79
7.43
4.96
4.06
4.2
2.48
2.61
5.75
-2.09
-2.72
4.77
-3.43
-3.68
-4.67

> <PUBCHEM_SHAPE_SELFOVERLAP>
1400.699

> <PUBCHEM_SHAPE_VOLUME>
349.2

> <PUBCHEM_COORDINATE_TYPE>
2
5
10

$$$$
