REMARK  Name = 102960
REMARK  7 active torsions:
REMARK  status: ('A' for Active; 'I' for Inactive)
REMARK    1  A    between atoms: CA_1  and  N_3
REMARK    2  A    between atoms: CA_1  and  C_13
REMARK    3  A    between atoms: CA_1  and  CB_16
REMARK    4  A    between atoms: C_4  and  CA_6
REMARK    5  A    between atoms: CA_6  and  N_8
REMARK    6  A    between atoms: C_13  and  O_14
REMARK    7  A    between atoms: CB_16  and  CG_19
REMARK                            x       y       z     vdW  Elec       q    Type
REMARK                         _______ _______ _______ _____ _____    ______ ____
ROOT
ATOM      1  CA  HIS A   2      -0.609  -1.277   0.205  0.00  0.00    +0.177 C 
ENDROOT
BRANCH   1   3
ATOM      2  O   ALA A   1      -1.123   1.191   1.596  0.00  0.00    -0.277 OA
ATOM      3  N   HIS A   2      -0.976  -0.010  -0.384  0.00  0.00    -0.298 N 
ATOM      4  C   ALA A   1      -1.205   1.133   0.371  0.00  0.00    +0.202 C 
ATOM      5  H   HIS A   2      -1.067   0.045  -1.363  0.00  0.00    +0.150 HD
BRANCH   4   6
ATOM      6  CA  ALA A   1      -1.590   2.323  -0.498  0.00  0.00    +0.013 C 
ATOM      7  CB  ALA A   1      -0.348   3.113  -0.893  0.00  0.00    -0.015 C 
BRANCH   6   8
ATOM      8  N   ALA A   1      -2.506   3.169   0.263  0.00  0.00    +0.387 N 
ATOM      9  H1  ALA A   1      -3.333   2.629   0.520  0.00  0.00    -0.089 HD
ATOM     10  H2  ALA A   1      -2.786   3.967  -0.308  0.00  0.00    -0.089 HD
ATOM     11  H3  ALA A   1      -2.040   3.502   1.107  0.00  0.00    -0.089 HD
ENDBRANCH   6   8
ENDBRANCH   4   6
ENDBRANCH   1   3
BRANCH   1  13
ATOM     12  OXT HIS A   2      -1.634  -3.456   0.437  0.00  0.00    -0.248 OA
ATOM     13  C   HIS A   2      -1.684  -2.326  -0.038  0.00  0.00    +0.332 C 
BRANCH  13  14
ATOM     14  O   HIS A   2      -2.706  -1.920  -0.828  0.00  0.00    -0.479 OA
ATOM     15  H   HIS A   2      -2.713  -1.050  -1.175  0.00  0.00    +0.295 HD
ENDBRANCH  13  14
ENDBRANCH   1  13
BRANCH   1  16
ATOM     16  CB  HIS A   2       0.739  -1.772  -0.337  0.00  0.00    +0.073 C 
BRANCH  16  19
ATOM     17  ND1 HIS A   2       2.583  -0.283  -1.103  0.00  0.00    -0.319 N 
ATOM     18  NE2 HIS A   2       3.371   0.600   0.776  0.00  0.00    -0.315 N 
ATOM     19  CG  HIS A   2       1.859  -0.788  -0.089  0.00  0.00    +0.040 C 
ATOM     20  CD2 HIS A   2       2.334  -0.256   1.055  0.00  0.00    +0.069 C 
ATOM     21  CE1 HIS A   2       3.495   0.560  -0.532  0.00  0.00    +0.182 C 
ATOM     22  HD1 HIS A   2       2.477  -0.480  -2.062  0.00  0.00    +0.148 HD
ATOM     23  HE2 HIS A   2       3.904   1.126   1.415  0.00  0.00    +0.148 HD
ENDBRANCH  16  19
ENDBRANCH   1  16
TORSDOF 7
