REMARK  Name = 102929
REMARK  14 active torsions:
REMARK  status: ('A' for Active; 'I' for Inactive)
REMARK    1  A    between atoms: N_2  and  CA_5
REMARK    2  A    between atoms: C_3  and  C_20
REMARK    3  A    between atoms: CA_5  and  C_8
REMARK    4  A    between atoms: CA_5  and  CB_15
REMARK    5  A    between atoms: N_7  and  CA_10
REMARK    6  A    between atoms: CA_10  and  C_12
REMARK    7  A    between atoms: C_12  and  O_13
REMARK    8  A    between atoms: CB_15  and  SG_16
REMARK    9  A    between atoms: SG_16  and  C_18
REMARK   10  A    between atoms: C_20  and  C_21
REMARK   11  A    between atoms: C_21  and  CA_22
REMARK   12  A    between atoms: CA_22  and  N_23
REMARK   13  A    between atoms: CA_22  and  C_28
REMARK   14  A    between atoms: C_28  and  O_29
REMARK                            x       y       z     vdW  Elec       q    Type
REMARK                         _______ _______ _______ _____ _____    ______ ____
ROOT
ATOM      1  O   UNL     1       1.671   0.530  -2.084  0.00  0.00    -0.275 OA
ATOM      2  N   UNL     1       0.403  -0.131  -0.254  0.00  0.00    -0.298 N 
ATOM      3  C   UNL     1       1.581   0.210  -0.902  0.00  0.00    +0.223 C 
ATOM      4  H   UNL     1       0.443  -0.373   0.700  0.00  0.00    +0.150 HD
ENDROOT
BRANCH   2   5
ATOM      5  CA  UNL     1      -0.880  -0.148  -0.918  0.00  0.00    +0.160 C 
BRANCH   5   8
ATOM      6  O   UNL     1      -1.365  -1.959   0.622  0.00  0.00    -0.273 OA
ATOM      7  N   UNL     1      -2.911  -1.460  -1.034  0.00  0.00    -0.294 N 
ATOM      8  C   ACE A   1      -1.724  -1.281  -0.338  0.00  0.00    +0.242 C 
ATOM      9  H   UNL     1      -3.109  -0.863  -1.791  0.00  0.00    +0.150 HD
BRANCH   7  10
ATOM     10  CA  UNL     1      -3.868  -2.486  -0.691  0.00  0.00    +0.200 C 
BRANCH  10  12
ATOM     11  OXT UNL     1      -5.788  -2.740   0.738  0.00  0.00    -0.248 OA
ATOM     12  C   UNL     1      -4.894  -2.021   0.310  0.00  0.00    +0.334 C 
BRANCH  12  13
ATOM     13  O   UNL     1      -4.735  -0.731   0.689  0.00  0.00    -0.479 OA
ATOM     14  H   UNL     1      -4.035  -0.221   0.332  0.00  0.00    +0.295 HD
ENDBRANCH  12  13
ENDBRANCH  10  12
ENDBRANCH   7  10
ENDBRANCH   5   8
BRANCH   5  15
ATOM     15  CB  UNL     1      -1.572   1.216  -0.867  0.00  0.00    +0.094 C 
BRANCH  15  16
ATOM     16  SG  UNL     1      -2.023   1.748   0.817  0.00  0.00    -0.075 S 
BRANCH  16  18
ATOM     17  O   UNL     1      -2.979   3.704  -0.686  0.00  0.00    -0.285 OA
ATOM     18  C   UNL     1      -2.838   3.264   0.449  0.00  0.00    +0.199 C 
ATOM     19  C   UNL     1      -3.346   3.974   1.672  0.00  0.00    +0.085 C 
ENDBRANCH  16  18
ENDBRANCH  15  16
ENDBRANCH   5  15
ENDBRANCH   2   5
BRANCH   3  20
ATOM     20  C   UNL     1       2.776   0.133   0.034  0.00  0.00    +0.083 C 
BRANCH  20  21
ATOM     21  C   UNL     1       4.087   0.506  -0.661  0.00  0.00    -0.001 C 
BRANCH  21  22
ATOM     22  CA  UNL     1       5.287   0.503   0.291  0.00  0.00    +0.036 C 
BRANCH  22  23
ATOM     23  N   UNL     1       6.499   0.868  -0.447  0.00  0.00    +0.389 N 
ATOM     24  H1  UNL     1       6.382   1.796  -0.855  0.00  0.00    -0.088 HD
ATOM     25  H2  UNL     1       6.662   0.188  -1.190  0.00  0.00    -0.088 HD
ATOM     26  H3  UNL     1       7.296   0.875   0.189  0.00  0.00    -0.088 HD
ENDBRANCH  22  23
BRANCH  22  28
ATOM     27  OXT UNL     1       6.198  -1.758   0.335  0.00  0.00    -0.253 OA
ATOM     28  C   UNL     1       5.530  -0.880   0.868  0.00  0.00    +0.293 C 
BRANCH  28  29
ATOM     29  O   UNL     1       4.893  -1.062   2.055  0.00  0.00    -0.482 OA
ATOM     30  H   UNL     1       4.392  -0.364   2.429  0.00  0.00    +0.295 HD
ENDBRANCH  28  29
ENDBRANCH  22  28
ENDBRANCH  21  22
ENDBRANCH  20  21
ENDBRANCH   3  20
TORSDOF 14
