REMARK  Name = 10295883
REMARK  9 active torsions:
REMARK  status: ('A' for Active; 'I' for Inactive)
REMARK    1  A    between atoms: N_1  and  C_4
REMARK    2  A    between atoms: N_1  and  C_18
REMARK    3  A    between atoms: C_4  and  N_5
REMARK    4  A    between atoms: N_5  and  C_7
REMARK    5  A    between atoms: C_7  and  C_11
REMARK    6  A    between atoms: C_8  and  C_14
REMARK    7  A    between atoms: C_18  and  C_20
REMARK    8  A    between atoms: C_21  and  N_26
REMARK    9  A    between atoms: N_26  and  S_28
REMARK                            x       y       z     vdW  Elec       q    Type
REMARK                         _______ _______ _______ _____ _____    ______ ____
ROOT
ATOM      1  N   UNL     1      -1.244   3.697  -0.897  0.00  0.00    -0.312 N 
ATOM      2  H   UNL     1      -1.538   3.991  -1.790  0.00  0.00    +0.149 HD
ENDROOT
BRANCH   1   4
ATOM      3  S   UNL     1       1.152   4.019  -1.957  0.00  0.00    -0.019 S 
ATOM      4  C   UNL     1       0.120   3.616  -0.692  0.00  0.00    +0.132 C 
BRANCH   4   5
ATOM      5  N   UNL     1       0.530   3.201   0.570  0.00  0.00    -0.312 N 
ATOM      6  H   UNL     1      -0.179   2.996   1.222  0.00  0.00    +0.149 HD
BRANCH   5   7
ATOM      7  C   UNL     1       1.891   3.042   1.018  0.00  0.00    +0.116 C 
BRANCH   7  11
ATOM      8  C   UNL     1       3.430  -0.806   0.149  0.00  0.00    -0.023 C 
ATOM      9  C   UNL     1       2.167  -0.715   0.679  0.00  0.00    -0.005 C 
ATOM     10  C   UNL     1       4.219   0.285  -0.114  0.00  0.00    -0.005 C 
ATOM     11  C   UNL     1       2.433   1.686   0.713  0.00  0.00    -0.003 C 
ATOM     12  C   UNL     1       1.660   0.553   0.966  0.00  0.00    -0.003 C 
ATOM     13  C   UNL     1       3.712   1.552   0.173  0.00  0.00    -0.003 C 
BRANCH   8  14
ATOM     14  C   UNL     1       3.989  -2.204  -0.166  0.00  0.00    +0.019 C 
ATOM     15  C   UNL     1       3.077  -2.908  -1.195  0.00  0.00    +0.004 C 
ATOM     16  C   UNL     1       4.040  -3.047   1.126  0.00  0.00    +0.004 C 
ATOM     17  C   UNL     1       5.416  -2.187  -0.758  0.00  0.00    +0.004 C 
ENDBRANCH   8  14
ENDBRANCH   7  11
ENDBRANCH   5   7
ENDBRANCH   4   5
ENDBRANCH   1   4
BRANCH   1  18
ATOM     18  C   UNL     1      -2.286   3.395   0.064  0.00  0.00    +0.116 C 
BRANCH  18  20
ATOM     19  F   UNL     1      -3.326  -0.760   2.367  0.00  0.00    -0.203 F 
ATOM     20  C   UNL     1      -2.669   1.944   0.039  0.00  0.00    -0.000 C 
ATOM     21  C   UNL     1      -3.376  -0.744  -0.007  0.00  0.00    +0.092 C 
ATOM     22  C   UNL     1      -2.824   1.253   1.235  0.00  0.00    +0.028 C 
ATOM     23  C   UNL     1      -2.865   1.305  -1.180  0.00  0.00    -0.001 C 
ATOM     24  C   UNL     1      -3.178  -0.096   1.212  0.00  0.00    +0.154 C 
ATOM     25  C   UNL     1      -3.219  -0.044  -1.203  0.00  0.00    +0.018 C 
BRANCH  21  26
ATOM     26  N   UNL     1      -3.739  -2.125  -0.033  0.00  0.00    -0.217 N 
ATOM     27  H   UNL     1      -4.634  -2.418   0.255  0.00  0.00    +0.173 HD
BRANCH  26  28
ATOM     28  S   UNL     1      -2.570  -3.264  -0.583  0.00  0.00    +0.056 S 
ATOM     29  O   UNL     1      -3.228  -4.543  -0.771  0.00  0.00    -0.154 OA
ATOM     30  O   UNL     1      -1.748  -2.696  -1.633  0.00  0.00    -0.154 OA
ATOM     31  C   UNL     1      -1.565  -3.411   0.878  0.00  0.00    +0.200 C 
ENDBRANCH  26  28
ENDBRANCH  21  26
ENDBRANCH  18  20
ENDBRANCH   1  18
TORSDOF 9
