REMARK  Name = 1029232
REMARK  7 active torsions:
REMARK  status: ('A' for Active; 'I' for Inactive)
REMARK    1  A    between atoms: C_1  and  N_7
REMARK    2  A    between atoms: C_4  and  N_24
REMARK    3  A    between atoms: C_10  and  C_14
REMARK    4  A    between atoms: C_11  and  O_21
REMARK    5  A    between atoms: C_25  and  C_27
REMARK    6  A    between atoms: C_27  and  S_28
REMARK    7  A    between atoms: S_28  and  C_29
REMARK                            x       y       z     vdW  Elec       q    Type
REMARK                         _______ _______ _______ _____ _____    ______ ____
ROOT
ATOM      1  C   UNL     1       1.279   1.668   0.174  0.00  0.00    +0.077 C 
ATOM      2  C   UNL     1       0.519   2.654  -0.443  0.00  0.00    +0.018 C 
ATOM      3  C   UNL     1       0.693   0.766   1.055  0.00  0.00    +0.018 C 
ATOM      4  C   UNL     1      -1.444   1.840   0.706  0.00  0.00    +0.050 C 
ATOM      5  C   UNL     1      -0.847   2.740  -0.176  0.00  0.00    +0.016 C 
ATOM      6  C   UNL     1      -0.674   0.853   1.321  0.00  0.00    +0.016 C 
ENDROOT
BRANCH   1   7
ATOM      7  N   UNL     1       2.644   1.581  -0.091  0.00  0.00    -0.150 N 
ATOM      8  N   UNL     1       4.665   0.803  -0.387  0.00  0.00    -0.303 NA
ATOM      9  N   UNL     1       3.353   2.677  -0.403  0.00  0.00    -0.073 NA
ATOM     10  C   UNL     1       3.430   0.470  -0.084  0.00  0.00    +0.221 C 
ATOM     11  C   UNL     1       4.569   2.152  -0.572  0.00  0.00    +0.269 C 
BRANCH  10  14
ATOM     12  O   UNL     1       1.573  -3.877  -1.347  0.00  0.00    -0.435 OA
ATOM     13  O   UNL     1       1.601  -4.668   0.929  0.00  0.00    -0.435 OA
ATOM     14  C   UNL     1       2.962  -0.862   0.215  0.00  0.00    +0.050 C 
ATOM     15  C   UNL     1       2.059  -2.946  -0.482  0.00  0.00    +0.177 C 
ATOM     16  C   UNL     1       2.497  -1.681  -0.817  0.00  0.00    +0.044 C 
ATOM     17  C   UNL     1       2.075  -3.397   0.818  0.00  0.00    +0.176 C 
ATOM     18  C   UNL     1       2.978  -1.323   1.543  0.00  0.00    +0.007 C 
ATOM     19  C   UNL     1       2.529  -2.609   1.855  0.00  0.00    +0.040 C 
ATOM     20  C   UNL     1       1.285  -4.966  -0.446  0.00  0.00    +0.429 C 
ENDBRANCH  10  14
BRANCH  11  21
ATOM     21  O   UNL     1       5.567   2.986  -0.904  0.00  0.00    -0.403 OA
ATOM     22  C   UNL     1       6.865   2.411  -1.083  0.00  0.00    +0.270 C 
ENDBRANCH  11  21
ENDBRANCH   1   7
BRANCH   4  24
ATOM     23  O   UNL     1      -3.187   0.161   2.485  0.00  0.00    -0.274 OA
ATOM     24  N   UNL     1      -2.810   1.926   0.973  0.00  0.00    -0.283 N 
ATOM     25  C   UNL     1      -3.580   1.118   1.822  0.00  0.00    +0.237 C 
ATOM     26  H   UNL     1      -3.295   2.645   0.506  0.00  0.00    +0.155 HD
BRANCH  25  27
ATOM     27  C   UNL     1      -5.038   1.524   1.851  0.00  0.00    +0.147 C 
BRANCH  27  28
ATOM     28  S   UNL     1      -6.044   0.126   1.299  0.00  0.00    -0.104 S 
BRANCH  28  29
ATOM     29  C   UNL     1      -5.411  -0.145  -0.354  0.00  0.00    +0.026 C 
ATOM     30  C   UNL     1      -5.493   0.872  -1.299  0.00  0.00    +0.006 C 
ATOM     31  C   UNL     1      -4.841  -1.371  -0.681  0.00  0.00    +0.006 C 
ATOM     32  C   UNL     1      -4.999   0.661  -2.586  0.00  0.00    +0.001 C 
ATOM     33  C   UNL     1      -4.347  -1.582  -1.969  0.00  0.00    +0.001 C 
ATOM     34  C   UNL     1      -4.426  -0.566  -2.921  0.00  0.00    +0.000 C 
ENDBRANCH  28  29
ENDBRANCH  27  28
ENDBRANCH  25  27
ENDBRANCH   4  24
TORSDOF 7
