REMARK  Name = 10298879
REMARK  9 active torsions:
REMARK  status: ('A' for Active; 'I' for Inactive)
REMARK    1  A    between atoms: C_2  and  C_31
REMARK    2  A    between atoms: C_3  and  O_29
REMARK    3  A    between atoms: C_4  and  N_12
REMARK    4  A    between atoms: C_10  and  N_28
REMARK    5  A    between atoms: C_14  and  C_22
REMARK    6  A    between atoms: C_22  and  O_23
REMARK    7  A    between atoms: O_23  and  C_24
REMARK    8  A    between atoms: C_31  and  O_32
REMARK    9  A    between atoms: C_31  and  O_34
REMARK                            x       y       z     vdW  Elec       q    Type
REMARK                         _______ _______ _______ _____ _____    ______ ____
ROOT
ATOM      1  O   UNL     1      -2.676   1.016  -1.032  0.00  0.00    -0.475 OA
ATOM      2  C   UNL     1      -2.629  -0.417  -1.161  0.00  0.00    +0.211 C 
ATOM      3  C   UNL     1      -1.184  -0.896  -1.405  0.00  0.00    +0.174 C 
ATOM      4  C   UNL     1      -0.239  -0.445  -0.274  0.00  0.00    +0.133 C 
ATOM      5  C   UNL     1      -0.587   0.938   0.235  0.00  0.00    +0.034 C 
ATOM      6  C   UNL     1      -3.492  -0.746  -2.392  0.00  0.00    +0.052 C 
ATOM      7  C   UNL     1      -1.761   1.578  -0.182  0.00  0.00    +0.136 C 
ATOM      8  C   UNL     1       0.235   1.593   1.168  0.00  0.00    +0.024 C 
ATOM      9  C   UNL     1      -2.064   2.869   0.262  0.00  0.00    +0.038 C 
ATOM     10  C   UNL     1      -0.077   2.874   1.624  0.00  0.00    +0.143 C 
ATOM     11  C   UNL     1      -1.222   3.517   1.163  0.00  0.00    +0.027 C 
ENDROOT
BRANCH   4  12
ATOM     12  N   UNL     1       1.174  -0.538  -0.700  0.00  0.00    -0.277 N 
ATOM     13  C   UNL     1       1.728   0.176  -1.733  0.00  0.00    +0.052 C 
ATOM     14  C   UNL     1       2.109  -1.347  -0.120  0.00  0.00    +0.129 C 
ATOM     15  C   UNL     1       3.072  -0.197  -1.811  0.00  0.00    +0.015 C 
ATOM     16  C   UNL     1       3.297  -1.158  -0.787  0.00  0.00    +0.023 C 
ATOM     17  C   UNL     1       1.153   1.114  -2.598  0.00  0.00    +0.015 C 
ATOM     18  C   UNL     1       3.884   0.395  -2.799  0.00  0.00    +0.001 C 
ATOM     19  C   UNL     1       1.978   1.687  -3.571  0.00  0.00    +0.001 C 
ATOM     20  C   UNL     1       3.322   1.334  -3.671  0.00  0.00    +0.000 C 
BRANCH  14  22
ATOM     21  O   UNL     1       0.781  -2.784   1.251  0.00  0.00    -0.243 OA
ATOM     22  C   UNL     1       1.860  -2.223   0.985  0.00  0.00    +0.355 C 
BRANCH  22  23
ATOM     23  O   UNL     1       2.981  -2.399   1.770  0.00  0.00    -0.445 OA
BRANCH  23  24
ATOM     24  C   UNL     1       2.854  -3.259   2.909  0.00  0.00    +0.209 C 
ATOM     25  C   UNL     1       4.183  -3.319   3.631  0.00  0.00    +0.051 C 
ENDBRANCH  23  24
ENDBRANCH  22  23
ENDBRANCH  14  22
ENDBRANCH   4  12
BRANCH  10  28
ATOM     26  O   UNL     1       0.478   4.678   2.949  0.00  0.00    -0.126 OA
ATOM     27  O   UNL     1       1.803   2.927   2.958  0.00  0.00    -0.126 OA
ATOM     28  N   UNL     1       0.776   3.524   2.555  0.00  0.00    +0.058 N 
ENDBRANCH  10  28
BRANCH   3  29
ATOM     29  O   UNL     1      -1.161  -2.319  -1.508  0.00  0.00    -0.379 OA
ATOM     30  H   UNL     1      -1.756  -2.601  -2.221  0.00  0.00    +0.211 HD
ENDBRANCH   3  29
BRANCH   2  31
ATOM     31  C   UNL     1      -3.299  -1.067   0.064  0.00  0.00    +0.276 C 
BRANCH  31  32
ATOM     32  O   UNL     1      -3.379  -2.473  -0.152  0.00  0.00    -0.325 OA
ATOM     33  C   UNL     1      -3.986  -3.167   0.929  0.00  0.00    +0.177 C 
ENDBRANCH  31  32
BRANCH  31  34
ATOM     34  O   UNL     1      -4.594  -0.473   0.171  0.00  0.00    -0.325 OA
ATOM     35  C   UNL     1      -5.321  -0.994   1.275  0.00  0.00    +0.177 C 
ENDBRANCH  31  34
ENDBRANCH   2  31
TORSDOF 9
