1029232
  -OEChem-03292013313D

 53 57  0     0  0  0  0  0  0999 V2000
   -6.0443    0.1257    1.2987 S   0  0  0  0  0  0  0  0  0  0  0  0
    1.5726   -3.8770   -1.3470 O   0  0  0  0  0  0  0  0  0  0  0  0
    1.6006   -4.6679    0.9293 O   0  0  0  0  0  0  0  0  0  0  0  0
    5.5668    2.9861   -0.9042 O   0  0  0  0  0  0  0  0  0  0  0  0
   -3.1867    0.1614    2.4848 O   0  0  0  0  0  0  0  0  0  0  0  0
    2.6441    1.5814   -0.0915 N   0  0  0  0  0  0  0  0  0  0  0  0
    4.6646    0.8029   -0.3865 N   0  0  0  0  0  0  0  0  0  0  0  0
    3.3529    2.6770   -0.4032 N   0  0  0  0  0  0  0  0  0  0  0  0
   -2.8104    1.9260    0.9729 N   0  0  0  0  0  0  0  0  0  0  0  0
    2.9618   -0.8617    0.2151 C   0  0  0  0  0  0  0  0  0  0  0  0
    3.4302    0.4704   -0.0836 C   0  0  0  0  0  0  0  0  0  0  0  0
    1.2794    1.6677    0.1745 C   0  0  0  0  0  0  0  0  0  0  0  0
    2.0587   -2.9456   -0.4820 C   0  0  0  0  0  0  0  0  0  0  0  0
    2.4966   -1.6806   -0.8165 C   0  0  0  0  0  0  0  0  0  0  0  0
    2.0746   -3.3972    0.8178 C   0  0  0  0  0  0  0  0  0  0  0  0
    2.9779   -1.3230    1.5431 C   0  0  0  0  0  0  0  0  0  0  0  0
    2.5290   -2.6086    1.8548 C   0  0  0  0  0  0  0  0  0  0  0  0
    0.5194    2.6541   -0.4430 C   0  0  0  0  0  0  0  0  0  0  0  0
    0.6927    0.7663    1.0548 C   0  0  0  0  0  0  0  0  0  0  0  0
   -1.4436    1.8396    0.7060 C   0  0  0  0  0  0  0  0  0  0  0  0
    1.2849   -4.9659   -0.4459 C   0  0  0  0  0  0  0  0  0  0  0  0
   -0.8471    2.7403   -0.1761 C   0  0  0  0  0  0  0  0  0  0  0  0
   -0.6738    0.8525    1.3213 C   0  0  0  0  0  0  0  0  0  0  0  0
    4.5685    2.1523   -0.5723 C   0  0  0  0  0  0  0  0  0  0  0  0
   -3.5801    1.1180    1.8221 C   0  0  0  0  0  0  0  0  0  0  0  0
   -5.0380    1.5244    1.8505 C   0  0  0  0  0  0  0  0  0  0  0  0
   -5.4109   -0.1449   -0.3542 C   0  0  0  0  0  0  0  0  0  0  0  0
    6.8653    2.4108   -1.0831 C   0  0  0  0  0  0  0  0  0  0  0  0
   -5.4929    0.8722   -1.2991 C   0  0  0  0  0  0  0  0  0  0  0  0
   -4.8409   -1.3706   -0.6813 C   0  0  0  0  0  0  0  0  0  0  0  0
   -4.9991    0.6612   -2.5864 C   0  0  0  0  0  0  0  0  0  0  0  0
   -4.3469   -1.5816   -1.9686 C   0  0  0  0  0  0  0  0  0  0  0  0
   -4.4261   -0.5657   -2.9212 C   0  0  0  0  0  0  0  0  0  0  0  0
    2.4756   -1.3422   -1.8475 H   0  0  0  0  0  0  0  0  0  0  0  0
    3.3560   -0.6911    2.3448 H   0  0  0  0  0  0  0  0  0  0  0  0
    2.5426   -2.9691    2.8771 H   0  0  0  0  0  0  0  0  0  0  0  0
    0.9541    3.3631   -1.1427 H   0  0  0  0  0  0  0  0  0  0  0  0
    1.2203    0.0837    1.6894 H   0  0  0  0  0  0  0  0  0  0  0  0
    0.2182   -5.2072   -0.5168 H   0  0  0  0  0  0  0  0  0  0  0  0
    1.8654   -5.8419   -0.7575 H   0  0  0  0  0  0  0  0  0  0  0  0
   -1.4356    3.5128   -0.6648 H   0  0  0  0  0  0  0  0  0  0  0  0
   -1.0575    0.1443    2.0426 H   0  0  0  0  0  0  0  0  0  0  0  0
   -3.2958    2.6743    0.4832 H   0  0  0  0  0  0  0  0  0  0  0  0
   -5.2387    2.4062    1.2361 H   0  0  0  0  0  0  0  0  0  0  0  0
   -5.3019    1.7738    2.8830 H   0  0  0  0  0  0  0  0  0  0  0  0
    7.2070    1.9438   -0.1537 H   0  0  0  0  0  0  0  0  0  0  0  0
    6.8494    1.6785   -1.8965 H   0  0  0  0  0  0  0  0  0  0  0  0
    7.5595    3.2131   -1.3476 H   0  0  0  0  0  0  0  0  0  0  0  0
   -5.9415    1.8333   -1.0621 H   0  0  0  0  0  0  0  0  0  0  0  0
   -4.7699   -2.1725    0.0491 H   0  0  0  0  0  0  0  0  0  0  0  0
   -5.0616    1.4517   -3.3286 H   0  0  0  0  0  0  0  0  0  0  0  0
   -3.9000   -2.5365   -2.2292 H   0  0  0  0  0  0  0  0  0  0  0  0
   -4.0414   -0.7299   -3.9236 H   0  0  0  0  0  0  0  0  0  0  0  0
  1 26  1  0  0  0  0
  1 27  1  0  0  0  0
  2 13  1  0  0  0  0
  2 21  1  0  0  0  0
  3 15  1  0  0  0  0
  3 21  1  0  0  0  0
  4 24  1  0  0  0  0
  4 28  1  0  0  0  0
  5 25  2  0  0  0  0
  6  8  1  0  0  0  0
  6 11  1  0  0  0  0
  6 12  1  0  0  0  0
  7 11  2  0  0  0  0
  7 24  1  0  0  0  0
  8 24  2  0  0  0  0
  9 20  1  0  0  0  0
  9 25  1  0  0  0  0
  9 43  1  0  0  0  0
 10 11  1  0  0  0  0
 10 14  2  0  0  0  0
 10 16  1  0  0  0  0
 12 18  2  0  0  0  0
 12 19  1  0  0  0  0
 13 14  1  0  0  0  0
 13 15  2  0  0  0  0
 14 34  1  0  0  0  0
 15 17  1  0  0  0  0
 16 17  2  0  0  0  0
 16 35  1  0  0  0  0
 17 36  1  0  0  0  0
 18 22  1  0  0  0  0
 18 37  1  0  0  0  0
 19 23  2  0  0  0  0
 19 38  1  0  0  0  0
 20 22  2  0  0  0  0
 20 23  1  0  0  0  0
 21 39  1  0  0  0  0
 21 40  1  0  0  0  0
 22 41  1  0  0  0  0
 23 42  1  0  0  0  0
 25 26  1  0  0  0  0
 26 44  1  0  0  0  0
 26 45  1  0  0  0  0
 27 29  2  0  0  0  0
 27 30  1  0  0  0  0
 28 46  1  0  0  0  0
 28 47  1  0  0  0  0
 28 48  1  0  0  0  0
 29 31  1  0  0  0  0
 29 49  1  0  0  0  0
 30 32  2  0  0  0  0
 30 50  1  0  0  0  0
 31 33  2  0  0  0  0
 31 51  1  0  0  0  0
 32 33  1  0  0  0  0
 32 52  1  0  0  0  0
 33 53  1  0  0  0  0
M  END
> <PUBCHEM_COMPOUND_CID>
1029232

> <PUBCHEM_CONFORMER_RMSD>
1

> <PUBCHEM_CONFORMER_DIVERSEORDER>
1
93
124
116
21
98
63
29
59
24
90
38
84
61
47
109
46
76
23
111
123
65
77
39
13
131
94
10
72
17
85
25
80
5
57
3
45
43
133
60
106
68
79
14
83
40
62
51
92
64
97
15
105
56
37
75
96
36
115
119
89
99
104
125
128
33
112
113
69
67
6
121
129
31
88
117
52
118
4
130
35
81
132
55
58
34
70
54
48
73
2
74
101
86
102
91
100
11
114
87
49
78
27
95
16
71
7
53
42
8
30
120
107
110
26
103
9
50
32
66
22
28
82
41
44
19
12
20
126
108
122
127
18

> <PUBCHEM_MMFF94_PARTIAL_CHARGES>
46
1 -0.33
10 0.05
11 0.13
12 -0.02
13 0.08
14 -0.15
15 0.08
16 -0.15
17 -0.15
18 -0.15
19 -0.15
2 -0.36
20 0.12
21 0.56
22 -0.15
23 -0.15
24 0.58
25 0.57
26 0.29
27 0.1
28 0.28
29 -0.15
3 -0.36
30 -0.15
31 -0.15
32 -0.15
33 -0.15
34 0.15
35 0.15
36 0.15
37 0.15
38 0.15
4 -0.34
41 0.15
42 0.15
43 0.37
49 0.15
5 -0.57
50 0.15
51 0.15
52 0.15
53 0.15
6 0.59
7 -0.57
8 -0.71
9 -0.55

> <PUBCHEM_EFFECTIVE_ROTOR_COUNT>
8.6

> <PUBCHEM_PHARMACOPHORE_FEATURES>
11
1 2 acceptor
1 3 acceptor
1 5 acceptor
1 9 donor
3 6 7 11 cation
3 7 8 24 cation
5 2 3 13 15 21 rings
5 6 7 8 11 24 rings
6 10 13 14 15 16 17 rings
6 12 18 19 20 22 23 rings
6 27 29 30 31 32 33 rings

> <PUBCHEM_HEAVY_ATOM_COUNT>
33

> <PUBCHEM_ATOM_DEF_STEREO_COUNT>
0

> <PUBCHEM_ATOM_UDEF_STEREO_COUNT>
0

> <PUBCHEM_BOND_DEF_STEREO_COUNT>
0

> <PUBCHEM_BOND_UDEF_STEREO_COUNT>
0

> <PUBCHEM_ISOTOPIC_ATOM_COUNT>
0

> <PUBCHEM_COMPONENT_COUNT>
1

> <PUBCHEM_CACTVS_TAUTO_COUNT>
2

> <PUBCHEM_CONFORMER_ID>
000FB47000000001

> <PUBCHEM_MMFF94_ENERGY>
108.9178

> <PUBCHEM_FEATURE_SELFOVERLAP>
58.721

> <PUBCHEM_SHAPE_FINGERPRINT>
10010297 198 18196394536173261201
11135926 11 18408605872291426649
11421498 54 17773612537533455176
11434127 23 17241030124492305279
11991303 11 17898023562590268102
12422481 6 17842007585661965649
13150687 139 18338252539532496500
13165053 182 16815735938750861172
13692114 37 18200592631309555050
14190465 44 18053659468105526384
14508693 111 16914215690599212695
15250474 111 18272927185912625905
15274700 147 15155620809440123197
15297060 5 16630541647630583807
15537594 2 18060142055074645741
17138139 8 17773584108522020935
17809404 112 17095246895408827587
19311894 1 17557137612459043175
20028762 73 18343302536072244950
20511986 3 18060135432114295473
20775530 9 17911231724459292619
21133410 32 15512585613704889466
23516275 137 16985791616459949487
3882209 13 17030753760739474994
460360 51 18195243322224762301

> <PUBCHEM_SHAPE_MULTIPOLES>
639.57
14.19
5.18
2.23
7.3
6.42
-0.36
-6.86
-4.48
-7.74
-0.43
3.62
0.3
-3.18

> <PUBCHEM_SHAPE_SELFOVERLAP>
1403.263

> <PUBCHEM_SHAPE_VOLUME>
349.4

> <PUBCHEM_COORDINATE_TYPE>
2
5
10

$$$$
