REMARK  Name = 10309114
REMARK  7 active torsions:
REMARK  status: ('A' for Active; 'I' for Inactive)
REMARK    1  A    between atoms: N_1  and  C_19
REMARK    2  A    between atoms: C_6  and  C_17
REMARK    3  A    between atoms: C_19  and  C_20
REMARK    4  A    between atoms: C_20  and  C_21
REMARK    5  A    between atoms: C_21  and  C_22
REMARK    6  A    between atoms: C_22  and  N_23
REMARK    7  A    between atoms: N_23  and  S_25
REMARK                            x       y       z     vdW  Elec       q    Type
REMARK                         _______ _______ _______ _____ _____    ______ ____
ROOT
ATOM      1  N   UNL     1      -1.091   1.210   0.674  0.00  0.00    -0.264 N 
ATOM      2  N   UNL     1      -2.790   1.991  -0.524  0.00  0.00    -0.386 NA
ATOM      3  N   UNL     1      -3.577  -1.609  -0.915  0.00  0.00    -0.385 NA
ATOM      4  N   UNL     1      -4.812   0.215  -1.840  0.00  0.00    -0.331 N 
ATOM      5  C   UNL     1      -1.777   0.100   0.249  0.00  0.00    +0.089 C 
ATOM      6  C   UNL     1      -1.734   2.314   0.187  0.00  0.00    +0.164 C 
ATOM      7  C   UNL     1      -2.831   0.617  -0.496  0.00  0.00    +0.189 C 
ATOM      8  C   UNL     1      -1.592  -1.281   0.433  0.00  0.00    +0.046 C 
ATOM      9  C   UNL     1      -2.552  -2.103  -0.191  0.00  0.00    +0.134 C 
ATOM     10  C   UNL     1      -3.733  -0.270  -1.078  0.00  0.00    +0.208 C 
ATOM     11  C   UNL     1      -0.526  -1.810   1.188  0.00  0.00    +0.004 C 
ATOM     12  C   UNL     1      -2.402  -3.477  -0.030  0.00  0.00    +0.032 C 
ATOM     13  C   UNL     1      -0.412  -3.189   1.323  0.00  0.00    +0.000 C 
ATOM     14  C   UNL     1      -1.349  -4.021   0.716  0.00  0.00    +0.003 C 
ATOM     15  H   UNL     1      -5.447  -0.416  -2.250  0.00  0.00    +0.145 HD
ATOM     16  H   UNL     1      -4.931   1.184  -1.963  0.00  0.00    +0.145 HD
ENDROOT
BRANCH   6  17
ATOM     17  C   UNL     1      -1.261   3.688   0.454  0.00  0.00    +0.075 C 
ATOM     18  C   UNL     1      -2.147   4.755  -0.198  0.00  0.00    +0.009 C 
ENDBRANCH   6  17
BRANCH   1  19
ATOM     19  C   UNL     1       0.103   1.266   1.489  0.00  0.00    +0.098 C 
BRANCH  19  20
ATOM     20  C   UNL     1       1.377   1.241   0.645  0.00  0.00    +0.023 C 
BRANCH  20  21
ATOM     21  C   UNL     1       2.625   1.289   1.529  0.00  0.00    +0.021 C 
BRANCH  21  22
ATOM     22  C   UNL     1       3.918   1.200   0.725  0.00  0.00    +0.091 C 
BRANCH  22  23
ATOM     23  N   UNL     1       3.958  -0.059  -0.050  0.00  0.00    -0.183 NA
ATOM     24  H   UNL     1       3.877  -0.824   0.620  0.00  0.00    +0.148 HD
BRANCH  23  25
ATOM     25  S   UNL     1       5.317  -0.390  -1.024  0.00  0.00    +0.043 S 
ATOM     26  O   UNL     1       5.894   0.851  -1.504  0.00  0.00    -0.157 OA
ATOM     27  O   UNL     1       4.970  -1.453  -1.947  0.00  0.00    -0.157 OA
ATOM     28  C   UNL     1       6.426  -1.076   0.185  0.00  0.00    +0.196 C 
ENDBRANCH  23  25
ENDBRANCH  22  23
ENDBRANCH  21  22
ENDBRANCH  20  21
ENDBRANCH  19  20
ENDBRANCH   1  19
TORSDOF 7
