10300326
  -OEChem-03292013303D

 56 60  0     1  0  0  0  0  0999 V2000
   -0.3342    1.2991   -0.8486 S   0  0  0  0  0  0  0  0  0  0  0  0
   -6.0955   -2.2475   -0.4004 O   0  0  0  0  0  0  0  0  0  0  0  0
   -8.1369    1.6815    0.9034 O   0  0  0  0  0  0  0  0  0  0  0  0
   -1.8881   -2.3109   -0.8523 O   0  5  0  0  0  0  0  0  0  0  0  0
   -3.4393   -2.1946   -2.5298 O   0  0  0  0  0  0  0  0  0  0  0  0
    2.8946    2.7269   -1.1605 O   0  0  0  0  0  0  0  0  0  0  0  0
    6.8879   -1.3208    1.8482 O   0  0  0  0  0  0  0  0  0  0  0  0
   -4.8236   -0.3207   -0.8772 N   0  0  0  0  0  0  0  0  0  0  0  0
    0.5428    0.0844    1.2267 N   0  0  0  0  0  0  0  0  0  0  0  0
    2.7266    0.3222    1.4819 N   0  0  0  0  0  0  0  0  0  0  0  0
    6.2584   -0.3739   -0.6391 N   0  3  0  0  0  0  0  0  0  0  0  0
    7.2664   -3.4542    1.0792 N   0  0  0  0  0  0  0  0  0  0  0  0
   -5.1441    0.9354   -0.1700 C   0  0  1  0  0  0  0  0  0  0  0  0
   -6.3467    0.1521    0.4462 C   0  0  2  0  0  0  0  0  0  0  0  0
   -3.8117    1.3331    0.4979 C   0  0  2  0  0  0  0  0  0  0  0  0
   -5.8258   -1.0691   -0.3432 C   0  0  0  0  0  0  0  0  0  0  0  0
   -2.8412    0.3157   -0.0737 C   0  0  0  0  0  0  0  0  0  0  0  0
   -3.4884   -0.5941   -0.8136 C   0  0  0  0  0  0  0  0  0  0  0  0
   -7.7815    0.5152    0.1591 C   0  0  1  0  0  0  0  0  0  0  0  0
   -3.8554    1.3652    2.0165 C   0  0  0  0  0  0  0  0  0  0  0  0
   -1.4387    0.3910    0.2095 C   0  0  0  0  0  0  0  0  0  0  0  0
   -8.7272   -0.6202    0.5373 C   0  0  0  0  0  0  0  0  0  0  0  0
   -2.8788   -1.8201   -1.4622 C   0  0  0  0  0  0  0  0  0  0  0  0
   -0.8062   -0.1824    1.2502 C   0  0  0  0  0  0  0  0  0  0  0  0
    0.9768    0.8537    0.1902 C   0  0  0  0  0  0  0  0  0  0  0  0
    2.3219    1.0010    0.3462 C   0  0  0  0  0  0  0  0  0  0  0  0
    1.6308   -0.2183    1.9881 C   0  0  0  0  0  0  0  0  0  0  0  0
    3.2244    1.7262   -0.4922 C   0  0  0  0  0  0  0  0  0  0  0  0
    4.6561    1.3102   -0.6352 C   0  0  0  0  0  0  0  0  0  0  0  0
    4.9748   -0.0114   -0.5098 C   0  0  0  0  0  0  0  0  0  0  0  0
    5.6044    2.2651   -0.8876 C   0  0  0  0  0  0  0  0  0  0  0  0
    6.9295    1.8602   -1.0174 C   0  0  0  0  0  0  0  0  0  0  0  0
    7.2325    0.5126   -0.8863 C   0  0  0  0  0  0  0  0  0  0  0  0
    6.6089   -1.7849   -0.5057 C   0  0  0  0  0  0  0  0  0  0  0  0
    6.9268   -2.1278    0.9242 C   0  0  0  0  0  0  0  0  0  0  0  0
   -5.4668    1.7067   -0.8844 H   0  0  0  0  0  0  0  0  0  0  0  0
   -6.2175   -0.0160    1.5259 H   0  0  0  0  0  0  0  0  0  0  0  0
   -3.5277    2.3309    0.1373 H   0  0  0  0  0  0  0  0  0  0  0  0
   -7.9188    0.7563   -0.9006 H   0  0  0  0  0  0  0  0  0  0  0  0
   -2.9184    1.7492    2.4330 H   0  0  0  0  0  0  0  0  0  0  0  0
   -4.6661    2.0152    2.3626 H   0  0  0  0  0  0  0  0  0  0  0  0
   -4.0265    0.3687    2.4383 H   0  0  0  0  0  0  0  0  0  0  0  0
   -9.7687   -0.2955    0.4382 H   0  0  0  0  0  0  0  0  0  0  0  0
   -8.5833   -1.5015   -0.0933 H   0  0  0  0  0  0  0  0  0  0  0  0
   -8.5870   -0.9178    1.5827 H   0  0  0  0  0  0  0  0  0  0  0  0
   -8.0706    1.4637    1.8489 H   0  0  0  0  0  0  0  0  0  0  0  0
   -1.2396   -0.7850    2.0349 H   0  0  0  0  0  0  0  0  0  0  0  0
    1.5771   -0.8229    2.8829 H   0  0  0  0  0  0  0  0  0  0  0  0
    4.2656   -0.8082   -0.3312 H   0  0  0  0  0  0  0  0  0  0  0  0
    5.3607    3.3185   -0.9813 H   0  0  0  0  0  0  0  0  0  0  0  0
    7.7119    2.5853   -1.2144 H   0  0  0  0  0  0  0  0  0  0  0  0
    8.2450    0.1365   -0.9713 H   0  0  0  0  0  0  0  0  0  0  0  0
    5.7707   -2.3940   -0.8622 H   0  0  0  0  0  0  0  0  0  0  0  0
    7.4737   -1.9960   -1.1449 H   0  0  0  0  0  0  0  0  0  0  0  0
    7.2911   -4.1031    0.2990 H   0  0  0  0  0  0  0  0  0  0  0  0
    7.5056   -3.8284    1.9915 H   0  0  0  0  0  0  0  0  0  0  0  0
  1 21  1  0  0  0  0
  1 25  1  0  0  0  0
  2 16  2  0  0  0  0
  3 19  1  0  0  0  0
  3 46  1  0  0  0  0
  4 23  1  0  0  0  0
  5 23  2  0  0  0  0
  6 28  2  0  0  0  0
  7 35  2  0  0  0  0
  8 13  1  0  0  0  0
  8 16  1  0  0  0  0
  8 18  1  0  0  0  0
  9 24  1  0  0  0  0
  9 25  1  0  0  0  0
  9 27  1  0  0  0  0
 10 26  1  0  0  0  0
 10 27  2  0  0  0  0
 11 30  1  0  0  0  0
 11 33  2  0  0  0  0
 11 34  1  0  0  0  0
 12 35  1  0  0  0  0
 12 55  1  0  0  0  0
 12 56  1  0  0  0  0
 13 14  1  0  0  0  0
 13 15  1  0  0  0  0
 13 36  1  0  0  0  0
 14 16  1  0  0  0  0
 14 19  1  0  0  0  0
 14 37  1  0  0  0  0
 15 17  1  0  0  0  0
 15 20  1  0  0  0  0
 15 38  1  0  0  0  0
 17 18  2  0  0  0  0
 17 21  1  0  0  0  0
 18 23  1  0  0  0  0
 19 22  1  0  0  0  0
 19 39  1  0  0  0  0
 20 40  1  0  0  0  0
 20 41  1  0  0  0  0
 20 42  1  0  0  0  0
 21 24  2  0  0  0  0
 22 43  1  0  0  0  0
 22 44  1  0  0  0  0
 22 45  1  0  0  0  0
 24 47  1  0  0  0  0
 25 26  2  0  0  0  0
 26 28  1  0  0  0  0
 27 48  1  0  0  0  0
 28 29  1  0  0  0  0
 29 30  2  0  0  0  0
 29 31  1  0  0  0  0
 30 49  1  0  0  0  0
 31 32  2  0  0  0  0
 31 50  1  0  0  0  0
 32 33  1  0  0  0  0
 32 51  1  0  0  0  0
 33 52  1  0  0  0  0
 34 35  1  0  0  0  0
 34 53  1  0  0  0  0
 34 54  1  0  0  0  0
M  CHG  2   4  -1  11   1
M  END
> <PUBCHEM_COMPOUND_CID>
10300326

> <PUBCHEM_CONFORMER_RMSD>
1

> <PUBCHEM_CONFORMER_DIVERSEORDER>
8
138
162
52
26
198
207
205
31
88
65
102
54
161
16
189
133
181
91
49
101
135
94
208
164
142
51
158
190
53
32
211
192
93
150
157
191
194
153
113
129
179
195
97
134
180
89
87
68
147
61
201
148
114
77
34
217
156
182
27
214
123
140
176
172
7
200
42
67
212
24
117
56
145
184
60
136
23
216
47
159
95
141
151
218
84
144
116
96
178
105
46
203
177
86
193
125
132
1
29
160
70
202
25
210
107
119
103
30
28
174
112
73
100
126
122
15
149
199
62
79
213
155
83
98
106
215
78
121
137
58
82
38
168
185
152
108
124
2
166
20
66
110
196
163
115
206
118
3
204
69
64
187
71
175
75
19
169
128
44
18
127
41
72
188
36
104
50
45
81
143
183
76
130
92
63
90
57
21
173
146
48
170
10
186
165
43
209
33
5
85
37
22
154
39
80
9
59
197
111
120
109
167
55
74
14
131
40
35
171
99
11
139
17
13
6
12
4

> <PUBCHEM_MMFF94_PARTIAL_CHARGES>
42
1 -0.16
10 -0.57
11 -0.21
12 -0.8
13 0.22
14 0.05
15 0.14
16 0.58
17 -0.14
18 -0.14
19 0.28
2 -0.57
21 0.1
23 1.05
24 -0.18
25 -0.1
26 0.14
27 0.04
28 0.57
29 0.09
3 -0.68
30 0.21
31 -0.15
32 -0.15
33 0.21
34 0.55
35 0.57
4 -0.9
46 0.4
47 0.15
48 0.15
49 0.15
5 -0.9
50 0.15
51 0.15
52 0.15
55 0.37
56 0.37
6 -0.57
7 -0.57
8 -0.39
9 0.33

> <PUBCHEM_EFFECTIVE_ROTOR_COUNT>
7.4

> <PUBCHEM_PHARMACOPHORE_FEATURES>
14
1 12 donor
1 2 acceptor
1 3 acceptor
1 3 donor
1 4 acceptor
1 5 acceptor
1 6 acceptor
1 7 acceptor
3 4 5 23 anion
3 9 10 27 cation
5 1 9 21 24 25 rings
5 9 10 25 26 27 rings
6 11 29 30 31 32 33 rings
7 8 13 14 15 16 17 18 rings

> <PUBCHEM_HEAVY_ATOM_COUNT>
35

> <PUBCHEM_ATOM_DEF_STEREO_COUNT>
4

> <PUBCHEM_ATOM_UDEF_STEREO_COUNT>
0

> <PUBCHEM_BOND_DEF_STEREO_COUNT>
0

> <PUBCHEM_BOND_UDEF_STEREO_COUNT>
0

> <PUBCHEM_ISOTOPIC_ATOM_COUNT>
0

> <PUBCHEM_COMPONENT_COUNT>
1

> <PUBCHEM_CACTVS_TAUTO_COUNT>
2

> <PUBCHEM_CONFORMER_ID>
009D2BA600000008

> <PUBCHEM_MMFF94_ENERGY>
115.7725

> <PUBCHEM_FEATURE_SELFOVERLAP>
71.32

> <PUBCHEM_SHAPE_FINGERPRINT>
10 15 14908173149940064360
10290309 65 14490733647380555393
10299344 5 18412265047188897981
10674148 151 18342458166506786624
10693767 8 18187639185949288482
11719270 70 17704076175076045902
11796584 16 17632020853112363932
11991303 11 15502387741855898946
12144603 126 18413673522423037580
12236239 1 18409167753214924149
13383665 225 13552027729808148503
13782708 43 16414346956872571799
14347332 77 18262232219325006668
15119646 104 18411135819294713902
15183329 4 18342463642711499124
15336146 87 12391526304014207122
15461852 350 11674885507123931857
1577012 14 18412263968888590196
15849732 13 18261115201352399821
19309040 13 17391095972434924172
21781055 127 17632025143979871499
21792934 111 13758078467926319786
23516275 137 18057630727278216526
23522609 53 18195556781802658448
23559900 14 17345746524989179249
23569914 152 16886623209987431910
23569943 247 18042964277434861458
249057 3 18130509725120771429
3004659 81 18202007634065621268
3383291 50 15769776870924050375
397830 11 14332830660843737678
4073 2 18191589864355704740
44317340 157 18261958560782677132
4625314 4 17748828544984489353
5085150 59 17346597469574340822
5265222 85 17773598406378426653

> <PUBCHEM_SHAPE_MULTIPOLES>
664.01
25.55
2.57
1.6
1.88
1.17
0.22
5.54
0.63
-3.89
-0.43
-0.19
0.44
-3.98

> <PUBCHEM_SHAPE_SELFOVERLAP>
1459.148

> <PUBCHEM_SHAPE_VOLUME>
364.5

> <PUBCHEM_COORDINATE_TYPE>
2
5
10

$$$$
