REMARK  Name = 10300326
REMARK  8 active torsions:
REMARK  status: ('A' for Active; 'I' for Inactive)
REMARK    1  A    between atoms: C_4  and  C_15
REMARK    2  A    between atoms: C_7  and  C_26
REMARK    3  A    between atoms: C_12  and  C_21
REMARK    4  A    between atoms: C_16  and  C_20
REMARK    5  A    between atoms: C_21  and  O_23
REMARK    6  A    between atoms: C_26  and  C_28
REMARK    7  A    between atoms: N_27  and  C_33
REMARK    8  A    between atoms: C_33  and  C_36
REMARK                            x       y       z     vdW  Elec       q    Type
REMARK                         _______ _______ _______ _____ _____    ______ ____
ROOT
ATOM      1  S   UNL     1      -0.334   1.299  -0.849  0.00  0.00    -0.087 S 
ATOM      2  N   UNL     1       0.543   0.084   1.227  0.00  0.00    -0.273 N 
ATOM      3  N   UNL     1       2.727   0.322   1.482  0.00  0.00    -0.247 NA
ATOM      4  C   UNL     1      -1.439   0.391   0.209  0.00  0.00    +0.039 C 
ATOM      5  C   UNL     1      -0.806  -0.182   1.250  0.00  0.00    +0.070 C 
ATOM      6  C   UNL     1       0.977   0.854   0.190  0.00  0.00    +0.171 C 
ATOM      7  C   UNL     1       2.322   1.001   0.346  0.00  0.00    +0.123 C 
ATOM      8  C   UNL     1       1.631  -0.218   1.988  0.00  0.00    +0.221 C 
ENDROOT
BRANCH   4  15
ATOM      9  O   UNL     1      -6.096  -2.248  -0.400  0.00  0.00    -0.274 OA
ATOM     10  N   UNL     1      -4.824  -0.321  -0.877  0.00  0.00    -0.254 N 
ATOM     11  C   UNL     1      -5.144   0.935  -0.170  0.00  0.00    +0.095 C 
ATOM     12  C   UNL     1      -6.347   0.152   0.446  0.00  0.00    +0.123 C 
ATOM     13  C   UNL     1      -3.812   1.333   0.498  0.00  0.00    +0.043 C 
ATOM     14  C   UNL     1      -5.826  -1.069  -0.343  0.00  0.00    +0.233 C 
ATOM     15  C   UNL     1      -2.841   0.316  -0.074  0.00  0.00    +0.006 C 
ATOM     16  C   UNL     1      -3.488  -0.594  -0.814  0.00  0.00    +0.131 C 
ATOM     17  C   UNL     1      -3.855   1.365   2.017  0.00  0.00    +0.006 C 
BRANCH  16  20
ATOM     18  O   UNL     1      -1.888  -2.311  -0.852  0.00  0.00    -0.239 OA
ATOM     19  O   UNL     1      -3.439  -2.195  -2.530  0.00  0.00    -0.239 OA
ATOM     20  C   UNL     1      -2.879  -1.820  -1.462  0.00  0.00    +0.401 C 
ENDBRANCH  16  20
BRANCH  12  21
ATOM     21  C   UNL     1      -7.782   0.515   0.159  0.00  0.00    +0.121 C 
ATOM     22  C   UNL     1      -8.727  -0.620   0.537  0.00  0.00    +0.032 C 
BRANCH  21  23
ATOM     23  O   UNL     1      -8.137   1.681   0.903  0.00  0.00    -0.384 OA
ATOM     24  H   UNL     1      -7.540   2.409   0.669  0.00  0.00    +0.210 HD
ENDBRANCH  21  23
ENDBRANCH  12  21
ENDBRANCH   4  15
BRANCH   7  26
ATOM     25  O   UNL     1       2.895   2.727  -1.161  0.00  0.00    -0.286 OA
ATOM     26  C   UNL     1       3.224   1.726  -0.492  0.00  0.00    +0.209 C 
BRANCH  26  28
ATOM     27  N   UNL     1       6.258  -0.374  -0.639  0.00  0.00    -0.295 N 
ATOM     28  C   UNL     1       4.656   1.310  -0.635  0.00  0.00    +0.038 C 
ATOM     29  C   UNL     1       4.975  -0.011  -0.510  0.00  0.00    +0.121 C 
ATOM     30  C   UNL     1       5.604   2.265  -0.888  0.00  0.00    +0.002 C 
ATOM     31  C   UNL     1       6.929   1.860  -1.017  0.00  0.00    +0.016 C 
ATOM     32  C   UNL     1       7.232   0.513  -0.886  0.00  0.00    +0.062 C 
BRANCH  27  33
ATOM     33  C   UNL     1       6.609  -1.785  -0.506  0.00  0.00    +0.177 C 
BRANCH  33  36
ATOM     34  O   UNL     1       6.888  -1.321   1.848  0.00  0.00    -0.273 OA
ATOM     35  N   UNL     1       7.266  -3.454   1.079  0.00  0.00    -0.327 N 
ATOM     36  C   UNL     1       6.927  -2.128   0.924  0.00  0.00    +0.240 C 
ATOM     37  H   UNL     1       7.496  -3.802   1.971  0.00  0.00    +0.145 HD
ATOM     38  H   UNL     1       7.279  -4.054   0.298  0.00  0.00    +0.145 HD
ENDBRANCH  33  36
ENDBRANCH  27  33
ENDBRANCH  26  28
ENDBRANCH   7  26
TORSDOF 8
