REMARK  Name = 10309899
REMARK  4 active torsions:
REMARK  status: ('A' for Active; 'I' for Inactive)
REMARK    1  A    between atoms: N_1  and  S_19
REMARK    2  A    between atoms: C_12  and  C_15
REMARK    3  A    between atoms: N_14  and  O_17
REMARK    4  A    between atoms: S_19  and  C_22
REMARK                            x       y       z     vdW  Elec       q    Type
REMARK                         _______ _______ _______ _____ _____    ______ ____
ROOT
ATOM      1  N   UNL     1      -1.122  -2.157  -0.372  0.00  0.00    -0.152 NA
ATOM      2  N   UNL     1       1.420  -0.919  -0.158  0.00  0.00    -0.250 N 
ATOM      3  N   UNL     1       3.549  -0.834   0.858  0.00  0.00    -0.180 NA
ATOM      4  N   UNL     1       3.043   0.544  -1.052  0.00  0.00    -0.203 NA
ATOM      5  C   UNL     1      -0.756  -1.048  -1.297  0.00  0.00    +0.118 C 
ATOM      6  C   UNL     1      -0.502  -1.961   0.969  0.00  0.00    +0.118 C 
ATOM      7  C   UNL     1       0.759  -1.007  -1.468  0.00  0.00    +0.120 C 
ATOM      8  C   UNL     1       1.018  -1.927   0.830  0.00  0.00    +0.120 C 
ATOM      9  C   UNL     1       2.713  -0.385  -0.116  0.00  0.00    +0.090 C 
ATOM     10  C   UNL     1       4.787  -0.299   0.869  0.00  0.00    +0.113 C 
ATOM     11  C   UNL     1       4.297   1.037  -0.983  0.00  0.00    +0.170 C 
ATOM     12  C   UNL     1       5.221   0.649  -0.035  0.00  0.00    +0.078 C 
ENDROOT
BRANCH  12  15
ATOM     13  O   UNL     1       6.799   2.340  -0.444  0.00  0.00    -0.268 OA
ATOM     14  N   UNL     1       7.561   0.410   0.560  0.00  0.00    -0.194 N 
ATOM     15  C   UNL     1       6.561   1.203   0.009  0.00  0.00    +0.267 C 
ATOM     16  H   UNL     1       7.368  -0.488   0.915  0.00  0.00    +0.183 HD
BRANCH  14  17
ATOM     17  O   UNL     1       8.856   0.946   0.586  0.00  0.00    -0.295 OA
ATOM     18  H   UNL     1       9.463   0.307   0.990  0.00  0.00    +0.241 HD
ENDBRANCH  14  17
ENDBRANCH  12  15
BRANCH   1  19
ATOM     19  S   UNL     1      -2.781  -2.586  -0.358  0.00  0.00    +0.063 S 
ATOM     20  O   UNL     1      -3.010  -3.550   0.697  0.00  0.00    -0.153 OA
ATOM     21  O   UNL     1      -3.209  -2.849  -1.715  0.00  0.00    -0.153 OA
BRANCH  19  22
ATOM     22  C   UNL     1      -3.491  -1.051   0.148  0.00  0.00    +0.122 C 
ATOM     23  C   UNL     1      -3.861  -0.125  -0.813  0.00  0.00    +0.020 C 
ATOM     24  C   UNL     1      -3.667  -0.800   1.496  0.00  0.00    +0.020 C 
ATOM     25  C   UNL     1      -4.426   1.101  -0.426  0.00  0.00    +0.001 C 
ATOM     26  C   UNL     1      -4.613   1.374   0.950  0.00  0.00    +0.000 C 
ATOM     27  C   UNL     1      -4.228   0.413   1.899  0.00  0.00    +0.001 C 
ATOM     28  C   UNL     1      -4.812   2.062  -1.375  0.00  0.00    +0.000 C 
ATOM     29  C   UNL     1      -5.179   2.600   1.336  0.00  0.00    +0.000 C 
ATOM     30  C   UNL     1      -5.372   3.275  -0.973  0.00  0.00    +0.000 C 
ATOM     31  C   UNL     1      -5.555   3.543   0.380  0.00  0.00    +0.000 C 
ENDBRANCH  19  22
ENDBRANCH   1  19
TORSDOF 4
