REMARK  Name = 10317061
REMARK  7 active torsions:
REMARK  status: ('A' for Active; 'I' for Inactive)
REMARK    1  A    between atoms: C_3  and  C_27
REMARK    2  A    between atoms: C_5  and  C_14
REMARK    3  A    between atoms: C_9  and  O_24
REMARK    4  A    between atoms: C_12  and  O_30
REMARK    5  A    between atoms: C_17  and  O_20
REMARK    6  A    between atoms: C_19  and  O_22
REMARK    7  A    between atoms: C_27  and  O_28
REMARK                            x       y       z     vdW  Elec       q    Type
REMARK                         _______ _______ _______ _____ _____    ______ ____
ROOT
ATOM      1  O   UNL     1      -0.875   0.824  -0.995  0.00  0.00    -0.467 OA
ATOM      2  O   UNL     1      -1.927  -1.351   2.725  0.00  0.00    -0.288 OA
ATOM      3  C   UNL     1      -0.442  -0.405  -0.383  0.00  0.00    +0.253 C 
ATOM      4  C   UNL     1      -1.634  -1.083   0.334  0.00  0.00    +0.141 C 
ATOM      5  C   UNL     1       0.587  -0.172   0.702  0.00  0.00    +0.061 C 
ATOM      6  C   UNL     1      -2.729  -0.158  -0.027  0.00  0.00    +0.026 C 
ATOM      7  C   UNL     1      -1.227  -1.025   1.778  0.00  0.00    +0.214 C 
ATOM      8  C   UNL     1      -2.226   0.892  -0.776  0.00  0.00    +0.136 C 
ATOM      9  C   UNL     1       0.146  -0.514   1.923  0.00  0.00    +0.169 C 
ATOM     10  C   UNL     1      -4.077  -0.227   0.281  0.00  0.00    +0.036 C 
ATOM     11  C   UNL     1      -3.035   1.911  -1.242  0.00  0.00    +0.040 C 
ATOM     12  C   UNL     1      -4.914   0.792  -0.181  0.00  0.00    +0.134 C 
ATOM     13  C   UNL     1      -4.396   1.855  -0.938  0.00  0.00    +0.040 C 
ENDROOT
BRANCH   5  14
ATOM     14  C   UNL     1       1.929   0.375   0.434  0.00  0.00    +0.006 C 
ATOM     15  C   UNL     1       2.994  -0.484   0.146  0.00  0.00    +0.040 C 
ATOM     16  C   UNL     1       2.145   1.756   0.466  0.00  0.00    +0.003 C 
ATOM     17  C   UNL     1       4.264   0.034  -0.108  0.00  0.00    +0.167 C 
ATOM     18  C   UNL     1       3.415   2.273   0.213  0.00  0.00    +0.040 C 
ATOM     19  C   UNL     1       4.475   1.412  -0.074  0.00  0.00    +0.167 C 
BRANCH  17  20
ATOM     20  O   UNL     1       5.291  -0.817  -0.387  0.00  0.00    -0.503 OA
ATOM     21  H   UNL     1       5.141  -1.741  -0.408  0.00  0.00    +0.292 HD
ENDBRANCH  17  20
BRANCH  19  22
ATOM     22  O   UNL     1       5.710   1.930  -0.321  0.00  0.00    -0.503 OA
ATOM     23  H   UNL     1       6.428   1.359  -0.515  0.00  0.00    +0.292 HD
ENDBRANCH  19  22
ENDBRANCH   5  14
BRANCH   9  24
ATOM     24  O   UNL     1       0.783  -0.408   3.120  0.00  0.00    -0.503 OA
ATOM     25  H   UNL     1       1.658  -0.076   3.157  0.00  0.00    +0.292 HD
ENDBRANCH   9  24
BRANCH   3  27
ATOM     26  O   UNL     1       0.265  -0.960  -2.623  0.00  0.00    -0.246 OA
ATOM     27  C   UNL     1       0.143  -1.290  -1.451  0.00  0.00    +0.359 C 
BRANCH  27  28
ATOM     28  O   UNL     1       0.502  -2.486  -0.905  0.00  0.00    -0.442 OA
ATOM     29  C   UNL     1       1.076  -3.430  -1.815  0.00  0.00    +0.256 C 
ENDBRANCH  27  28
ENDBRANCH   3  27
BRANCH  12  30
ATOM     30  O   UNL     1      -6.246   0.755   0.105  0.00  0.00    -0.506 OA
ATOM     31  H   UNL     1      -6.597   0.048   0.610  0.00  0.00    +0.292 HD
ENDBRANCH  12  30
TORSDOF 7
