10317980
  -OEChem-03292013303D

 57 58  0     1  0  0  0  0  0999 V2000
   -2.8139    0.7191   -0.7738 O   0  0  0  0  0  0  0  0  0  0  0  0
    2.8443    0.5829    1.7281 O   0  0  0  0  0  0  0  0  0  0  0  0
   -1.7041    1.7433    1.0047 O   0  0  0  0  0  0  0  0  0  0  0  0
   -5.3413   -1.2706    1.7797 O   0  0  0  0  0  0  0  0  0  0  0  0
   -5.0823   -2.1501   -0.9617 O   0  0  0  0  0  0  0  0  0  0  0  0
   -2.7815   -0.1939    2.7638 O   0  0  0  0  0  0  0  0  0  0  0  0
    6.0113   -2.2740   -0.3050 O   0  0  0  0  0  0  0  0  0  0  0  0
   -2.6582    0.2390   -3.4759 O   0  0  0  0  0  0  0  0  0  0  0  0
    3.9081    0.6906   -0.4659 C   0  0  0  0  0  0  0  0  0  0  0  0
    2.6764    0.1555    0.3638 C   0  0  1  0  0  0  0  0  0  0  0  0
    5.1882   -0.0446   -0.0094 C   0  0  0  0  0  0  0  0  0  0  0  0
    2.6345   -1.3783    0.3986 C   0  0  0  0  0  0  0  0  0  0  0  0
   -4.1575   -1.0976    0.9994 C   0  0  1  0  0  0  0  0  0  0  0  0
    3.7242    0.4779   -1.9912 C   0  0  0  0  0  0  0  0  0  0  0  0
    4.1540    2.2023   -0.2328 C   0  0  0  0  0  0  0  0  0  0  0  0
   -4.5753   -0.9164   -0.4600 C   0  0  1  0  0  0  0  0  0  0  0  0
   -3.3854    0.1195    1.5091 C   0  0  2  0  0  0  0  0  0  0  0  0
   -2.2803    0.5253    0.5339 C   0  0  1  0  0  0  0  0  0  0  0  0
   -3.3855   -0.4734   -1.3146 C   0  0  1  0  0  0  0  0  0  0  0  0
    1.3747    0.7591   -0.1139 C   0  0  0  0  0  0  0  0  0  0  0  0
    5.0451   -1.5439   -0.0917 C   0  0  0  0  0  0  0  0  0  0  0  0
    3.7163   -2.1414    0.1661 C   0  0  0  0  0  0  0  0  0  0  0  0
   -0.6639    2.1942    0.1410 C   0  0  2  0  0  0  0  0  0  0  0  0
    0.6266    1.5969    0.6188 C   0  0  0  0  0  0  0  0  0  0  0  0
    1.3412   -2.0643    0.7665 C   0  0  0  0  0  0  0  0  0  0  0  0
   -3.8025   -0.1731   -2.7509 C   0  0  0  0  0  0  0  0  0  0  0  0
   -0.6133    3.7160    0.1732 C   0  0  0  0  0  0  0  0  0  0  0  0
    5.4429    0.2048    1.0279 H   0  0  0  0  0  0  0  0  0  0  0  0
    6.0382    0.2497   -0.6376 H   0  0  0  0  0  0  0  0  0  0  0  0
   -3.5709   -2.0170    1.1174 H   0  0  0  0  0  0  0  0  0  0  0  0
   -5.3856   -0.1772   -0.5076 H   0  0  0  0  0  0  0  0  0  0  0  0
   -4.0704    0.9569    1.6873 H   0  0  0  0  0  0  0  0  0  0  0  0
    4.6404    0.7377   -2.5346 H   0  0  0  0  0  0  0  0  0  0  0  0
    3.4781   -0.5582   -2.2430 H   0  0  0  0  0  0  0  0  0  0  0  0
    2.9284    1.1146   -2.3927 H   0  0  0  0  0  0  0  0  0  0  0  0
    4.3456    2.4255    0.8223 H   0  0  0  0  0  0  0  0  0  0  0  0
    5.0245    2.5498   -0.8018 H   0  0  0  0  0  0  0  0  0  0  0  0
    3.2960    2.8028   -0.5529 H   0  0  0  0  0  0  0  0  0  0  0  0
   -2.6105   -1.2515   -1.3418 H   0  0  0  0  0  0  0  0  0  0  0  0
   -1.4977   -0.2444    0.5064 H   0  0  0  0  0  0  0  0  0  0  0  0
    1.0305    0.4840   -1.1084 H   0  0  0  0  0  0  0  0  0  0  0  0
    3.6710   -3.2250    0.1987 H   0  0  0  0  0  0  0  0  0  0  0  0
   -0.8505    1.9130   -0.9025 H   0  0  0  0  0  0  0  0  0  0  0  0
    0.9283    1.8931    1.6195 H   0  0  0  0  0  0  0  0  0  0  0  0
    2.2669    0.0539    2.3044 H   0  0  0  0  0  0  0  0  0  0  0  0
    1.4669   -3.1449    0.8974 H   0  0  0  0  0  0  0  0  0  0  0  0
    0.5906   -1.9180   -0.0168 H   0  0  0  0  0  0  0  0  0  0  0  0
    0.9470   -1.6702    1.7086 H   0  0  0  0  0  0  0  0  0  0  0  0
   -4.5364    0.6384   -2.7944 H   0  0  0  0  0  0  0  0  0  0  0  0
   -4.2178   -1.0525   -3.2501 H   0  0  0  0  0  0  0  0  0  0  0  0
   -5.0659   -1.3585    2.7083 H   0  0  0  0  0  0  0  0  0  0  0  0
   -5.5595   -1.9622   -1.7871 H   0  0  0  0  0  0  0  0  0  0  0  0
   -2.1693   -0.9369    2.6265 H   0  0  0  0  0  0  0  0  0  0  0  0
   -0.4606    4.0868    1.1935 H   0  0  0  0  0  0  0  0  0  0  0  0
   -1.5664    4.1333   -0.1702 H   0  0  0  0  0  0  0  0  0  0  0  0
    0.1873    4.1062   -0.4636 H   0  0  0  0  0  0  0  0  0  0  0  0
   -2.2896    1.0185   -3.0261 H   0  0  0  0  0  0  0  0  0  0  0  0
  1 18  1  0  0  0  0
  1 19  1  0  0  0  0
  2 10  1  0  0  0  0
  2 45  1  0  0  0  0
  3 18  1  0  0  0  0
  3 23  1  0  0  0  0
  4 13  1  0  0  0  0
  4 51  1  0  0  0  0
  5 16  1  0  0  0  0
  5 52  1  0  0  0  0
  6 17  1  0  0  0  0
  6 53  1  0  0  0  0
  7 21  2  0  0  0  0
  8 26  1  0  0  0  0
  8 57  1  0  0  0  0
  9 10  1  0  0  0  0
  9 11  1  0  0  0  0
  9 14  1  0  0  0  0
  9 15  1  0  0  0  0
 10 12  1  0  0  0  0
 10 20  1  0  0  0  0
 11 21  1  0  0  0  0
 11 28  1  0  0  0  0
 11 29  1  0  0  0  0
 12 22  2  0  0  0  0
 12 25  1  0  0  0  0
 13 16  1  0  0  0  0
 13 17  1  0  0  0  0
 13 30  1  0  0  0  0
 14 33  1  0  0  0  0
 14 34  1  0  0  0  0
 14 35  1  0  0  0  0
 15 36  1  0  0  0  0
 15 37  1  0  0  0  0
 15 38  1  0  0  0  0
 16 19  1  0  0  0  0
 16 31  1  0  0  0  0
 17 18  1  0  0  0  0
 17 32  1  0  0  0  0
 18 40  1  0  0  0  0
 19 26  1  0  0  0  0
 19 39  1  0  0  0  0
 20 24  2  0  0  0  0
 20 41  1  0  0  0  0
 21 22  1  0  0  0  0
 22 42  1  0  0  0  0
 23 24  1  0  0  0  0
 23 27  1  0  0  0  0
 23 43  1  0  0  0  0
 24 44  1  0  0  0  0
 25 46  1  0  0  0  0
 25 47  1  0  0  0  0
 25 48  1  0  0  0  0
 26 49  1  0  0  0  0
 26 50  1  0  0  0  0
 27 54  1  0  0  0  0
 27 55  1  0  0  0  0
 27 56  1  0  0  0  0
M  END
> <PUBCHEM_COMPOUND_CID>
10317980

> <PUBCHEM_CONFORMER_RMSD>
1

> <PUBCHEM_CONFORMER_DIVERSEORDER>
1
541
272
517
602
499
395
79
29
531
247
376
160
172
200
507
18
37
416
14
255
107
287
532
398
73
101
169
353
516
113
2
357
136
400
35
45
202
16
227
196
13
71
69
110
43
20
65
331
70
138
440
526
293
57
47
185
460
68
97
583
166
369
76
143
32
142
38
127
426
402
116
146
372
418
5
406
459
6
590
164
21
27
436
4
216
305
105
217
380
80
144
33
192
10
40
413
86
3
63
435
123
479
88
121
485
189
55
53
157
368
114
223
99
183
252
44
289
214
377
338
240
51
100
96
46
260
19
248
12
245
246
371
42
429
36
276
159
17
39
593
77
15
316

> <PUBCHEM_MMFF94_PARTIAL_CHARGES>
31
1 -0.56
10 0.56
11 0.06
12 -0.28
13 0.28
16 0.28
17 0.28
18 0.56
19 0.28
2 -0.68
20 -0.29
21 0.49
22 -0.14
23 0.42
24 -0.29
25 0.14
26 0.28
3 -0.56
4 -0.68
41 0.15
42 0.15
44 0.15
45 0.4
5 -0.68
51 0.4
52 0.4
53 0.4
57 0.4
6 -0.68
7 -0.57
8 -0.68

> <PUBCHEM_EFFECTIVE_ROTOR_COUNT>
6.8

> <PUBCHEM_PHARMACOPHORE_FEATURES>
16
1 1 acceptor
1 2 acceptor
1 2 donor
1 3 acceptor
1 4 acceptor
1 4 donor
1 5 acceptor
1 5 donor
1 6 acceptor
1 6 donor
1 7 acceptor
1 8 acceptor
1 8 donor
3 9 14 15 hydrophobe
6 1 13 16 17 18 19 rings
6 9 10 11 12 21 22 rings

> <PUBCHEM_HEAVY_ATOM_COUNT>
27

> <PUBCHEM_ATOM_DEF_STEREO_COUNT>
7

> <PUBCHEM_ATOM_UDEF_STEREO_COUNT>
0

> <PUBCHEM_BOND_DEF_STEREO_COUNT>
1

> <PUBCHEM_BOND_UDEF_STEREO_COUNT>
0

> <PUBCHEM_ISOTOPIC_ATOM_COUNT>
0

> <PUBCHEM_COMPONENT_COUNT>
1

> <PUBCHEM_CACTVS_TAUTO_COUNT>
5

> <PUBCHEM_CONFORMER_ID>
009D709C00000001

> <PUBCHEM_MMFF94_ENERGY>
70.8021

> <PUBCHEM_FEATURE_SELFOVERLAP>
81.263

> <PUBCHEM_SHAPE_FINGERPRINT>
10928967 22 18060415802915191878
11552529 35 15123215685060184941
12166972 35 17894636967422900806
12553582 1 18341610442757097009
12596599 1 17275384304587015709
12616971 3 18060421317715950558
12633257 1 16200149902305651409
13103583 49 17703518765588016899
13224815 77 18334859398497087104
13544653 18 18408888442500855909
13911987 19 17900276491506650908
14251757 17 17458052755652439425
14251764 38 14924238165314075222
14840074 17 17988930006768925421
14950920 106 15626209209242012522
15537594 2 18131075969149974213
15961568 22 15503233339364544972
17349148 13 18113622253315346768
17780758 139 16774075146388420219
1813 80 18202012061375706189
19377110 9 17560514097304809592
20028762 73 18343301440676781902
21033650 10 15936408888431211908
22393880 68 17168139018751164450
235170 7 17313103055362574519
23557571 272 16732985331690633069
23559900 14 18334009459114407360
23598288 3 18199475359064426608
3004659 81 18040996224228806146
312425 83 15575554622666915134
314194 84 18340777055892844529
3459 110 11455593440112093445
34797466 226 16588318244511812677
3737641 26 18058178223917694590
46194498 28 17386847394990600925
463206 1 18336270149236030387
508706 21 16805041809100477975
602551 16 15913321416570036526
6328613 192 8646479735845879842
6431902 208 18338796707019386766
7970288 3 18342455980205669127

> <PUBCHEM_SHAPE_MULTIPOLES>
508.69
12.75
2.77
2.17
1.5
1.34
-1.28
-7.51
-1.69
1.29
0.4
-3.41
-0.08
-0.12

> <PUBCHEM_SHAPE_SELFOVERLAP>
1044.543

> <PUBCHEM_SHAPE_VOLUME>
289.6

> <PUBCHEM_COORDINATE_TYPE>
2
5
10

$$$$
