10318848
  -OEChem-03292013303D

 45 48  0     0  0  0  0  0  0999 V2000
   -1.1245    3.9496   -0.6006 O   0  0  0  0  0  0  0  0  0  0  0  0
   -0.1153   -0.4036    0.6777 O   0  0  0  0  0  0  0  0  0  0  0  0
    4.2141    4.0691   -0.5514 O   0  0  0  0  0  0  0  0  0  0  0  0
    3.0063   -0.5973    1.8010 O   0  0  0  0  0  0  0  0  0  0  0  0
    0.8437    2.7825   -0.2165 N   0  0  0  0  0  0  0  0  0  0  0  0
    1.1812    1.4856    0.1183 N   0  0  0  0  0  0  0  0  0  0  0  0
   -1.0807    1.6680    0.0625 N   0  0  0  0  0  0  0  0  0  0  0  0
    3.0147   -1.1126   -0.4724 N   0  0  0  0  0  0  0  0  0  0  0  0
   -5.1093   -2.6352   -0.5991 N   0  0  0  0  0  0  0  0  0  0  0  0
    1.8430    3.7681   -0.5318 C   0  0  0  0  0  0  0  0  0  0  0  0
    2.4862    1.0889    0.2496 C   0  0  0  0  0  0  0  0  0  0  0  0
   -0.5451    2.9215   -0.2731 C   0  0  0  0  0  0  0  0  0  0  0  0
   -0.0240    0.7624    0.3156 C   0  0  0  0  0  0  0  0  0  0  0  0
    3.2674    3.3091   -0.3536 C   0  0  0  0  0  0  0  0  0  0  0  0
    3.5226    1.9100    0.0456 C   0  0  0  0  0  0  0  0  0  0  0  0
   -2.4743    1.3585    0.1351 C   0  0  0  0  0  0  0  0  0  0  0  0
    2.8591   -0.2804    0.6217 C   0  0  0  0  0  0  0  0  0  0  0  0
   -2.9236    0.0653   -0.1461 C   0  0  0  0  0  0  0  0  0  0  0  0
   -3.3964    2.3486    0.4861 C   0  0  0  0  0  0  0  0  0  0  0  0
    3.3824   -2.5057   -0.3578 C   0  0  0  0  0  0  0  0  0  0  0  0
    2.1554   -3.3670   -0.2410 C   0  0  0  0  0  0  0  0  0  0  0  0
   -4.2839   -0.2354   -0.0769 C   0  0  0  0  0  0  0  0  0  0  0  0
   -4.7566    2.0478    0.5553 C   0  0  0  0  0  0  0  0  0  0  0  0
   -5.2005    0.7558    0.2737 C   0  0  0  0  0  0  0  0  0  0  0  0
    1.6344   -3.6506    1.0149 C   0  0  0  0  0  0  0  0  0  0  0  0
    1.5580   -3.8686   -1.3899 C   0  0  0  0  0  0  0  0  0  0  0  0
    0.4962   -4.4496    1.1235 C   0  0  0  0  0  0  0  0  0  0  0  0
    0.4198   -4.6677   -1.2812 C   0  0  0  0  0  0  0  0  0  0  0  0
   -0.1111   -4.9581   -0.0246 C   0  0  0  0  0  0  0  0  0  0  0  0
   -4.7391   -1.5588   -0.3648 C   0  0  0  0  0  0  0  0  0  0  0  0
    1.6636    4.6377    0.1090 H   0  0  0  0  0  0  0  0  0  0  0  0
    1.6933    4.0706   -1.5735 H   0  0  0  0  0  0  0  0  0  0  0  0
    4.5562    1.5979    0.1501 H   0  0  0  0  0  0  0  0  0  0  0  0
    2.8518   -0.7449   -1.4059 H   0  0  0  0  0  0  0  0  0  0  0  0
   -2.2309   -0.7142   -0.4529 H   0  0  0  0  0  0  0  0  0  0  0  0
   -3.0853    3.3570    0.7411 H   0  0  0  0  0  0  0  0  0  0  0  0
    4.0363   -2.6441    0.5112 H   0  0  0  0  0  0  0  0  0  0  0  0
    3.9638   -2.7725   -1.2473 H   0  0  0  0  0  0  0  0  0  0  0  0
   -5.4698    2.8178    0.8351 H   0  0  0  0  0  0  0  0  0  0  0  0
   -6.2640    0.5365    0.3335 H   0  0  0  0  0  0  0  0  0  0  0  0
    2.0994   -3.2637    1.9169 H   0  0  0  0  0  0  0  0  0  0  0  0
    1.9620   -3.6468   -2.3737 H   0  0  0  0  0  0  0  0  0  0  0  0
    0.0828   -4.6759    2.1020 H   0  0  0  0  0  0  0  0  0  0  0  0
   -0.0536   -5.0630   -2.1751 H   0  0  0  0  0  0  0  0  0  0  0  0
   -0.9976   -5.5798    0.0600 H   0  0  0  0  0  0  0  0  0  0  0  0
  1 12  2  0  0  0  0
  2 13  2  0  0  0  0
  3 14  2  0  0  0  0
  4 17  2  0  0  0  0
  5  6  1  0  0  0  0
  5 10  1  0  0  0  0
  5 12  1  0  0  0  0
  6 11  1  0  0  0  0
  6 13  1  0  0  0  0
  7 12  1  0  0  0  0
  7 13  1  0  0  0  0
  7 16  1  0  0  0  0
  8 17  1  0  0  0  0
  8 20  1  0  0  0  0
  8 34  1  0  0  0  0
  9 30  3  0  0  0  0
 10 14  1  0  0  0  0
 10 31  1  0  0  0  0
 10 32  1  0  0  0  0
 11 15  2  0  0  0  0
 11 17  1  0  0  0  0
 14 15  1  0  0  0  0
 15 33  1  0  0  0  0
 16 18  1  0  0  0  0
 16 19  2  0  0  0  0
 18 22  2  0  0  0  0
 18 35  1  0  0  0  0
 19 23  1  0  0  0  0
 19 36  1  0  0  0  0
 20 21  1  0  0  0  0
 20 37  1  0  0  0  0
 20 38  1  0  0  0  0
 21 25  2  0  0  0  0
 21 26  1  0  0  0  0
 22 24  1  0  0  0  0
 22 30  1  0  0  0  0
 23 24  2  0  0  0  0
 23 39  1  0  0  0  0
 24 40  1  0  0  0  0
 25 27  1  0  0  0  0
 25 41  1  0  0  0  0
 26 28  2  0  0  0  0
 26 42  1  0  0  0  0
 27 29  2  0  0  0  0
 27 43  1  0  0  0  0
 28 29  1  0  0  0  0
 28 44  1  0  0  0  0
 29 45  1  0  0  0  0
M  END
> <PUBCHEM_COMPOUND_CID>
10318848

> <PUBCHEM_CONFORMER_RMSD>
0.8

> <PUBCHEM_CONFORMER_DIVERSEORDER>
1
64
42
63
69
48
8
59
22
67
52
54
24
61
66
16
60
30
55
25
58
34
45
62
15
36
40
57
56
33
38
5
72
12
10
65
13
44
68
2
20
71
35
18
23
49
53
50
46
17
43
11
27
70
32
9
28
73
47
4
29
26
39
19
31
21
37
41
14
7
51
6
3

> <PUBCHEM_MMFF94_PARTIAL_CHARGES>
41
1 -0.57
10 0.36
11 0.12
12 0.69
13 0.69
14 0.49
15 -0.14
16 0.12
17 0.62
18 -0.15
19 -0.15
2 -0.57
20 0.44
21 -0.14
22 0.07
23 -0.15
24 -0.15
25 -0.15
26 -0.15
27 -0.15
28 -0.15
29 -0.15
3 -0.57
30 0.48
33 0.15
34 0.37
35 0.15
36 0.15
39 0.15
4 -0.57
40 0.15
41 0.15
42 0.15
43 0.15
44 0.15
45 0.15
5 -0.36
6 -0.17
7 -0.24
8 -0.73
9 -0.56

> <PUBCHEM_EFFECTIVE_ROTOR_COUNT>
5.2

> <PUBCHEM_PHARMACOPHORE_FEATURES>
10
1 1 acceptor
1 2 acceptor
1 3 acceptor
1 4 acceptor
1 8 donor
1 9 acceptor
5 5 6 7 12 13 rings
6 16 18 19 22 23 24 rings
6 21 25 26 27 28 29 rings
6 5 6 10 11 14 15 rings

> <PUBCHEM_HEAVY_ATOM_COUNT>
30

> <PUBCHEM_ATOM_DEF_STEREO_COUNT>
0

> <PUBCHEM_ATOM_UDEF_STEREO_COUNT>
0

> <PUBCHEM_BOND_DEF_STEREO_COUNT>
0

> <PUBCHEM_BOND_UDEF_STEREO_COUNT>
0

> <PUBCHEM_ISOTOPIC_ATOM_COUNT>
0

> <PUBCHEM_COMPONENT_COUNT>
1

> <PUBCHEM_CACTVS_TAUTO_COUNT>
4

> <PUBCHEM_CONFORMER_ID>
009D740000000001

> <PUBCHEM_MMFF94_ENERGY>
85.5801

> <PUBCHEM_FEATURE_SELFOVERLAP>
50.841

> <PUBCHEM_SHAPE_FINGERPRINT>
11513181 2 18200600322705225423
12107183 9 17909841929452161777
12156800 1 17323826802938099638
12553582 1 17978503140028327111
12788726 201 16605750160169352960
1361 2 18337953527544920011
13692114 37 17981313800991609112
13785724 45 17621333342413747089
138480 1 18194122902057619178
14790565 3 18267026230975601252
15250474 111 18342450465931053103
15320467 1 17546447134180533207
15483637 11 17400358344350223543
15484559 13 18411139172804115286
15664445 248 18267030444775699366
15927050 60 18267589199026094692
16087824 20 17113264892995921707
17138139 8 17412444098842387519
17492 89 18411702101810259091
18681886 176 18338791312751375744
19930381 70 18409446968970109299
20028762 73 18341889718652510318
20775530 9 17691968159214180526
21133410 62 17829864871140151583
23559900 14 18268144266939346977
314173 41 18123194493598004095
38695281 34 18337958999354724276
3882209 13 17470121957727090879
463206 1 18120949303923850603
5309563 4 18122626050349606911
6433294 58 17979917116482459531
653340 110 17333083634287396680
6823239 73 17265534639145529350

> <PUBCHEM_SHAPE_MULTIPOLES>
569
8.91
7.94
1
11.35
1.73
0.09
2.61
0.29
-6.61
-1.85
-0.63
0.67
-0.48

> <PUBCHEM_SHAPE_SELFOVERLAP>
1249.759

> <PUBCHEM_SHAPE_VOLUME>
300.4

> <PUBCHEM_COORDINATE_TYPE>
2
5
10

$$$$
