REMARK  Name = 10315183
REMARK  7 active torsions:
REMARK  status: ('A' for Active; 'I' for Inactive)
REMARK    1  A    between atoms: C_2  and  O_15
REMARK    2  A    between atoms: C_3  and  C_17
REMARK    3  A    between atoms: C_5  and  N_8
REMARK    4  A    between atoms: C_17  and  O_18
REMARK    5  A    between atoms: O_18  and  P_19
REMARK    6  A    between atoms: P_19  and  O_21
REMARK    7  A    between atoms: P_19  and  O_23
REMARK                            x       y       z     vdW  Elec       q    Type
REMARK                         _______ _______ _______ _____ _____    ______ ____
ROOT
ATOM      1  O   UNL     1      -0.365   1.213   1.018  0.00  0.00    -0.335 OA
ATOM      2  C   UNL     1      -0.896   2.777  -0.683  0.00  0.00    +0.144 C 
ATOM      3  C   UNL     1      -1.482   1.777   0.304  0.00  0.00    +0.174 C 
ATOM      4  C   UNL     1       0.471   2.205  -0.979  0.00  0.00    +0.083 C 
ATOM      5  C   UNL     1       0.853   1.565   0.346  0.00  0.00    +0.200 C 
ENDROOT
BRANCH   5   8
ATOM      6  S   UNL     1       4.087   1.704   0.426  0.00  0.00    -0.018 S 
ATOM      7  S   UNL     1       3.915  -3.504  -0.360  0.00  0.00    -0.035 S 
ATOM      8  N   UNL     1       1.662   0.392   0.184  0.00  0.00    -0.246 N 
ATOM      9  N   UNL     1       3.684  -0.877   0.030  0.00  0.00    -0.290 N 
ATOM     10  C   UNL     1       3.084   0.372   0.207  0.00  0.00    +0.144 C 
ATOM     11  C   UNL     1       0.983  -0.817  -0.007  0.00  0.00    +0.070 C 
ATOM     12  C   UNL     1       1.567  -2.006  -0.175  0.00  0.00    +0.038 C 
ATOM     13  C   UNL     1       3.041  -2.088  -0.163  0.00  0.00    +0.087 C 
ATOM     14  H   UNL     1       4.668  -0.898   0.044  0.00  0.00    +0.154 HD
ENDBRANCH   5   8
BRANCH   2  15
ATOM     15  O   UNL     1      -0.759   4.052  -0.059  0.00  0.00    -0.382 OA
ATOM     16  H   UNL     1      -1.639   4.416   0.129  0.00  0.00    +0.210 HD
ENDBRANCH   2  15
BRANCH   3  17
ATOM     17  C   UNL     1      -2.225   0.636  -0.379  0.00  0.00    +0.186 C 
BRANCH  17  18
ATOM     18  O   UNL     1      -2.723  -0.245   0.614  0.00  0.00    -0.271 OA
BRANCH  18  19
ATOM     19  P   UNL     1      -3.557  -1.549   0.140  0.00  0.00    +0.473 P 
ATOM     20  O   UNL     1      -4.048  -2.428   1.253  0.00  0.00    -0.227 OA
BRANCH  19  21
ATOM     21  O   UNL     1      -2.575  -2.266  -0.926  0.00  0.00    -0.303 OA
ATOM     22  H   UNL     1      -2.311  -1.625  -1.604  0.00  0.00    +0.222 HD
ENDBRANCH  19  21
BRANCH  19  23
ATOM     23  O   UNL     1      -4.717  -0.915  -0.792  0.00  0.00    -0.303 OA
ATOM     24  H   UNL     1      -4.314  -0.364  -1.481  0.00  0.00    +0.222 HD
ENDBRANCH  19  23
ENDBRANCH  18  19
ENDBRANCH  17  18
ENDBRANCH   3  17
TORSDOF 7
