REMARK  Name = 10314546
REMARK  8 active torsions:
REMARK  status: ('A' for Active; 'I' for Inactive)
REMARK    1  A    between atoms: O_1  and  C_7
REMARK    2  A    between atoms: O_1  and  C_19
REMARK    3  A    between atoms: C_3  and  O_9
REMARK    4  A    between atoms: C_4  and  O_11
REMARK    5  A    between atoms: C_5  and  O_13
REMARK    6  A    between atoms: C_17  and  C_25
REMARK    7  A    between atoms: C_19  and  C_22
REMARK    8  A    between atoms: C_25  and  O_26
REMARK                            x       y       z     vdW  Elec       q    Type
REMARK                         _______ _______ _______ _____ _____    ______ ____
ROOT
ATOM      1  O   UNL     1      -0.011  -0.031   1.142  0.00  0.00    -0.451 OA
ENDROOT
BRANCH   1   7
ATOM      2  O   UNL     1       1.596  -0.843  -0.336  0.00  0.00    -0.319 OA
ATOM      3  C   UNL     1       3.282   1.460   0.127  0.00  0.00    +0.173 C 
ATOM      4  C   UNL     1       3.807   0.206  -0.574  0.00  0.00    +0.167 C 
ATOM      5  C   UNL     1       2.078   1.117   1.008  0.00  0.00    +0.210 C 
ATOM      6  C   UNL     1       2.693  -0.630  -1.230  0.00  0.00    +0.148 C 
ATOM      7  C   UNL     1       1.023   0.336   0.227  0.00  0.00    +0.318 C 
ATOM      8  C   UNL     1       2.205  -0.077  -2.567  0.00  0.00    +0.035 C 
BRANCH   3   9
ATOM      9  O   UNL     1       2.897   2.432  -0.843  0.00  0.00    -0.379 OA
ATOM     10  H   UNL     1       3.659   2.650  -1.402  0.00  0.00    +0.211 HD
ENDBRANCH   3   9
BRANCH   4  11
ATOM     11  O   UNL     1       4.455  -0.598   0.416  0.00  0.00    -0.379 OA
ATOM     12  H   UNL     1       5.160  -0.083   0.839  0.00  0.00    +0.211 HD
ENDBRANCH   4  11
BRANCH   5  13
ATOM     13  O   UNL     1       1.498   2.311   1.526  0.00  0.00    -0.377 OA
ATOM     14  H   UNL     1       2.168   2.807   2.022  0.00  0.00    +0.211 HD
ENDBRANCH   5  13
ENDBRANCH   1   7
BRANCH   1  19
ATOM     15  O   UNL     1      -3.901  -0.007  -1.345  0.00  0.00    -0.445 OA
ATOM     16  O   UNL     1      -3.306  -2.119  -0.647  0.00  0.00    -0.245 OA
ATOM     17  C   UNL     1      -2.346   1.298  -0.126  0.00  0.00    +0.105 C 
ATOM     18  C   UNL     1      -2.049  -0.155  -0.020  0.00  0.00    +0.093 C 
ATOM     19  C   UNL     1      -0.989  -0.745   0.534  0.00  0.00    +0.143 C 
ATOM     20  C   UNL     1      -3.277   1.287  -1.324  0.00  0.00    +0.216 C 
ATOM     21  C   UNL     1      -3.124  -0.915  -0.686  0.00  0.00    +0.340 C 
BRANCH  19  22
ATOM     22  C   UNL     1      -0.808  -2.184   0.527  0.00  0.00    +0.032 C 
ATOM     23  C   UNL     1       0.229  -2.845   1.064  0.00  0.00    -0.023 C 
ATOM     24  C   UNL     1       0.369  -4.332   1.029  0.00  0.00    +0.031 C 
ENDBRANCH  19  22
BRANCH  17  25
ATOM     25  C   UNL     1      -3.036   1.824   1.130  0.00  0.00    +0.146 C 
BRANCH  25  26
ATOM     26  O   UNL     1      -3.281   3.211   0.969  0.00  0.00    -0.382 OA
ATOM     27  H   UNL     1      -3.719   3.556   1.762  0.00  0.00    +0.210 HD
ENDBRANCH  25  26
ENDBRANCH  17  25
ENDBRANCH   1  19
TORSDOF 8
