REMARK  Name = 10316810
REMARK  2 active torsions:
REMARK  status: ('A' for Active; 'I' for Inactive)
REMARK    1  A    between atoms: C_11  and  O_26
REMARK    2  A    between atoms: C_12  and  O_28
REMARK                            x       y       z     vdW  Elec       q    Type
REMARK                         _______ _______ _______ _____ _____    ______ ____
ROOT
ATOM      1  O   UNL     1      -2.326   0.563   1.241  0.00  0.00    -0.339 OA
ATOM      2  O   UNL     1      -1.066   2.681   0.104  0.00  0.00    -0.344 OA
ATOM      3  O   UNL     1       0.623   0.555   1.209  0.00  0.00    -0.444 OA
ATOM      4  O   UNL     1       0.364  -0.543  -0.996  0.00  0.00    -0.444 OA
ATOM      5  O   UNL     1      -0.364  -2.105   1.552  0.00  0.00    -0.289 OA
ATOM      6  C   UNL     1      -2.809   0.216  -0.072  0.00  0.00    +0.185 C 
ATOM      7  C   UNL     1      -1.472  -0.298   0.467  0.00  0.00    +0.247 C 
ATOM      8  C   UNL     1      -0.158   0.361   0.006  0.00  0.00    +0.329 C 
ATOM      9  C   UNL     1      -0.321   1.713  -0.653  0.00  0.00    +0.224 C 
ATOM     10  C   UNL     1      -1.644   2.223  -1.127  0.00  0.00    +0.179 C 
ATOM     11  C   UNL     1      -2.888   1.413  -0.995  0.00  0.00    +0.171 C 
ATOM     12  C   UNL     1      -4.008  -0.710  -0.034  0.00  0.00    +0.163 C 
ATOM     13  C   UNL     1      -1.404  -1.671   1.068  0.00  0.00    +0.207 C 
ATOM     14  C   UNL     1      -3.788  -2.052   0.591  0.00  0.00    +0.008 C 
ATOM     15  C   UNL     1      -2.629  -2.497   1.081  0.00  0.00    +0.038 C 
ATOM     16  C   UNL     1       1.975   0.491   1.041  0.00  0.00    +0.145 C 
ATOM     17  C   UNL     1       1.724  -0.586  -1.092  0.00  0.00    +0.145 C 
ATOM     18  C   UNL     1       2.543  -0.071  -0.095  0.00  0.00    +0.068 C 
ATOM     19  C   UNL     1       2.779   0.983   2.068  0.00  0.00    +0.037 C 
ATOM     20  C   UNL     1       2.275  -1.187  -2.223  0.00  0.00    +0.037 C 
ATOM     21  C   UNL     1       3.949  -0.141  -0.225  0.00  0.00    +0.006 C 
ATOM     22  C   UNL     1       4.166   0.929   1.946  0.00  0.00    +0.003 C 
ATOM     23  C   UNL     1       3.660  -1.254  -2.366  0.00  0.00    +0.003 C 
ATOM     24  C   UNL     1       4.750   0.373   0.807  0.00  0.00    +0.000 C 
ATOM     25  C   UNL     1       4.494  -0.732  -1.375  0.00  0.00    +0.000 C 
ENDROOT
BRANCH  11  26
ATOM     26  O   UNL     1      -3.936   2.283  -0.565  0.00  0.00    -0.379 OA
ATOM     27  H   UNL     1      -4.758   1.777  -0.471  0.00  0.00    +0.211 HD
ENDBRANCH  11  26
BRANCH  12  28
ATOM     28  O   UNL     1      -4.490  -0.937  -1.361  0.00  0.00    -0.377 OA
ATOM     29  H   UNL     1      -4.644  -0.085  -1.799  0.00  0.00    +0.211 HD
ENDBRANCH  12  28
TORSDOF 2
