REMARK  Name = 10316935
REMARK  4 active torsions:
REMARK  status: ('A' for Active; 'I' for Inactive)
REMARK    1  A    between atoms: C_14  and  O_24
REMARK    2  A    between atoms: C_15  and  O_26
REMARK    3  A    between atoms: C_20  and  O_28
REMARK    4  A    between atoms: C_23  and  O_30
REMARK                            x       y       z     vdW  Elec       q    Type
REMARK                         _______ _______ _______ _____ _____    ______ ____
ROOT
ATOM      1  O   UNL     1      -4.375   0.579   0.280  0.00  0.00    -0.480 OA
ATOM      2  O   UNL     1       1.279  -1.203   0.088  0.00  0.00    -0.453 OA
ATOM      3  O   UNL     1       1.857   2.822  -0.269  0.00  0.00    -0.287 OA
ATOM      4  C   UNL     1      -2.087   1.370   0.512  0.00  0.00    +0.067 C 
ATOM      5  C   UNL     1      -3.532   1.780   0.130  0.00  0.00    +0.137 C 
ATOM      6  C   UNL     1      -2.187  -0.076   0.213  0.00  0.00    +0.024 C 
ATOM      7  C   UNL     1      -0.868   1.963  -0.199  0.00  0.00    +0.041 C 
ATOM      8  C   UNL     1      -3.504  -0.473   0.159  0.00  0.00    +0.168 C 
ATOM      9  C   UNL     1      -1.115  -0.932   0.025  0.00  0.00    +0.067 C 
ATOM     10  C   UNL     1       0.330   1.026  -0.103  0.00  0.00    +0.052 A 
ATOM     11  C   UNL     1      -4.147   2.890   0.993  0.00  0.00    +0.044 C 
ATOM     12  C   UNL     1      -3.604   2.200  -1.341  0.00  0.00    +0.044 C 
ATOM     13  C   UNL     1       0.223  -0.318   0.012  0.00  0.00    +0.147 A 
ATOM     14  C   UNL     1      -3.825  -1.799  -0.024  0.00  0.00    +0.170 C 
ATOM     15  C   UNL     1      -1.421  -2.281  -0.162  0.00  0.00    +0.139 C 
ATOM     16  C   UNL     1       1.692   1.615  -0.146  0.00  0.00    +0.200 A 
ATOM     17  C   UNL     1      -2.768  -2.708  -0.178  0.00  0.00    +0.076 C 
ATOM     18  C   UNL     1       2.817   0.670  -0.041  0.00  0.00    +0.107 A 
ATOM     19  C   UNL     1       2.551  -0.693   0.071  0.00  0.00    +0.154 A 
ATOM     20  C   UNL     1       4.137   1.131  -0.055  0.00  0.00    +0.143 C 
ATOM     21  C   UNL     1       3.603  -1.605   0.170  0.00  0.00    +0.074 C 
ATOM     22  C   UNL     1       5.187   0.217   0.045  0.00  0.00    +0.073 C 
ATOM     23  C   UNL     1       4.920  -1.148   0.157  0.00  0.00    +0.140 C 
ENDROOT
BRANCH  14  24
ATOM     24  O   UNL     1      -5.113  -2.219  -0.071  0.00  0.00    -0.503 OA
ATOM     25  H   UNL     1      -5.811  -1.602   0.033  0.00  0.00    +0.292 HD
ENDBRANCH  14  24
BRANCH  15  26
ATOM     26  O   UNL     1      -0.454  -3.221  -0.356  0.00  0.00    -0.505 OA
ATOM     27  H   UNL     1       0.449  -2.973  -0.351  0.00  0.00    +0.292 HD
ENDBRANCH  15  26
BRANCH  20  28
ATOM     28  O   UNL     1       4.455   2.451  -0.161  0.00  0.00    -0.505 OA
ATOM     29  H   UNL     1       3.775   3.092  -0.230  0.00  0.00    +0.292 HD
ENDBRANCH  20  28
BRANCH  23  30
ATOM     30  O   UNL     1       5.948  -2.036   0.254  0.00  0.00    -0.505 OA
ATOM     31  H   UNL     1       5.770  -2.953   0.329  0.00  0.00    +0.292 HD
ENDBRANCH  23  30
TORSDOF 4
