REMARK  Name = 10317178
REMARK  13 active torsions:
REMARK  status: ('A' for Active; 'I' for Inactive)
REMARK    1  A    between atoms: N_2  and  C_5
REMARK    2  A    between atoms: C_3  and  C_18
REMARK    3  A    between atoms: C_5  and  C_7
REMARK    4  A    between atoms: C_5  and  C_14
REMARK    5  A    between atoms: C_7  and  C_9
REMARK    6  A    between atoms: C_9  and  C_11
REMARK    7  A    between atoms: C_11  and  O_12
REMARK    8  A    between atoms: C_14  and  C_15
REMARK    9  A    between atoms: C_18  and  N_20
REMARK   10  A    between atoms: C_18  and  C_27
REMARK   11  A    between atoms: C_21  and  C_23
REMARK   12  A    between atoms: C_23  and  C_24
REMARK   13  A    between atoms: C_27  and  O_29
REMARK                            x       y       z     vdW  Elec       q    Type
REMARK                         _______ _______ _______ _____ _____    ______ ____
ROOT
ATOM      1  O   UNL     1      -0.046  -0.855  -1.123  0.00  0.00    -0.273 OA
ATOM      2  N   UNL     1       0.796   0.242   0.741  0.00  0.00    -0.298 N 
ATOM      3  C   UNL     1      -0.156  -0.497   0.048  0.00  0.00    +0.243 C 
ATOM      4  H   UNL     1       0.617   0.482   1.679  0.00  0.00    +0.150 HD
ENDROOT
BRANCH   2   5
ATOM      5  C   UNL     1       2.033   0.671   0.143  0.00  0.00    +0.132 C 
BRANCH   5   7
ATOM      6  O   UNL     1       3.065  -1.183   1.325  0.00  0.00    -0.292 OA
ATOM      7  C   UNL     1       3.013  -0.473   0.327  0.00  0.00    +0.197 C 
BRANCH   7   9
ATOM      8  O   UNL     1       4.739   0.490  -1.117  0.00  0.00    -0.344 OA
ATOM      9  C   UNL     1       3.988  -0.684  -0.784  0.00  0.00    +0.199 C 
ATOM     10  C   UNL     1       5.461  -0.590  -0.512  0.00  0.00    +0.179 C 
BRANCH   9  11
ATOM     11  C   UNL     1       3.530  -1.448  -1.975  0.00  0.00    +0.174 C 
BRANCH  11  12
ATOM     12  O   UNL     1       3.140  -2.757  -1.582  0.00  0.00    -0.379 OA
ATOM     13  H   UNL     1       2.842  -3.253  -2.360  0.00  0.00    +0.211 HD
ENDBRANCH  11  12
ENDBRANCH   9  11
ENDBRANCH   7   9
ENDBRANCH   5   7
BRANCH   5  14
ATOM     14  C   UNL     1       2.590   1.942   0.792  0.00  0.00    +0.027 C 
BRANCH  14  15
ATOM     15  C   UNL     1       1.649   3.162   0.732  0.00  0.00    +0.002 C 
ATOM     16  C   UNL     1       2.292   4.346   1.459  0.00  0.00    +0.000 C 
ATOM     17  C   UNL     1       1.308   3.564  -0.704  0.00  0.00    +0.000 C 
ENDBRANCH  14  15
ENDBRANCH   5  14
ENDBRANCH   2   5
BRANCH   3  18
ATOM     18  C   UNL     1      -1.349  -0.871   0.923  0.00  0.00    +0.176 C 
BRANCH  18  20
ATOM     19  O   UNL     1      -3.025   1.372   0.236  0.00  0.00    -0.275 OA
ATOM     20  N   UNL     1      -2.518  -0.889   0.081  0.00  0.00    -0.296 N 
ATOM     21  C   UNL     1      -3.267   0.248  -0.195  0.00  0.00    +0.223 C 
ATOM     22  H   UNL     1      -2.798  -1.745  -0.316  0.00  0.00    +0.150 HD
BRANCH  21  23
ATOM     23  C   UNL     1      -4.423  -0.054  -1.137  0.00  0.00    +0.085 C 
BRANCH  23  24
ATOM     24  C   UNL     1      -5.611   0.907  -0.987  0.00  0.00    +0.009 C 
ATOM     25  C   UNL     1      -6.190   0.862   0.430  0.00  0.00    +0.001 C 
ATOM     26  C   UNL     1      -6.702   0.557  -2.001  0.00  0.00    +0.001 C 
ENDBRANCH  23  24
ENDBRANCH  21  23
ENDBRANCH  18  20
BRANCH  18  27
ATOM     27  C   UNL     1      -1.120  -2.204   1.651  0.00  0.00    +0.137 C 
ATOM     28  C   UNL     1      -2.312  -2.603   2.512  0.00  0.00    +0.034 C 
BRANCH  27  29
ATOM     29  O   UNL     1      -0.885  -3.256   0.716  0.00  0.00    -0.382 OA
ATOM     30  H   UNL     1      -0.129  -3.026   0.154  0.00  0.00    +0.210 HD
ENDBRANCH  27  29
ENDBRANCH  18  27
ENDBRANCH   3  18
TORSDOF 13
