REMARK  Name = 10318848
REMARK  5 active torsions:
REMARK  status: ('A' for Active; 'I' for Inactive)
REMARK    1  A    between atoms: N_6  and  C_13
REMARK    2  A    between atoms: C_8  and  C_23
REMARK    3  A    between atoms: C_16  and  C_20
REMARK    4  A    between atoms: N_22  and  C_25
REMARK    5  A    between atoms: C_25  and  C_26
REMARK                            x       y       z     vdW  Elec       q    Type
REMARK                         _______ _______ _______ _____ _____    ______ ____
ROOT
ATOM      1  O   UNL     1      -1.125   3.950  -0.601  0.00  0.00    -0.244 OA
ATOM      2  O   UNL     1      -0.115  -0.404   0.678  0.00  0.00    -0.244 OA
ATOM      3  O   UNL     1       4.214   4.069  -0.551  0.00  0.00    -0.289 OA
ATOM      4  N   UNL     1       0.844   2.783  -0.216  0.00  0.00    -0.206 N 
ATOM      5  N   UNL     1       1.181   1.486   0.118  0.00  0.00    -0.191 N 
ATOM      6  N   UNL     1      -1.081   1.668   0.063  0.00  0.00    -0.210 N 
ATOM      7  C   UNL     1       1.843   3.768  -0.532  0.00  0.00    +0.199 C 
ATOM      8  C   UNL     1       2.486   1.089   0.250  0.00  0.00    +0.142 C 
ATOM      9  C   UNL     1      -0.545   2.921  -0.273  0.00  0.00    +0.354 A 
ATOM     10  C   UNL     1      -0.024   0.762   0.316  0.00  0.00    +0.357 A 
ATOM     11  C   UNL     1       3.267   3.309  -0.354  0.00  0.00    +0.199 C 
ATOM     12  C   UNL     1       3.523   1.910   0.046  0.00  0.00    +0.063 C 
ENDROOT
BRANCH   6  13
ATOM     13  C   UNL     1      -2.474   1.359   0.135  0.00  0.00    +0.073 C 
ATOM     14  C   UNL     1      -2.924   0.065  -0.146  0.00  0.00    +0.028 C 
ATOM     15  C   UNL     1      -3.396   2.349   0.486  0.00  0.00    +0.018 C 
ATOM     16  C   UNL     1      -4.284  -0.235  -0.077  0.00  0.00    +0.070 C 
ATOM     17  C   UNL     1      -4.757   2.048   0.555  0.00  0.00    +0.002 C 
ATOM     18  C   UNL     1      -5.200   0.756   0.274  0.00  0.00    +0.010 C 
BRANCH  16  20
ATOM     19  N   UNL     1      -5.109  -2.635  -0.599  0.00  0.00    -0.191 NA
ATOM     20  C   UNL     1      -4.739  -1.559  -0.365  0.00  0.00    +0.100 C 
ENDBRANCH  16  20
ENDBRANCH   6  13
BRANCH   8  23
ATOM     21  O   UNL     1       3.006  -0.597   1.801  0.00  0.00    -0.268 OA
ATOM     22  N   UNL     1       3.015  -1.113  -0.472  0.00  0.00    -0.296 N 
ATOM     23  C   UNL     1       2.859  -0.280   0.622  0.00  0.00    +0.264 C 
ATOM     24  H   UNL     1       2.868  -0.738  -1.371  0.00  0.00    +0.150 HD
BRANCH  22  25
ATOM     25  C   UNL     1       3.382  -2.506  -0.358  0.00  0.00    +0.117 C 
BRANCH  25  26
ATOM     26  C   UNL     1       2.155  -3.367  -0.241  0.00  0.00    -0.003 C 
ATOM     27  C   UNL     1       1.634  -3.651   1.015  0.00  0.00    -0.003 C 
ATOM     28  C   UNL     1       1.558  -3.869  -1.390  0.00  0.00    -0.003 C 
ATOM     29  C   UNL     1       0.496  -4.450   1.123  0.00  0.00    -0.000 C 
ATOM     30  C   UNL     1       0.420  -4.668  -1.281  0.00  0.00    -0.000 C 
ATOM     31  C   UNL     1      -0.111  -4.958  -0.025  0.00  0.00    -0.000 C 
ENDBRANCH  25  26
ENDBRANCH  22  25
ENDBRANCH   8  23
TORSDOF 5
