10316810
  -OEChem-03292013303D

 41 47  0     1  0  0  0  0  0999 V2000
   -2.3261    0.5628    1.2410 O   0  0  0  0  0  0  0  0  0  0  0  0
   -1.0662    2.6806    0.1041 O   0  0  0  0  0  0  0  0  0  0  0  0
    0.6227    0.5555    1.2087 O   0  0  0  0  0  0  0  0  0  0  0  0
    0.3643   -0.5435   -0.9963 O   0  0  0  0  0  0  0  0  0  0  0  0
   -3.9361    2.2830   -0.5647 O   0  0  0  0  0  0  0  0  0  0  0  0
   -4.4896   -0.9368   -1.3612 O   0  0  0  0  0  0  0  0  0  0  0  0
   -0.3638   -2.1051    1.5517 O   0  0  0  0  0  0  0  0  0  0  0  0
   -2.8093    0.2160   -0.0720 C   0  0  2  0  0  0  0  0  0  0  0  0
   -1.4718   -0.2976    0.4672 C   0  0  1  0  0  0  0  0  0  0  0  0
   -0.1580    0.3609    0.0062 C   0  0  0  0  0  0  0  0  0  0  0  0
   -0.3205    1.7128   -0.6532 C   0  0  1  0  0  0  0  0  0  0  0  0
   -1.6444    2.2227   -1.1270 C   0  0  1  0  0  0  0  0  0  0  0  0
   -2.8884    1.4129   -0.9946 C   0  0  2  0  0  0  0  0  0  0  0  0
   -4.0075   -0.7095   -0.0337 C   0  0  2  0  0  0  0  0  0  0  0  0
   -1.4040   -1.6713    1.0678 C   0  0  0  0  0  0  0  0  0  0  0  0
   -3.7882   -2.0520    0.5908 C   0  0  0  0  0  0  0  0  0  0  0  0
   -2.6286   -2.4971    1.0806 C   0  0  0  0  0  0  0  0  0  0  0  0
    1.9749    0.4913    1.0406 C   0  0  0  0  0  0  0  0  0  0  0  0
    1.7243   -0.5857   -1.0921 C   0  0  0  0  0  0  0  0  0  0  0  0
    2.5432   -0.0708   -0.0954 C   0  0  0  0  0  0  0  0  0  0  0  0
    2.7791    0.9827    2.0676 C   0  0  0  0  0  0  0  0  0  0  0  0
    2.2752   -1.1867   -2.2228 C   0  0  0  0  0  0  0  0  0  0  0  0
    3.9485   -0.1408   -0.2250 C   0  0  0  0  0  0  0  0  0  0  0  0
    4.1664    0.9291    1.9465 C   0  0  0  0  0  0  0  0  0  0  0  0
    3.6598   -1.2542   -2.3660 C   0  0  0  0  0  0  0  0  0  0  0  0
    4.7504    0.3729    0.8067 C   0  0  0  0  0  0  0  0  0  0  0  0
    4.4940   -0.7322   -1.3755 C   0  0  0  0  0  0  0  0  0  0  0  0
    0.5723    2.0711   -1.1496 H   0  0  0  0  0  0  0  0  0  0  0  0
   -1.6714    2.9200   -1.9538 H   0  0  0  0  0  0  0  0  0  0  0  0
   -3.1526    1.0672   -1.9996 H   0  0  0  0  0  0  0  0  0  0  0  0
   -4.8099   -0.2005    0.5142 H   0  0  0  0  0  0  0  0  0  0  0  0
   -4.6510   -2.7122    0.6471 H   0  0  0  0  0  0  0  0  0  0  0  0
   -2.5570   -3.4869    1.5181 H   0  0  0  0  0  0  0  0  0  0  0  0
   -3.7172    2.5862    0.3333 H   0  0  0  0  0  0  0  0  0  0  0  0
   -5.3383   -1.4072   -1.2937 H   0  0  0  0  0  0  0  0  0  0  0  0
    2.3331    1.4131    2.9600 H   0  0  0  0  0  0  0  0  0  0  0  0
    1.6336   -1.5969   -2.9977 H   0  0  0  0  0  0  0  0  0  0  0  0
    4.7954    1.3173    2.7425 H   0  0  0  0  0  0  0  0  0  0  0  0
    4.0915   -1.7161   -3.2492 H   0  0  0  0  0  0  0  0  0  0  0  0
    5.8352    0.3356    0.7354 H   0  0  0  0  0  0  0  0  0  0  0  0
    5.5719   -0.7998   -1.5051 H   0  0  0  0  0  0  0  0  0  0  0  0
  1  8  1  0  0  0  0
  1  9  1  0  0  0  0
  2 11  1  0  0  0  0
  2 12  1  0  0  0  0
  3 10  1  0  0  0  0
  3 18  1  0  0  0  0
  4 10  1  0  0  0  0
  4 19  1  0  0  0  0
  5 13  1  0  0  0  0
  5 34  1  0  0  0  0
  6 14  1  0  0  0  0
  6 35  1  0  0  0  0
  7 15  2  0  0  0  0
  8  9  1  0  0  0  0
  8 13  1  0  0  0  0
  8 14  1  0  0  0  0
  9 10  1  0  0  0  0
  9 15  1  0  0  0  0
 10 11  1  0  0  0  0
 11 12  1  0  0  0  0
 11 28  1  0  0  0  0
 12 13  1  0  0  0  0
 12 29  1  0  0  0  0
 13 30  1  0  0  0  0
 14 16  1  0  0  0  0
 14 31  1  0  0  0  0
 15 17  1  0  0  0  0
 16 17  2  0  0  0  0
 16 32  1  0  0  0  0
 17 33  1  0  0  0  0
 18 20  1  0  0  0  0
 18 21  2  0  0  0  0
 19 20  1  0  0  0  0
 19 22  2  0  0  0  0
 20 23  2  0  0  0  0
 21 24  1  0  0  0  0
 21 36  1  0  0  0  0
 22 25  1  0  0  0  0
 22 37  1  0  0  0  0
 23 26  1  0  0  0  0
 23 27  1  0  0  0  0
 24 26  2  0  0  0  0
 24 38  1  0  0  0  0
 25 27  2  0  0  0  0
 25 39  1  0  0  0  0
 26 40  1  0  0  0  0
 27 41  1  0  0  0  0
M  END
> <PUBCHEM_COMPOUND_CID>
10316810

> <PUBCHEM_CONFORMER_RMSD>
0.6

> <PUBCHEM_CONFORMER_DIVERSEORDER>
1

> <PUBCHEM_MMFF94_PARTIAL_CHARGES>
37
1 -0.3
10 0.75
11 -0.05
12 -0.05
13 0.47
14 0.51
15 0.56
16 -0.29
17 -0.14
18 0.08
19 0.08
2 -0.3
21 -0.15
22 -0.15
24 -0.15
25 -0.15
26 -0.15
27 -0.15
28 0.1
29 0.1
3 -0.36
32 0.15
33 0.15
34 0.4
35 0.4
36 0.15
37 0.15
38 0.15
39 0.15
4 -0.36
40 0.15
41 0.15
5 -0.68
6 -0.68
7 -0.57
8 -0.04
9 0.05

> <PUBCHEM_EFFECTIVE_ROTOR_COUNT>
1.2

> <PUBCHEM_PHARMACOPHORE_FEATURES>
14
1 1 acceptor
1 2 acceptor
1 3 acceptor
1 4 acceptor
1 5 acceptor
1 5 donor
1 6 acceptor
1 6 donor
1 7 acceptor
6 18 20 21 23 24 26 rings
6 19 20 22 23 25 27 rings
6 3 4 10 18 19 20 rings
7 1 8 9 14 15 16 17 rings
8 1 2 8 9 10 11 12 13 rings

> <PUBCHEM_HEAVY_ATOM_COUNT>
27

> <PUBCHEM_ATOM_DEF_STEREO_COUNT>
6

> <PUBCHEM_ATOM_UDEF_STEREO_COUNT>
0

> <PUBCHEM_BOND_DEF_STEREO_COUNT>
0

> <PUBCHEM_BOND_UDEF_STEREO_COUNT>
0

> <PUBCHEM_ISOTOPIC_ATOM_COUNT>
0

> <PUBCHEM_COMPONENT_COUNT>
1

> <PUBCHEM_CACTVS_TAUTO_COUNT>
1

> <PUBCHEM_CONFORMER_ID>
009D6C0A00000001

> <PUBCHEM_MMFF94_ENERGY>
78.632

> <PUBCHEM_FEATURE_SELFOVERLAP>
71.213

> <PUBCHEM_SHAPE_FINGERPRINT>
10366900 7 18343028783145883110
11370993 144 17632308843243342651
11578080 2 17987537973097447560
11582403 64 16902639903043044680
11640471 11 16515980206663878070
11796584 16 18263651658866990710
12236239 1 16660639665748529042
12553582 1 18041853899354754851
12714826 92 17895490205773571627
12788726 201 17241344576053802467
13140716 1 17970911292170505179
13224815 77 18202566176754849228
13544653 18 17917437561438531695
13583140 156 18341314636033695370
13782708 43 18273221885331680910
13911987 19 17345462881434123776
13947920 75 17676779703900143510
14081887 123 18408598137060562456
14294032 229 17677891228763002157
15961568 22 18116714213257931340
16752209 62 17967250888395246691
16945 1 18186242818386023225
17349148 13 17458060469350659418
17357779 13 18341614853910004247
18219364 16 17632571682636446296
19862831 5 17022908977266212686
19930381 70 17130691963090465273
20511986 3 16660913491588887340
20600515 1 18260543458973461565
20645477 70 17561362877226121886
21033648 29 17988349434401210472
21133410 230 12590896108049258735
22112679 90 17095525084767296356
22121540 332 17544790853284213329
22182313 1 18272652350427879767
23402539 116 18333723611375153469
23557571 272 18411702084102966708
23559900 14 18337113354832910390
3380486 145 17844526815134044643
474 4 15265909239388105810
57527293 21 18197775707777573410
57527295 17 17771349660576632678
602551 16 18261110781561825170
6034566 193 13265255495190462374
77492 1 16660646254259970536
81228 2 18335717013224526625
9709674 26 18342740719230112100

> <PUBCHEM_SHAPE_MULTIPOLES>
514.56
8.84
2.32
2
2.2
0.32
-0.16
-1.34
-0.59
-2.27
-0.05
1.84
-0.39
2.6

> <PUBCHEM_SHAPE_SELFOVERLAP>
1192.744

> <PUBCHEM_SHAPE_VOLUME>
259.2

> <PUBCHEM_COORDINATE_TYPE>
2
5
10

$$$$
