REMARK  Name = 10317980
REMARK  10 active torsions:
REMARK  status: ('A' for Active; 'I' for Inactive)
REMARK    1  A    between atoms: O_1  and  C_6
REMARK    2  A    between atoms: O_1  and  C_17
REMARK    3  A    between atoms: C_3  and  O_8
REMARK    4  A    between atoms: C_4  and  O_10
REMARK    5  A    between atoms: C_5  and  O_12
REMARK    6  A    between atoms: C_7  and  C_14
REMARK    7  A    between atoms: C_14  and  O_15
REMARK    8  A    between atoms: C_17  and  C_20
REMARK    9  A    between atoms: C_19  and  C_23
REMARK   10  A    between atoms: C_23  and  O_31
REMARK                            x       y       z     vdW  Elec       q    Type
REMARK                         _______ _______ _______ _____ _____    ______ ____
ROOT
ATOM      1  O   UNL     1      -1.704   1.743   1.005  0.00  0.00    -0.327 OA
ENDROOT
BRANCH   1   6
ATOM      2  O   UNL     1      -2.814   0.719  -0.774  0.00  0.00    -0.326 OA
ATOM      3  C   UNL     1      -4.157  -1.098   0.999  0.00  0.00    +0.172 C 
ATOM      4  C   UNL     1      -4.575  -0.916  -0.460  0.00  0.00    +0.169 C 
ATOM      5  C   UNL     1      -3.385   0.119   1.509  0.00  0.00    +0.196 C 
ATOM      6  C   UNL     1      -2.280   0.525   0.534  0.00  0.00    +0.266 C 
ATOM      7  C   UNL     1      -3.385  -0.473  -1.315  0.00  0.00    +0.176 C 
BRANCH   3   8
ATOM      8  O   UNL     1      -5.341  -1.271   1.780  0.00  0.00    -0.379 OA
ATOM      9  H   UNL     1      -5.832  -2.043   1.457  0.00  0.00    +0.211 HD
ENDBRANCH   3   8
BRANCH   4  10
ATOM     10  O   UNL     1      -5.082  -2.150  -0.962  0.00  0.00    -0.379 OA
ATOM     11  H   UNL     1      -5.837  -2.433  -0.422  0.00  0.00    +0.211 HD
ENDBRANCH   4  10
BRANCH   5  12
ATOM     12  O   UNL     1      -2.781  -0.194   2.764  0.00  0.00    -0.378 OA
ATOM     13  H   UNL     1      -3.468  -0.454   3.397  0.00  0.00    +0.211 HD
ENDBRANCH   5  12
BRANCH   7  14
ATOM     14  C   UNL     1      -3.803  -0.173  -2.751  0.00  0.00    +0.169 C 
BRANCH  14  15
ATOM     15  O   UNL     1      -2.658   0.239  -3.476  0.00  0.00    -0.379 OA
ATOM     16  H   UNL     1      -2.909   0.434  -4.393  0.00  0.00    +0.211 HD
ENDBRANCH  14  15
ENDBRANCH   7  14
ENDBRANCH   1   6
BRANCH   1  17
ATOM     17  C   UNL     1      -0.664   2.194   0.141  0.00  0.00    +0.140 C 
ATOM     18  C   UNL     1      -0.613   3.716   0.173  0.00  0.00    +0.037 C 
BRANCH  17  20
ATOM     19  C   UNL     1       1.375   0.759  -0.114  0.00  0.00    +0.002 C 
ATOM     20  C   UNL     1       0.627   1.597   0.619  0.00  0.00    +0.001 C 
BRANCH  19  23
ATOM     21  O   UNL     1       6.011  -2.274  -0.305  0.00  0.00    -0.291 OA
ATOM     22  C   UNL     1       3.908   0.691  -0.466  0.00  0.00    +0.037 C 
ATOM     23  C   UNL     1       2.676   0.155   0.364  0.00  0.00    +0.122 C 
ATOM     24  C   UNL     1       5.188  -0.045  -0.009  0.00  0.00    +0.072 C 
ATOM     25  C   UNL     1       2.635  -1.378   0.399  0.00  0.00    -0.013 C 
ATOM     26  C   UNL     1       3.724   0.478  -1.991  0.00  0.00    +0.003 C 
ATOM     27  C   UNL     1       4.154   2.202  -0.233  0.00  0.00    +0.003 C 
ATOM     28  C   UNL     1       5.045  -1.544  -0.092  0.00  0.00    +0.173 C 
ATOM     29  C   UNL     1       3.716  -2.141   0.166  0.00  0.00    +0.031 C 
ATOM     30  C   UNL     1       1.341  -2.064   0.766  0.00  0.00    +0.029 C 
BRANCH  23  31
ATOM     31  O   UNL     1       2.844   0.583   1.728  0.00  0.00    -0.379 OA
ATOM     32  H   UNL     1       3.671   0.219   2.082  0.00  0.00    +0.211 HD
ENDBRANCH  23  31
ENDBRANCH  19  23
ENDBRANCH  17  20
ENDBRANCH   1  17
TORSDOF 10
