REMARK  Name = 10317069
REMARK  11 active torsions:
REMARK  status: ('A' for Active; 'I' for Inactive)
REMARK    1  A    between atoms: C_1  and  C_25
REMARK    2  A    between atoms: C_2  and  O_7
REMARK    3  A    between atoms: C_3  and  O_11
REMARK    4  A    between atoms: C_4  and  C_14
REMARK    5  A    between atoms: C_5  and  O_9
REMARK    6  A    between atoms: C_14  and  C_15
REMARK    7  A    between atoms: C_16  and  C_17
REMARK    8  A    between atoms: C_22  and  O_23
REMARK    9  A    between atoms: C_25  and  C_26
REMARK   10  A    between atoms: C_26  and  C_27
REMARK   11  A    between atoms: C_26  and  O_30
REMARK                            x       y       z     vdW  Elec       q    Type
REMARK                         _______ _______ _______ _____ _____    ______ ____
ROOT
ATOM      1  C   UNL     1       2.636  -0.152   0.612  0.00  0.00    +0.048 C 
ATOM      2  C   UNL     1       1.479   0.075  -0.118  0.00  0.00    +0.139 C 
ATOM      3  C   UNL     1       2.918  -1.404   1.138  0.00  0.00    +0.136 C 
ATOM      4  C   UNL     1       0.583  -0.973  -0.326  0.00  0.00    +0.106 C 
ATOM      5  C   UNL     1       0.854  -2.237   0.198  0.00  0.00    +0.148 C 
ATOM      6  C   UNL     1       2.022  -2.452   0.930  0.00  0.00    +0.073 C 
ENDROOT
BRANCH   2   7
ATOM      7  O   UNL     1       1.216   1.313  -0.629  0.00  0.00    -0.506 OA
ATOM      8  H   UNL     1       1.819   2.016  -0.488  0.00  0.00    +0.292 HD
ENDBRANCH   2   7
BRANCH   5   9
ATOM      9  O   UNL     1      -0.008  -3.276   0.007  0.00  0.00    -0.471 OA
ATOM     10  C   UNL     1       0.195  -4.080  -1.153  0.00  0.00    +0.252 C 
ENDBRANCH   5   9
BRANCH   3  11
ATOM     11  O   UNL     1       4.053  -1.633   1.856  0.00  0.00    -0.506 OA
ATOM     12  H   UNL     1       4.663  -0.937   2.003  0.00  0.00    +0.292 HD
ENDBRANCH   3  11
BRANCH   4  14
ATOM     13  O   UNL     1      -0.648  -0.889  -2.321  0.00  0.00    -0.286 OA
ATOM     14  C   UNL     1      -0.639  -0.749  -1.091  0.00  0.00    +0.202 C 
BRANCH  14  15
ATOM     15  C   UNL     1      -1.874  -0.316  -0.357  0.00  0.00    +0.042 C 
ATOM     16  C   UNL     1      -3.012  -0.072  -1.024  0.00  0.00    +0.003 C 
BRANCH  16  17
ATOM     17  C   UNL     1      -4.269   0.370  -0.396  0.00  0.00    +0.000 C 
ATOM     18  C   UNL     1      -4.460   0.164   0.960  0.00  0.00    +0.003 C 
ATOM     19  C   UNL     1      -5.237   0.983  -1.176  0.00  0.00    +0.003 C 
ATOM     20  C   UNL     1      -5.651   0.583   1.554  0.00  0.00    +0.037 C 
ATOM     21  C   UNL     1      -6.428   1.402  -0.582  0.00  0.00    +0.037 C 
ATOM     22  C   UNL     1      -6.635   1.202   0.783  0.00  0.00    +0.134 C 
BRANCH  22  23
ATOM     23  O   UNL     1      -7.796   1.610   1.362  0.00  0.00    -0.506 OA
ATOM     24  H   UNL     1      -7.935   1.475   2.279  0.00  0.00    +0.292 HD
ENDBRANCH  22  23
ENDBRANCH  16  17
ENDBRANCH  14  15
ENDBRANCH   4  14
BRANCH   1  25
ATOM     25  C   UNL     1       3.608   0.982   0.839  0.00  0.00    +0.066 C 
BRANCH  25  26
ATOM     26  C   UNL     1       4.667   1.067  -0.272  0.00  0.00    +0.133 C 
BRANCH  26  27
ATOM     27  C   UNL     1       5.365   2.412  -0.291  0.00  0.00    -0.017 C 
ATOM     28  C   UNL     1       6.075   2.856   0.957  0.00  0.00    +0.029 C 
ATOM     29  C   UNL     1       5.354   3.181  -1.392  0.00  0.00    -0.007 C 
ENDBRANCH  26  27
BRANCH  26  30
ATOM     30  O   UNL     1       5.633   0.035  -0.067  0.00  0.00    -0.380 OA
ATOM     31  H   UNL     1       5.189  -0.827  -0.055  0.00  0.00    +0.211 HD
ENDBRANCH  26  30
ENDBRANCH  25  26
ENDBRANCH   1  25
TORSDOF 11
