REMARK  Name = 10322165
REMARK  12 active torsions:
REMARK  status: ('A' for Active; 'I' for Inactive)
REMARK    1  A    between atoms: C_1  and  N_3
REMARK    2  A    between atoms: C_1  and  C_18
REMARK    3  A    between atoms: C_1  and  C_28
REMARK    4  A    between atoms: C_4  and  C_6
REMARK    5  A    between atoms: C_6  and  C_7
REMARK    6  A    between atoms: C_6  and  C_11
REMARK    7  A    between atoms: C_7  and  C_8
REMARK    8  A    between atoms: C_11  and  C_13
REMARK    9  A    between atoms: C_13  and  O_14
REMARK   10  A    between atoms: N_17  and  C_20
REMARK   11  A    between atoms: C_20  and  C_22
REMARK   12  A    between atoms: C_28  and  C_30
REMARK                            x       y       z     vdW  Elec       q    Type
REMARK                         _______ _______ _______ _____ _____    ______ ____
ROOT
ATOM      1  C   UNL     1       0.595   0.323  -0.549  0.00  0.00    +0.153 C 
ENDROOT
BRANCH   1   3
ATOM      2  O   UNL     1      -0.706  -1.914  -1.839  0.00  0.00    -0.275 OA
ATOM      3  N   UNL     1      -0.564  -0.404  -0.082  0.00  0.00    -0.298 N 
ATOM      4  C   UNL     1      -1.122  -1.470  -0.771  0.00  0.00    +0.223 C 
ATOM      5  H   UNL     1      -0.977  -0.129   0.768  0.00  0.00    +0.150 HD
BRANCH   4   6
ATOM      6  C   UNL     1      -2.362  -2.031  -0.071  0.00  0.00    +0.088 C 
BRANCH   6   7
ATOM      7  C   UNL     1      -2.560  -3.531  -0.372  0.00  0.00    +0.010 C 
BRANCH   7   8
ATOM      8  C   UNL     1      -1.370  -4.432   0.022  0.00  0.00    +0.000 C 
ATOM      9  C   UNL     1      -1.669  -5.881  -0.376  0.00  0.00    +0.000 C 
ATOM     10  C   UNL     1      -1.057  -4.366   1.518  0.00  0.00    +0.000 C 
ENDBRANCH   7   8
ENDBRANCH   6   7
BRANCH   6  11
ATOM     11  C   UNL     1      -3.588  -1.215  -0.529  0.00  0.00    +0.118 C 
BRANCH  11  13
ATOM     12  O   UNL     1      -4.778  -1.968   1.462  0.00  0.00    -0.250 OA
ATOM     13  C   UNL     1      -4.750  -1.300   0.437  0.00  0.00    +0.314 C 
BRANCH  13  14
ATOM     14  O   UNL     1      -5.788  -0.522   0.033  0.00  0.00    -0.480 OA
ATOM     15  H   UNL     1      -5.722  -0.027  -0.760  0.00  0.00    +0.295 HD
ENDBRANCH  13  14
ENDBRANCH  11  13
ENDBRANCH   6  11
ENDBRANCH   4   6
ENDBRANCH   1   3
BRANCH   1  18
ATOM     16  O   UNL     1       1.875  -0.988   1.038  0.00  0.00    -0.273 OA
ATOM     17  N   UNL     1       2.861  -0.397  -0.979  0.00  0.00    -0.301 N 
ATOM     18  C   UNL     1       1.832  -0.415  -0.048  0.00  0.00    +0.241 C 
ATOM     19  H   UNL     1       2.722   0.093  -1.822  0.00  0.00    +0.150 HD
BRANCH  17  20
ATOM     20  C   UNL     1       4.127  -1.063  -0.773  0.00  0.00    +0.094 C 
ATOM     21  C   UNL     1       4.699  -1.553  -2.102  0.00  0.00    +0.026 C 
BRANCH  20  22
ATOM     22  C   UNL     1       5.095  -0.180  -0.016  0.00  0.00    -0.005 C 
ATOM     23  C   UNL     1       5.995  -0.746   0.887  0.00  0.00    -0.003 C 
ATOM     24  C   UNL     1       5.087   1.200  -0.220  0.00  0.00    -0.003 C 
ATOM     25  C   UNL     1       6.888   0.068   1.585  0.00  0.00    -0.000 C 
ATOM     26  C   UNL     1       5.980   2.013   0.478  0.00  0.00    -0.000 C 
ATOM     27  C   UNL     1       6.880   1.447   1.380  0.00  0.00    -0.000 C 
ENDBRANCH  20  22
ENDBRANCH  17  20
ENDBRANCH   1  18
BRANCH   1  28
ATOM     28  C   UNL     1       0.600   1.775  -0.055  0.00  0.00    +0.057 C 
BRANCH  28  30
ATOM     29  N   UNL     1      -1.970   3.835  -1.688  0.00  0.00    -0.312 N 
ATOM     30  C   UNL     1      -0.610   2.550  -0.493  0.00  0.00    -0.004 C 
ATOM     31  C   UNL     1      -1.842   2.667   0.209  0.00  0.00    +0.011 C 
ATOM     32  C   UNL     1      -2.678   3.478  -0.563  0.00  0.00    +0.048 C 
ATOM     33  C   UNL     1      -0.719   3.279  -1.655  0.00  0.00    +0.058 C 
ATOM     34  C   UNL     1      -2.329   2.159   1.429  0.00  0.00    +0.001 C 
ATOM     35  C   UNL     1      -3.981   3.808  -0.172  0.00  0.00    +0.015 C 
ATOM     36  C   UNL     1      -3.630   2.481   1.833  0.00  0.00    +0.000 C 
ATOM     37  C   UNL     1      -4.441   3.293   1.043  0.00  0.00    +0.001 C 
ATOM     38  H   UNL     1      -2.313   4.408  -2.412  0.00  0.00    +0.152 HD
ENDBRANCH  28  30
ENDBRANCH   1  28
TORSDOF 12
