REMARK  Name = 10322586
REMARK  7 active torsions:
REMARK  status: ('A' for Active; 'I' for Inactive)
REMARK    1  A    between atoms: N_2  and  C_24
REMARK    2  A    between atoms: C_3  and  N_7
REMARK    3  A    between atoms: N_7  and  S_9
REMARK    4  A    between atoms: S_9  and  C_12
REMARK    5  A    between atoms: C_20  and  O_22
REMARK    6  A    between atoms: C_24  and  C_26
REMARK    7  A    between atoms: C_29  and  C_32
REMARK                            x       y       z     vdW  Elec       q    Type
REMARK                         _______ _______ _______ _____ _____    ______ ____
ROOT
ATOM      1  O   UNL     1      -2.620  -2.526   0.070  0.00  0.00    -0.273 OA
ATOM      2  N   UNL     1      -2.147  -0.819  -1.477  0.00  0.00    -0.274 N 
ATOM      3  C   UNL     1      -0.426  -1.489  -0.057  0.00  0.00    +0.157 C 
ATOM      4  C   UNL     1       0.160  -0.752  -1.256  0.00  0.00    +0.049 C 
ATOM      5  C   UNL     1      -1.021   0.021  -1.810  0.00  0.00    +0.096 C 
ATOM      6  C   UNL     1      -1.864  -1.720  -0.451  0.00  0.00    +0.242 C 
ENDROOT
BRANCH   3   7
ATOM      7  N   UNL     1       0.238  -2.782   0.144  0.00  0.00    -0.147 NA
ATOM      8  C   UNL     1       0.404  -3.526  -1.130  0.00  0.00    +0.115 C 
BRANCH   7   9
ATOM      9  S   UNL     1       1.540  -2.845   1.282  0.00  0.00    +0.064 S 
ATOM     10  O   UNL     1       2.135  -4.176   1.241  0.00  0.00    -0.153 OA
ATOM     11  O   UNL     1       1.069  -2.334   2.564  0.00  0.00    -0.153 OA
BRANCH   9  12
ATOM     12  C   UNL     1       2.698  -1.709   0.634  0.00  0.00    +0.122 C 
ATOM     13  C   UNL     1       2.646  -0.368   1.014  0.00  0.00    +0.020 C 
ATOM     14  C   UNL     1       3.672  -2.143  -0.260  0.00  0.00    +0.020 C 
ATOM     15  C   UNL     1       3.570   0.558   0.503  0.00  0.00    +0.004 C 
ATOM     16  C   UNL     1       4.561   0.117  -0.407  0.00  0.00    +0.000 C 
ATOM     17  C   UNL     1       4.598  -1.237  -0.778  0.00  0.00    +0.001 C 
ATOM     18  C   UNL     1       3.532   1.912   0.874  0.00  0.00    +0.037 C 
ATOM     19  C   UNL     1       5.484   1.043  -0.918  0.00  0.00    +0.003 C 
ATOM     20  C   UNL     1       4.458   2.818   0.356  0.00  0.00    +0.139 C 
ATOM     21  C   UNL     1       5.433   2.384  -0.538  0.00  0.00    +0.037 C 
BRANCH  20  22
ATOM     22  O   UNL     1       4.408   4.127   0.726  0.00  0.00    -0.471 OA
ATOM     23  C   UNL     1       5.385   4.999   0.158  0.00  0.00    +0.252 C 
ENDBRANCH  20  22
ENDBRANCH   9  12
ENDBRANCH   7   9
ENDBRANCH   3   7
BRANCH   2  24
ATOM     24  C   UNL     1      -3.445  -0.621  -2.084  0.00  0.00    +0.121 C 
BRANCH  24  26
ATOM     25  S   UNL     1      -5.095   2.716  -0.608  0.00  0.00    -0.084 S 
ATOM     26  C   UNL     1      -4.188   0.438  -1.344  0.00  0.00    +0.005 C 
ATOM     27  C   UNL     1      -5.039   0.175  -0.239  0.00  0.00    +0.007 C 
ATOM     28  C   UNL     1      -4.123   1.773  -1.656  0.00  0.00    +0.033 C 
ATOM     29  C   UNL     1      -5.600   1.330   0.260  0.00  0.00    +0.060 C 
BRANCH  29  32
ATOM     30  N   UNL     1      -6.997   0.443   2.157  0.00  0.00    -0.343 N 
ATOM     31  N   UNL     1      -6.924   2.706   1.672  0.00  0.00    -0.285 NA
ATOM     32  C   UNL     1      -6.501   1.486   1.356  0.00  0.00    +0.123 C 
ATOM     33  H   UNL     1      -7.617   0.641   2.896  0.00  0.00    +0.144 HD
ATOM     34  H   UNL     1      -6.725  -0.486   1.979  0.00  0.00    +0.144 HD
ATOM     35  H   UNL     1      -7.546   2.832   2.425  0.00  0.00    +0.188 HD
ENDBRANCH  29  32
ENDBRANCH  24  26
ENDBRANCH   2  24
TORSDOF 7
