10322450
  -OEChem-03292013303D

 69 72  0     1  0  0  0  0  0999 V2000
   -1.6676    2.1346   -1.4340 O   0  0  0  0  0  0  0  0  0  0  0  0
   -1.1557    0.2664    3.4906 O   0  0  0  0  0  0  0  0  0  0  0  0
    6.9680   -2.5885   -0.5488 O   0  0  0  0  0  0  0  0  0  0  0  0
   -5.7206   -0.5576   -0.9224 O   0  0  0  0  0  0  0  0  0  0  0  0
   -5.4002   -1.3563    1.2182 O   0  0  0  0  0  0  0  0  0  0  0  0
   -0.3085    1.0936    0.1573 N   0  0  0  0  0  0  0  0  0  0  0  0
    3.1328    0.4070   -1.0444 N   0  0  0  0  0  0  0  0  0  0  0  0
   -2.4638    0.9828    1.7439 N   0  0  0  0  0  0  0  0  0  0  0  0
    0.9389    1.5676   -0.5065 C   0  0  2  0  0  0  0  0  0  0  0  0
   -0.2810    0.0571    1.2319 C   0  0  1  0  0  0  0  0  0  0  0  0
    2.0474    0.6138   -0.2425 C   0  0  0  0  0  0  0  0  0  0  0  0
    1.0961   -0.1943    1.8847 C   0  0  0  0  0  0  0  0  0  0  0  0
    2.1506   -0.2134    0.8489 C   0  0  0  0  0  0  0  0  0  0  0  0
    1.2934    2.9703   -0.0118 C   0  0  0  0  0  0  0  0  0  0  0  0
   -2.7457    0.8834    0.3242 C   0  0  2  0  0  0  0  0  0  0  0  0
   -1.5444    1.4769   -0.4011 C   0  0  0  0  0  0  0  0  0  0  0  0
   -1.2994    0.4719    2.2878 C   0  0  0  0  0  0  0  0  0  0  0  0
    2.5889    3.5224   -0.6246 C   0  0  0  0  0  0  0  0  0  0  0  0
    3.3526   -0.9568    0.7206 C   0  0  0  0  0  0  0  0  0  0  0  0
    3.9508   -0.5486   -0.4776 C   0  0  0  0  0  0  0  0  0  0  0  0
   -4.0398    1.5997   -0.0300 C   0  0  0  0  0  0  0  0  0  0  0  0
    3.7945    2.6208   -0.3554 C   0  0  0  0  0  0  0  0  0  0  0  0
    2.4061    3.7046   -2.1333 C   0  0  0  0  0  0  0  0  0  0  0  0
    3.9977   -1.9375    1.5000 C   0  0  0  0  0  0  0  0  0  0  0  0
    5.1646   -1.0774   -0.9314 C   0  0  0  0  0  0  0  0  0  0  0  0
   -5.2265    1.0213    0.7362 C   0  0  0  0  0  0  0  0  0  0  0  0
    5.2120   -2.4736    1.0565 C   0  0  0  0  0  0  0  0  0  0  0  0
    5.7845   -2.0490   -0.1406 C   0  0  0  0  0  0  0  0  0  0  0  0
   -5.4516   -0.4379    0.4117 C   0  0  0  0  0  0  0  0  0  0  0  0
   -5.9592   -1.8905   -1.3856 C   0  0  0  0  0  0  0  0  0  0  0  0
    7.5043   -2.1142   -1.7818 C   0  0  0  0  0  0  0  0  0  0  0  0
   -7.1645   -2.4572   -0.6366 C   0  0  0  0  0  0  0  0  0  0  0  0
   -4.7094   -2.7287   -1.1203 C   0  0  0  0  0  0  0  0  0  0  0  0
   -6.2455   -1.8127   -2.8837 C   0  0  0  0  0  0  0  0  0  0  0  0
    0.7329    1.5919   -1.5826 H   0  0  0  0  0  0  0  0  0  0  0  0
   -0.6319   -0.8754    0.7693 H   0  0  0  0  0  0  0  0  0  0  0  0
    1.3308    0.6023    2.6030 H   0  0  0  0  0  0  0  0  0  0  0  0
    1.0746   -1.1348    2.4473 H   0  0  0  0  0  0  0  0  0  0  0  0
    0.4661    3.6601   -0.2229 H   0  0  0  0  0  0  0  0  0  0  0  0
    1.4008    2.9628    1.0821 H   0  0  0  0  0  0  0  0  0  0  0  0
   -2.7977   -0.1788    0.0576 H   0  0  0  0  0  0  0  0  0  0  0  0
    2.7695    4.5100   -0.1806 H   0  0  0  0  0  0  0  0  0  0  0  0
    3.2471    0.7713   -1.9806 H   0  0  0  0  0  0  0  0  0  0  0  0
   -3.1956    1.2500    2.3936 H   0  0  0  0  0  0  0  0  0  0  0  0
   -4.2183    1.5356   -1.1104 H   0  0  0  0  0  0  0  0  0  0  0  0
   -3.9578    2.6683    0.2074 H   0  0  0  0  0  0  0  0  0  0  0  0
    4.3124    2.2326   -1.2358 H   0  0  0  0  0  0  0  0  0  0  0  0
    3.7855    2.0580    0.5803 H   0  0  0  0  0  0  0  0  0  0  0  0
    4.5763    3.3514   -0.0697 H   0  0  0  0  0  0  0  0  0  0  0  0
    2.3007    2.7587   -2.6714 H   0  0  0  0  0  0  0  0  0  0  0  0
    3.2747    4.2219   -2.5562 H   0  0  0  0  0  0  0  0  0  0  0  0
    1.5244    4.3179   -2.3484 H   0  0  0  0  0  0  0  0  0  0  0  0
    3.5641   -2.2787    2.4356 H   0  0  0  0  0  0  0  0  0  0  0  0
    5.5595   -0.7068   -1.8690 H   0  0  0  0  0  0  0  0  0  0  0  0
   -6.1415    1.5643    0.4693 H   0  0  0  0  0  0  0  0  0  0  0  0
   -5.1251    1.1275    1.8201 H   0  0  0  0  0  0  0  0  0  0  0  0
    5.7084   -3.2304    1.6590 H   0  0  0  0  0  0  0  0  0  0  0  0
    7.7496   -1.0478   -1.7316 H   0  0  0  0  0  0  0  0  0  0  0  0
    6.8471   -2.3510   -2.6255 H   0  0  0  0  0  0  0  0  0  0  0  0
    8.4447   -2.6489   -1.9517 H   0  0  0  0  0  0  0  0  0  0  0  0
   -7.9772   -1.7232   -0.5879 H   0  0  0  0  0  0  0  0  0  0  0  0
   -7.5477   -3.3483   -1.1480 H   0  0  0  0  0  0  0  0  0  0  0  0
   -6.9544   -2.7744    0.3879 H   0  0  0  0  0  0  0  0  0  0  0  0
   -3.8056   -2.1925   -1.4323 H   0  0  0  0  0  0  0  0  0  0  0  0
   -4.7527   -3.6688   -1.6832 H   0  0  0  0  0  0  0  0  0  0  0  0
   -4.5668   -3.0157   -0.0756 H   0  0  0  0  0  0  0  0  0  0  0  0
   -6.4379   -2.8008   -3.3143 H   0  0  0  0  0  0  0  0  0  0  0  0
   -7.1140   -1.1736   -3.0802 H   0  0  0  0  0  0  0  0  0  0  0  0
   -5.4015   -1.3604   -3.4171 H   0  0  0  0  0  0  0  0  0  0  0  0
  1 16  2  0  0  0  0
  2 17  2  0  0  0  0
  3 28  1  0  0  0  0
  3 31  1  0  0  0  0
  4 29  1  0  0  0  0
  4 30  1  0  0  0  0
  5 29  2  0  0  0  0
  6  9  1  0  0  0  0
  6 10  1  0  0  0  0
  6 16  1  0  0  0  0
  7 11  1  0  0  0  0
  7 20  1  0  0  0  0
  7 43  1  0  0  0  0
  8 15  1  0  0  0  0
  8 17  1  0  0  0  0
  8 44  1  0  0  0  0
  9 11  1  0  0  0  0
  9 14  1  0  0  0  0
  9 35  1  0  0  0  0
 10 12  1  0  0  0  0
 10 17  1  0  0  0  0
 10 36  1  0  0  0  0
 11 13  2  0  0  0  0
 12 13  1  0  0  0  0
 12 37  1  0  0  0  0
 12 38  1  0  0  0  0
 13 19  1  0  0  0  0
 14 18  1  0  0  0  0
 14 39  1  0  0  0  0
 14 40  1  0  0  0  0
 15 16  1  0  0  0  0
 15 21  1  0  0  0  0
 15 41  1  0  0  0  0
 18 22  1  0  0  0  0
 18 23  1  0  0  0  0
 18 42  1  0  0  0  0
 19 20  2  0  0  0  0
 19 24  1  0  0  0  0
 20 25  1  0  0  0  0
 21 26  1  0  0  0  0
 21 45  1  0  0  0  0
 21 46  1  0  0  0  0
 22 47  1  0  0  0  0
 22 48  1  0  0  0  0
 22 49  1  0  0  0  0
 23 50  1  0  0  0  0
 23 51  1  0  0  0  0
 23 52  1  0  0  0  0
 24 27  2  0  0  0  0
 24 53  1  0  0  0  0
 25 28  2  0  0  0  0
 25 54  1  0  0  0  0
 26 29  1  0  0  0  0
 26 55  1  0  0  0  0
 26 56  1  0  0  0  0
 27 28  1  0  0  0  0
 27 57  1  0  0  0  0
 30 32  1  0  0  0  0
 30 33  1  0  0  0  0
 30 34  1  0  0  0  0
 31 58  1  0  0  0  0
 31 59  1  0  0  0  0
 31 60  1  0  0  0  0
 32 61  1  0  0  0  0
 32 62  1  0  0  0  0
 32 63  1  0  0  0  0
 33 64  1  0  0  0  0
 33 65  1  0  0  0  0
 33 66  1  0  0  0  0
 34 67  1  0  0  0  0
 34 68  1  0  0  0  0
 34 69  1  0  0  0  0
M  END
> <PUBCHEM_COMPOUND_CID>
10322450

> <PUBCHEM_CONFORMER_RMSD>
1

> <PUBCHEM_CONFORMER_DIVERSEORDER>
3
11
25
8
29
22
23
27
17
21
28
30
9
18
26
14
2
20
12
16
6
31
19
5
15
4
13
7
24
1
10

> <PUBCHEM_MMFF94_PARTIAL_CHARGES>
30
1 -0.57
10 0.36
11 -0.33
12 0.18
13 -0.18
15 0.36
16 0.57
17 0.57
2 -0.57
20 -0.15
24 -0.15
25 -0.15
26 0.06
27 -0.15
28 0.08
29 0.66
3 -0.36
30 0.28
31 0.28
4 -0.43
43 0.27
44 0.37
5 -0.57
53 0.15
54 0.15
57 0.15
6 -0.66
7 0.03
8 -0.73
9 0.48

> <PUBCHEM_EFFECTIVE_ROTOR_COUNT>
8.8

> <PUBCHEM_PHARMACOPHORE_FEATURES>
13
1 1 acceptor
1 2 acceptor
1 3 acceptor
1 5 acceptor
1 7 cation
1 7 donor
1 8 donor
3 18 22 23 hydrophobe
4 30 32 33 34 hydrophobe
5 7 11 13 19 20 rings
6 19 20 24 25 27 28 rings
6 6 8 10 15 16 17 rings
6 6 9 10 11 12 13 rings

> <PUBCHEM_HEAVY_ATOM_COUNT>
34

> <PUBCHEM_ATOM_DEF_STEREO_COUNT>
3

> <PUBCHEM_ATOM_UDEF_STEREO_COUNT>
0

> <PUBCHEM_BOND_DEF_STEREO_COUNT>
0

> <PUBCHEM_BOND_UDEF_STEREO_COUNT>
0

> <PUBCHEM_ISOTOPIC_ATOM_COUNT>
0

> <PUBCHEM_COMPONENT_COUNT>
1

> <PUBCHEM_CACTVS_TAUTO_COUNT>
2

> <PUBCHEM_CONFORMER_ID>
009D821200000003

> <PUBCHEM_MMFF94_ENERGY>
135.867

> <PUBCHEM_FEATURE_SELFOVERLAP>
66.183

> <PUBCHEM_SHAPE_FINGERPRINT>
11135609 149 17970321815882041068
11135609 99 17632291277233654366
11227688 84 18118686505020965978
117089 54 18121218951336828739
11763715 3 17988658371425614752
12166972 35 18272089392153607888
12788726 201 17607527921934507864
13009979 54 18060138721684632784
13540713 4 17242477119937779672
1361 4 18196370545029459519
13690498 29 18041842800937989165
13782708 43 18059846255680824747
14068700 675 18342457015423876848
14251751 18 18060413625630211027
14931854 50 17168433641013398746
15082195 135 17460609253188821084
15183329 4 17822011982267095139
15320294 125 17918555722405417879
15361156 5 17895769395564547461
15444296 8 18336259025291866221
19841028 212 18265890440851196463
20028762 73 18272086084887170718
20775438 99 18046331200565536755
21774942 28 12468635011278098982
22182313 1 17169567404731190777
22393880 68 17022890286327981627
23522609 53 18121251759726586348
23559900 14 17168726209679755092
23569914 152 17393562971954129599
24771293 8 18408036317533314712
249057 3 18337953377601340449
25025965 108 17901941951518762394
2838139 119 12396298162439564671
392239 28 15267048242522775551
397830 11 17345735469727502866
4015057 19 18040727990631579121
439807 62 18271805774711272991
57527295 17 17822849758835350264
6009941 240 17130989763944509345
70251023 43 18333726931432612221
999808 66 16773796952962155894

> <PUBCHEM_SHAPE_MULTIPOLES>
655.41
17.96
3.87
2.25
8.58
1.66
-0.55
-19.9
8.68
-3.14
2.06
1.27
-0.29
-2.62

> <PUBCHEM_SHAPE_SELFOVERLAP>
1407.823

> <PUBCHEM_SHAPE_VOLUME>
361.2

> <PUBCHEM_COORDINATE_TYPE>
2
5
10

$$$$
