REMARK  Name = 10323609
REMARK  8 active torsions:
REMARK  status: ('A' for Active; 'I' for Inactive)
REMARK    1  A    between atoms: C_7  and  C_23
REMARK    2  A    between atoms: C_20  and  O_21
REMARK    3  A    between atoms: C_23  and  C_25
REMARK    4  A    between atoms: C_25  and  C_26
REMARK    5  A    between atoms: C_26  and  C_29
REMARK    6  A    between atoms: N_28  and  C_31
REMARK    7  A    between atoms: C_31  and  C_32
REMARK    8  A    between atoms: C_32  and  S_33
REMARK                            x       y       z     vdW  Elec       q    Type
REMARK                         _______ _______ _______ _____ _____    ______ ____
ROOT
ATOM      1  O   UNL     1       2.309   2.011   2.042  0.00  0.00    -0.296 OA
ATOM      2  C   UNL     1       0.829  -1.653   0.178  0.00  0.00    +0.000 C 
ATOM      3  C   UNL     1       1.216  -0.300   0.820  0.00  0.00    +0.007 C 
ATOM      4  C   UNL     1       3.525  -0.391  -0.194  0.00  0.00    +0.007 C 
ATOM      5  C   UNL     1       2.712  -0.204   1.127  0.00  0.00    +0.058 C 
ATOM      6  C   UNL     1       5.082  -0.286   0.048  0.00  0.00    +0.001 C 
ATOM      7  C   UNL     1      -0.700  -1.449   0.062  0.00  0.00    +0.000 C 
ATOM      8  C   UNL     1       1.565  -1.767  -1.162  0.00  0.00    +0.000 C 
ATOM      9  C   UNL     1       3.088  -1.654  -0.982  0.00  0.00    +0.000 C 
ATOM     10  C   UNL     1       0.209  -0.163   1.963  0.00  0.00    +0.000 C 
ATOM     11  C   UNL     1       5.413   1.081   0.743  0.00  0.00    +0.010 C 
ATOM     12  C   UNL     1      -1.081  -0.797   1.411  0.00  0.00    +0.000 C 
ATOM     13  C   UNL     1       3.114   1.134   1.738  0.00  0.00    +0.150 C 
ATOM     14  C   UNL     1       5.895  -0.371  -1.277  0.00  0.00    +0.003 C 
ATOM     15  C   UNL     1       4.590   1.308   2.017  0.00  0.00    +0.065 C 
ATOM     16  C   UNL     1       1.160  -2.888   1.057  0.00  0.00    +0.000 C 
ATOM     17  C   UNL     1       5.248   2.288  -0.205  0.00  0.00    +0.030 C 
ATOM     18  C   UNL     1       5.587  -1.450   0.939  0.00  0.00    +0.000 C 
ATOM     19  C   UNL     1       5.689   0.820  -2.205  0.00  0.00    +0.029 C 
ATOM     20  C   UNL     1       6.035   2.126  -1.501  0.00  0.00    +0.111 C 
ENDROOT
BRANCH  20  21
ATOM     21  O   UNL     1       5.735   3.224  -2.356  0.00  0.00    -0.384 OA
ATOM     22  H   UNL     1       5.956   4.054  -1.905  0.00  0.00    +0.210 HD
ENDBRANCH  20  21
BRANCH   7  23
ATOM     23  C   UNL     1      -1.532  -2.684  -0.254  0.00  0.00    +0.000 C 
ATOM     24  C   UNL     1      -1.424  -3.020  -1.746  0.00  0.00    +0.000 C 
BRANCH  23  25
ATOM     25  C   UNL     1      -3.017  -2.516   0.125  0.00  0.00    +0.010 C 
BRANCH  25  26
ATOM     26  C   UNL     1      -3.719  -1.401  -0.651  0.00  0.00    +0.085 C 
BRANCH  26  29
ATOM     27  O   UNL     1      -5.751  -2.034   0.502  0.00  0.00    -0.275 OA
ATOM     28  N   UNL     1      -5.815  -0.284  -1.026  0.00  0.00    -0.303 N 
ATOM     29  C   UNL     1      -5.197  -1.301  -0.312  0.00  0.00    +0.223 C 
ATOM     30  H   UNL     1      -5.272   0.244  -1.654  0.00  0.00    +0.149 HD
BRANCH  28  31
ATOM     31  C   UNL     1      -7.217   0.035  -0.891  0.00  0.00    +0.115 C 
BRANCH  31  32
ATOM     32  C   UNL     1      -7.467   1.069   0.190  0.00  0.00    +0.179 C 
BRANCH  32  33
ATOM     33  S   UNL     1      -6.596   2.576  -0.108  0.00  0.00    +0.024 S 
ATOM     34  O   UNL     1      -7.261   3.448   1.100  0.00  0.00    -0.069 OA
ATOM     35  O   UNL     1      -7.033   3.128  -1.377  0.00  0.00    -0.069 OA
ATOM     36  O   UNL     1      -5.190   2.369   0.186  0.00  0.00    -0.069 OA
ENDBRANCH  32  33
ENDBRANCH  31  32
ENDBRANCH  28  31
ENDBRANCH  26  29
ENDBRANCH  25  26
ENDBRANCH  23  25
ENDBRANCH   7  23
TORSDOF 8
