REMARK  Name = 10322450
REMARK  8 active torsions:
REMARK  status: ('A' for Active; 'I' for Inactive)
REMARK    1  A    between atoms: C_6  and  C_24
REMARK    2  A    between atoms: C_11  and  C_28
REMARK    3  A    between atoms: C_19  and  O_22
REMARK    4  A    between atoms: C_24  and  C_25
REMARK    5  A    between atoms: C_28  and  C_29
REMARK    6  A    between atoms: C_29  and  C_31
REMARK    7  A    between atoms: C_31  and  O_32
REMARK    8  A    between atoms: O_32  and  C_33
REMARK                            x       y       z     vdW  Elec       q    Type
REMARK                         _______ _______ _______ _____ _____    ______ ____
ROOT
ATOM      1  O   UNK A   2      -1.668   2.135  -1.434  0.00  0.00    -0.273 OA
ATOM      2  O   UNK A   1      -1.156   0.266   3.491  0.00  0.00    -0.273 OA
ATOM      3  N   UNK A   1      -0.308   1.094   0.157  0.00  0.00    -0.268 N 
ATOM      4  N   UNK A   1       3.133   0.407  -1.044  0.00  0.00    -0.355 N 
ATOM      5  N   UNK A   2      -2.464   0.983   1.744  0.00  0.00    -0.297 N 
ATOM      6  C   UNK A   1       0.939   1.568  -0.506  0.00  0.00    +0.113 C 
ATOM      7  C   UNK A   1      -0.281   0.057   1.232  0.00  0.00    +0.156 C 
ATOM      8  C   UNK A   1       2.047   0.614  -0.242  0.00  0.00    +0.048 A 
ATOM      9  C   UNK A   1       1.096  -0.194   1.885  0.00  0.00    +0.057 C 
ATOM     10  C   UNK A   1       2.151  -0.213   0.849  0.00  0.00    -0.006 A 
ATOM     11  C   UNK A   2      -2.746   0.883   0.324  0.00  0.00    +0.149 C 
ATOM     12  C   UNK A   2      -1.544   1.477  -0.401  0.00  0.00    +0.244 C 
ATOM     13  C   UNK A   1      -1.299   0.472   2.288  0.00  0.00    +0.241 C 
ATOM     14  C   UNK A   1       3.353  -0.957   0.721  0.00  0.00    +0.013 A 
ATOM     15  C   UNK A   1       3.951  -0.549  -0.478  0.00  0.00    +0.059 A 
ATOM     16  C   UNK A   1       3.998  -1.938   1.500  0.00  0.00    +0.004 C 
ATOM     17  C   UNK A   1       5.165  -1.077  -0.931  0.00  0.00    +0.054 C 
ATOM     18  C   UNK A   1       5.212  -2.474   1.056  0.00  0.00    +0.037 C 
ATOM     19  C   UNK A   1       5.785  -2.049  -0.141  0.00  0.00    +0.140 C 
ATOM     20  H   UNK A   1       3.305   0.869  -1.896  0.00  0.00    +0.166 HD
ATOM     21  H   UNK A   2      -3.117   1.424   2.334  0.00  0.00    +0.150 HD
ENDROOT
BRANCH  19  22
ATOM     22  O   UNK A   1       6.968  -2.588  -0.549  0.00  0.00    -0.471 OA
ATOM     23  C   UNK A   1       7.504  -2.114  -1.782  0.00  0.00    +0.252 C 
ENDBRANCH  19  22
BRANCH   6  24
ATOM     24  C   UNK A   1       1.293   2.970  -0.012  0.00  0.00    +0.026 C 
BRANCH  24  25
ATOM     25  C   UNK A   1       2.589   3.522  -0.625  0.00  0.00    +0.002 C 
ATOM     26  C   UNK A   1       3.795   2.621  -0.355  0.00  0.00    +0.000 C 
ATOM     27  C   UNK A   1       2.406   3.705  -2.133  0.00  0.00    +0.000 C 
ENDBRANCH  24  25
ENDBRANCH   6  24
BRANCH  11  28
ATOM     28  C   UNK A   2      -4.040   1.600  -0.030  0.00  0.00    +0.041 C 
BRANCH  28  29
ATOM     29  C   UNK A   2      -5.226   1.021   0.736  0.00  0.00    +0.112 C 
BRANCH  29  31
ATOM     30  O   UNK A   2      -5.400  -1.356   1.218  0.00  0.00    -0.250 OA
ATOM     31  C   UNK A   2      -5.452  -0.438   0.412  0.00  0.00    +0.317 C 
BRANCH  31  32
ATOM     32  O   UNK A   2      -5.721  -0.558  -0.922  0.00  0.00    -0.456 OA
BRANCH  32  33
ATOM     33  C   UNK A   2      -5.959  -1.891  -1.386  0.00  0.00    +0.136 C 
ATOM     34  C   UNK A   2      -7.165  -2.457  -0.637  0.00  0.00    +0.044 C 
ATOM     35  C   UNK A   2      -4.709  -2.729  -1.120  0.00  0.00    +0.044 C 
ATOM     36  C   UNK A   2      -6.245  -1.813  -2.884  0.00  0.00    +0.044 C 
ENDBRANCH  32  33
ENDBRANCH  31  32
ENDBRANCH  29  31
ENDBRANCH  28  29
ENDBRANCH  11  28
TORSDOF 8
