REMARK  Name = 10321333
REMARK  7 active torsions:
REMARK  status: ('A' for Active; 'I' for Inactive)
REMARK    1  A    between atoms: C_6  and  O_23
REMARK    2  A    between atoms: C_7  and  O_27
REMARK    3  A    between atoms: C_11  and  C_31
REMARK    4  A    between atoms: C_19  and  O_25
REMARK    5  A    between atoms: O_27  and  C_29
REMARK    6  A    between atoms: C_31  and  C_33
REMARK    7  A    between atoms: C_33  and  O_34
REMARK                            x       y       z     vdW  Elec       q    Type
REMARK                         _______ _______ _______ _____ _____    ______ ____
ROOT
ATOM      1  O   UNL     1       0.755  -0.814  -1.294  0.00  0.00    -0.331 OA
ATOM      2  O   UNL     1       1.397   0.848   0.282  0.00  0.00    -0.331 OA
ATOM      3  O   UNL     1      -1.786  -1.865  -0.855  0.00  0.00    -0.287 OA
ATOM      4  O   UNL     1      -3.031   3.090   0.557  0.00  0.00    -0.287 OA
ATOM      5  C   UNL     1       0.501  -0.258   0.007  0.00  0.00    +0.239 C 
ATOM      6  C   UNL     1       0.834  -1.297   1.124  0.00  0.00    +0.207 C 
ATOM      7  C   UNL     1       2.237  -1.899   0.950  0.00  0.00    +0.203 C 
ATOM      8  C   UNL     1      -0.971   0.194   0.034  0.00  0.00    +0.069 C 
ATOM      9  C   UNL     1       2.440  -2.380  -0.487  0.00  0.00    +0.076 C 
ATOM     10  C   UNL     1       2.093  -1.279  -1.492  0.00  0.00    +0.122 C 
ATOM     11  C   UNL     1       1.008   2.090  -0.289  0.00  0.00    +0.134 C 
ATOM     12  C   UNL     1      -1.317   1.470   0.280  0.00  0.00    +0.023 C 
ATOM     13  C   UNL     1      -0.269   2.539   0.414  0.00  0.00    +0.060 C 
ATOM     14  C   UNL     1      -2.042  -0.786  -0.331  0.00  0.00    +0.199 C 
ATOM     15  C   UNL     1       2.188  -1.800  -2.920  0.00  0.00    +0.032 C 
ATOM     16  C   UNL     1      -2.734   1.915   0.372  0.00  0.00    +0.192 C 
ATOM     17  C   UNL     1      -3.445  -0.418  -0.078  0.00  0.00    +0.075 C 
ATOM     18  C   UNL     1      -3.782   0.889   0.259  0.00  0.00    +0.045 C 
ATOM     19  C   UNL     1      -4.449  -1.388  -0.199  0.00  0.00    +0.137 C 
ATOM     20  C   UNL     1      -5.121   1.234   0.478  0.00  0.00    +0.003 C 
ATOM     21  C   UNL     1      -5.783  -1.044   0.023  0.00  0.00    +0.037 C 
ATOM     22  C   UNL     1      -6.118   0.266   0.361  0.00  0.00    +0.003 C 
ENDROOT
BRANCH   6  23
ATOM     23  O   UNL     1      -0.091  -2.380   1.128  0.00  0.00    -0.377 OA
ATOM     24  H   UNL     1      -0.992  -2.036   1.236  0.00  0.00    +0.211 HD
ENDBRANCH   6  23
BRANCH  19  25
ATOM     25  O   UNL     1      -4.185  -2.688  -0.513  0.00  0.00    -0.505 OA
ATOM     26  H   UNL     1      -3.303  -2.963  -0.670  0.00  0.00    +0.292 HD
ENDBRANCH  19  25
BRANCH   7  27
ATOM     27  O   UNL     1       3.226  -0.929   1.283  0.00  0.00    -0.449 OA
BRANCH  27  29
ATOM     28  O   UNL     1       4.932  -2.486   1.330  0.00  0.00    -0.250 OA
ATOM     29  C   UNL     1       4.523  -1.343   1.173  0.00  0.00    +0.318 C 
ATOM     30  C   UNL     1       5.400  -0.178   0.826  0.00  0.00    +0.121 C 
ENDBRANCH  27  29
ENDBRANCH   7  27
BRANCH  11  31
ATOM     31  C   UNL     1       2.139   3.084  -0.069  0.00  0.00    +0.139 C 
BRANCH  31  33
ATOM     32  O   UNL     1       3.539   1.920  -1.689  0.00  0.00    -0.250 OA
ATOM     33  C   UNL     1       3.428   2.615  -0.690  0.00  0.00    +0.316 C 
BRANCH  33  34
ATOM     34  O   UNL     1       4.484   3.080   0.026  0.00  0.00    -0.480 OA
ATOM     35  H   UNL     1       4.338   3.610   0.785  0.00  0.00    +0.295 HD
ENDBRANCH  33  34
ENDBRANCH  31  33
ENDBRANCH  11  31
TORSDOF 7
