10322165
  -OEChem-03292013303D

 67 69  0     1  0  0  0  0  0999 V2000
   -0.7058   -1.9137   -1.8392 O   0  0  0  0  0  0  0  0  0  0  0  0
    1.8747   -0.9879    1.0385 O   0  0  0  0  0  0  0  0  0  0  0  0
   -5.7882   -0.5217    0.0326 O   0  0  0  0  0  0  0  0  0  0  0  0
   -4.7782   -1.9675    1.4616 O   0  0  0  0  0  0  0  0  0  0  0  0
   -0.5636   -0.4039   -0.0816 N   0  0  0  0  0  0  0  0  0  0  0  0
    2.8610   -0.3974   -0.9794 N   0  0  0  0  0  0  0  0  0  0  0  0
   -1.9696    3.8352   -1.6880 N   0  0  0  0  0  0  0  0  0  0  0  0
   -2.3624   -2.0307   -0.0709 C   0  0  1  0  0  0  0  0  0  0  0  0
   -2.5601   -3.5309   -0.3720 C   0  0  0  0  0  0  0  0  0  0  0  0
   -1.3699   -4.4324    0.0219 C   0  0  0  0  0  0  0  0  0  0  0  0
    0.5948    0.3228   -0.5490 C   0  0  1  0  0  0  0  0  0  0  0  0
    0.5995    1.7749   -0.0547 C   0  0  0  0  0  0  0  0  0  0  0  0
   -1.1221   -1.4703   -0.7712 C   0  0  0  0  0  0  0  0  0  0  0  0
   -3.5878   -1.2152   -0.5295 C   0  0  0  0  0  0  0  0  0  0  0  0
   -0.6099    2.5504   -0.4931 C   0  0  0  0  0  0  0  0  0  0  0  0
   -1.6686   -5.8810   -0.3755 C   0  0  0  0  0  0  0  0  0  0  0  0
   -1.0567   -4.3657    1.5177 C   0  0  0  0  0  0  0  0  0  0  0  0
    1.8318   -0.4155   -0.0484 C   0  0  0  0  0  0  0  0  0  0  0  0
   -1.8424    2.6673    0.2086 C   0  0  0  0  0  0  0  0  0  0  0  0
   -2.6778    3.4783   -0.5626 C   0  0  0  0  0  0  0  0  0  0  0  0
   -0.7190    3.2792   -1.6551 C   0  0  0  0  0  0  0  0  0  0  0  0
    4.1270   -1.0632   -0.7731 C   0  0  2  0  0  0  0  0  0  0  0  0
   -4.7500   -1.3001    0.4373 C   0  0  0  0  0  0  0  0  0  0  0  0
   -2.3289    2.1593    1.4295 C   0  0  0  0  0  0  0  0  0  0  0  0
    5.0949   -0.1802   -0.0156 C   0  0  0  0  0  0  0  0  0  0  0  0
   -3.9805    3.8080   -0.1722 C   0  0  0  0  0  0  0  0  0  0  0  0
    4.6995   -1.5526   -2.1018 C   0  0  0  0  0  0  0  0  0  0  0  0
   -3.6300    2.4808    1.8327 C   0  0  0  0  0  0  0  0  0  0  0  0
   -4.4414    3.2927    1.0427 C   0  0  0  0  0  0  0  0  0  0  0  0
    5.9953   -0.7462    0.8871 C   0  0  0  0  0  0  0  0  0  0  0  0
    5.0872    1.1997   -0.2204 C   0  0  0  0  0  0  0  0  0  0  0  0
    6.8876    0.0675    1.5852 C   0  0  0  0  0  0  0  0  0  0  0  0
    5.9797    2.0132    0.4776 C   0  0  0  0  0  0  0  0  0  0  0  0
    6.8799    1.4470    1.3804 C   0  0  0  0  0  0  0  0  0  0  0  0
   -2.2335   -1.9026    1.0108 H   0  0  0  0  0  0  0  0  0  0  0  0
   -2.7474   -3.6590   -1.4468 H   0  0  0  0  0  0  0  0  0  0  0  0
   -3.4621   -3.8888    0.1401 H   0  0  0  0  0  0  0  0  0  0  0  0
   -0.4732   -4.1237   -0.5271 H   0  0  0  0  0  0  0  0  0  0  0  0
    0.5775    0.3041   -1.6462 H   0  0  0  0  0  0  0  0  0  0  0  0
    1.5040    2.2816   -0.4167 H   0  0  0  0  0  0  0  0  0  0  0  0
    0.6660    1.7991    1.0412 H   0  0  0  0  0  0  0  0  0  0  0  0
   -3.9288   -1.5567   -1.5137 H   0  0  0  0  0  0  0  0  0  0  0  0
   -3.3231   -0.1548   -0.6158 H   0  0  0  0  0  0  0  0  0  0  0  0
   -0.9207   -0.1813    0.8420 H   0  0  0  0  0  0  0  0  0  0  0  0
   -2.5477   -6.2657    0.1528 H   0  0  0  0  0  0  0  0  0  0  0  0
   -1.8581   -5.9579   -1.4514 H   0  0  0  0  0  0  0  0  0  0  0  0
   -0.8202   -6.5324   -0.1402 H   0  0  0  0  0  0  0  0  0  0  0  0
   -1.9415   -4.5987    2.1195 H   0  0  0  0  0  0  0  0  0  0  0  0
   -0.6980   -3.3728    1.8057 H   0  0  0  0  0  0  0  0  0  0  0  0
   -0.2703   -5.0810    1.7823 H   0  0  0  0  0  0  0  0  0  0  0  0
   -0.0205    3.4521   -2.4618 H   0  0  0  0  0  0  0  0  0  0  0  0
    3.9181   -1.9457   -0.1539 H   0  0  0  0  0  0  0  0  0  0  0  0
    2.7479    0.1532   -1.8261 H   0  0  0  0  0  0  0  0  0  0  0  0
   -2.3229    4.4224   -2.4308 H   0  0  0  0  0  0  0  0  0  0  0  0
   -1.7100    1.5334    2.0655 H   0  0  0  0  0  0  0  0  0  0  0  0
   -4.6130    4.4397   -0.7868 H   0  0  0  0  0  0  0  0  0  0  0  0
    3.9896   -2.2142   -2.6103 H   0  0  0  0  0  0  0  0  0  0  0  0
    5.6328   -2.1059   -1.9507 H   0  0  0  0  0  0  0  0  0  0  0  0
    4.9129   -0.7159   -2.7772 H   0  0  0  0  0  0  0  0  0  0  0  0
   -4.0102    2.0927    2.7740 H   0  0  0  0  0  0  0  0  0  0  0  0
   -5.4489    3.5294    1.3750 H   0  0  0  0  0  0  0  0  0  0  0  0
    6.0128   -1.8198    1.0542 H   0  0  0  0  0  0  0  0  0  0  0  0
    4.4083    1.6677   -0.9277 H   0  0  0  0  0  0  0  0  0  0  0  0
   -6.5435   -0.5668    0.6569 H   0  0  0  0  0  0  0  0  0  0  0  0
    7.5890   -0.3733    2.2876 H   0  0  0  0  0  0  0  0  0  0  0  0
    5.9763    3.0872    0.3160 H   0  0  0  0  0  0  0  0  0  0  0  0
    7.5754    2.0804    1.9231 H   0  0  0  0  0  0  0  0  0  0  0  0
  1 13  2  0  0  0  0
  2 18  2  0  0  0  0
  3 23  1  0  0  0  0
  3 64  1  0  0  0  0
  4 23  2  0  0  0  0
  5 11  1  0  0  0  0
  5 13  1  0  0  0  0
  5 44  1  0  0  0  0
  6 18  1  0  0  0  0
  6 22  1  0  0  0  0
  6 53  1  0  0  0  0
  7 20  1  0  0  0  0
  7 21  1  0  0  0  0
  7 54  1  0  0  0  0
  8  9  1  0  0  0  0
  8 13  1  0  0  0  0
  8 14  1  0  0  0  0
  8 35  1  0  0  0  0
  9 10  1  0  0  0  0
  9 36  1  0  0  0  0
  9 37  1  0  0  0  0
 10 16  1  0  0  0  0
 10 17  1  0  0  0  0
 10 38  1  0  0  0  0
 11 12  1  0  0  0  0
 11 18  1  0  0  0  0
 11 39  1  0  0  0  0
 12 15  1  0  0  0  0
 12 40  1  0  0  0  0
 12 41  1  0  0  0  0
 14 23  1  0  0  0  0
 14 42  1  0  0  0  0
 14 43  1  0  0  0  0
 15 19  1  0  0  0  0
 15 21  2  0  0  0  0
 16 45  1  0  0  0  0
 16 46  1  0  0  0  0
 16 47  1  0  0  0  0
 17 48  1  0  0  0  0
 17 49  1  0  0  0  0
 17 50  1  0  0  0  0
 19 20  1  0  0  0  0
 19 24  2  0  0  0  0
 20 26  2  0  0  0  0
 21 51  1  0  0  0  0
 22 25  1  0  0  0  0
 22 27  1  0  0  0  0
 22 52  1  0  0  0  0
 24 28  1  0  0  0  0
 24 55  1  0  0  0  0
 25 30  2  0  0  0  0
 25 31  1  0  0  0  0
 26 29  1  0  0  0  0
 26 56  1  0  0  0  0
 27 57  1  0  0  0  0
 27 58  1  0  0  0  0
 27 59  1  0  0  0  0
 28 29  2  0  0  0  0
 28 60  1  0  0  0  0
 29 61  1  0  0  0  0
 30 32  1  0  0  0  0
 30 62  1  0  0  0  0
 31 33  2  0  0  0  0
 31 63  1  0  0  0  0
 32 34  2  0  0  0  0
 32 65  1  0  0  0  0
 33 34  1  0  0  0  0
 33 66  1  0  0  0  0
 34 67  1  0  0  0  0
M  END
> <PUBCHEM_COMPOUND_CID>
10322165

> <PUBCHEM_CONFORMER_RMSD>
1.2

> <PUBCHEM_CONFORMER_DIVERSEORDER>
1
58
87
71
84
98
89
111
70
35
8
52
108
4
90
38
102
104
75
50
67
77
99
36
105
91
82
76
92
28
44
101
30
31
69
6
45
39
96
106
61
33
72
12
54
2
22
19
47
40
81
15
49
59
57
64
95
97
9
41
85
88
60
18
78
55
37
26
34
48
93
83
13
80
68
21
51
109
24
43
46
56
100
79
107
74
110
16
7
103
73
94
29
86
63
53
66
32
17
65
14
27
62
20
23
11
25
3
5
42
10

> <PUBCHEM_MMFF94_PARTIAL_CHARGES>
42
1 -0.57
11 0.36
12 0.18
13 0.57
14 0.06
15 -0.18
18 0.57
2 -0.57
20 -0.15
21 -0.3
22 0.44
23 0.66
24 -0.15
25 -0.14
26 -0.15
28 -0.15
29 -0.15
3 -0.65
30 -0.15
31 -0.15
32 -0.15
33 -0.15
34 -0.15
4 -0.57
44 0.37
5 -0.73
51 0.15
53 0.37
54 0.27
55 0.15
56 0.15
6 -0.73
60 0.15
61 0.15
62 0.15
63 0.15
64 0.5
65 0.15
66 0.15
67 0.15
7 0.03
8 0.06

> <PUBCHEM_EFFECTIVE_ROTOR_COUNT>
13

> <PUBCHEM_PHARMACOPHORE_FEATURES>
14
1 1 acceptor
1 2 acceptor
1 3 acceptor
1 4 acceptor
1 5 donor
1 6 donor
1 7 cation
1 7 donor
3 10 16 17 hydrophobe
3 3 4 23 anion
4 8 9 10 14 hydrophobe
5 7 15 19 20 21 rings
6 19 20 24 26 28 29 rings
6 25 30 31 32 33 34 rings

> <PUBCHEM_HEAVY_ATOM_COUNT>
34

> <PUBCHEM_ATOM_DEF_STEREO_COUNT>
3

> <PUBCHEM_ATOM_UDEF_STEREO_COUNT>
0

> <PUBCHEM_BOND_DEF_STEREO_COUNT>
0

> <PUBCHEM_BOND_UDEF_STEREO_COUNT>
0

> <PUBCHEM_ISOTOPIC_ATOM_COUNT>
0

> <PUBCHEM_COMPONENT_COUNT>
1

> <PUBCHEM_CACTVS_TAUTO_COUNT>
4

> <PUBCHEM_CONFORMER_ID>
009D80F500000001

> <PUBCHEM_MMFF94_ENERGY>
64.6209

> <PUBCHEM_FEATURE_SELFOVERLAP>
71.22

> <PUBCHEM_SHAPE_FINGERPRINT>
10074138 170 18408319986546742634
10290309 65 17975696091353938140
10816530 145 18116425024155271111
10930396 42 18196069230996915818
11014199 57 18050857911506696887
12608794 3 18197804230845141385
12633046 712 15123785181002747046
12788726 201 18261123997186783454
14028597 1 17749377196279886538
140371 6 18265900331194690518
14659021 117 18269263720416763531
14790565 3 18266742376702858275
15274700 242 18187352195511591267
15775530 1 17842525652437556376
15950262 2 15552507755600637057
16114785 44 18271798025777822943
16120349 306 18265618680430223923
18393751 57 18266182742607043273
21033648 29 18121497956490722372
21236236 1 18342172245885905725
23559900 14 17474093776047188111
255183 313 18410864226531193673
283562 15 18341325618338852735
3504750 166 18337657699004375074
3882209 13 17767103673151739855
469060 322 17458345225677259372
5104073 3 18340754976436485016
552612 73 18059284470191354440
6669772 16 17908712726340740286

> <PUBCHEM_SHAPE_MULTIPOLES>
661.28
14.11
6.84
1.59
24.63
5.61
0.04
-4.57
-5.43
-10.56
0.31
0.52
-0.28
0.82

> <PUBCHEM_SHAPE_SELFOVERLAP>
1390.528

> <PUBCHEM_SHAPE_VOLUME>
371.8

> <PUBCHEM_COORDINATE_TYPE>
2
5
10

$$$$
