REMARK  Name = 10323516
REMARK  11 active torsions:
REMARK  status: ('A' for Active; 'I' for Inactive)
REMARK    1  A    between atoms: N_1  and  C_11
REMARK    2  A    between atoms: C_2  and  C_25
REMARK    3  A    between atoms: C_8  and  C_32
REMARK    4  A    between atoms: C_11  and  C_12
REMARK    5  A    between atoms: C_12  and  N_13
REMARK    6  A    between atoms: N_13  and  S_15
REMARK    7  A    between atoms: S_15  and  C_19
REMARK    8  A    between atoms: C_25  and  C_27
REMARK    9  A    between atoms: C_32  and  C_33
REMARK   10  A    between atoms: C_33  and  C_35
REMARK   11  A    between atoms: C_35  and  O_36
REMARK                            x       y       z     vdW  Elec       q    Type
REMARK                         _______ _______ _______ _____ _____    ______ ____
ROOT
ATOM      1  N   UNL     1      -0.911   1.370   1.523  0.00  0.00    -0.329 N 
ATOM      2  C   UNL     1      -1.665   0.123  -0.151  0.00  0.00    -0.005 A 
ATOM      3  C   UNL     1      -0.195   0.195   1.573  0.00  0.00    +0.059 A 
ATOM      4  C   UNL     1      -0.652  -0.609   0.527  0.00  0.00    +0.013 A 
ATOM      5  C   UNL     1      -1.802   1.336   0.484  0.00  0.00    +0.034 A 
ATOM      6  C   UNL     1      -0.077  -1.884   0.351  0.00  0.00    -0.003 C 
ATOM      7  C   UNL     1       0.812  -0.213   2.456  0.00  0.00    +0.017 C 
ATOM      8  C   UNL     1       0.930  -2.305   1.226  0.00  0.00    -0.022 C 
ATOM      9  C   UNL     1      -2.706   2.468   0.190  0.00  0.00    +0.050 C 
ATOM     10  C   UNL     1       1.367  -1.481   2.261  0.00  0.00    -0.003 C 
ENDROOT
BRANCH   1  11
ATOM     11  C   UNL     1      -0.742   2.482   2.437  0.00  0.00    +0.124 C 
BRANCH  11  12
ATOM     12  C   UNL     1       0.294   3.495   1.964  0.00  0.00    +0.116 C 
BRANCH  12  13
ATOM     13  N   UNL     1       1.613   2.843   1.797  0.00  0.00    -0.177 NA
ATOM     14  H   UNL     1       2.084   2.895   2.700  0.00  0.00    +0.149 HD
BRANCH  13  15
ATOM     15  S   UNL     1       2.707   3.430   0.637  0.00  0.00    +0.060 S 
ATOM     16  O   UNL     1       4.057   3.059   1.016  0.00  0.00    -0.153 OA
ATOM     17  O   UNL     1       2.385   4.814   0.347  0.00  0.00    -0.153 OA
BRANCH  15  19
ATOM     18  F   UNL     1       1.228   0.287  -4.128  0.00  0.00    -0.204 F 
ATOM     19  C   UNL     1       2.263   2.488  -0.792  0.00  0.00    +0.122 C 
ATOM     20  C   UNL     1       2.882   1.262  -1.038  0.00  0.00    +0.022 C 
ATOM     21  C   UNL     1       1.295   2.970  -1.672  0.00  0.00    +0.022 C 
ATOM     22  C   UNL     1       2.532   0.519  -2.166  0.00  0.00    +0.031 C 
ATOM     23  C   UNL     1       0.945   2.227  -2.799  0.00  0.00    +0.031 C 
ATOM     24  C   UNL     1       1.563   1.001  -3.046  0.00  0.00    +0.140 C 
ENDBRANCH  15  19
ENDBRANCH  13  15
ENDBRANCH  12  13
ENDBRANCH  11  12
ENDBRANCH   1  11
BRANCH   2  25
ATOM     25  C   UNL     1      -2.435  -0.334  -1.327  0.00  0.00    +0.055 C 
BRANCH  25  27
ATOM     26  N   UNL     1      -6.097  -0.023  -0.386  0.00  0.00    -0.243 NA
ATOM     27  C   UNL     1      -3.822  -0.701  -0.842  0.00  0.00    +0.001 C 
ATOM     28  C   UNL     1      -4.114  -1.993  -0.416  0.00  0.00    -0.001 C 
ATOM     29  C   UNL     1      -4.840   0.238  -0.808  0.00  0.00    +0.095 C 
ATOM     30  C   UNL     1      -5.396  -2.300   0.024  0.00  0.00    +0.020 C 
ATOM     31  C   UNL     1      -6.343  -1.289   0.020  0.00  0.00    +0.099 C 
ENDBRANCH  25  27
ENDBRANCH   2  25
BRANCH   8  32
ATOM     32  C   UNL     1       1.544  -3.655   1.046  0.00  0.00    +0.038 C 
BRANCH  32  33
ATOM     33  C   UNL     1       2.766  -3.657   0.122  0.00  0.00    +0.114 C 
BRANCH  33  35
ATOM     34  O   UNL     1       2.852  -6.046   0.466  0.00  0.00    -0.250 OA
ATOM     35  C   UNL     1       3.328  -5.046  -0.057  0.00  0.00    +0.314 C 
BRANCH  35  36
ATOM     36  O   UNL     1       4.436  -5.071  -0.838  0.00  0.00    -0.480 OA
ATOM     37  H   UNL     1       4.760  -4.278  -1.216  0.00  0.00    +0.295 HD
ENDBRANCH  35  36
ENDBRANCH  33  35
ENDBRANCH  32  33
ENDBRANCH   8  32
TORSDOF 11
