REMARK  Name = 10321901
REMARK  5 active torsions:
REMARK  status: ('A' for Active; 'I' for Inactive)
REMARK    1  A    between atoms: N_1  and  C_14
REMARK    2  A    between atoms: N_2  and  C_28
REMARK    3  A    between atoms: C_7  and  C_25
REMARK    4  A    between atoms: C_11  and  N_18
REMARK    5  A    between atoms: C_28  and  C_32
REMARK                            x       y       z     vdW  Elec       q    Type
REMARK                         _______ _______ _______ _____ _____    ______ ____
ROOT
ATOM      1  N   UNL     1       1.202  -3.173  -0.143  0.00  0.00    -0.247 N 
ATOM      2  N   UNL     1      -2.646  -0.453   0.064  0.00  0.00    -0.304 N 
ATOM      3  N   UNL     1      -0.705  -1.810  -0.040  0.00  0.00    -0.322 NA
ATOM      4  N   UNL     1      -0.902  -4.209  -0.141  0.00  0.00    -0.169 NA
ATOM      5  C   UNL     1      -0.201  -3.058  -0.106  0.00  0.00    +0.150 C 
ATOM      6  C   UNL     1      -2.052  -1.737  -0.006  0.00  0.00    +0.199 C 
ATOM      7  C   UNL     1      -2.880  -2.841  -0.035  0.00  0.00    +0.118 C 
ATOM      8  C   UNL     1      -2.243  -4.063  -0.103  0.00  0.00    +0.120 C 
ATOM      9  H   UNL     1       1.522  -4.102  -0.191  0.00  0.00    +0.165 HD
ATOM     10  H   UNL     1      -3.628  -0.388   0.090  0.00  0.00    +0.149 HD
ENDROOT
BRANCH   1  14
ATOM     11  C   UNL     1       4.311  -0.306  -0.085  0.00  0.00    +0.048 C 
ATOM     12  C   UNL     1       4.499  -1.593   0.460  0.00  0.00    +0.016 C 
ATOM     13  C   UNL     1       3.055  -0.004  -0.649  0.00  0.00    +0.016 C 
ATOM     14  C   UNL     1       2.239  -2.217  -0.124  0.00  0.00    +0.058 C 
ATOM     15  C   UNL     1       3.474  -2.538   0.440  0.00  0.00    +0.017 C 
ATOM     16  C   UNL     1       2.030  -0.950  -0.669  0.00  0.00    +0.017 C 
BRANCH  11  18
ATOM     17  O   UNL     1       7.419   2.506   0.250  0.00  0.00    -0.350 OA
ATOM     18  N   UNL     1       5.339   0.642  -0.064  0.00  0.00    -0.303 N 
ATOM     19  C   UNL     1       5.102   1.907   0.645  0.00  0.00    +0.123 C 
ATOM     20  C   UNL     1       6.738   0.205  -0.111  0.00  0.00    +0.123 C 
ATOM     21  C   UNL     1       6.073   2.969   0.141  0.00  0.00    +0.164 C 
ATOM     22  C   UNL     1       7.623   1.358  -0.573  0.00  0.00    +0.164 C 
ENDBRANCH  11  18
ENDBRANCH   1  14
BRANCH   7  25
ATOM     23  O   UNL     1      -5.003  -2.701  -1.044  0.00  0.00    -0.270 OA
ATOM     24  N   UNL     1      -4.951  -2.786   1.247  0.00  0.00    -0.325 N 
ATOM     25  C   UNL     1      -4.332  -2.765   0.000  0.00  0.00    +0.248 C 
ATOM     26  H   UNL     1      -5.932  -2.737   1.310  0.00  0.00    +0.145 HD
ATOM     27  H   UNL     1      -4.408  -2.850   2.065  0.00  0.00    +0.145 HD
ENDBRANCH   7  25
BRANCH   2  28
ATOM     28  C   UNL     1      -1.879   0.750   0.099  0.00  0.00    +0.121 C 
BRANCH  28  32
ATOM     29  F   UNL     1      -2.890   2.137  -2.142  0.00  0.00    -0.202 F 
ATOM     30  F   UNL     1      -2.637   1.840   2.590  0.00  0.00    -0.204 F 
ATOM     31  F   UNL     1      -4.471   4.347  -1.912  0.00  0.00    -0.202 F 
ATOM     32  C   UNL     1      -2.748   1.967   0.222  0.00  0.00    +0.055 C 
ATOM     33  C   UNL     1      -3.211   2.600  -0.926  0.00  0.00    +0.167 C 
ATOM     34  C   UNL     1      -3.083   2.449   1.482  0.00  0.00    +0.140 C 
ATOM     35  C   UNL     1      -4.020   3.731  -0.812  0.00  0.00    +0.167 C 
ATOM     36  C   UNL     1      -3.891   3.580   1.596  0.00  0.00    +0.032 C 
ATOM     37  C   UNL     1      -4.360   4.221   0.449  0.00  0.00    +0.034 C 
ENDBRANCH  28  32
ENDBRANCH   2  28
TORSDOF 5
