10321901
  -OEChem-03292013303D

 54 57  0     0  0  0  0  0  0999 V2000
   -2.8898    2.1371   -2.1419 F   0  0  0  0  0  0  0  0  0  0  0  0
   -2.6372    1.8402    2.5897 F   0  0  0  0  0  0  0  0  0  0  0  0
   -4.4707    4.3468   -1.9124 F   0  0  0  0  0  0  0  0  0  0  0  0
    7.4187    2.5057    0.2496 O   0  0  0  0  0  0  0  0  0  0  0  0
   -5.0033   -2.7015   -1.0443 O   0  0  0  0  0  0  0  0  0  0  0  0
    5.3387    0.6418   -0.0643 N   0  0  0  0  0  0  0  0  0  0  0  0
    1.2024   -3.1726   -0.1428 N   0  0  0  0  0  0  0  0  0  0  0  0
   -2.6456   -0.4531    0.0641 N   0  0  0  0  0  0  0  0  0  0  0  0
   -0.7047   -1.8097   -0.0402 N   0  0  0  0  0  0  0  0  0  0  0  0
   -0.9022   -4.2093   -0.1405 N   0  0  0  0  0  0  0  0  0  0  0  0
   -4.9508   -2.7860    1.2467 N   0  0  0  0  0  0  0  0  0  0  0  0
    5.1020    1.9066    0.6455 C   0  0  0  0  0  0  0  0  0  0  0  0
    6.7383    0.2048   -0.1113 C   0  0  0  0  0  0  0  0  0  0  0  0
    6.0727    2.9685    0.1414 C   0  0  0  0  0  0  0  0  0  0  0  0
    7.6226    1.3578   -0.5733 C   0  0  0  0  0  0  0  0  0  0  0  0
    4.3108   -0.3065   -0.0846 C   0  0  0  0  0  0  0  0  0  0  0  0
    4.4991   -1.5928    0.4598 C   0  0  0  0  0  0  0  0  0  0  0  0
    3.0555   -0.0044   -0.6493 C   0  0  0  0  0  0  0  0  0  0  0  0
    2.2393   -2.2169   -0.1238 C   0  0  0  0  0  0  0  0  0  0  0  0
    3.4737   -2.5382    0.4404 C   0  0  0  0  0  0  0  0  0  0  0  0
    2.0301   -0.9499   -0.6686 C   0  0  0  0  0  0  0  0  0  0  0  0
   -0.2010   -3.0585   -0.1062 C   0  0  0  0  0  0  0  0  0  0  0  0
   -1.8788    0.7495    0.0991 C   0  0  0  0  0  0  0  0  0  0  0  0
   -2.0517   -1.7374   -0.0061 C   0  0  0  0  0  0  0  0  0  0  0  0
   -2.7485    1.9671    0.2216 C   0  0  0  0  0  0  0  0  0  0  0  0
   -2.8797   -2.8409   -0.0352 C   0  0  0  0  0  0  0  0  0  0  0  0
   -2.2431   -4.0634   -0.1033 C   0  0  0  0  0  0  0  0  0  0  0  0
   -3.2114    2.6002   -0.9260 C   0  0  0  0  0  0  0  0  0  0  0  0
   -3.0828    2.4488    1.4818 C   0  0  0  0  0  0  0  0  0  0  0  0
   -4.0199    3.7311   -0.8116 C   0  0  0  0  0  0  0  0  0  0  0  0
   -3.8914    3.5797    1.5961 C   0  0  0  0  0  0  0  0  0  0  0  0
   -4.3315   -2.7653    0.0003 C   0  0  0  0  0  0  0  0  0  0  0  0
   -4.3599    4.2209    0.4494 C   0  0  0  0  0  0  0  0  0  0  0  0
    5.2589    1.7385    1.7181 H   0  0  0  0  0  0  0  0  0  0  0  0
    4.0781    2.2712    0.5088 H   0  0  0  0  0  0  0  0  0  0  0  0
    6.8688   -0.6369   -0.8016 H   0  0  0  0  0  0  0  0  0  0  0  0
    7.0501   -0.1124    0.8914 H   0  0  0  0  0  0  0  0  0  0  0  0
    5.9797    3.8762    0.7458 H   0  0  0  0  0  0  0  0  0  0  0  0
    5.8628    3.2397   -0.9003 H   0  0  0  0  0  0  0  0  0  0  0  0
    7.4229    1.6196   -1.6195 H   0  0  0  0  0  0  0  0  0  0  0  0
    8.6769    1.0727   -0.4987 H   0  0  0  0  0  0  0  0  0  0  0  0
    5.4432   -1.8748    0.9193 H   0  0  0  0  0  0  0  0  0  0  0  0
    2.8770    0.9702   -1.0984 H   0  0  0  0  0  0  0  0  0  0  0  0
    3.6478   -3.5208    0.8715 H   0  0  0  0  0  0  0  0  0  0  0  0
    1.1026   -0.6724   -1.1580 H   0  0  0  0  0  0  0  0  0  0  0  0
    1.5178   -4.1340   -0.0554 H   0  0  0  0  0  0  0  0  0  0  0  0
   -1.1716    0.7286    0.9388 H   0  0  0  0  0  0  0  0  0  0  0  0
   -1.2621    0.8349   -0.8053 H   0  0  0  0  0  0  0  0  0  0  0  0
   -3.6097   -0.3900   -0.2475 H   0  0  0  0  0  0  0  0  0  0  0  0
   -2.8021   -4.9937   -0.1317 H   0  0  0  0  0  0  0  0  0  0  0  0
   -4.1558    3.9608    2.5780 H   0  0  0  0  0  0  0  0  0  0  0  0
   -4.9895    5.1012    0.5381 H   0  0  0  0  0  0  0  0  0  0  0  0
   -5.9612   -2.7419    1.3281 H   0  0  0  0  0  0  0  0  0  0  0  0
   -4.4215   -2.8446    2.1109 H   0  0  0  0  0  0  0  0  0  0  0  0
  1 28  1  0  0  0  0
  2 29  1  0  0  0  0
  3 30  1  0  0  0  0
  4 14  1  0  0  0  0
  4 15  1  0  0  0  0
  5 32  2  0  0  0  0
  6 12  1  0  0  0  0
  6 13  1  0  0  0  0
  6 16  1  0  0  0  0
  7 19  1  0  0  0  0
  7 22  1  0  0  0  0
  7 46  1  0  0  0  0
  8 23  1  0  0  0  0
  8 24  1  0  0  0  0
  8 49  1  0  0  0  0
  9 22  1  0  0  0  0
  9 24  2  0  0  0  0
 10 22  2  0  0  0  0
 10 27  1  0  0  0  0
 11 32  1  0  0  0  0
 11 53  1  0  0  0  0
 11 54  1  0  0  0  0
 12 14  1  0  0  0  0
 12 34  1  0  0  0  0
 12 35  1  0  0  0  0
 13 15  1  0  0  0  0
 13 36  1  0  0  0  0
 13 37  1  0  0  0  0
 14 38  1  0  0  0  0
 14 39  1  0  0  0  0
 15 40  1  0  0  0  0
 15 41  1  0  0  0  0
 16 17  2  0  0  0  0
 16 18  1  0  0  0  0
 17 20  1  0  0  0  0
 17 42  1  0  0  0  0
 18 21  2  0  0  0  0
 18 43  1  0  0  0  0
 19 20  2  0  0  0  0
 19 21  1  0  0  0  0
 20 44  1  0  0  0  0
 21 45  1  0  0  0  0
 23 25  1  0  0  0  0
 23 47  1  0  0  0  0
 23 48  1  0  0  0  0
 24 26  1  0  0  0  0
 25 28  1  0  0  0  0
 25 29  2  0  0  0  0
 26 27  2  0  0  0  0
 26 32  1  0  0  0  0
 27 50  1  0  0  0  0
 28 30  2  0  0  0  0
 29 31  1  0  0  0  0
 30 33  1  0  0  0  0
 31 33  2  0  0  0  0
 31 51  1  0  0  0  0
 33 52  1  0  0  0  0
M  END
> <PUBCHEM_COMPOUND_CID>
10321901

> <PUBCHEM_CONFORMER_RMSD>
1

> <PUBCHEM_CONFORMER_DIVERSEORDER>
1
36
17
107
55
93
56
22
20
23
52
62
41
42
38
101
69
77
103
81
61
88
8
51
92
16
27
80
13
48
47
86
97
54
65
98
64
57
7
71
30
49
11
31
74
18
95
25
73
26
72
58
9
67
21
35
84
37
85
59
100
6
34
70
109
66
32
108
63
24
29
105
68
28
78
60
3
5
79
99
75
87
39
53
82
10
33
45
4
43
19
90
40
96
12
83
102
46
89
15
44
104
91
50
76
106
94
2
14

> <PUBCHEM_MMFF94_PARTIAL_CHARGES>
44
1 -0.19
10 -0.62
11 -0.8
12 0.37
13 0.37
14 0.28
15 0.28
16 0.1
17 -0.15
18 -0.15
19 0.1
2 -0.19
20 -0.15
21 -0.15
22 0.72
23 0.51
24 0.41
25 -0.14
26 0.09
27 0.16
28 0.19
29 0.19
3 -0.19
30 0.19
31 -0.15
32 0.54
33 -0.15
4 -0.56
42 0.15
43 0.15
44 0.15
45 0.15
46 0.4
49 0.4
5 -0.57
50 0.15
51 0.15
52 0.15
53 0.37
54 0.37
6 -0.84
7 -0.6
8 -0.87
9 -0.62

> <PUBCHEM_EFFECTIVE_ROTOR_COUNT>
8.2

> <PUBCHEM_PHARMACOPHORE_FEATURES>
11
1 11 donor
1 4 acceptor
1 5 acceptor
1 6 cation
1 7 donor
1 8 donor
4 7 9 10 22 cation
6 16 17 18 19 20 21 rings
6 25 28 29 30 31 33 rings
6 4 6 12 13 14 15 rings
6 9 10 22 24 26 27 rings

> <PUBCHEM_HEAVY_ATOM_COUNT>
33

> <PUBCHEM_ATOM_DEF_STEREO_COUNT>
0

> <PUBCHEM_ATOM_UDEF_STEREO_COUNT>
0

> <PUBCHEM_BOND_DEF_STEREO_COUNT>
0

> <PUBCHEM_BOND_UDEF_STEREO_COUNT>
0

> <PUBCHEM_ISOTOPIC_ATOM_COUNT>
0

> <PUBCHEM_COMPONENT_COUNT>
1

> <PUBCHEM_CACTVS_TAUTO_COUNT>
21

> <PUBCHEM_CONFORMER_ID>
009D7FED00000001

> <PUBCHEM_MMFF94_ENERGY>
120.8194

> <PUBCHEM_FEATURE_SELFOVERLAP>
55.822

> <PUBCHEM_SHAPE_FINGERPRINT>
10050765 1 18410856525971959742
100830 39 18339079410725437596
10883706 163 18410578430474615057
10937287 8 18339643308949142795
11059845 2 18194652975149733794
11135609 187 18265605491003233565
12107183 9 18191576455536996218
12788726 201 18336537313497982907
14251764 75 18268716008696331984
14394314 77 17689725580911668021
15276724 80 18413671331082783951
15338160 23 18410299115908385829
19304152 47 17895208705090633608
19309040 13 17345484673549336109
21049683 271 18124872615426794451
24771293 8 18129677421332439771
283562 15 18410008854072854291
4144715 1 18409737287986628714
5104073 3 18187359901326719138
550186 72 18410857702328547789
57527585 21 16845014498651734433
6036956 94 18263365961261993861
653340 110 18410853295760037334
6677587 24 16524360504387783237

> <PUBCHEM_SHAPE_MULTIPOLES>
615.68
16.65
7.02
1.26
29.87
0.71
0.11
14.04
-0.18
-10.36
-0.19
-1.88
1.3
0.33

> <PUBCHEM_SHAPE_SELFOVERLAP>
1335.608

> <PUBCHEM_SHAPE_VOLUME>
334.8

> <PUBCHEM_COORDINATE_TYPE>
2
5
10

$$$$
