REMARK  Name = 10321583
REMARK  7 active torsions:
REMARK  status: ('A' for Active; 'I' for Inactive)
REMARK    1  A    between atoms: C_3  and  C_19
REMARK    2  A    between atoms: C_4  and  O_9
REMARK    3  A    between atoms: C_6  and  N_11
REMARK    4  A    between atoms: N_11  and  C_13
REMARK    5  A    between atoms: C_13  and  C_14
REMARK    6  A    between atoms: C_14  and  S_15
REMARK    7  A    between atoms: C_19  and  C_23
REMARK                            x       y       z     vdW  Elec       q    Type
REMARK                         _______ _______ _______ _____ _____    ______ ____
ROOT
ATOM      1  O   UNL     1       0.425  -3.023   0.036  0.00  0.00    -0.283 OA
ATOM      2  O   UNL     1      -1.824  -3.458   1.392  0.00  0.00    -0.283 OA
ATOM      3  C   UNL     1      -0.421  -1.028  -0.980  0.00  0.00    +0.055 C 
ATOM      4  C   UNL     1      -1.509  -0.236  -1.061  0.00  0.00    +0.146 C 
ATOM      5  C   UNL     1      -0.494  -2.228  -0.101  0.00  0.00    +0.233 C 
ATOM      6  C   UNL     1      -2.754  -0.480  -0.328  0.00  0.00    +0.082 C 
ATOM      7  C   UNL     1      -1.759  -2.483   0.660  0.00  0.00    +0.235 C 
ATOM      8  C   UNL     1      -2.874  -1.542   0.487  0.00  0.00    +0.063 C 
ENDROOT
BRANCH   4   9
ATOM      9  O   UNL     1      -1.564   0.895  -1.857  0.00  0.00    -0.504 OA
ATOM     10  H   UNL     1      -0.820   1.144  -2.369  0.00  0.00    +0.292 HD
ENDBRANCH   4   9
BRANCH   6  11
ATOM     11  N   UNL     1      -3.789   0.404  -0.495  0.00  0.00    -0.329 N 
ATOM     12  H   UNL     1      -3.668   1.156  -1.120  0.00  0.00    +0.147 HD
BRANCH  11  13
ATOM     13  C   UNL     1      -5.042   0.286   0.196  0.00  0.00    +0.113 C 
BRANCH  13  14
ATOM     14  C   UNL     1      -6.001   1.376  -0.247  0.00  0.00    +0.179 C 
BRANCH  14  15
ATOM     15  S   UNL     1      -7.577   1.246   0.539  0.00  0.00    +0.024 S 
ATOM     16  O   UNL     1      -8.206   2.644  -0.018  0.00  0.00    -0.069 OA
ATOM     17  O   UNL     1      -7.396   1.355   1.975  0.00  0.00    -0.069 OA
ATOM     18  O   UNL     1      -8.304   0.139  -0.053  0.00  0.00    -0.069 OA
ENDBRANCH  14  15
ENDBRANCH  13  14
ENDBRANCH  11  13
ENDBRANCH   6  11
BRANCH   3  19
ATOM     19  C   UNL     1       0.874  -0.837  -1.675  0.00  0.00    +0.033 C 
BRANCH  19  23
ATOM     20  C   UNL     1       4.253   0.908  -0.603  0.00  0.00    +0.004 C 
ATOM     21  C   UNL     1       4.503   0.154   0.749  0.00  0.00    +0.015 C 
ATOM     22  C   UNL     1       3.201   0.273  -1.562  0.00  0.00    +0.001 C 
ATOM     23  C   UNL     1       1.844   0.006  -0.818  0.00  0.00    +0.004 C 
ATOM     24  C   UNL     1       3.126  -0.064   1.427  0.00  0.00    +0.004 C 
ATOM     25  C   UNL     1       2.088  -0.733   0.518  0.00  0.00    +0.001 C 
ATOM     26  C   UNL     1       5.577   1.282  -1.286  0.00  0.00    +0.005 C 
ATOM     27  C   UNL     1       5.446   1.011   1.621  0.00  0.00    -0.049 C 
ATOM     28  C   UNL     1       5.211  -1.211   0.586  0.00  0.00    +0.004 C 
ATOM     29  C   UNL     1       3.715  -0.934  -2.361  0.00  0.00    +0.000 C 
ATOM     30  C   UNL     1       1.121   1.349  -0.541  0.00  0.00    +0.000 C 
ATOM     31  C   UNL     1       6.401   2.209  -0.389  0.00  0.00    +0.025 C 
ATOM     32  C   UNL     1       6.285   1.915   1.077  0.00  0.00    -0.035 C 
ATOM     33  C   UNL     1       5.443   0.802   3.114  0.00  0.00    +0.026 C 
ENDBRANCH  19  23
ENDBRANCH   3  19
TORSDOF 7
