REMARK  Name = 10322821
REMARK  9 active torsions:
REMARK  status: ('A' for Active; 'I' for Inactive)
REMARK    1  A    between atoms: C_2  and  C_13
REMARK    2  A    between atoms: C_3  and  O_27
REMARK    3  A    between atoms: C_4  and  C_21
REMARK    4  A    between atoms: C_5  and  O_29
REMARK    5  A    between atoms: C_6  and  C_34
REMARK    6  A    between atoms: C_9  and  O_31
REMARK    7  A    between atoms: C_12  and  O_37
REMARK    8  A    between atoms: C_18  and  O_19
REMARK    9  A    between atoms: C_34  and  O_35
REMARK                            x       y       z     vdW  Elec       q    Type
REMARK                         _______ _______ _______ _____ _____    ______ ____
ROOT
ATOM      1  O   UNL     1      -0.387   0.985   1.101  0.00  0.00    -0.476 OA
ATOM      2  C   UNL     1       0.262   0.221   0.025  0.00  0.00    +0.184 C 
ATOM      3  C   UNL     1      -0.770   0.149  -1.161  0.00  0.00    +0.175 C 
ATOM      4  C   UNL     1       0.378  -1.280   0.547  0.00  0.00    +0.079 C 
ATOM      5  C   UNL     1      -0.639  -1.282  -1.689  0.00  0.00    +0.154 C 
ATOM      6  C   UNL     1      -0.406  -2.165  -0.463  0.00  0.00    +0.136 C 
ATOM      7  C   UNL     1      -2.026   0.527  -0.454  0.00  0.00    +0.076 C 
ATOM      8  C   UNL     1      -1.721   1.016   0.804  0.00  0.00    +0.143 C 
ATOM      9  C   UNL     1      -3.339   0.510  -0.896  0.00  0.00    +0.143 C 
ATOM     10  C   UNL     1      -2.692   1.490   1.666  0.00  0.00    +0.074 C 
ATOM     11  C   UNL     1      -4.341   0.975  -0.039  0.00  0.00    +0.074 C 
ATOM     12  C   UNL     1      -4.018   1.463   1.236  0.00  0.00    +0.145 C 
ENDROOT
BRANCH   2  13
ATOM     13  C   UNL     1       1.603   0.901  -0.274  0.00  0.00    +0.017 C 
ATOM     14  C   UNL     1       2.163   0.810  -1.549  0.00  0.00    +0.002 C 
ATOM     15  C   UNL     1       2.265   1.610   0.729  0.00  0.00    +0.002 C 
ATOM     16  C   UNL     1       3.384   1.428  -1.821  0.00  0.00    +0.037 C 
ATOM     17  C   UNL     1       3.486   2.228   0.457  0.00  0.00    +0.037 C 
ATOM     18  C   UNL     1       4.045   2.137  -0.818  0.00  0.00    +0.139 C 
BRANCH  18  19
ATOM     19  O   UNL     1       5.236   2.740  -1.084  0.00  0.00    -0.471 OA
ATOM     20  C   UNL     1       5.859   3.449  -0.013  0.00  0.00    +0.252 C 
ENDBRANCH  18  19
ENDBRANCH   2  13
BRANCH   4  21
ATOM     21  C   UNL     1       1.785  -1.769   0.861  0.00  0.00    -0.018 C 
ATOM     22  C   UNL     1       2.344  -1.511   2.109  0.00  0.00    -0.004 C 
ATOM     23  C   UNL     1       2.504  -2.470  -0.103  0.00  0.00    -0.004 C 
ATOM     24  C   UNL     1       3.634  -1.958   2.396  0.00  0.00    -0.000 C 
ATOM     25  C   UNL     1       3.793  -2.918   0.184  0.00  0.00    -0.000 C 
ATOM     26  C   UNL     1       4.358  -2.662   1.433  0.00  0.00    -0.000 C 
ENDBRANCH   4  21
BRANCH   3  27
ATOM     27  O   UNL     1      -0.580   1.137  -2.160  0.00  0.00    -0.376 OA
ATOM     28  H   UNL     1       0.229   0.942  -2.658  0.00  0.00    +0.211 HD
ENDBRANCH   3  27
BRANCH   5  29
ATOM     29  O   UNL     1      -1.738  -1.703  -2.476  0.00  0.00    -0.381 OA
ATOM     30  H   UNL     1      -1.837  -1.109  -3.237  0.00  0.00    +0.210 HD
ENDBRANCH   5  29
BRANCH   9  31
ATOM     31  O   UNL     1      -3.675   0.102  -2.147  0.00  0.00    -0.471 OA
ATOM     32  C   UNL     1      -5.061   0.127  -2.491  0.00  0.00    +0.252 C 
ENDBRANCH   9  31
BRANCH   6  34
ATOM     33  O   UNL     1      -2.340  -2.095   0.998  0.00  0.00    -0.250 OA
ATOM     34  C   UNL     1      -1.696  -2.667   0.130  0.00  0.00    +0.316 C 
BRANCH  34  35
ATOM     35  O   UNL     1      -2.052  -3.850  -0.428  0.00  0.00    -0.480 OA
ATOM     36  H   UNL     1      -1.513  -4.237  -1.090  0.00  0.00    +0.295 HD
ENDBRANCH  34  35
ENDBRANCH   6  34
BRANCH  12  37
ATOM     37  O   UNL     1      -5.006   1.918   2.055  0.00  0.00    -0.471 OA
ATOM     38  C   UNL     1      -4.613   2.408   3.336  0.00  0.00    +0.252 C 
ENDBRANCH  12  37
TORSDOF 9
