10323609
  -OEChem-03292013303D

 77 80  0     1  0  0  0  0  0999 V2000
   -6.5960    2.5761   -0.1082 S   0  0  0  0  0  0  0  0  0  0  0  0
    2.3088    2.0115    2.0415 O   0  0  0  0  0  0  0  0  0  0  0  0
    5.7347    3.2237   -2.3556 O   0  0  0  0  0  0  0  0  0  0  0  0
   -5.7514   -2.0345    0.5016 O   0  0  0  0  0  0  0  0  0  0  0  0
   -7.2607    3.4476    1.0996 O   0  0  0  0  0  0  0  0  0  0  0  0
   -7.0327    3.1280   -1.3775 O   0  0  0  0  0  0  0  0  0  0  0  0
   -5.1897    2.3685    0.1860 O   0  0  0  0  0  0  0  0  0  0  0  0
   -5.8148   -0.2844   -1.0258 N   0  0  0  0  0  0  0  0  0  0  0  0
    0.8292   -1.6535    0.1781 C   0  0  1  0  0  0  0  0  0  0  0  0
    1.2155   -0.3002    0.8198 C   0  0  2  0  0  0  0  0  0  0  0  0
    3.5247   -0.3910   -0.1942 C   0  0  1  0  0  0  0  0  0  0  0  0
    2.7125   -0.2045    1.1273 C   0  0  1  0  0  0  0  0  0  0  0  0
    5.0821   -0.2860    0.0480 C   0  0  2  0  0  0  0  0  0  0  0  0
   -0.7003   -1.4492    0.0624 C   0  0  2  0  0  0  0  0  0  0  0  0
    1.5646   -1.7669   -1.1623 C   0  0  0  0  0  0  0  0  0  0  0  0
    3.0877   -1.6540   -0.9815 C   0  0  0  0  0  0  0  0  0  0  0  0
    0.2092   -0.1630    1.9626 C   0  0  0  0  0  0  0  0  0  0  0  0
    5.4128    1.0806    0.7433 C   0  0  2  0  0  0  0  0  0  0  0  0
   -1.0815   -0.7973    1.4106 C   0  0  0  0  0  0  0  0  0  0  0  0
    3.1138    1.1337    1.7385 C   0  0  0  0  0  0  0  0  0  0  0  0
    5.8953   -0.3707   -1.2766 C   0  0  0  0  0  0  0  0  0  0  0  0
    4.5895    1.3083    2.0167 C   0  0  0  0  0  0  0  0  0  0  0  0
    1.1598   -2.8879    1.0566 C   0  0  0  0  0  0  0  0  0  0  0  0
   -1.5318   -2.6839   -0.2544 C   0  0  1  0  0  0  0  0  0  0  0  0
    5.2477    2.2875   -0.2054 C   0  0  0  0  0  0  0  0  0  0  0  0
    5.5872   -1.4496    0.9394 C   0  0  0  0  0  0  0  0  0  0  0  0
    5.6894    0.8196   -2.2049 C   0  0  0  0  0  0  0  0  0  0  0  0
    6.0350    2.1255   -1.5008 C   0  0  1  0  0  0  0  0  0  0  0  0
   -3.0173   -2.5162    0.1250 C   0  0  0  0  0  0  0  0  0  0  0  0
   -1.4236   -3.0204   -1.7462 C   0  0  0  0  0  0  0  0  0  0  0  0
   -3.7188   -1.4013   -0.6513 C   0  0  0  0  0  0  0  0  0  0  0  0
   -5.1966   -1.3008   -0.3119 C   0  0  0  0  0  0  0  0  0  0  0  0
   -7.2174    0.0353   -0.8906 C   0  0  0  0  0  0  0  0  0  0  0  0
   -7.4670    1.0694    0.1904 C   0  0  0  0  0  0  0  0  0  0  0  0
    0.9827    0.5096    0.1082 H   0  0  0  0  0  0  0  0  0  0  0  0
    3.2438    0.4527   -0.8403 H   0  0  0  0  0  0  0  0  0  0  0  0
    2.9752   -0.9653    1.8680 H   0  0  0  0  0  0  0  0  0  0  0  0
   -0.8868   -0.6895   -0.7118 H   0  0  0  0  0  0  0  0  0  0  0  0
    1.3635   -2.7219   -1.6529 H   0  0  0  0  0  0  0  0  0  0  0  0
    1.2295   -0.9795   -1.8495 H   0  0  0  0  0  0  0  0  0  0  0  0
    3.5340   -1.6429   -1.9818 H   0  0  0  0  0  0  0  0  0  0  0  0
    3.4583   -2.5581   -0.4889 H   0  0  0  0  0  0  0  0  0  0  0  0
    0.5468   -0.6944    2.8596 H   0  0  0  0  0  0  0  0  0  0  0  0
    0.0363    0.8803    2.2429 H   0  0  0  0  0  0  0  0  0  0  0  0
    6.4707    1.0642    1.0431 H   0  0  0  0  0  0  0  0  0  0  0  0
   -1.8566   -0.0347    1.2852 H   0  0  0  0  0  0  0  0  0  0  0  0
   -1.4387   -1.5235    2.1484 H   0  0  0  0  0  0  0  0  0  0  0  0
    6.9666   -0.4246   -1.0355 H   0  0  0  0  0  0  0  0  0  0  0  0
    5.6747   -1.2977   -1.8167 H   0  0  0  0  0  0  0  0  0  0  0  0
    4.8713    0.6039    2.8063 H   0  0  0  0  0  0  0  0  0  0  0  0
    4.7610    2.3157    2.4130 H   0  0  0  0  0  0  0  0  0  0  0  0
    0.5655   -2.9237    1.9749 H   0  0  0  0  0  0  0  0  0  0  0  0
    0.9755   -3.8191    0.5091 H   0  0  0  0  0  0  0  0  0  0  0  0
    2.2093   -2.9183    1.3613 H   0  0  0  0  0  0  0  0  0  0  0  0
   -1.1877   -3.5525    0.3160 H   0  0  0  0  0  0  0  0  0  0  0  0
    4.1913    2.4677   -0.4409 H   0  0  0  0  0  0  0  0  0  0  0  0
    5.5827    3.2026    0.3011 H   0  0  0  0  0  0  0  0  0  0  0  0
    6.6533   -1.3303    1.1668 H   0  0  0  0  0  0  0  0  0  0  0  0
    5.0650   -1.5128    1.8968 H   0  0  0  0  0  0  0  0  0  0  0  0
    5.4767   -2.4169    0.4385 H   0  0  0  0  0  0  0  0  0  0  0  0
    6.3208    0.7098   -3.0953 H   0  0  0  0  0  0  0  0  0  0  0  0
    4.6607    0.8498   -2.5828 H   0  0  0  0  0  0  0  0  0  0  0  0
    7.1107    2.1529   -1.2893 H   0  0  0  0  0  0  0  0  0  0  0  0
   -3.1460   -2.3662    1.2020 H   0  0  0  0  0  0  0  0  0  0  0  0
   -3.5342   -3.4636   -0.0837 H   0  0  0  0  0  0  0  0  0  0  0  0
   -1.4711   -2.1332   -2.3856 H   0  0  0  0  0  0  0  0  0  0  0  0
   -0.4925   -3.5480   -1.9623 H   0  0  0  0  0  0  0  0  0  0  0  0
   -2.2262   -3.7002   -2.0554 H   0  0  0  0  0  0  0  0  0  0  0  0
   -3.6531   -1.5800   -1.7303 H   0  0  0  0  0  0  0  0  0  0  0  0
   -3.2653   -0.4267   -0.4474 H   0  0  0  0  0  0  0  0  0  0  0  0
    5.9845    4.0383   -1.8869 H   0  0  0  0  0  0  0  0  0  0  0  0
   -5.2636    0.2724   -1.6728 H   0  0  0  0  0  0  0  0  0  0  0  0
   -7.5544    0.4035   -1.8652 H   0  0  0  0  0  0  0  0  0  0  0  0
   -7.7737   -0.8806   -0.6644 H   0  0  0  0  0  0  0  0  0  0  0  0
   -7.1488    0.6988    1.1703 H   0  0  0  0  0  0  0  0  0  0  0  0
   -8.5344    1.3081    0.2321 H   0  0  0  0  0  0  0  0  0  0  0  0
   -6.9865    3.1880    2.0106 H   0  0  0  0  0  0  0  0  0  0  0  0
  1  5  1  0  0  0  0
  1  6  2  0  0  0  0
  1  7  2  0  0  0  0
  1 34  1  0  0  0  0
  2 20  2  0  0  0  0
  3 28  1  0  0  0  0
  3 71  1  0  0  0  0
  4 32  2  0  0  0  0
  5 77  1  0  0  0  0
  8 32  1  0  0  0  0
  8 33  1  0  0  0  0
  8 72  1  0  0  0  0
  9 10  1  0  0  0  0
  9 14  1  0  0  0  0
  9 15  1  0  0  0  0
  9 23  1  0  0  0  0
 10 12  1  0  0  0  0
 10 17  1  0  0  0  0
 10 35  1  0  0  0  0
 11 12  1  0  0  0  0
 11 13  1  0  0  0  0
 11 16  1  0  0  0  0
 11 36  1  0  0  0  0
 12 20  1  0  0  0  0
 12 37  1  0  0  0  0
 13 18  1  0  0  0  0
 13 21  1  0  0  0  0
 13 26  1  0  0  0  0
 14 19  1  0  0  0  0
 14 24  1  0  0  0  0
 14 38  1  0  0  0  0
 15 16  1  0  0  0  0
 15 39  1  0  0  0  0
 15 40  1  0  0  0  0
 16 41  1  0  0  0  0
 16 42  1  0  0  0  0
 17 19  1  0  0  0  0
 17 43  1  0  0  0  0
 17 44  1  0  0  0  0
 18 22  1  0  0  0  0
 18 25  1  0  0  0  0
 18 45  1  0  0  0  0
 19 46  1  0  0  0  0
 19 47  1  0  0  0  0
 20 22  1  0  0  0  0
 21 27  1  0  0  0  0
 21 48  1  0  0  0  0
 21 49  1  0  0  0  0
 22 50  1  0  0  0  0
 22 51  1  0  0  0  0
 23 52  1  0  0  0  0
 23 53  1  0  0  0  0
 23 54  1  0  0  0  0
 24 29  1  0  0  0  0
 24 30  1  0  0  0  0
 24 55  1  0  0  0  0
 25 28  1  0  0  0  0
 25 56  1  0  0  0  0
 25 57  1  0  0  0  0
 26 58  1  0  0  0  0
 26 59  1  0  0  0  0
 26 60  1  0  0  0  0
 27 28  1  0  0  0  0
 27 61  1  0  0  0  0
 27 62  1  0  0  0  0
 28 63  1  0  0  0  0
 29 31  1  0  0  0  0
 29 64  1  0  0  0  0
 29 65  1  0  0  0  0
 30 66  1  0  0  0  0
 30 67  1  0  0  0  0
 30 68  1  0  0  0  0
 31 32  1  0  0  0  0
 31 69  1  0  0  0  0
 31 70  1  0  0  0  0
 33 34  1  0  0  0  0
 33 73  1  0  0  0  0
 33 74  1  0  0  0  0
 34 75  1  0  0  0  0
 34 76  1  0  0  0  0
M  END
> <PUBCHEM_COMPOUND_CID>
10323609

> <PUBCHEM_CONFORMER_RMSD>
1

> <PUBCHEM_CONFORMER_DIVERSEORDER>
2
25
79
26
77
80
57
23
43
41
50
20
29
65
73
85
88
78
44
64
48
86
82
70
51
11
36
74
33
42
76
46
30
59
16
56
22
49
28
13
55
18
10
60
52
63
21
9
47
15
87
58
54
84
61
5
6
24
69
12
37
71
19
7
66
35
75
40
32
72
83
62
67
27
39
4
81
34
1
14
17
45
38
8
53
3
31
68

> <PUBCHEM_MMFF94_PARTIAL_CHARGES>
19
1 1.38
12 0.06
2 -0.57
20 0.45
22 0.06
28 0.28
3 -0.68
31 0.06
32 0.57
33 0.3
34 0.11
4 -0.57
5 -0.68
6 -0.65
7 -0.65
71 0.4
72 0.37
77 0.5
8 -0.73

> <PUBCHEM_EFFECTIVE_ROTOR_COUNT>
10

> <PUBCHEM_PHARMACOPHORE_FEATURES>
14
1 2 acceptor
1 3 acceptor
1 3 donor
1 30 hydrophobe
1 4 acceptor
1 5 acceptor
1 6 acceptor
1 7 acceptor
1 8 donor
4 1 5 6 7 anion
5 9 10 14 17 19 rings
6 11 12 13 18 20 22 rings
6 13 18 21 25 27 28 rings
6 9 10 11 12 15 16 rings

> <PUBCHEM_HEAVY_ATOM_COUNT>
34

> <PUBCHEM_ATOM_DEF_STEREO_COUNT>
9

> <PUBCHEM_ATOM_UDEF_STEREO_COUNT>
0

> <PUBCHEM_BOND_DEF_STEREO_COUNT>
0

> <PUBCHEM_BOND_UDEF_STEREO_COUNT>
0

> <PUBCHEM_ISOTOPIC_ATOM_COUNT>
0

> <PUBCHEM_COMPONENT_COUNT>
1

> <PUBCHEM_CACTVS_TAUTO_COUNT>
6

> <PUBCHEM_CONFORMER_ID>
009D869900000002

> <PUBCHEM_MMFF94_ENERGY>
95.6223

> <PUBCHEM_FEATURE_SELFOVERLAP>
71.233

> <PUBCHEM_SHAPE_FINGERPRINT>
10190206 1 17917723391269760960
10554248 39 18339912753828414406
11475781 23 17917703613361957704
1200032 147 17531253898393283012
12147406 95 17131288852772200270
12717326 120 8790610342511983056
13782708 43 11312058742604394679
13944108 23 17769093441721848977
14211702 104 9007054682369197837
14251757 52 18040998487766300524
14347329 18 18271232855974916211
14664723 55 18340211783143415797
14904525 67 18187645859690591765
15082195 135 18271814548833729584
15183329 4 17203895179825836291
15510800 12 9727051202213018301
16728433 281 18271536320678695929
16992727 255 18342177756291873953
16994733 274 18114462365571058944
20691028 202 18409163303718119245
21424621 283 18187085048915317451
21859007 373 18129928031681559864
22122407 14 17750243667071666581
22149856 69 12757418407028239055
22864921 47 10087645862373006757
23559900 14 16843894281577779770
23569914 152 17056979359239358438
255183 313 14562532907793973051
2748736 6 18335413565579978997
2838139 119 18201144517121701991
3418910 222 18042695077969963309
3918712 181 18333724737110870181
4058900 60 18410859832933377515
4144715 1 18115035215635659571
4173938 188 16443634597506064867
465052 167 9511193936591048510
5718773 13 9727628402535092037
59682541 52 17203618081531479582
6328613 192 18334577970881048301
9980921 221 17774460320669401137

> <PUBCHEM_SHAPE_MULTIPOLES>
663.36
21.3
3.85
1.94
30.35
1.45
0.14
19.11
6.44
4.04
0.79
-2.77
0.79
-1.21

> <PUBCHEM_SHAPE_SELFOVERLAP>
1370.736

> <PUBCHEM_SHAPE_VOLUME>
383.1

> <PUBCHEM_COORDINATE_TYPE>
2
5
10

$$$$
