10339712
  -OEChem-03292013303D

 40 43  0     0  0  0  0  0  0999 V2000
    2.3254    2.3224   -0.1395 O   0  0  0  0  0  0  0  0  0  0  0  0
   -0.4156   -0.7929    0.0982 O   0  0  0  0  0  0  0  0  0  0  0  0
    5.9616   -2.9065    0.1437 O   0  0  0  0  0  0  0  0  0  0  0  0
    7.5763   -0.6550   -0.0164 O   0  0  0  0  0  0  0  0  0  0  0  0
    4.3999    3.2125   -0.2198 O   0  0  0  0  0  0  0  0  0  0  0  0
    1.1970   -2.3503    0.1786 O   0  0  0  0  0  0  0  0  0  0  0  0
   -7.5573   -2.0541   -0.6073 O   0  0  0  0  0  0  0  0  0  0  0  0
   -8.6841    0.3918    0.0814 O   0  0  0  0  0  0  0  0  0  0  0  0
    3.3988   -0.2684    0.0130 C   0  0  0  0  0  0  0  0  0  0  0  0
    1.9327   -0.0709    0.0197 C   0  0  0  0  0  0  0  0  0  0  0  0
    4.2391    0.8556   -0.0681 C   0  0  0  0  0  0  0  0  0  0  0  0
    1.4915    1.1958   -0.0564 C   0  0  0  0  0  0  0  0  0  0  0  0
    4.0170   -1.5279    0.0832 C   0  0  0  0  0  0  0  0  0  0  0  0
    5.6374    0.7220   -0.0774 C   0  0  0  0  0  0  0  0  0  0  0  0
    0.0971    1.5349   -0.0601 C   0  0  0  0  0  0  0  0  0  0  0  0
    3.6815    2.2239   -0.1482 C   0  0  0  0  0  0  0  0  0  0  0  0
    0.9067   -1.1619    0.1050 C   0  0  0  0  0  0  0  0  0  0  0  0
   -0.8057    0.5560    0.0155 C   0  0  0  0  0  0  0  0  0  0  0  0
    5.4101   -1.6619    0.0738 C   0  0  0  0  0  0  0  0  0  0  0  0
    6.2203   -0.5380   -0.0062 C   0  0  0  0  0  0  0  0  0  0  0  0
   -2.2246    0.7639    0.0205 C   0  0  0  0  0  0  0  0  0  0  0  0
   -3.1137   -0.2403    0.0838 C   0  0  0  0  0  0  0  0  0  0  0  0
   -4.5779   -0.0776    0.0822 C   0  0  0  0  0  0  0  0  0  0  0  0
   -5.3799   -1.1528   -0.2648 C   0  0  0  0  0  0  0  0  0  0  0  0
   -5.1249    1.1478    0.4275 C   0  0  0  0  0  0  0  0  0  0  0  0
   -6.7662   -0.9987   -0.2665 C   0  0  0  0  0  0  0  0  0  0  0  0
   -6.5111    1.3020    0.4258 C   0  0  0  0  0  0  0  0  0  0  0  0
   -7.3317    0.2288    0.0789 C   0  0  0  0  0  0  0  0  0  0  0  0
    3.4426   -2.4451    0.1471 H   0  0  0  0  0  0  0  0  0  0  0  0
    6.2762    1.5999   -0.1406 H   0  0  0  0  0  0  0  0  0  0  0  0
   -0.1898    2.5794   -0.1244 H   0  0  0  0  0  0  0  0  0  0  0  0
   -2.5453    1.7986   -0.0563 H   0  0  0  0  0  0  0  0  0  0  0  0
   -2.7786   -1.2742    0.1333 H   0  0  0  0  0  0  0  0  0  0  0  0
   -4.9408   -2.1101   -0.5359 H   0  0  0  0  0  0  0  0  0  0  0  0
   -4.5271    2.0030    0.7260 H   0  0  0  0  0  0  0  0  0  0  0  0
    6.9301   -2.8140    0.1257 H   0  0  0  0  0  0  0  0  0  0  0  0
    7.9717    0.2316   -0.0764 H   0  0  0  0  0  0  0  0  0  0  0  0
   -6.9464    2.2591    0.7005 H   0  0  0  0  0  0  0  0  0  0  0  0
   -6.9937   -2.8191   -0.8152 H   0  0  0  0  0  0  0  0  0  0  0  0
   -9.0942   -0.4502   -0.1827 H   0  0  0  0  0  0  0  0  0  0  0  0
  1 12  1  0  0  0  0
  1 16  1  0  0  0  0
  2 17  1  0  0  0  0
  2 18  1  0  0  0  0
  3 19  1  0  0  0  0
  3 36  1  0  0  0  0
  4 20  1  0  0  0  0
  4 37  1  0  0  0  0
  5 16  2  0  0  0  0
  6 17  2  0  0  0  0
  7 26  1  0  0  0  0
  7 39  1  0  0  0  0
  8 28  1  0  0  0  0
  8 40  1  0  0  0  0
  9 10  1  0  0  0  0
  9 11  1  0  0  0  0
  9 13  2  0  0  0  0
 10 12  2  0  0  0  0
 10 17  1  0  0  0  0
 11 14  2  0  0  0  0
 11 16  1  0  0  0  0
 12 15  1  0  0  0  0
 13 19  1  0  0  0  0
 13 29  1  0  0  0  0
 14 20  1  0  0  0  0
 14 30  1  0  0  0  0
 15 18  2  0  0  0  0
 15 31  1  0  0  0  0
 18 21  1  0  0  0  0
 19 20  2  0  0  0  0
 21 22  2  0  0  0  0
 21 32  1  0  0  0  0
 22 23  1  0  0  0  0
 22 33  1  0  0  0  0
 23 24  2  0  0  0  0
 23 25  1  0  0  0  0
 24 26  1  0  0  0  0
 24 34  1  0  0  0  0
 25 27  2  0  0  0  0
 25 35  1  0  0  0  0
 26 28  2  0  0  0  0
 27 28  1  0  0  0  0
 27 38  1  0  0  0  0
M  END
> <PUBCHEM_COMPOUND_CID>
10339712

> <PUBCHEM_CONFORMER_RMSD>
0.6

> <PUBCHEM_CONFORMER_DIVERSEORDER>
1
7
5
3
9
6
4
10
8
2

> <PUBCHEM_MMFF94_PARTIAL_CHARGES>
40
1 -0.23
10 -0.01
11 0.09
12 0.08
13 -0.15
14 -0.15
15 -0.15
16 0.63
17 0.71
18 0.08
19 0.08
2 -0.23
20 0.08
21 -0.15
22 -0.18
23 0.03
24 -0.15
25 -0.15
26 0.08
27 -0.15
28 0.08
29 0.15
3 -0.53
30 0.15
31 0.15
32 0.15
33 0.15
34 0.15
35 0.15
36 0.45
37 0.45
38 0.15
39 0.45
4 -0.53
40 0.45
5 -0.57
6 -0.57
7 -0.53
8 -0.53
9 0.03

> <PUBCHEM_EFFECTIVE_ROTOR_COUNT>
2

> <PUBCHEM_PHARMACOPHORE_FEATURES>
10
1 3 donor
1 4 donor
1 5 acceptor
1 6 acceptor
1 7 donor
1 8 donor
6 1 9 10 11 12 16 rings
6 2 10 12 15 17 18 rings
6 23 24 25 26 27 28 rings
6 9 11 13 14 19 20 rings

> <PUBCHEM_HEAVY_ATOM_COUNT>
28

> <PUBCHEM_ATOM_DEF_STEREO_COUNT>
0

> <PUBCHEM_ATOM_UDEF_STEREO_COUNT>
0

> <PUBCHEM_BOND_DEF_STEREO_COUNT>
1

> <PUBCHEM_BOND_UDEF_STEREO_COUNT>
0

> <PUBCHEM_ISOTOPIC_ATOM_COUNT>
0

> <PUBCHEM_COMPONENT_COUNT>
1

> <PUBCHEM_CACTVS_TAUTO_COUNT>
120

> <PUBCHEM_CONFORMER_ID>
009DC58000000001

> <PUBCHEM_MMFF94_ENERGY>
93.2947

> <PUBCHEM_FEATURE_SELFOVERLAP>
50.805

> <PUBCHEM_SHAPE_FINGERPRINT>
10050765 1 18194402427499310402
100830 39 18338234844030730253
10299344 5 18413671310103312807
10411042 1 18193556659020043698
10595046 47 18413108381883255913
11315181 36 18202284702548285041
11524674 6 16486971813359226663
11719270 70 17989207027558913543
12166972 35 18408888451339106601
12236239 1 18272933834611794185
13533116 47 18412263956410123392
13782708 43 17894907395490661099
14170010 4 18408885140203579904
14251764 18 18411419518183151989
14849402 71 18342177820811965776
14933364 13 18408323294109488157
15183329 4 18335138691931046393
15419008 47 17240195530573853597
15510794 2 18113904880187564939
1577012 14 18271811246214699917
15849732 13 17917710197224757150
18681886 176 18272081721373724267
20028762 73 18271807891397271350
20771845 140 16773792567631826638
21130935 74 18343582932247299267
21267235 1 18339927018368819254
21315763 28 18411699881544139209
21792934 111 18342728603038316832
23081809 10 18201721782269543101
23522609 53 18121250668741654572
23559900 14 18339918346824931481
23569943 247 17897159131154651323
249057 25 18059306399946201569
255183 451 18055361237058462598
3004659 81 18333730221303584696
335352 9 18409171026491258606
350125 39 18410293588649881908
397830 11 14907034128317860367
4073 2 18041846241438674291
4093350 32 17275105055453299996
4325135 7 18413670206080420623
59755656 215 17676486124993410059
99344 41 18343302527208114039

> <PUBCHEM_SHAPE_MULTIPOLES>
529.27
23.11
2.46
0.63
28.73
0.21
0
-5.54
0.41
-3.19
0.1
0.19
0
-0.98

> <PUBCHEM_SHAPE_SELFOVERLAP>
1190.443

> <PUBCHEM_SHAPE_VOLUME>
276.1

> <PUBCHEM_COORDINATE_TYPE>
2
5
10

$$$$
