REMARK  Name = 10338519
REMARK  11 active torsions:
REMARK  status: ('A' for Active; 'I' for Inactive)
REMARK    1  A    between atoms: C_1  and  C_3
REMARK    2  A    between atoms: C_1  and  O_16
REMARK    3  A    between atoms: C_1  and  C_18
REMARK    4  A    between atoms: C_4  and  O_9
REMARK    5  A    between atoms: CA_5  and  C_13
REMARK    6  A    between atoms: C_6  and  O_11
REMARK    7  A    between atoms: C_13  and  O_14
REMARK    8  A    between atoms: C_18  and  C_19
REMARK    9  A    between atoms: C_19  and  C_20
REMARK   10  A    between atoms: C_20  and  C_21
REMARK   11  A    between atoms: C_21  and  C_25
REMARK                            x       y       z     vdW  Elec       q    Type
REMARK                         _______ _______ _______ _____ _____    ______ ____
ROOT
ATOM      1  C   UNL     1      -2.529  -0.563  -1.068  0.00  0.00    +0.094 C 
ENDROOT
BRANCH   1   3
ATOM      2  N   UNL     1      -4.941  -0.036  -1.290  0.00  0.00    +0.393 N 
ATOM      3  C   UNL     1      -3.637   0.455  -0.817  0.00  0.00    -0.004 C 
ATOM      4  C   UNL     1      -3.813   0.755   0.675  0.00  0.00    +0.118 C 
ATOM      5  CA  UNL     1      -5.757  -0.337  -0.112  0.00  0.00    -0.002 C 
ATOM      6  C   UNL     1      -5.320   0.725   0.883  0.00  0.00    +0.118 C 
ATOM      7  H1  UNL     1      -4.813  -0.880  -1.848  0.00  0.00    -0.084 HD
ATOM      8  H2  UNL     1      -5.398   0.666  -1.871  0.00  0.00    -0.084 HD
BRANCH   4   9
ATOM      9  O   UNL     1      -3.293   2.038   0.989  0.00  0.00    -0.384 OA
ATOM     10  H   UNL     1      -2.333   2.040   0.852  0.00  0.00    +0.210 HD
ENDBRANCH   4   9
BRANCH   6  11
ATOM     11  O   UNL     1      -5.642   0.336   2.207  0.00  0.00    -0.384 OA
ATOM     12  H   UNL     1      -5.355   1.026   2.826  0.00  0.00    +0.210 HD
ENDBRANCH   6  11
BRANCH   5  13
ATOM     13  C   UNL     1      -7.242  -0.278  -0.434  0.00  0.00    +0.118 C 
BRANCH  13  14
ATOM     14  O   UNL     1      -7.976  -0.481   0.761  0.00  0.00    -0.384 OA
ATOM     15  H   UNL     1      -8.926  -0.445   0.566  0.00  0.00    +0.210 HD
ENDBRANCH  13  14
ENDBRANCH   5  13
ENDBRANCH   1   3
BRANCH   1  16
ATOM     16  O   UNL     1      -2.456  -0.827  -2.466  0.00  0.00    -0.386 OA
ATOM     17  H   UNL     1      -3.312  -1.160  -2.778  0.00  0.00    +0.210 HD
ENDBRANCH   1  16
BRANCH   1  18
ATOM     18  C   UNL     1      -1.174  -0.038  -0.585  0.00  0.00    +0.027 C 
BRANCH  18  19
ATOM     19  C   UNL     1      -0.158  -1.167  -0.378  0.00  0.00    +0.002 C 
BRANCH  19  20
ATOM     20  C   UNL     1       1.196  -0.618   0.077  0.00  0.00    +0.003 C 
BRANCH  20  21
ATOM     21  C   UNL     1       2.219  -1.740   0.243  0.00  0.00    +0.030 C 
BRANCH  21  25
ATOM     22  O   UNL     1       3.981  -0.239  -0.321  0.00  0.00    -0.337 OA
ATOM     23  O   UNL     1       5.595   1.170  -1.264  0.00  0.00    -0.334 OA
ATOM     24  C   UNL     1       5.267   0.361  -0.111  0.00  0.00    +0.187 C 
ATOM     25  C   UNL     1       3.578  -1.194   0.665  0.00  0.00    +0.118 C 
ATOM     26  C   UNL     1       6.345  -0.717   0.017  0.00  0.00    +0.056 C 
ATOM     27  C   UNL     1       4.603  -2.321   0.791  0.00  0.00    +0.030 C 
ATOM     28  C   UNL     1       5.246   1.357   1.051  0.00  0.00    +0.059 C 
ATOM     29  C   UNL     1       5.989  -1.756   1.070  0.00  0.00    +0.007 C 
ATOM     30  C   UNL     1       4.642   2.576   0.395  0.00  0.00    +0.037 C 
ATOM     31  C   UNL     1       5.275   2.540  -0.979  0.00  0.00    +0.145 C 
ENDBRANCH  21  25
ENDBRANCH  20  21
ENDBRANCH  19  20
ENDBRANCH  18  19
ENDBRANCH   1  18
TORSDOF 11
