REMARK  Name = 10333115
REMARK  6 active torsions:
REMARK  status: ('A' for Active; 'I' for Inactive)
REMARK    1  A    between atoms: C_4  and  C_15
REMARK    2  A    between atoms: C_5  and  C_19
REMARK    3  A    between atoms: C_8  and  O_10
REMARK    4  A    between atoms: C_9  and  O_12
REMARK    5  A    between atoms: C_15  and  O_16
REMARK    6  A    between atoms: C_19  and  O_20
REMARK                            x       y       z     vdW  Elec       q    Type
REMARK                         _______ _______ _______ _____ _____    ______ ____
ROOT
ATOM      1  O   UNL     1      -0.441  -1.653   0.056  0.00  0.00    -0.447 OA
ATOM      2  C   UNL     1       0.776   0.246  -0.060  0.00  0.00    +0.047 A 
ATOM      3  C   UNL     1       0.822  -1.141   0.023  0.00  0.00    +0.149 A 
ATOM      4  C   UNL     1      -0.602   0.587  -0.077  0.00  0.00    +0.120 A 
ATOM      5  C   UNL     1      -1.295  -0.598  -0.004  0.00  0.00    +0.227 A 
ATOM      6  C   UNL     1       1.989   0.956  -0.105  0.00  0.00    +0.043 C 
ATOM      7  C   UNL     1       2.000  -1.884   0.065  0.00  0.00    +0.077 C 
ATOM      8  C   UNL     1       3.191   0.237  -0.065  0.00  0.00    +0.168 C 
ATOM      9  C   UNL     1       3.194  -1.158   0.019  0.00  0.00    +0.171 C 
ENDROOT
BRANCH   8  10
ATOM     10  O   UNL     1       4.370   0.922  -0.110  0.00  0.00    -0.503 OA
ATOM     11  H   UNL     1       4.366   1.858  -0.166  0.00  0.00    +0.292 HD
ENDBRANCH   8  10
BRANCH   9  12
ATOM     12  O   UNL     1       4.377  -1.838   0.055  0.00  0.00    -0.503 OA
ATOM     13  H   UNL     1       4.378  -2.774   0.111  0.00  0.00    +0.292 HD
ENDBRANCH   9  12
BRANCH   4  15
ATOM     14  O   UNL     1      -2.298   2.151  -0.678  0.00  0.00    -0.245 OA
ATOM     15  C   UNL     1      -1.194   1.892  -0.154  0.00  0.00    +0.345 C 
BRANCH  15  16
ATOM     16  O   UNL     1      -0.405   2.859   0.424  0.00  0.00    -0.441 OA
ATOM     17  C   UNL     1      -0.890   4.206   0.411  0.00  0.00    +0.256 C 
ENDBRANCH  15  16
ENDBRANCH   4  15
BRANCH   5  19
ATOM     18  O   UNL     1      -3.610  -0.027  -0.033  0.00  0.00    -0.241 OA
ATOM     19  C   UNL     1      -2.691  -0.881   0.016  0.00  0.00    +0.377 C 
BRANCH  19  20
ATOM     20  O   UNL     1      -2.961  -2.232   0.096  0.00  0.00    -0.439 OA
ATOM     21  C   UNL     1      -4.331  -2.644   0.122  0.00  0.00    +0.256 C 
ENDBRANCH  19  20
ENDBRANCH   5  19
TORSDOF 6
