10336479
  -OEChem-03292013303D

 38 40  0     0  0  0  0  0  0999 V2000
   -0.7123    2.0890   -0.3466 O   0  0  0  0  0  0  0  0  0  0  0  0
    3.2912   -2.8156    0.1550 O   0  0  0  0  0  0  0  0  0  0  0  0
   -1.7233   -3.1139    0.3329 O   0  0  0  0  0  0  0  0  0  0  0  0
   -3.1975    2.6658   -0.3543 O   0  0  0  0  0  0  0  0  0  0  0  0
    4.3771   -0.1078   -1.4880 O   0  0  0  0  0  0  0  0  0  0  0  0
    4.6473    0.2384    0.7328 O   0  0  0  0  0  0  0  0  0  0  0  0
    1.4958    0.3646   -0.1924 C   0  0  0  0  0  0  0  0  0  0  0  0
    0.1714   -0.0801   -0.1001 C   0  0  0  0  0  0  0  0  0  0  0  0
   -0.0960   -1.4392    0.0773 C   0  0  0  0  0  0  0  0  0  0  0  0
    1.8608    1.8064   -0.3830 C   0  0  0  0  0  0  0  0  0  0  0  0
    2.5460   -0.5499   -0.1075 C   0  0  0  0  0  0  0  0  0  0  0  0
   -0.9342    0.8952   -0.1925 C   0  0  0  0  0  0  0  0  0  0  0  0
   -2.3266    0.4122   -0.0942 C   0  0  0  0  0  0  0  0  0  0  0  0
   -2.5940   -0.9468    0.0834 C   0  0  0  0  0  0  0  0  0  0  0  0
   -1.4884   -1.9221    0.1764 C   0  0  0  0  0  0  0  0  0  0  0  0
    2.0410    2.5409    0.9479 C   0  0  0  0  0  0  0  0  0  0  0  0
    0.9607   -2.3535    0.1623 C   0  0  0  0  0  0  0  0  0  0  0  0
    2.2790   -1.9060    0.0694 C   0  0  0  0  0  0  0  0  0  0  0  0
   -3.3835    1.3262   -0.1810 C   0  0  0  0  0  0  0  0  0  0  0  0
   -3.9183   -1.3919    0.1741 C   0  0  0  0  0  0  0  0  0  0  0  0
    2.4407    3.9921    0.7338 C   0  0  0  0  0  0  0  0  0  0  0  0
    3.9335   -0.1046   -0.2019 C   0  0  0  0  0  0  0  0  0  0  0  0
   -4.7017    0.8784   -0.0903 C   0  0  0  0  0  0  0  0  0  0  0  0
   -4.9687   -0.4777    0.0867 C   0  0  0  0  0  0  0  0  0  0  0  0
    2.8100    1.8851   -0.9291 H   0  0  0  0  0  0  0  0  0  0  0  0
    1.2133    2.3365   -1.0851 H   0  0  0  0  0  0  0  0  0  0  0  0
    1.1124    2.5111    1.5298 H   0  0  0  0  0  0  0  0  0  0  0  0
    2.8054    2.0500    1.5609 H   0  0  0  0  0  0  0  0  0  0  0  0
    0.7635   -3.4139    0.3003 H   0  0  0  0  0  0  0  0  0  0  0  0
   -4.1528   -2.4439    0.3123 H   0  0  0  0  0  0  0  0  0  0  0  0
    3.3903    4.0622    0.1938 H   0  0  0  0  0  0  0  0  0  0  0  0
    1.6775    4.5281    0.1605 H   0  0  0  0  0  0  0  0  0  0  0  0
    2.5597    4.4985    1.6968 H   0  0  0  0  0  0  0  0  0  0  0  0
   -5.5277    1.5818   -0.1569 H   0  0  0  0  0  0  0  0  0  0  0  0
   -5.9958   -0.8239    0.1570 H   0  0  0  0  0  0  0  0  0  0  0  0
    2.9135   -3.7035    0.2765 H   0  0  0  0  0  0  0  0  0  0  0  0
   -2.2540    2.8797   -0.4012 H   0  0  0  0  0  0  0  0  0  0  0  0
    5.3087    0.1928   -1.5533 H   0  0  0  0  0  0  0  0  0  0  0  0
  1 12  2  0  0  0  0
  2 18  1  0  0  0  0
  2 36  1  0  0  0  0
  3 15  2  0  0  0  0
  4 19  1  0  0  0  0
  4 37  1  0  0  0  0
  5 22  1  0  0  0  0
  5 38  1  0  0  0  0
  6 22  2  0  0  0  0
  7  8  2  0  0  0  0
  7 10  1  0  0  0  0
  7 11  1  0  0  0  0
  8  9  1  0  0  0  0
  8 12  1  0  0  0  0
  9 15  1  0  0  0  0
  9 17  2  0  0  0  0
 10 16  1  0  0  0  0
 10 25  1  0  0  0  0
 10 26  1  0  0  0  0
 11 18  2  0  0  0  0
 11 22  1  0  0  0  0
 12 13  1  0  0  0  0
 13 14  2  0  0  0  0
 13 19  1  0  0  0  0
 14 15  1  0  0  0  0
 14 20  1  0  0  0  0
 16 21  1  0  0  0  0
 16 27  1  0  0  0  0
 16 28  1  0  0  0  0
 17 18  1  0  0  0  0
 17 29  1  0  0  0  0
 19 23  2  0  0  0  0
 20 24  2  0  0  0  0
 20 30  1  0  0  0  0
 21 31  1  0  0  0  0
 21 32  1  0  0  0  0
 21 33  1  0  0  0  0
 23 24  1  0  0  0  0
 23 34  1  0  0  0  0
 24 35  1  0  0  0  0
M  END
> <PUBCHEM_COMPOUND_CID>
10336479

> <PUBCHEM_CONFORMER_RMSD>
0.6

> <PUBCHEM_CONFORMER_DIVERSEORDER>
2
1

> <PUBCHEM_MMFF94_PARTIAL_CHARGES>
29
1 -0.57
10 0.14
11 0.09
12 0.4
13 0.09
14 0.09
15 0.4
17 -0.15
18 0.08
19 0.08
2 -0.53
20 -0.15
22 0.63
23 -0.15
24 -0.15
29 0.15
3 -0.57
30 0.15
34 0.15
35 0.15
36 0.45
37 0.45
38 0.5
4 -0.53
5 -0.65
6 -0.57
7 -0.14
8 0.09
9 0.09

> <PUBCHEM_EFFECTIVE_ROTOR_COUNT>
3

> <PUBCHEM_PHARMACOPHORE_FEATURES>
11
1 1 acceptor
1 2 donor
1 21 hydrophobe
1 3 acceptor
1 4 donor
1 5 acceptor
1 6 acceptor
3 5 6 22 anion
6 13 14 19 20 23 24 rings
6 7 8 9 11 17 18 rings
6 8 9 12 13 14 15 rings

> <PUBCHEM_HEAVY_ATOM_COUNT>
24

> <PUBCHEM_ATOM_DEF_STEREO_COUNT>
0

> <PUBCHEM_ATOM_UDEF_STEREO_COUNT>
0

> <PUBCHEM_BOND_DEF_STEREO_COUNT>
0

> <PUBCHEM_BOND_UDEF_STEREO_COUNT>
0

> <PUBCHEM_ISOTOPIC_ATOM_COUNT>
0

> <PUBCHEM_COMPONENT_COUNT>
1

> <PUBCHEM_CACTVS_TAUTO_COUNT>
81

> <PUBCHEM_CONFORMER_ID>
009DB8DF00000002

> <PUBCHEM_MMFF94_ENERGY>
82.6668

> <PUBCHEM_FEATURE_SELFOVERLAP>
55.923

> <PUBCHEM_SHAPE_FINGERPRINT>
10366900 7 18260275173877707667
10411042 1 18123470479875996994
10608611 8 18410854403793151273
10616163 171 18337396036300201335
10967382 1 18409449154707464911
1100329 8 18411417353857329608
11112241 14 16628249256043827632
11578080 2 17130131238067493771
12011746 2 18410578366039335406
12236239 1 17603305964560458958
12403259 226 18335697179229019037
12403259 415 18334009515165130101
13140716 1 18193272112218225794
138480 1 18411417276421518968
14178342 30 17975407228779790099
14223421 5 18266741466285348905
14466204 15 18410002226795262152
14790565 3 17907306450874011481
14866123 147 16756349640211700802
15196674 1 18336547101701588927
15536298 74 18269837665159349801
1601671 61 18410012118015065614
16945 1 18410291428006811022
17804303 29 18410298033502884677
19591789 44 18336546023627685975
20510252 161 18341613659977485849
20691752 17 17459735120112151442
21267235 1 18336557052972197079
21279426 13 18266460893157046126
221490 88 18408329882188497627
23227448 37 18270677700537960031
2334 1 17977387466585939030
23402539 116 18412256255665487735
23558518 356 17900257803728710682
23559900 14 18341326755734942440
2748010 2 18048601709425087494
3004659 81 18188216390951990462
335352 9 18410293605412532894
34934 24 18410570695523526710
350125 39 18337393854382844908
3680242 22 18336263462235155720
3886686 26 16532258189067960154
5104073 3 18336547093016625203
5265222 85 17259908941448930024
7364860 26 18412824702854988912
9709674 26 18411422825551245223
9981440 41 17906161103190904528

> <PUBCHEM_SHAPE_MULTIPOLES>
458.69
8.64
3.66
0.78
2.76
1.46
0.05
0.68
0.28
-1.78
-0.73
-0.49
0.17
0.8

> <PUBCHEM_SHAPE_SELFOVERLAP>
1026.102

> <PUBCHEM_SHAPE_VOLUME>
241.6

> <PUBCHEM_COORDINATE_TYPE>
2
5
10

$$$$
