REMARK  Name = 10334480
REMARK  5 active torsions:
REMARK  status: ('A' for Active; 'I' for Inactive)
REMARK    1  A    between atoms: C_5  and  C_15
REMARK    2  A    between atoms: C_9  and  O_11
REMARK    3  A    between atoms: C_10  and  O_13
REMARK    4  A    between atoms: C_15  and  C_16
REMARK    5  A    between atoms: C_16  and  N_17
REMARK                            x       y       z     vdW  Elec       q    Type
REMARK                         _______ _______ _______ _____ _____    ______ ____
ROOT
ATOM      1  S   UNL     1       2.203   1.667  -0.070  0.00  0.00    +0.126 S 
ATOM      2  S   UNL     1      -0.686   2.868  -0.555  0.00  0.00    -0.038 S 
ATOM      3  S   UNL     1       1.281   3.271  -0.955  0.00  0.00    +0.018 S 
ATOM      4  O   UNL     1       2.384   2.216   1.314  0.00  0.00    -0.240 OA
ATOM      5  C   UNL     1       0.907  -0.750   0.375  0.00  0.00    -0.012 C 
ATOM      6  C   UNL     1       0.755   0.599   0.053  0.00  0.00    +0.073 C 
ATOM      7  C   UNL     1      -0.521   1.131  -0.185  0.00  0.00    +0.082 C 
ATOM      8  C   UNL     1      -0.218  -1.570   0.459  0.00  0.00    +0.036 C 
ATOM      9  C   UNL     1      -1.644   0.306  -0.095  0.00  0.00    +0.179 C 
ATOM     10  C   UNL     1      -1.489  -1.044   0.225  0.00  0.00    +0.173 C 
ENDROOT
BRANCH   9  11
ATOM     11  O   UNL     1      -2.898   0.798  -0.314  0.00  0.00    -0.468 OA
ATOM     12  C   UNL     1      -3.829   0.697   0.761  0.00  0.00    +0.253 C 
ENDBRANCH   9  11
BRANCH  10  13
ATOM     13  O   UNL     1      -2.575  -1.863   0.309  0.00  0.00    -0.468 OA
ATOM     14  C   UNL     1      -2.975  -2.532  -0.885  0.00  0.00    +0.253 C 
ENDBRANCH  10  13
BRANCH   5  15
ATOM     15  C   UNL     1       2.247  -1.364   0.626  0.00  0.00    +0.003 C 
BRANCH  15  16
ATOM     16  C   UNL     1       2.881  -1.906  -0.662  0.00  0.00    -0.081 C 
BRANCH  16  17
ATOM     17  N   UNL     1       4.176  -2.525  -0.400  0.00  0.00    +0.381 N 
ATOM     18  H   UNL     1       4.569  -2.874  -1.274  0.00  0.00    -0.089 HD
ATOM     19  H   UNL     1       4.057  -3.300   0.252  0.00  0.00    -0.089 HD
ATOM     20  H   UNL     1       4.808  -1.834   0.005  0.00  0.00    -0.089 HD
ENDBRANCH  16  17
ENDBRANCH  15  16
ENDBRANCH   5  15
TORSDOF 5
