REMARK  Name = 10333648
REMARK  3 active torsions:
REMARK  status: ('A' for Active; 'I' for Inactive)
REMARK    1  A    between atoms: C_8  and  O_18
REMARK    2  A    between atoms: C_14  and  O_20
REMARK    3  A    between atoms: C_16  and  O_22
REMARK                            x       y       z     vdW  Elec       q    Type
REMARK                         _______ _______ _______ _____ _____    ______ ____
ROOT
ATOM      1  O   UNL     1      -3.658  -0.527   0.528  0.00  0.00    -0.329 OA
ATOM      2  O   UNL     1       0.012   2.792  -0.005  0.00  0.00    -0.287 OA
ATOM      3  O   UNL     1       0.046  -2.550   0.199  0.00  0.00    -0.287 OA
ATOM      4  C   UNL     1      -2.532   1.554   0.073  0.00  0.00    +0.059 C 
ATOM      5  C   UNL     1      -1.240   0.783   0.080  0.00  0.00    +0.023 C 
ATOM      6  C   UNL     1      -3.717   0.650  -0.281  0.00  0.00    +0.123 C 
ATOM      7  C   UNL     1      -1.237  -0.558   0.132  0.00  0.00    +0.072 C 
ATOM      8  C   UNL     1      -2.522  -1.348   0.225  0.00  0.00    +0.259 C 
ATOM      9  C   UNL     1       0.021   1.567   0.023  0.00  0.00    +0.192 C 
ATOM     10  C   UNL     1       0.038  -1.326   0.136  0.00  0.00    +0.199 C 
ATOM     11  C   UNL     1       1.294   0.823   0.006  0.00  0.00    +0.048 C 
ATOM     12  C   UNL     1       1.302  -0.570   0.060  0.00  0.00    +0.076 C 
ATOM     13  C   UNL     1      -5.042   1.347  -0.008  0.00  0.00    +0.033 C 
ATOM     14  C   UNL     1       2.519  -1.262   0.045  0.00  0.00    +0.140 C 
ATOM     15  C   UNL     1       2.503   1.526  -0.064  0.00  0.00    +0.040 C 
ATOM     16  C   UNL     1       3.714   0.833  -0.080  0.00  0.00    +0.137 C 
ATOM     17  C   UNL     1       3.722  -0.559  -0.026  0.00  0.00    +0.073 C 
ENDROOT
BRANCH   8  18
ATOM     18  O   UNL     1      -2.710  -2.071  -0.989  0.00  0.00    -0.357 OA
ATOM     19  H   UNL     1      -3.533  -2.582  -0.937  0.00  0.00    +0.213 HD
ENDBRANCH   8  18
BRANCH  14  20
ATOM     20  O   UNL     1       2.597  -2.623   0.095  0.00  0.00    -0.505 OA
ATOM     21  H   UNL     1       1.814  -3.136   0.143  0.00  0.00    +0.292 HD
ENDBRANCH  14  20
BRANCH  16  22
ATOM     22  O   UNL     1       4.888   1.518  -0.148  0.00  0.00    -0.505 OA
ATOM     23  H   UNL     1       4.884   2.454  -0.185  0.00  0.00    +0.292 HD
ENDBRANCH  16  22
TORSDOF 3
