10333648
  -OEChem-03292013303D

 32 34  0     1  0  0  0  0  0999 V2000
   -3.6575   -0.5269    0.5285 O   0  0  0  0  0  0  0  0  0  0  0  0
   -2.7097   -2.0714   -0.9893 O   0  0  0  0  0  0  0  0  0  0  0  0
    0.0120    2.7923   -0.0055 O   0  0  0  0  0  0  0  0  0  0  0  0
    0.0459   -2.5504    0.1986 O   0  0  0  0  0  0  0  0  0  0  0  0
    2.5971   -2.6228    0.0948 O   0  0  0  0  0  0  0  0  0  0  0  0
    4.8884    1.5178   -0.1479 O   0  0  0  0  0  0  0  0  0  0  0  0
   -2.5322    1.5542    0.0727 C   0  0  0  0  0  0  0  0  0  0  0  0
   -1.2395    0.7833    0.0800 C   0  0  0  0  0  0  0  0  0  0  0  0
   -3.7166    0.6503   -0.2805 C   0  0  2  0  0  0  0  0  0  0  0  0
   -1.2368   -0.5576    0.1322 C   0  0  0  0  0  0  0  0  0  0  0  0
   -2.5215   -1.3484    0.2251 C   0  0  1  0  0  0  0  0  0  0  0  0
    0.0215    1.5669    0.0231 C   0  0  0  0  0  0  0  0  0  0  0  0
    0.0379   -1.3260    0.1361 C   0  0  0  0  0  0  0  0  0  0  0  0
    1.2940    0.8231    0.0056 C   0  0  0  0  0  0  0  0  0  0  0  0
    1.3017   -0.5702    0.0602 C   0  0  0  0  0  0  0  0  0  0  0  0
   -5.0423    1.3471   -0.0082 C   0  0  0  0  0  0  0  0  0  0  0  0
    2.5191   -1.2624    0.0446 C   0  0  0  0  0  0  0  0  0  0  0  0
    2.5031    1.5263   -0.0644 C   0  0  0  0  0  0  0  0  0  0  0  0
    3.7137    0.8333   -0.0800 C   0  0  0  0  0  0  0  0  0  0  0  0
    3.7218   -0.5587   -0.0256 C   0  0  0  0  0  0  0  0  0  0  0  0
   -2.6691    1.9870    1.0720 H   0  0  0  0  0  0  0  0  0  0  0  0
   -2.4899    2.3811   -0.6458 H   0  0  0  0  0  0  0  0  0  0  0  0
   -3.6844    0.3650   -1.3402 H   0  0  0  0  0  0  0  0  0  0  0  0
   -2.4400   -2.0740    1.0426 H   0  0  0  0  0  0  0  0  0  0  0  0
   -5.1391    2.2627   -0.5993 H   0  0  0  0  0  0  0  0  0  0  0  0
   -5.8780    0.6827   -0.2534 H   0  0  0  0  0  0  0  0  0  0  0  0
   -5.1444    1.5998    1.0530 H   0  0  0  0  0  0  0  0  0  0  0  0
    2.5170    2.6127   -0.1074 H   0  0  0  0  0  0  0  0  0  0  0  0
   -3.1754   -2.8947   -0.7642 H   0  0  0  0  0  0  0  0  0  0  0  0
    4.6691   -1.0930   -0.0380 H   0  0  0  0  0  0  0  0  0  0  0  0
    3.5294   -2.8981    0.0728 H   0  0  0  0  0  0  0  0  0  0  0  0
    5.6249    0.8825   -0.1489 H   0  0  0  0  0  0  0  0  0  0  0  0
  1  9  1  0  0  0  0
  1 11  1  0  0  0  0
  2 11  1  0  0  0  0
  2 29  1  0  0  0  0
  3 12  2  0  0  0  0
  4 13  2  0  0  0  0
  5 17  1  0  0  0  0
  5 31  1  0  0  0  0
  6 19  1  0  0  0  0
  6 32  1  0  0  0  0
  7  8  1  0  0  0  0
  7  9  1  0  0  0  0
  7 21  1  0  0  0  0
  7 22  1  0  0  0  0
  8 10  2  0  0  0  0
  8 12  1  0  0  0  0
  9 16  1  0  0  0  0
  9 23  1  0  0  0  0
 10 11  1  0  0  0  0
 10 13  1  0  0  0  0
 11 24  1  0  0  0  0
 12 14  1  0  0  0  0
 13 15  1  0  0  0  0
 14 15  2  0  0  0  0
 14 18  1  0  0  0  0
 15 17  1  0  0  0  0
 16 25  1  0  0  0  0
 16 26  1  0  0  0  0
 16 27  1  0  0  0  0
 17 20  2  0  0  0  0
 18 19  2  0  0  0  0
 18 28  1  0  0  0  0
 19 20  1  0  0  0  0
 20 30  1  0  0  0  0
M  END
> <PUBCHEM_COMPOUND_CID>
10333648

> <PUBCHEM_CONFORMER_RMSD>
0.6

> <PUBCHEM_CONFORMER_DIVERSEORDER>
1

> <PUBCHEM_MMFF94_PARTIAL_CHARGES>
24
1 -0.56
10 -0.12
11 0.7
12 0.47
13 0.47
14 0.09
15 0.09
17 0.08
18 -0.15
19 0.08
2 -0.68
20 -0.15
28 0.15
29 0.4
3 -0.57
30 0.15
31 0.45
32 0.45
4 -0.57
5 -0.53
6 -0.53
7 0.14
8 -0.12
9 0.28

> <PUBCHEM_EFFECTIVE_ROTOR_COUNT>
0.8

> <PUBCHEM_PHARMACOPHORE_FEATURES>
10
1 1 acceptor
1 2 acceptor
1 2 donor
1 3 acceptor
1 4 acceptor
1 5 donor
1 6 donor
6 1 7 8 9 10 11 rings
6 14 15 17 18 19 20 rings
6 8 10 12 13 14 15 rings

> <PUBCHEM_HEAVY_ATOM_COUNT>
20

> <PUBCHEM_ATOM_DEF_STEREO_COUNT>
2

> <PUBCHEM_ATOM_UDEF_STEREO_COUNT>
0

> <PUBCHEM_BOND_DEF_STEREO_COUNT>
0

> <PUBCHEM_BOND_UDEF_STEREO_COUNT>
0

> <PUBCHEM_ISOTOPIC_ATOM_COUNT>
0

> <PUBCHEM_COMPONENT_COUNT>
1

> <PUBCHEM_CACTVS_TAUTO_COUNT>
33

> <PUBCHEM_CONFORMER_ID>
009DADD000000001

> <PUBCHEM_MMFF94_ENERGY>
44.8266

> <PUBCHEM_FEATURE_SELFOVERLAP>
50.825

> <PUBCHEM_SHAPE_FINGERPRINT>
10062212 137 18336818771025272355
10411042 1 17113258300733085018
10608611 8 18408602535064933877
10616163 171 18340208586843280503
10863032 1 18412825780675450355
10967382 1 18410293571116078162
11132069 177 18412539920674404104
11471102 20 18410008801815178893
116883 192 18126852581900391718
12236239 1 17846216627499551425
12403814 3 17749387057788626181
12788726 201 17560527179469615297
13132413 78 18411702118583985573
13140716 1 18337110064244461442
14790565 3 18264781028537852228
15196674 1 18410012139015271891
15230672 131 17406258307209359312
15442244 35 18194683657594164138
15536298 74 18341896268783435766
16945 1 18121500425352150763
18186145 218 17676203550457786922
19591789 44 18194402191175661441
200 152 18059852883353231229
20510252 161 18343025488547433584
20645477 70 18341331085225708615
21267235 1 18338526239479145547
21421861 104 17969494910308087210
21501502 16 18410569578852823474
2334 1 18410012160542881906
23402539 116 18341888636710992524
23402655 69 18413388739324437868
23463225 33 18409167684067763648
23559900 14 18342175562354622916
238 59 16671295904965162389
2748010 2 18410013229952737390
335352 9 18050005493473135156
34934 24 18411415111578367781
350125 39 18264770965855959408
3545911 37 18409451379548048941
474 4 17894917368668434092
5104073 3 18409167709784898819
537710 114 18411141316008892384
69090 78 18412259506939581397
7364860 26 18340769230905711358
7832392 63 18412822508116222575
9709674 26 18409737282799890394

> <PUBCHEM_SHAPE_MULTIPOLES>
376.37
7.99
2.64
0.65
1.4
0.52
-0.03
-2.2
-0.31
-0.41
-0.08
0.17
0.08
-0.21

> <PUBCHEM_SHAPE_SELFOVERLAP>
836.237

> <PUBCHEM_SHAPE_VOLUME>
198

> <PUBCHEM_COORDINATE_TYPE>
2
5
10

$$$$
