REMARK  Name = 10336479
REMARK  6 active torsions:
REMARK  status: ('A' for Active; 'I' for Inactive)
REMARK    1  A    between atoms: C_3  and  C_25
REMARK    2  A    between atoms: C_6  and  C_22
REMARK    3  A    between atoms: C_12  and  O_17
REMARK    4  A    between atoms: C_13  and  O_19
REMARK    5  A    between atoms: C_22  and  O_23
REMARK    6  A    between atoms: C_25  and  C_26
REMARK                            x       y       z     vdW  Elec       q    Type
REMARK                         _______ _______ _______ _____ _____    ______ ____
ROOT
ATOM      1  O   UNL     1      -0.712   2.089  -0.347  0.00  0.00    -0.286 OA
ATOM      2  O   UNL     1      -1.723  -3.114   0.333  0.00  0.00    -0.287 OA
ATOM      3  C   UNL     1       1.496   0.365  -0.192  0.00  0.00    -0.010 C 
ATOM      4  C   UNL     1       0.171  -0.080  -0.100  0.00  0.00    +0.039 C 
ATOM      5  C   UNL     1      -0.096  -1.439   0.077  0.00  0.00    +0.045 C 
ATOM      6  C   UNL     1       2.546  -0.550  -0.107  0.00  0.00    +0.105 C 
ATOM      7  C   UNL     1      -0.934   0.895  -0.193  0.00  0.00    +0.198 C 
ATOM      8  C   UNL     1      -2.327   0.412  -0.094  0.00  0.00    +0.076 C 
ATOM      9  C   UNL     1      -2.594  -0.947   0.083  0.00  0.00    +0.045 C 
ATOM     10  C   UNL     1      -1.488  -1.922   0.176  0.00  0.00    +0.196 C 
ATOM     11  C   UNL     1       0.961  -2.353   0.162  0.00  0.00    +0.040 C 
ATOM     12  C   UNL     1       2.279  -1.906   0.069  0.00  0.00    +0.140 C 
ATOM     13  C   UNL     1      -3.384   1.326  -0.181  0.00  0.00    +0.137 C 
ATOM     14  C   UNL     1      -3.918  -1.392   0.174  0.00  0.00    +0.003 C 
ATOM     15  C   UNL     1      -4.702   0.878  -0.090  0.00  0.00    +0.037 C 
ATOM     16  C   UNL     1      -4.969  -0.478   0.087  0.00  0.00    +0.003 C 
ENDROOT
BRANCH  12  17
ATOM     17  O   UNL     1       3.291  -2.816   0.155  0.00  0.00    -0.505 OA
ATOM     18  H   UNL     1       4.182  -2.532   0.095  0.00  0.00    +0.292 HD
ENDBRANCH  12  17
BRANCH  13  19
ATOM     19  O   UNL     1      -3.197   2.666  -0.354  0.00  0.00    -0.505 OA
ATOM     20  H   UNL     1      -2.330   3.014  -0.421  0.00  0.00    +0.292 HD
ENDBRANCH  13  19
BRANCH   6  22
ATOM     21  O   UNL     1       4.647   0.238   0.733  0.00  0.00    -0.245 OA
ATOM     22  C   UNL     1       3.933  -0.105  -0.202  0.00  0.00    +0.341 C 
BRANCH  22  23
ATOM     23  O   UNL     1       4.377  -0.108  -1.488  0.00  0.00    -0.477 OA
ATOM     24  H   UNL     1       3.805  -0.376  -2.180  0.00  0.00    +0.295 HD
ENDBRANCH  22  23
ENDBRANCH   6  22
BRANCH   3  25
ATOM     25  C   UNL     1       1.861   1.806  -0.383  0.00  0.00    +0.027 C 
BRANCH  25  26
ATOM     26  C   UNL     1       2.041   2.541   0.948  0.00  0.00    +0.005 C 
ATOM     27  C   UNL     1       2.441   3.992   0.734  0.00  0.00    +0.000 C 
ENDBRANCH  25  26
ENDBRANCH   3  25
TORSDOF 6
