REMARK  Name = 10337481
REMARK  5 active torsions:
REMARK  status: ('A' for Active; 'I' for Inactive)
REMARK    1  A    between atoms: C_2  and  N_10
REMARK    2  A    between atoms: C_5  and  N_20
REMARK    3  A    between atoms: C_11  and  C_14
REMARK    4  A    between atoms: C_14  and  N_16
REMARK    5  A    between atoms: C_23  and  C_26
REMARK                            x       y       z     vdW  Elec       q    Type
REMARK                         _______ _______ _______ _____ _____    ______ ____
ROOT
ATOM      1  F   UNL     1      -2.508   2.469   0.411  0.00  0.00    -0.203 F 
ATOM      2  C   UNL     1       0.291   0.272  -0.353  0.00  0.00    +0.059 C 
ATOM      3  C   UNL     1      -0.439   1.422  -0.038  0.00  0.00    +0.046 C 
ATOM      4  C   UNL     1      -0.378  -0.945  -0.520  0.00  0.00    +0.016 C 
ATOM      5  C   UNL     1      -2.486   0.140  -0.059  0.00  0.00    +0.101 C 
ATOM      6  C   UNL     1      -1.824   1.356   0.109  0.00  0.00    +0.157 C 
ATOM      7  C   UNL     1      -1.763  -1.011  -0.373  0.00  0.00    +0.020 C 
ENDROOT
BRANCH   2  10
ATOM      8  O   UNL     1       3.828   1.101  -0.602  0.00  0.00    -0.434 OA
ATOM      9  O   UNL     1       2.212   2.619  -0.125  0.00  0.00    -0.226 OA
ATOM     10  N   UNL     1       1.706   0.339  -0.504  0.00  0.00    -0.221 N 
ATOM     11  C   UNL     1       3.916  -0.329  -0.661  0.00  0.00    +0.210 C 
ATOM     12  C   UNL     1       2.498  -0.781  -0.936  0.00  0.00    +0.147 C 
ATOM     13  C   UNL     1       2.519   1.462  -0.372  0.00  0.00    +0.409 C 
BRANCH  11  14
ATOM     14  C   UNL     1       4.463  -0.844   0.663  0.00  0.00    +0.135 C 
BRANCH  14  16
ATOM     15  O   UNL     1       6.946  -2.122  -0.131  0.00  0.00    -0.275 OA
ATOM     16  N   UNL     1       5.819  -0.362   0.891  0.00  0.00    -0.301 N 
ATOM     17  C   UNL     1       6.936  -1.051   0.471  0.00  0.00    +0.223 C 
ATOM     18  C   UNL     1       8.206  -0.321   0.812  0.00  0.00    +0.095 C 
ATOM     19  H   UNL     1       5.942   0.491   1.366  0.00  0.00    +0.150 HD
ENDBRANCH  14  16
ENDBRANCH  11  14
ENDBRANCH   2  10
BRANCH   5  20
ATOM     20  N   UNL     1      -3.860   0.071   0.087  0.00  0.00    -0.186 N 
ATOM     21  N   UNL     1      -4.579   1.171   0.390  0.00  0.00    -0.171 NA
ATOM     22  C   UNL     1      -4.630  -1.054  -0.049  0.00  0.00    +0.101 C 
ATOM     23  C   UNL     1      -5.927  -0.660   0.179  0.00  0.00    +0.106 C 
ATOM     24  C   UNL     1      -5.834   0.719   0.445  0.00  0.00    +0.130 C 
BRANCH  23  26
ATOM     25  N   UNL     1      -8.031  -2.171   0.119  0.00  0.00    -0.191 NA
ATOM     26  C   UNL     1      -7.080  -1.488   0.146  0.00  0.00    +0.103 C 
ENDBRANCH  23  26
ENDBRANCH   5  20
TORSDOF 5
