REMARK  Name = 10336127
REMARK  9 active torsions:
REMARK  status: ('A' for Active; 'I' for Inactive)
REMARK    1  A    between atoms: C_1  and  N_8
REMARK    2  A    between atoms: C_2  and  N_12
REMARK    3  A    between atoms: C_3  and  O_22
REMARK    4  A    between atoms: C_5  and  P_16
REMARK    5  A    between atoms: P_16  and  O_18
REMARK    6  A    between atoms: P_16  and  O_20
REMARK    7  A    between atoms: O_22  and  C_23
REMARK    8  A    between atoms: C_23  and  C_24
REMARK    9  A    between atoms: C_23  and  C_26
REMARK                            x       y       z     vdW  Elec       q    Type
REMARK                         _______ _______ _______ _____ _____    ______ ____
ROOT
ATOM      1  C   UNL     1       0.632   0.994  -0.194  0.00  0.00    +0.083 C 
ATOM      2  C   UNL     1      -0.404   1.250  -1.309  0.00  0.00    -0.040 C 
ATOM      3  C   UNL     1       0.450  -0.365   0.512  0.00  0.00    +0.153 C 
ATOM      4  C   UNL     1      -1.842   1.033  -0.802  0.00  0.00    +0.013 C 
ATOM      5  C   UNL     1      -2.011  -0.200   0.044  0.00  0.00    +0.054 C 
ATOM      6  C   UNL     1      -0.973  -0.833   0.612  0.00  0.00    +0.007 C 
ENDROOT
BRANCH   1   8
ATOM      7  O   UNL     1       2.064   3.519  -0.284  0.00  0.00    -0.275 OA
ATOM      8  N   UNL     1       0.583   2.071   0.777  0.00  0.00    -0.305 N 
ATOM      9  C   UNL     1       1.307   3.241   0.642  0.00  0.00    +0.223 C 
ATOM     10  C   UNL     1       1.052   4.199   1.775  0.00  0.00    +0.095 C 
ATOM     11  H   UNL     1       0.007   1.964   1.568  0.00  0.00    +0.149 HD
ENDBRANCH   1   8
BRANCH   2  12
ATOM     12  N   UNL     1      -0.164   0.404  -2.483  0.00  0.00    +0.383 N 
ATOM     13  H   UNL     1       0.788   0.549  -2.818  0.00  0.00    -0.089 HD
ATOM     14  H   UNL     1      -0.825   0.651  -3.220  0.00  0.00    -0.089 HD
ATOM     15  H   UNL     1      -0.289  -0.575  -2.228  0.00  0.00    -0.089 HD
ENDBRANCH   2  12
BRANCH   5  16
ATOM     16  P   UNL     1      -3.643  -0.797   0.236  0.00  0.00    +0.355 P 
ATOM     17  O   UNL     1      -4.068  -1.547   1.470  0.00  0.00    -0.254 OA
BRANCH  16  18
ATOM     18  O   UNL     1      -4.577   0.503  -0.038  0.00  0.00    -0.321 OA
ATOM     19  H   UNL     1      -5.511   0.255   0.050  0.00  0.00    +0.220 HD
ENDBRANCH  16  18
BRANCH  16  20
ATOM     20  O   UNL     1      -3.921  -1.659  -1.114  0.00  0.00    -0.321 OA
ATOM     21  H   UNL     1      -4.817  -2.028  -1.083  0.00  0.00    +0.220 HD
ENDBRANCH  16  20
ENDBRANCH   5  16
BRANCH   3  22
ATOM     22  O   UNL     1       1.222  -1.368  -0.148  0.00  0.00    -0.353 OA
BRANCH  22  23
ATOM     23  C   UNL     1       2.542  -1.425   0.369  0.00  0.00    +0.116 C 
BRANCH  23  24
ATOM     24  C   UNL     1       3.488  -1.851  -0.760  0.00  0.00    +0.030 C 
ATOM     25  C   UNL     1       3.428  -0.907  -1.953  0.00  0.00    +0.003 C 
ENDBRANCH  23  24
BRANCH  23  26
ATOM     26  C   UNL     1       2.603  -2.422   1.532  0.00  0.00    +0.030 C 
ATOM     27  C   UNL     1       2.231  -3.839   1.116  0.00  0.00    +0.003 C 
ENDBRANCH  23  26
ENDBRANCH  22  23
ENDBRANCH   3  22
TORSDOF 9
