REMARK  Name = 10332320
REMARK  5 active torsions:
REMARK  status: ('A' for Active; 'I' for Inactive)
REMARK    1  A    between atoms: C_3  and  C_19
REMARK    2  A    between atoms: C_6  and  O_13
REMARK    3  A    between atoms: C_8  and  O_15
REMARK    4  A    between atoms: C_9  and  O_17
REMARK    5  A    between atoms: C_19  and  O_21
REMARK                            x       y       z     vdW  Elec       q    Type
REMARK                         _______ _______ _______ _____ _____    ______ ____
ROOT
ATOM      1  O   UNL     1      -2.554  -2.160  -0.003  0.00  0.00    -0.283 OA
ATOM      2  O   UNL     1      -4.329  -0.194   0.008  0.00  0.00    -0.283 OA
ATOM      3  C   UNL     1       2.011  -0.027  -0.002  0.00  0.00    +0.041 C 
ATOM      4  C   UNL     1      -0.319   0.688   0.003  0.00  0.00    +0.073 C 
ATOM      5  C   UNL     1      -0.695  -0.664  -0.001  0.00  0.00    +0.082 C 
ATOM      6  C   UNL     1       1.053   0.990   0.002  0.00  0.00    +0.135 C 
ATOM      7  C   UNL     1       1.617  -1.362  -0.005  0.00  0.00    +0.038 C 
ATOM      8  C   UNL     1       0.263  -1.686  -0.005  0.00  0.00    +0.137 C 
ATOM      9  C   UNL     1      -1.343   1.748   0.007  0.00  0.00    +0.140 C 
ATOM     10  C   UNL     1      -2.126  -1.016   0.001  0.00  0.00    +0.237 C 
ATOM     11  C   UNL     1      -2.655   1.481   0.008  0.00  0.00    +0.082 C 
ATOM     12  C   UNL     1      -3.141   0.090   0.006  0.00  0.00    +0.237 C 
ENDROOT
BRANCH   6  13
ATOM     13  O   UNL     1       1.518   2.275   0.004  0.00  0.00    -0.506 OA
ATOM     14  H   UNL     1       2.440   2.439   0.004  0.00  0.00    +0.292 HD
ENDBRANCH   6  13
BRANCH   8  15
ATOM     15  O   UNL     1      -0.071  -3.007  -0.008  0.00  0.00    -0.505 OA
ATOM     16  H   UNL     1      -0.972  -3.263  -0.008  0.00  0.00    +0.292 HD
ENDBRANCH   8  15
BRANCH   9  17
ATOM     17  O   UNL     1      -0.976   3.085   0.011  0.00  0.00    -0.505 OA
ATOM     18  H   UNL     1      -0.069   3.322   0.010  0.00  0.00    +0.292 HD
ENDBRANCH   9  17
BRANCH   3  19
ATOM     19  C   UNL     1       3.471   0.293  -0.003  0.00  0.00    +0.136 C 
ATOM     20  C   UNL     1       4.217  -0.317   1.184  0.00  0.00    +0.037 C 
BRANCH  19  21
ATOM     21  O   UNL     1       4.058  -0.216  -1.205  0.00  0.00    -0.380 OA
ATOM     22  H   UNL     1       3.599   0.159  -1.973  0.00  0.00    +0.211 HD
ENDBRANCH  19  21
ENDBRANCH   3  19
TORSDOF 5
