REMARK  Name = 10334115
REMARK  6 active torsions:
REMARK  status: ('A' for Active; 'I' for Inactive)
REMARK    1  A    between atoms: C_1  and  C_14
REMARK    2  A    between atoms: C_2  and  N_9
REMARK    3  A    between atoms: C_3  and  O_10
REMARK    4  A    between atoms: C_5  and  O_12
REMARK    5  A    between atoms: C_15  and  C_17
REMARK    6  A    between atoms: C_17  and  C_18
REMARK                            x       y       z     vdW  Elec       q    Type
REMARK                         _______ _______ _______ _____ _____    ______ ____
ROOT
ATOM      1  C   UNL     1       1.594  -0.601  -0.516  0.00  0.00    +0.026 C 
ATOM      2  C   UNL     1       2.399   0.462  -0.135  0.00  0.00    +0.179 C 
ATOM      3  C   UNL     1       3.668   0.210   0.385  0.00  0.00    +0.190 C 
ATOM      4  C   UNL     1       2.031  -1.912  -0.388  0.00  0.00    +0.005 C 
ATOM      5  C   UNL     1       4.119  -1.103   0.519  0.00  0.00    +0.169 C 
ATOM      6  C   UNL     1       3.301  -2.164   0.133  0.00  0.00    +0.040 C 
ENDROOT
BRANCH   2   9
ATOM      7  O   UNL     1       0.810   2.022  -0.735  0.00  0.00    -0.126 OA
ATOM      8  O   UNL     1       2.714   2.736   0.091  0.00  0.00    -0.126 OA
ATOM      9  N   UNL     1       1.951   1.810  -0.267  0.00  0.00    +0.061 N 
ENDBRANCH   2   9
BRANCH   3  10
ATOM     10  O   UNL     1       4.481   1.239   0.767  0.00  0.00    -0.502 OA
ATOM     11  H   UNL     1       4.188   2.124   0.681  0.00  0.00    +0.292 HD
ENDBRANCH   3  10
BRANCH   5  12
ATOM     12  O   UNL     1       5.357  -1.364   1.025  0.00  0.00    -0.503 OA
ATOM     13  H   UNL     1       5.914  -0.658   1.287  0.00  0.00    +0.292 HD
ENDBRANCH   5  12
BRANCH   1  14
ATOM     14  C   UNL     1       0.246  -0.384  -1.071  0.00  0.00    +0.005 C 
ATOM     15  C   UNL     1      -0.877  -0.333  -0.340  0.00  0.00    +0.042 C 
BRANCH  15  17
ATOM     16  O   UNL     1      -2.290   0.009  -2.231  0.00  0.00    -0.287 OA
ATOM     17  C   UNL     1      -2.211  -0.121  -1.000  0.00  0.00    +0.196 C 
BRANCH  17  18
ATOM     18  C   UNL     1      -3.404  -0.102  -0.170  0.00  0.00    +0.039 C 
ATOM     19  C   UNL     1      -3.329   0.343   1.150  0.00  0.00    +0.003 C 
ATOM     20  C   UNL     1      -4.625  -0.529  -0.693  0.00  0.00    +0.003 C 
ATOM     21  C   UNL     1      -4.473   0.360   1.947  0.00  0.00    +0.000 C 
ATOM     22  C   UNL     1      -5.770  -0.511   0.104  0.00  0.00    +0.000 C 
ATOM     23  C   UNL     1      -5.694  -0.066   1.424  0.00  0.00    +0.000 C 
ENDBRANCH  17  18
ENDBRANCH  15  17
ENDBRANCH   1  14
TORSDOF 6
