10337795
  -OEChem-03292013303D

 45 47  0     1  0  0  0  0  0999 V2000
    1.5376    1.1210   -0.5978 O   0  0  0  0  0  0  0  0  0  0  0  0
    0.7199   -0.6741    2.5259 O   0  0  0  0  0  0  0  0  0  0  0  0
    3.3918   -0.6846    1.8405 O   0  0  0  0  0  0  0  0  0  0  0  0
    5.0489    0.6219   -1.0529 O   0  0  0  0  0  0  0  0  0  0  0  0
    3.2355   -0.6783   -1.6512 O   0  0  0  0  0  0  0  0  0  0  0  0
   -4.1349    1.7790    1.1873 O   0  0  0  0  0  0  0  0  0  0  0  0
   -0.4378   -0.0166   -0.1197 N   0  0  0  0  0  0  0  0  0  0  0  0
   -5.5740    2.6265   -0.3909 N   0  0  0  0  0  0  0  0  0  0  0  0
    0.9886    0.0862    0.2218 C   0  0  2  0  0  0  0  0  0  0  0  0
    1.2153    0.3827    1.7106 C   0  0  2  0  0  0  0  0  0  0  0  0
    2.7071    0.5569    1.9978 C   0  0  2  0  0  0  0  0  0  0  0  0
    3.3197    1.5815    1.0457 C   0  0  0  0  0  0  0  0  0  0  0  0
    2.9229    1.3678   -0.4175 C   0  0  1  0  0  0  0  0  0  0  0  0
   -1.1789   -1.1758   -0.1134 C   0  0  0  0  0  0  0  0  0  0  0  0
   -1.2190    1.0434   -0.4917 C   0  0  0  0  0  0  0  0  0  0  0  0
   -2.4777   -0.8340   -0.4963 C   0  0  0  0  0  0  0  0  0  0  0  0
   -2.4880    0.5691   -0.7322 C   0  0  0  0  0  0  0  0  0  0  0  0
    3.7237    0.3078   -1.1158 C   0  0  0  0  0  0  0  0  0  0  0  0
   -0.8039   -2.4874    0.1987 C   0  0  0  0  0  0  0  0  0  0  0  0
   -3.6467    1.3799   -1.1582 C   0  0  0  0  0  0  0  0  0  0  0  0
   -3.4517   -1.8494   -0.5721 C   0  0  0  0  0  0  0  0  0  0  0  0
   -1.7870   -3.4778    0.1164 C   0  0  0  0  0  0  0  0  0  0  0  0
   -3.0911   -3.1660   -0.2628 C   0  0  0  0  0  0  0  0  0  0  0  0
   -4.4531    1.9309    0.0111 C   0  0  0  0  0  0  0  0  0  0  0  0
    5.9326   -0.3107   -1.6833 C   0  0  0  0  0  0  0  0  0  0  0  0
    1.4285   -0.8763   -0.0563 H   0  0  0  0  0  0  0  0  0  0  0  0
    0.6969    1.3075    1.9945 H   0  0  0  0  0  0  0  0  0  0  0  0
    2.8604    0.8676    3.0374 H   0  0  0  0  0  0  0  0  0  0  0  0
    4.4091    1.5995    1.1613 H   0  0  0  0  0  0  0  0  0  0  0  0
    2.9458    2.5688    1.3473 H   0  0  0  0  0  0  0  0  0  0  0  0
    3.1286    2.2950   -0.9674 H   0  0  0  0  0  0  0  0  0  0  0  0
   -0.8236    2.0491   -0.5480 H   0  0  0  0  0  0  0  0  0  0  0  0
   -0.2509   -0.6443    2.4899 H   0  0  0  0  0  0  0  0  0  0  0  0
    2.9556   -1.3322    2.4201 H   0  0  0  0  0  0  0  0  0  0  0  0
    0.2069   -2.7437    0.4969 H   0  0  0  0  0  0  0  0  0  0  0  0
   -3.3094    2.2310   -1.7633 H   0  0  0  0  0  0  0  0  0  0  0  0
   -4.3176    0.7869   -1.7915 H   0  0  0  0  0  0  0  0  0  0  0  0
   -4.4731   -1.6237   -0.8646 H   0  0  0  0  0  0  0  0  0  0  0  0
   -1.5290   -4.5070    0.3529 H   0  0  0  0  0  0  0  0  0  0  0  0
   -3.8382   -3.9531   -0.3191 H   0  0  0  0  0  0  0  0  0  0  0  0
    5.7084   -0.3819   -2.7519 H   0  0  0  0  0  0  0  0  0  0  0  0
    5.8516   -1.2913   -1.2046 H   0  0  0  0  0  0  0  0  0  0  0  0
    6.9556    0.0554   -1.5627 H   0  0  0  0  0  0  0  0  0  0  0  0
   -5.8169    2.7433   -1.3695 H   0  0  0  0  0  0  0  0  0  0  0  0
   -6.1984    3.0481    0.2885 H   0  0  0  0  0  0  0  0  0  0  0  0
  1  9  1  0  0  0  0
  1 13  1  0  0  0  0
  2 10  1  0  0  0  0
  2 33  1  0  0  0  0
  3 11  1  0  0  0  0
  3 34  1  0  0  0  0
  4 18  1  0  0  0  0
  4 25  1  0  0  0  0
  5 18  2  0  0  0  0
  6 24  2  0  0  0  0
  7  9  1  0  0  0  0
  7 14  1  0  0  0  0
  7 15  1  0  0  0  0
  8 24  1  0  0  0  0
  8 44  1  0  0  0  0
  8 45  1  0  0  0  0
  9 10  1  0  0  0  0
  9 26  1  0  0  0  0
 10 11  1  0  0  0  0
 10 27  1  0  0  0  0
 11 12  1  0  0  0  0
 11 28  1  0  0  0  0
 12 13  1  0  0  0  0
 12 29  1  0  0  0  0
 12 30  1  0  0  0  0
 13 18  1  0  0  0  0
 13 31  1  0  0  0  0
 14 16  1  0  0  0  0
 14 19  2  0  0  0  0
 15 17  2  0  0  0  0
 15 32  1  0  0  0  0
 16 17  1  0  0  0  0
 16 21  2  0  0  0  0
 17 20  1  0  0  0  0
 19 22  1  0  0  0  0
 19 35  1  0  0  0  0
 20 24  1  0  0  0  0
 20 36  1  0  0  0  0
 20 37  1  0  0  0  0
 21 23  1  0  0  0  0
 21 38  1  0  0  0  0
 22 23  2  0  0  0  0
 22 39  1  0  0  0  0
 23 40  1  0  0  0  0
 25 41  1  0  0  0  0
 25 42  1  0  0  0  0
 25 43  1  0  0  0  0
M  END
> <PUBCHEM_COMPOUND_CID>
10337795

> <PUBCHEM_CONFORMER_RMSD>
0.8

> <PUBCHEM_CONFORMER_DIVERSEORDER>
1
164
63
103
109
134
151
98
114
150
143
125
11
19
62
153
89
32
148
108
9
130
38
120
107
121
35
84
167
36
71
163
96
160
79
144
74
3
146
131
104
128
149
56
115
110
165
78
52
87
137
53
73
14
12
169
138
70
33
157
22
100
113
86
90
54
123
102
142
2
140
139
99
168
41
135
152
45
154
132
34
30
10
57
80
112
136
7
64
67
65
162
58
97
133
17
126
48
4
27
76
93
61
40
117
47
127
116
16
43
124
37
147
111
23
166
59
69
161
25
91
105
46
92
26
5
101
155
82
118
72
51
31
55
21
129
158
29
88
94
119
28
42
15
44
20
159
122
13
77
145
106
81
66
6
75
24
83
170
156
50
18
95
39
85
8
49
141
60
68

> <PUBCHEM_MMFF94_PARTIAL_CHARGES>
32
1 -0.56
10 0.28
11 0.28
13 0.34
14 -0.15
15 -0.3
17 -0.18
18 0.66
19 -0.15
2 -0.68
20 0.24
21 -0.15
22 -0.15
23 -0.15
24 0.57
25 0.28
3 -0.68
32 0.15
33 0.4
34 0.4
35 0.15
38 0.15
39 0.15
4 -0.43
40 0.15
44 0.37
45 0.37
5 -0.57
6 -0.57
7 0.05
8 -0.8
9 0.54

> <PUBCHEM_EFFECTIVE_ROTOR_COUNT>
6.2

> <PUBCHEM_PHARMACOPHORE_FEATURES>
12
1 1 acceptor
1 2 acceptor
1 2 donor
1 3 acceptor
1 3 donor
1 5 acceptor
1 6 acceptor
1 7 cation
1 8 donor
5 7 14 15 16 17 rings
6 1 9 10 11 12 13 rings
6 14 16 19 21 22 23 rings

> <PUBCHEM_HEAVY_ATOM_COUNT>
25

> <PUBCHEM_ATOM_DEF_STEREO_COUNT>
4

> <PUBCHEM_ATOM_UDEF_STEREO_COUNT>
0

> <PUBCHEM_BOND_DEF_STEREO_COUNT>
0

> <PUBCHEM_BOND_UDEF_STEREO_COUNT>
0

> <PUBCHEM_ISOTOPIC_ATOM_COUNT>
0

> <PUBCHEM_COMPONENT_COUNT>
1

> <PUBCHEM_CACTVS_TAUTO_COUNT>
2

> <PUBCHEM_CONFORMER_ID>
009DBE0300000001

> <PUBCHEM_MMFF94_ENERGY>
52.9962

> <PUBCHEM_FEATURE_SELFOVERLAP>
61.006

> <PUBCHEM_SHAPE_FINGERPRINT>
10165383 225 18339091371845789013
10369192 42 14129645271618171974
107951 10 18410301285194464167
10835480 77 18202003248915100628
11405975 8 18343303686616843912
11796584 16 18342743997066074022
12160290 23 18193533749205447359
12166972 35 13254784720750659393
12390115 104 18341897364496072433
12549972 3 17775280599129293138
12553582 1 17900814156987314403
12788726 201 18119523486856734923
12954195 1 18341617040285910239
13135754 10 17751386043037488251
13140716 1 18265319617900572139
13224815 77 14707198937751188378
13965767 371 18043793313259781041
14790565 3 18122633747163603733
15842332 3 17677311905491674202
16752209 62 18263906895582190599
20510252 161 18269827791583249107
20600515 1 18199446866246130280
20681677 155 18334580148482383612
21065201 7 18340482374102623378
21756936 100 17168154459248452652
23493267 7 18412262856555233775
23557571 272 18198613526947829368
23558518 356 17534921971371670277
23559900 14 18273214201502961900
23598291 2 17531510027902939842
244849 19 17346025774893119219
25147074 1 17822558473789449266
312423 11 17604414280249018370
3729539 64 17907035983734807982
4098825 35 18270131226712244580
495365 180 17274526664184763478
5161694 15 17846498149203710324
56616090 163 18341616984292728935
57527295 17 17418089871785800927
59682541 52 16199576975587047589
59755656 520 17988373585577120609
6049 1 17845089760607648649
633830 44 18059561456937692237
7399639 24 17410485915619216080
9709674 26 18199464553010255294

> <PUBCHEM_SHAPE_MULTIPOLES>
469.31
10.41
3.01
1.74
4.76
1.9
-0.8
-4.43
3.91
-5.32
-0.02
2.27
-0.1
0.4

> <PUBCHEM_SHAPE_SELFOVERLAP>
1009.761

> <PUBCHEM_SHAPE_VOLUME>
257.2

> <PUBCHEM_COORDINATE_TYPE>
2
5
10

$$$$
