10338519
  -OEChem-03292013303D

 58 60  0     1  0  0  0  0  0999 V2000
    3.9807   -0.2388   -0.3213 O   0  0  0  0  0  0  0  0  0  0  0  0
    5.5948    1.1704   -1.2641 O   0  0  0  0  0  0  0  0  0  0  0  0
   -3.2933    2.0375    0.9889 O   0  0  0  0  0  0  0  0  0  0  0  0
   -5.6421    0.3363    2.2074 O   0  0  0  0  0  0  0  0  0  0  0  0
   -2.4556   -0.8274   -2.4662 O   0  0  0  0  0  0  0  0  0  0  0  0
   -7.9762   -0.4806    0.7607 O   0  0  0  0  0  0  0  0  0  0  0  0
   -4.9411   -0.0364   -1.2898 N   0  0  0  0  0  0  0  0  0  0  0  0
   -3.6372    0.4549   -0.8166 C   0  0  1  0  0  0  0  0  0  0  0  0
    5.2669    0.3609   -0.1106 C   0  0  2  0  0  0  0  0  0  0  0  0
   -3.8127    0.7546    0.6754 C   0  0  2  0  0  0  0  0  0  0  0  0
   -5.7569   -0.3371   -0.1116 C   0  0  1  0  0  0  0  0  0  0  0  0
   -5.3197    0.7249    0.8830 C   0  0  1  0  0  0  0  0  0  0  0  0
    3.5782   -1.1936    0.6649 C   0  0  2  0  0  0  0  0  0  0  0  0
   -2.5288   -0.5631   -1.0680 C   0  0  2  0  0  0  0  0  0  0  0  0
    6.3454   -0.7172    0.0174 C   0  0  0  0  0  0  0  0  0  0  0  0
    4.6026   -2.3209    0.7909 C   0  0  0  0  0  0  0  0  0  0  0  0
    5.2458    1.3565    1.0507 C   0  0  0  0  0  0  0  0  0  0  0  0
    5.9895   -1.7565    1.0702 C   0  0  0  0  0  0  0  0  0  0  0  0
    2.2193   -1.7395    0.2433 C   0  0  0  0  0  0  0  0  0  0  0  0
   -1.1738   -0.0379   -0.5845 C   0  0  0  0  0  0  0  0  0  0  0  0
    1.1962   -0.6178    0.0769 C   0  0  0  0  0  0  0  0  0  0  0  0
   -0.1575   -1.1666   -0.3781 C   0  0  0  0  0  0  0  0  0  0  0  0
    4.6419    2.5756    0.3945 C   0  0  0  0  0  0  0  0  0  0  0  0
    5.2751    2.5400   -0.9791 C   0  0  0  0  0  0  0  0  0  0  0  0
   -7.2415   -0.2780   -0.4345 C   0  0  0  0  0  0  0  0  0  0  0  0
   -3.4136    1.3662   -1.3857 H   0  0  0  0  0  0  0  0  0  0  0  0
   -3.3193    0.0198    1.3221 H   0  0  0  0  0  0  0  0  0  0  0  0
   -5.5163   -1.3359    0.2784 H   0  0  0  0  0  0  0  0  0  0  0  0
   -5.7784    1.7022    0.6901 H   0  0  0  0  0  0  0  0  0  0  0  0
    3.4625   -0.6903    1.6311 H   0  0  0  0  0  0  0  0  0  0  0  0
   -2.7739   -1.5065   -0.5634 H   0  0  0  0  0  0  0  0  0  0  0  0
    6.4577   -1.2242   -0.9507 H   0  0  0  0  0  0  0  0  0  0  0  0
    7.3223   -0.2685    0.2333 H   0  0  0  0  0  0  0  0  0  0  0  0
   -4.8446   -0.8575   -1.8844 H   0  0  0  0  0  0  0  0  0  0  0  0
    4.3132   -3.0172    1.5859 H   0  0  0  0  0  0  0  0  0  0  0  0
    4.6437   -2.8914   -0.1459 H   0  0  0  0  0  0  0  0  0  0  0  0
    4.6731    1.0416    1.9248 H   0  0  0  0  0  0  0  0  0  0  0  0
    6.2657    1.5970    1.3753 H   0  0  0  0  0  0  0  0  0  0  0  0
    6.7299   -2.5639    1.0652 H   0  0  0  0  0  0  0  0  0  0  0  0
    6.0134   -1.3034    2.0682 H   0  0  0  0  0  0  0  0  0  0  0  0
    1.8614   -2.4664    0.9822 H   0  0  0  0  0  0  0  0  0  0  0  0
    2.3161   -2.2659   -0.7151 H   0  0  0  0  0  0  0  0  0  0  0  0
   -0.7737    0.6749   -1.3166 H   0  0  0  0  0  0  0  0  0  0  0  0
   -1.2618    0.4926    0.3682 H   0  0  0  0  0  0  0  0  0  0  0  0
    1.5465    0.1126   -0.6620 H   0  0  0  0  0  0  0  0  0  0  0  0
    1.0769   -0.0836    1.0273 H   0  0  0  0  0  0  0  0  0  0  0  0
   -0.0263   -1.7248   -1.3123 H   0  0  0  0  0  0  0  0  0  0  0  0
   -0.5380   -1.8721    0.3704 H   0  0  0  0  0  0  0  0  0  0  0  0
    3.5549    2.4584    0.3114 H   0  0  0  0  0  0  0  0  0  0  0  0
    4.8422    3.5073    0.9302 H   0  0  0  0  0  0  0  0  0  0  0  0
    4.6114    2.9320   -1.7550 H   0  0  0  0  0  0  0  0  0  0  0  0
    6.2100    3.1097   -1.0003 H   0  0  0  0  0  0  0  0  0  0  0  0
   -7.5238    0.6945   -0.8531 H   0  0  0  0  0  0  0  0  0  0  0  0
   -7.5155   -1.0586   -1.1521 H   0  0  0  0  0  0  0  0  0  0  0  0
   -3.7424    2.6944    0.4302 H   0  0  0  0  0  0  0  0  0  0  0  0
   -5.2426   -0.5331    2.3798 H   0  0  0  0  0  0  0  0  0  0  0  0
   -1.8123   -1.5432   -2.6011 H   0  0  0  0  0  0  0  0  0  0  0  0
   -8.9193   -0.4418    0.5271 H   0  0  0  0  0  0  0  0  0  0  0  0
  1  9  1  0  0  0  0
  1 13  1  0  0  0  0
  2  9  1  0  0  0  0
  2 24  1  0  0  0  0
  3 10  1  0  0  0  0
  3 55  1  0  0  0  0
  4 12  1  0  0  0  0
  4 56  1  0  0  0  0
  5 14  1  0  0  0  0
  5 57  1  0  0  0  0
  6 25  1  0  0  0  0
  6 58  1  0  0  0  0
  7  8  1  0  0  0  0
  7 11  1  0  0  0  0
  7 34  1  0  0  0  0
  8 10  1  0  0  0  0
  8 14  1  0  0  0  0
  8 26  1  0  0  0  0
  9 15  1  0  0  0  0
  9 17  1  0  0  0  0
 10 12  1  0  0  0  0
 10 27  1  0  0  0  0
 11 12  1  0  0  0  0
 11 25  1  0  0  0  0
 11 28  1  0  0  0  0
 12 29  1  0  0  0  0
 13 16  1  0  0  0  0
 13 19  1  0  0  0  0
 13 30  1  0  0  0  0
 14 20  1  0  0  0  0
 14 31  1  0  0  0  0
 15 18  1  0  0  0  0
 15 32  1  0  0  0  0
 15 33  1  0  0  0  0
 16 18  1  0  0  0  0
 16 35  1  0  0  0  0
 16 36  1  0  0  0  0
 17 23  1  0  0  0  0
 17 37  1  0  0  0  0
 17 38  1  0  0  0  0
 18 39  1  0  0  0  0
 18 40  1  0  0  0  0
 19 21  1  0  0  0  0
 19 41  1  0  0  0  0
 19 42  1  0  0  0  0
 20 22  1  0  0  0  0
 20 43  1  0  0  0  0
 20 44  1  0  0  0  0
 21 22  1  0  0  0  0
 21 45  1  0  0  0  0
 21 46  1  0  0  0  0
 22 47  1  0  0  0  0
 22 48  1  0  0  0  0
 23 24  1  0  0  0  0
 23 49  1  0  0  0  0
 23 50  1  0  0  0  0
 24 51  1  0  0  0  0
 24 52  1  0  0  0  0
 25 53  1  0  0  0  0
 25 54  1  0  0  0  0
M  END
> <PUBCHEM_COMPOUND_CID>
10338519

> <PUBCHEM_CONFORMER_RMSD>
1.4

> <PUBCHEM_CONFORMER_DIVERSEORDER>
1
57
51
2
32
100
46
33
24
18
90
14
50
81
34
27
62
78
4
39
40
11
92
85
72
61
95
16
64
25
13
29
26
52
12
94
6
22
38
53
48
35
96
97
10
5
49
63
15
41
21
68
77
9
3
19
23
17
86
79
56
70
28
30
44
8
31
93
59
43
37
7
82
47
89
75
69
65
80
54
83
66
87
84
99
42
71
74
91
76
60
20
36
45
88
55
58
73
98
67

> <PUBCHEM_MMFF94_PARTIAL_CHARGES>
21
1 -0.56
10 0.28
11 0.27
12 0.28
13 0.28
14 0.28
2 -0.56
24 0.28
25 0.28
3 -0.68
34 0.36
4 -0.68
5 -0.68
55 0.4
56 0.4
57 0.4
58 0.4
6 -0.68
7 -0.9
8 0.27
9 0.56

> <PUBCHEM_EFFECTIVE_ROTOR_COUNT>
9.8

> <PUBCHEM_PHARMACOPHORE_FEATURES>
16
1 1 acceptor
1 2 acceptor
1 3 acceptor
1 3 donor
1 4 acceptor
1 4 donor
1 5 acceptor
1 5 donor
1 6 acceptor
1 6 donor
1 7 cation
1 7 donor
4 19 20 21 22 hydrophobe
5 2 9 17 23 24 rings
5 7 8 10 11 12 rings
6 1 9 13 15 16 18 rings

> <PUBCHEM_HEAVY_ATOM_COUNT>
25

> <PUBCHEM_ATOM_DEF_STEREO_COUNT>
4

> <PUBCHEM_ATOM_UDEF_STEREO_COUNT>
3

> <PUBCHEM_BOND_DEF_STEREO_COUNT>
0

> <PUBCHEM_BOND_UDEF_STEREO_COUNT>
0

> <PUBCHEM_ISOTOPIC_ATOM_COUNT>
0

> <PUBCHEM_COMPONENT_COUNT>
1

> <PUBCHEM_CACTVS_TAUTO_COUNT>
1

> <PUBCHEM_CONFORMER_ID>
009DC0D700000001

> <PUBCHEM_MMFF94_ENERGY>
49.5421

> <PUBCHEM_FEATURE_SELFOVERLAP>
81.259

> <PUBCHEM_SHAPE_FINGERPRINT>
10 15 17095524028141881924
10162869 55 18336813269446687214
10638233 991 18272650164400666081
11101153 10 18409729560802380005
11135609 127 11743250945300492482
11719270 70 12829482645253921705
12516196 113 17240201028368764311
12596602 18 18334295349322208067
12616971 3 18342164554058213430
12730499 353 17894631436069818170
13533116 47 18261390014750451018
13955234 65 18188198815856307242
14251764 75 17973167507248422892
14429380 56 18334282189363026341
14464042 87 18131635573788596216
14840074 17 18341334461128266093
15183329 4 16056886848483850992
15348495 7 17822014228666366050
15419008 47 16950278494725978540
15685185 35 18049448342496904916
15716309 27 18334293159131908495
17844677 252 18188206494587204612
18222031 100 13840271355722835174
20281389 69 18272647943907692865
20567600 234 17531249495218329076
21033648 29 17095788959057530326
21315759 40 17988918951016982319
22079108 93 17967810561246786946
22224240 67 18113336419200635651
23081809 10 18131343120458524551
23198884 109 11239996759695361807
23522609 53 17987538003463055345
23559900 14 13262979433021930799
3178227 256 18040711434508534378
34797466 226 15697714908809423440
3610482 184 18130226085363967078
397830 11 17386297604626797371
5104073 3 18261666078110801090
54446538 1 18341891866336527376
57359948 33 14405188383107142984
5912855 24 18339917246280069335
8988823 20 10303812090825061194

> <PUBCHEM_SHAPE_MULTIPOLES>
474.29
22.39
2.19
1.44
16.56
0.78
0.14
1.85
-3.71
-5.14
-0.3
1.46
0.12
-1.7

> <PUBCHEM_SHAPE_SELFOVERLAP>
966.737

> <PUBCHEM_SHAPE_VOLUME>
276.5

> <PUBCHEM_COORDINATE_TYPE>
2
5
10

$$$$
