REMARK  Name = 10339712
REMARK  6 active torsions:
REMARK  status: ('A' for Active; 'I' for Inactive)
REMARK    1  A    between atoms: C_14  and  C_21
REMARK    2  A    between atoms: C_15  and  O_17
REMARK    3  A    between atoms: C_16  and  O_19
REMARK    4  A    between atoms: C_22  and  C_23
REMARK    5  A    between atoms: C_26  and  O_29
REMARK    6  A    between atoms: C_28  and  O_31
REMARK                            x       y       z     vdW  Elec       q    Type
REMARK                         _______ _______ _______ _____ _____    ______ ____
ROOT
ATOM      1  O   UNL     1       2.325   2.322  -0.140  0.00  0.00    -0.421 OA
ATOM      2  O   UNL     1      -0.416  -0.793   0.098  0.00  0.00    -0.421 OA
ATOM      3  O   UNL     1       4.400   3.212  -0.220  0.00  0.00    -0.244 OA
ATOM      4  O   UNL     1       1.197  -2.350   0.179  0.00  0.00    -0.244 OA
ATOM      5  C   UNL     1       3.399  -0.268   0.013  0.00  0.00    +0.019 A 
ATOM      6  C   UNL     1       1.933  -0.071   0.020  0.00  0.00    +0.111 A 
ATOM      7  C   UNL     1       4.239   0.856  -0.068  0.00  0.00    +0.080 A 
ATOM      8  C   UNL     1       1.492   1.196  -0.056  0.00  0.00    +0.158 A 
ATOM      9  C   UNL     1       4.017  -1.528   0.083  0.00  0.00    +0.040 C 
ATOM     10  C   UNL     1       5.637   0.722  -0.077  0.00  0.00    +0.046 C 
ATOM     11  C   UNL     1       0.097   1.535  -0.060  0.00  0.00    +0.075 C 
ATOM     12  C   UNL     1       3.682   2.224  -0.148  0.00  0.00    +0.346 A 
ATOM     13  C   UNL     1       0.907  -1.162   0.105  0.00  0.00    +0.349 C 
ATOM     14  C   UNL     1      -0.806   0.556   0.015  0.00  0.00    +0.152 C 
ATOM     15  C   UNL     1       5.410  -1.662   0.074  0.00  0.00    +0.167 C 
ATOM     16  C   UNL     1       6.220  -0.538  -0.006  0.00  0.00    +0.168 C 
ENDROOT
BRANCH  15  17
ATOM     17  O   UNL     1       5.962  -2.906   0.144  0.00  0.00    -0.503 OA
ATOM     18  H   UNL     1       5.409  -3.661   0.198  0.00  0.00    +0.292 HD
ENDBRANCH  15  17
BRANCH  16  19
ATOM     19  O   UNL     1       7.576  -0.655  -0.016  0.00  0.00    -0.503 OA
ATOM     20  H   UNL     1       8.112   0.112  -0.071  0.00  0.00    +0.292 HD
ENDBRANCH  16  19
BRANCH  14  21
ATOM     21  C   UNL     1      -2.225   0.764   0.021  0.00  0.00    +0.038 C 
ATOM     22  C   UNL     1      -3.114  -0.240   0.084  0.00  0.00    +0.003 C 
BRANCH  22  23
ATOM     23  C   UNL     1      -4.578  -0.078   0.082  0.00  0.00    +0.003 C 
ATOM     24  C   UNL     1      -5.380  -1.153  -0.265  0.00  0.00    +0.040 C 
ATOM     25  C   UNL     1      -5.125   1.148   0.427  0.00  0.00    +0.003 C 
ATOM     26  C   UNL     1      -6.766  -0.999  -0.267  0.00  0.00    +0.167 C 
ATOM     27  C   UNL     1      -6.511   1.302   0.426  0.00  0.00    +0.040 C 
ATOM     28  C   UNL     1      -7.332   0.229   0.079  0.00  0.00    +0.167 C 
BRANCH  26  29
ATOM     29  O   UNL     1      -7.557  -2.054  -0.607  0.00  0.00    -0.503 OA
ATOM     30  H   UNL     1      -7.169  -2.875  -0.838  0.00  0.00    +0.292 HD
ENDBRANCH  26  29
BRANCH  28  31
ATOM     31  O   UNL     1      -8.684   0.392   0.081  0.00  0.00    -0.503 OA
ATOM     32  H   UNL     1      -9.243  -0.324  -0.150  0.00  0.00    +0.292 HD
ENDBRANCH  28  31
ENDBRANCH  22  23
ENDBRANCH  14  21
TORSDOF 6
