REMARK  Name = 10338814
REMARK  7 active torsions:
REMARK  status: ('A' for Active; 'I' for Inactive)
REMARK    1  A    between atoms: C_5  and  O_13
REMARK    2  A    between atoms: C_5  and  C_15
REMARK    3  A    between atoms: C_7  and  S_11
REMARK    4  A    between atoms: C_15  and  C_16
REMARK    5  A    between atoms: C_21  and  O_22
REMARK    6  A    between atoms: O_22  and  C_23
REMARK    7  A    between atoms: C_23  and  C_24
REMARK                            x       y       z     vdW  Elec       q    Type
REMARK                         _______ _______ _______ _____ _____    ______ ____
ROOT
ATOM      1  O   UNL     1       4.219  -2.347   0.496  0.00  0.00    -0.271 OA
ATOM      2  O   UNL     1       2.632   2.143  -1.988  0.00  0.00    -0.272 OA
ATOM      3  N   UNL     1       2.178   0.049  -1.174  0.00  0.00    -0.277 N 
ATOM      4  N   UNL     1       4.705  -0.266  -0.327  0.00  0.00    -0.287 N 
ATOM      5  C   UNL     1       2.359  -0.943  -0.130  0.00  0.00    +0.226 C 
ATOM      6  C   UNL     1       3.836  -1.275   0.026  0.00  0.00    +0.266 C 
ATOM      7  C   UNL     1       4.317   1.095  -0.636  0.00  0.00    +0.198 C 
ATOM      8  C   UNL     1       2.983   1.154  -1.345  0.00  0.00    +0.253 C 
ATOM      9  H   UNL     1       1.429  -0.076  -1.801  0.00  0.00    +0.152 HD
ATOM     10  H   UNL     1       5.664  -0.486  -0.372  0.00  0.00    +0.151 HD
ENDROOT
BRANCH   7  11
ATOM     11  S   UNL     1       4.322   2.169   0.812  0.00  0.00    -0.111 S 
ATOM     12  C   UNL     1       6.009   1.849   1.379  0.00  0.00    +0.071 C 
ENDBRANCH   7  11
BRANCH   5  13
ATOM     13  O   UNL     1       1.716  -2.136  -0.568  0.00  0.00    -0.331 OA
ATOM     14  C   UNL     1       2.242  -2.591  -1.808  0.00  0.00    +0.176 C 
ENDBRANCH   5  13
BRANCH   5  15
ATOM     15  C   UNL     1       1.729  -0.514   1.190  0.00  0.00    +0.082 C 
BRANCH  15  16
ATOM     16  C   UNL     1       0.269  -0.187   1.028  0.00  0.00    -0.017 C 
ATOM     17  C   UNL     1      -0.678  -1.189   1.193  0.00  0.00    -0.001 C 
ATOM     18  C   UNL     1      -0.112   1.111   0.715  0.00  0.00    -0.001 C 
ATOM     19  C   UNL     1      -2.031  -0.887   1.043  0.00  0.00    +0.037 C 
ATOM     20  C   UNL     1      -1.465   1.413   0.565  0.00  0.00    +0.037 C 
ATOM     21  C   UNL     1      -2.425   0.414   0.729  0.00  0.00    +0.139 C 
BRANCH  21  22
ATOM     22  O   UNL     1      -3.745   0.710   0.583  0.00  0.00    -0.471 OA
BRANCH  22  23
ATOM     23  C   UNL     1      -4.596  -0.334   0.112  0.00  0.00    +0.231 C 
BRANCH  23  24
ATOM     24  C   UNL     1      -5.718   0.257  -0.682  0.00  0.00    +0.012 C 
ATOM     25  C   UNL     1      -7.042   0.136  -0.470  0.00  0.00    -0.044 C 
ATOM     26  C   UNL     1      -7.678  -0.640   0.648  0.00  0.00    +0.026 C 
ATOM     27  C   UNL     1      -8.025   0.808  -1.392  0.00  0.00    +0.026 C 
ENDBRANCH  23  24
ENDBRANCH  22  23
ENDBRANCH  21  22
ENDBRANCH  15  16
ENDBRANCH   5  15
TORSDOF 7
