REMARK  Name = 10337795
REMARK  7 active torsions:
REMARK  status: ('A' for Active; 'I' for Inactive)
REMARK    1  A    between atoms: N_1  and  C_11
REMARK    2  A    between atoms: C_5  and  C_24
REMARK    3  A    between atoms: C_12  and  O_16
REMARK    4  A    between atoms: C_13  and  O_18
REMARK    5  A    between atoms: C_15  and  C_21
REMARK    6  A    between atoms: C_21  and  O_22
REMARK    7  A    between atoms: C_24  and  C_27
REMARK                            x       y       z     vdW  Elec       q    Type
REMARK                         _______ _______ _______ _____ _____    ______ ____
ROOT
ATOM      1  N   UNL     1      -0.438  -0.017  -0.120  0.00  0.00    -0.262 N 
ATOM      2  C   UNL     1      -1.179  -1.176  -0.113  0.00  0.00    +0.053 C 
ATOM      3  C   UNL     1      -1.219   1.043  -0.492  0.00  0.00    +0.063 C 
ATOM      4  C   UNL     1      -2.478  -0.834  -0.496  0.00  0.00    +0.011 C 
ATOM      5  C   UNL     1      -2.488   0.569  -0.732  0.00  0.00    +0.003 C 
ATOM      6  C   UNL     1      -0.804  -2.487   0.199  0.00  0.00    +0.015 C 
ATOM      7  C   UNL     1      -3.452  -1.849  -0.572  0.00  0.00    +0.001 C 
ATOM      8  C   UNL     1      -1.787  -3.478   0.116  0.00  0.00    +0.001 C 
ATOM      9  C   UNL     1      -3.091  -3.166  -0.263  0.00  0.00    +0.000 C 
ENDROOT
BRANCH   1  11
ATOM     10  O   UNL     1       1.538   1.121  -0.598  0.00  0.00    -0.326 OA
ATOM     11  C   UNL     1       0.989   0.086   0.222  0.00  0.00    +0.226 C 
ATOM     12  C   UNL     1       1.215   0.383   1.711  0.00  0.00    +0.184 C 
ATOM     13  C   UNL     1       2.707   0.557   1.998  0.00  0.00    +0.144 C 
ATOM     14  C   UNL     1       3.320   1.581   1.046  0.00  0.00    +0.073 C 
ATOM     15  C   UNL     1       2.923   1.368  -0.417  0.00  0.00    +0.218 C 
BRANCH  12  16
ATOM     16  O   UNL     1       0.720  -0.674   2.526  0.00  0.00    -0.378 OA
ATOM     17  H   UNL     1      -0.227  -0.797   2.355  0.00  0.00    +0.211 HD
ENDBRANCH  12  16
BRANCH  13  18
ATOM     18  O   UNL     1       3.392  -0.685   1.841  0.00  0.00    -0.382 OA
ATOM     19  H   UNL     1       3.010  -1.343   2.442  0.00  0.00    +0.210 HD
ENDBRANCH  13  18
BRANCH  15  21
ATOM     20  O   UNL     1       3.236  -0.678  -1.651  0.00  0.00    -0.247 OA
ATOM     21  C   UNL     1       3.724   0.308  -1.116  0.00  0.00    +0.345 C 
BRANCH  21  22
ATOM     22  O   UNL     1       5.049   0.622  -1.053  0.00  0.00    -0.443 OA
ATOM     23  C   UNL     1       5.933  -0.311  -1.683  0.00  0.00    +0.256 C 
ENDBRANCH  21  22
ENDBRANCH  15  21
ENDBRANCH   1  11
BRANCH   5  24
ATOM     24  C   UNL     1      -3.647   1.380  -1.158  0.00  0.00    +0.112 C 
BRANCH  24  27
ATOM     25  O   UNL     1      -4.135   1.779   1.187  0.00  0.00    -0.275 OA
ATOM     26  N   UNL     1      -5.574   2.627  -0.391  0.00  0.00    -0.329 N 
ATOM     27  C   UNL     1      -4.453   1.931   0.011  0.00  0.00    +0.224 C 
ATOM     28  H   UNL     1      -6.171   3.028   0.281  0.00  0.00    +0.145 HD
ATOM     29  H   UNL     1      -5.777   2.722  -1.350  0.00  0.00    +0.145 HD
ENDBRANCH  24  27
ENDBRANCH   5  24
TORSDOF 7
