REMARK  Name = 10343777
REMARK  8 active torsions:
REMARK  status: ('A' for Active; 'I' for Inactive)
REMARK    1  A    between atoms: C_3  and  O_15
REMARK    2  A    between atoms: C_6  and  O_21
REMARK    3  A    between atoms: C_7  and  O_17
REMARK    4  A    between atoms: C_10  and  C_20
REMARK    5  A    between atoms: O_21  and  C_23
REMARK    6  A    between atoms: C_23  and  C_25
REMARK    7  A    between atoms: C_27  and  O_32
REMARK    8  A    between atoms: C_31  and  O_34
REMARK                            x       y       z     vdW  Elec       q    Type
REMARK                         _______ _______ _______ _____ _____    ______ ____
ROOT
ATOM      1  C   UNL     1      -2.281   0.828   0.919  0.00  0.00    +0.036 C 
ATOM      2  C   UNL     1      -3.334  -0.268   0.891  0.00  0.00    +0.034 C 
ATOM      3  C   UNL     1      -1.433   1.068  -0.362  0.00  0.00    +0.146 C 
ATOM      4  C   UNL     1      -2.983  -1.467  -0.014  0.00  0.00    +0.024 C 
ATOM      5  C   UNL     1      -0.955   0.510   1.662  0.00  0.00    +0.049 C 
ATOM      6  C   UNL     1      -0.229   1.333   0.581  0.00  0.00    +0.197 C 
ATOM      7  C   UNL     1      -4.701   0.220   0.387  0.00  0.00    +0.111 C 
ATOM      8  C   UNL     1      -5.438  -1.093   0.045  0.00  0.00    +0.025 C 
ATOM      9  C   UNL     1      -4.328  -1.924  -0.633  0.00  0.00    +0.007 C 
ATOM     10  C   UNL     1      -1.270  -0.092  -1.272  0.00  0.00    +0.043 C 
ATOM     11  C   UNL     1      -2.759   2.214   1.423  0.00  0.00    +0.003 C 
ATOM     12  C   UNL     1      -1.966  -1.223  -1.100  0.00  0.00    -0.025 C 
ATOM     13  C   UNL     1      -5.942  -1.803   1.317  0.00  0.00    +0.002 C 
ATOM     14  C   UNL     1      -6.631  -0.894  -0.899  0.00  0.00    +0.002 C 
ENDROOT
BRANCH   3  15
ATOM     15  O   UNL     1      -1.798   2.248  -1.111  0.00  0.00    -0.379 OA
ATOM     16  H   UNL     1      -1.901   2.997  -0.503  0.00  0.00    +0.211 HD
ENDBRANCH   3  15
BRANCH   7  17
ATOM     17  O   UNL     1      -4.528   1.023  -0.778  0.00  0.00    -0.384 OA
ATOM     18  H   UNL     1      -4.063   1.841  -0.540  0.00  0.00    +0.210 HD
ENDBRANCH   7  17
BRANCH  10  20
ATOM     19  O   UNL     1       0.345   0.961  -2.635  0.00  0.00    -0.283 OA
ATOM     20  C   UNL     1      -0.333  -0.030  -2.397  0.00  0.00    +0.232 C 
ENDBRANCH  10  20
BRANCH   6  21
ATOM     21  O   UNL     1       1.062   0.820   0.160  0.00  0.00    -0.446 OA
BRANCH  21  23
ATOM     22  O   UNL     1       1.963   1.358   2.209  0.00  0.00    -0.245 OA
ATOM     23  C   UNL     1       2.057   0.900   1.080  0.00  0.00    +0.344 C 
BRANCH  23  25
ATOM     24 CL   UNL     1       5.173  -3.192   0.353  0.00  0.00    -0.079 Cl
ATOM     25  C   UNL     1       3.318   0.343   0.529  0.00  0.00    +0.106 C 
ATOM     26  C   UNL     1       3.598  -1.001   0.692  0.00  0.00    +0.001 C 
ATOM     27  C   UNL     1       4.182   1.192  -0.138  0.00  0.00    +0.143 C 
ATOM     28  C   UNL     1       4.786  -1.514   0.169  0.00  0.00    +0.088 C 
ATOM     29  C   UNL     1       5.369   0.679  -0.660  0.00  0.00    +0.074 C 
ATOM     30  C   UNL     1       2.638  -1.891   1.420  0.00  0.00    +0.032 C 
ATOM     31  C   UNL     1       5.671  -0.674  -0.507  0.00  0.00    +0.147 C 
BRANCH  27  32
ATOM     32  O   UNL     1       3.907   2.517  -0.300  0.00  0.00    -0.505 OA
ATOM     33  H   UNL     1       3.114   2.877   0.045  0.00  0.00    +0.292 HD
ENDBRANCH  27  32
BRANCH  31  34
ATOM     34  O   UNL     1       6.839  -1.145  -1.029  0.00  0.00    -0.505 OA
ATOM     35  H   UNL     1       7.062  -2.050  -0.938  0.00  0.00    +0.292 HD
ENDBRANCH  31  34
ENDBRANCH  23  25
ENDBRANCH  21  23
ENDBRANCH   6  21
TORSDOF 8
