REMARK  Name = 10345770
REMARK  8 active torsions:
REMARK  status: ('A' for Active; 'I' for Inactive)
REMARK    1  A    between atoms: C_3  and  C_15
REMARK    2  A    between atoms: C_8  and  C_29
REMARK    3  A    between atoms: N_14  and  C_17
REMARK    4  A    between atoms: C_17  and  C_20
REMARK    5  A    between atoms: C_29  and  N_30
REMARK    6  A    between atoms: C_29  and  C_34
REMARK    7  A    between atoms: C_34  and  C_35
REMARK    8  A    between atoms: C_42  and  O_43
REMARK                            x       y       z     vdW  Elec       q    Type
REMARK                         _______ _______ _______ _____ _____    ______ ____
ROOT
ATOM      1  O   UNL     1      -1.723  -0.423  -3.174  0.00  0.00    -0.277 OA
ATOM      2  N   UNL     1      -1.623  -1.296  -1.017  0.00  0.00    -0.270 N 
ATOM      3  C   UNL     1      -1.003  -1.333   0.322  0.00  0.00    +0.156 C 
ATOM      4  C   UNL     1      -1.921  -1.839   1.452  0.00  0.00    +0.055 C 
ATOM      5  C   UNL     1      -2.812  -2.132  -1.216  0.00  0.00    +0.120 C 
ATOM      6  C   UNL     1      -3.387  -1.659   1.162  0.00  0.00    -0.022 C 
ATOM      7  C   UNL     1      -3.835  -1.828  -0.158  0.00  0.00    -0.006 C 
ATOM      8  C   UNL     1      -1.177  -0.486  -2.070  0.00  0.00    +0.206 C 
ATOM      9  C   UNL     1      -4.310  -1.406   2.181  0.00  0.00    -0.004 C 
ATOM     10  C   UNL     1      -5.199  -1.739  -0.450  0.00  0.00    -0.003 C 
ATOM     11  C   UNL     1      -5.669  -1.305   1.882  0.00  0.00    -0.000 C 
ATOM     12  C   UNL     1      -6.112  -1.472   0.570  0.00  0.00    -0.000 C 
ENDROOT
BRANCH   3  15
ATOM     13  O   UNL     1       0.161  -3.233  -0.538  0.00  0.00    -0.273 OA
ATOM     14  N   UNL     1       1.216  -1.883   1.038  0.00  0.00    -0.300 N 
ATOM     15  C   UNL     1       0.174  -2.257   0.207  0.00  0.00    +0.241 C 
ATOM     16  H   UNL     1       1.108  -1.076   1.591  0.00  0.00    +0.150 HD
BRANCH  14  17
ATOM     17  C   UNL     1       2.455  -2.620   1.132  0.00  0.00    +0.130 C 
BRANCH  17  20
ATOM     18  N   UNL     1       4.228  -0.999   1.738  0.00  0.00    -0.317 N 
ATOM     19  N   UNL     1       4.094  -1.547  -0.411  0.00  0.00    -0.317 N 
ATOM     20  C   UNL     1       3.601  -1.722   0.779  0.00  0.00    +0.164 C 
ATOM     21  C   UNL     1       5.220  -0.285   1.117  0.00  0.00    +0.059 C 
ATOM     22  C   UNL     1       5.116  -0.644  -0.224  0.00  0.00    +0.059 C 
ATOM     23  C   UNL     1       6.170   0.616   1.598  0.00  0.00    +0.016 C 
ATOM     24  C   UNL     1       6.005  -0.081  -1.155  0.00  0.00    +0.016 C 
ATOM     25  C   UNL     1       7.047   1.167   0.658  0.00  0.00    +0.001 C 
ATOM     26  C   UNL     1       6.968   0.827  -0.695  0.00  0.00    +0.001 C 
ATOM     27  H   UNL     1       4.011  -0.988   2.699  0.00  0.00    +0.148 HD
ATOM     28  H   UNL     1       3.803  -1.964  -1.254  0.00  0.00    +0.148 HD
ENDBRANCH  17  20
ENDBRANCH  14  17
ENDBRANCH   3  15
BRANCH   8  29
ATOM     29  C   UNL     1       0.044   0.361  -1.805  0.00  0.00    +0.017 C 
BRANCH  29  30
ATOM     30  N   UNL     1       1.055  -0.119  -2.737  0.00  0.00    +0.388 N 
ATOM     31  H   UNL     1       1.234  -1.109  -2.565  0.00  0.00    -0.089 HD
ATOM     32  H   UNL     1       1.917   0.410  -2.606  0.00  0.00    -0.089 HD
ATOM     33  H   UNL     1       0.722   0.004  -3.693  0.00  0.00    -0.089 HD
ENDBRANCH  29  30
BRANCH  29  34
ATOM     34  C   UNL     1      -0.254   1.842  -2.029  0.00  0.00    +0.013 C 
BRANCH  34  35
ATOM     35  C   UNL     1      -0.966   2.478  -0.858  0.00  0.00    -0.031 C 
ATOM     36  C   UNL     1      -0.224   3.055   0.162  0.00  0.00    -0.023 C 
ATOM     37  C   UNL     1      -2.353   2.476  -0.821  0.00  0.00    -0.023 C 
ATOM     38  C   UNL     1      -0.882   3.640   1.243  0.00  0.00    +0.032 C 
ATOM     39  C   UNL     1      -3.012   3.063   0.259  0.00  0.00    +0.032 C 
ATOM     40  C   UNL     1       1.270   3.064   0.134  0.00  0.00    +0.031 C 
ATOM     41  C   UNL     1      -3.164   1.858  -1.912  0.00  0.00    +0.031 C 
ATOM     42  C   UNL     1      -2.276   3.645   1.292  0.00  0.00    +0.133 C 
BRANCH  42  43
ATOM     43  O   UNL     1      -2.920   4.217   2.346  0.00  0.00    -0.506 OA
ATOM     44  H   UNL     1      -2.426   4.608   3.040  0.00  0.00    +0.292 HD
ENDBRANCH  42  43
ENDBRANCH  34  35
ENDBRANCH  29  34
ENDBRANCH   8  29
TORSDOF 8
