10341154
  -OEChem-03292013303D

 41 43  0     0  0  0  0  0  0999 V2000
   -2.7675   -0.2759    2.2435 F   0  0  0  0  0  0  0  0  0  0  0  0
    3.2512   -0.3208    2.3533 F   0  0  0  0  0  0  0  0  0  0  0  0
    3.3472   -0.1913   -2.3948 F   0  0  0  0  0  0  0  0  0  0  0  0
   -6.4228   -1.9386   -0.2547 F   0  0  0  0  0  0  0  0  0  0  0  0
    0.7987   -2.8818   -0.1207 O   0  0  0  0  0  0  0  0  0  0  0  0
   -2.8372    3.1242    1.0188 O   0  0  0  0  0  0  0  0  0  0  0  0
    1.9815   -0.8179   -0.0627 N   0  0  0  0  0  0  0  0  0  0  0  0
   -0.3559   -0.4595   -0.0987 N   0  0  0  0  0  0  0  0  0  0  0  0
    3.0700   -2.9208   -0.0975 N   0  0  0  0  0  0  0  0  0  0  0  0
   -2.8061    3.1795   -1.2735 N   0  0  0  0  0  0  0  0  0  0  0  0
   -1.3762    0.4273   -0.0939 C   0  0  0  0  0  0  0  0  0  0  0  0
    0.8915    0.0607   -0.0610 C   0  0  0  0  0  0  0  0  0  0  0  0
   -1.2095    1.8019   -0.0532 C   0  0  0  0  0  0  0  0  0  0  0  0
   -2.6858   -0.1863   -0.1318 C   0  0  0  0  0  0  0  0  0  0  0  0
    3.3267   -0.2443   -0.0198 C   0  0  0  0  0  0  0  0  0  0  0  0
    1.1646    1.4185   -0.0187 C   0  0  0  0  0  0  0  0  0  0  0  0
    0.0885    2.2991   -0.0151 C   0  0  0  0  0  0  0  0  0  0  0  0
   -3.3399   -0.5175    1.0549 C   0  0  0  0  0  0  0  0  0  0  0  0
   -3.2941   -0.4469   -1.3597 C   0  0  0  0  0  0  0  0  0  0  0  0
    3.8811   -0.0301    1.2059 C   0  0  0  0  0  0  0  0  0  0  0  0
    3.9301    0.0352   -1.2086 C   0  0  0  0  0  0  0  0  0  0  0  0
    1.8587   -2.2493   -0.1039 C   0  0  0  0  0  0  0  0  0  0  0  0
   -2.3310    2.7309   -0.0455 C   0  0  0  0  0  0  0  0  0  0  0  0
   -4.6024   -1.1093    1.0136 C   0  0  0  0  0  0  0  0  0  0  0  0
   -4.5566   -1.0386   -1.4009 C   0  0  0  0  0  0  0  0  0  0  0  0
    5.1637    0.5166    1.2468 C   0  0  0  0  0  0  0  0  0  0  0  0
    5.2127    0.5821   -1.1677 C   0  0  0  0  0  0  0  0  0  0  0  0
   -5.2107   -1.3699   -0.2142 C   0  0  0  0  0  0  0  0  0  0  0  0
    5.8296    0.8227    0.0601 C   0  0  0  0  0  0  0  0  0  0  0  0
    2.1498    1.8664    0.0126 H   0  0  0  0  0  0  0  0  0  0  0  0
    0.2728    3.3698    0.0187 H   0  0  0  0  0  0  0  0  0  0  0  0
   -2.7976   -0.1953   -2.2939 H   0  0  0  0  0  0  0  0  0  0  0  0
   -5.1114   -1.3676    1.9373 H   0  0  0  0  0  0  0  0  0  0  0  0
   -5.0306   -1.2417   -2.3567 H   0  0  0  0  0  0  0  0  0  0  0  0
    5.6437    0.7038    2.2027 H   0  0  0  0  0  0  0  0  0  0  0  0
    5.7309    0.8205   -2.0919 H   0  0  0  0  0  0  0  0  0  0  0  0
    6.8281    1.2485    0.0919 H   0  0  0  0  0  0  0  0  0  0  0  0
    3.0816   -3.9357   -0.1143 H   0  0  0  0  0  0  0  0  0  0  0  0
    3.9817   -2.4807   -0.0872 H   0  0  0  0  0  0  0  0  0  0  0  0
   -3.5815    3.8315   -1.3264 H   0  0  0  0  0  0  0  0  0  0  0  0
   -2.4014    2.8732   -2.1526 H   0  0  0  0  0  0  0  0  0  0  0  0
  1 18  1  0  0  0  0
  2 20  1  0  0  0  0
  3 21  1  0  0  0  0
  4 28  1  0  0  0  0
  5 22  2  0  0  0  0
  6 23  2  0  0  0  0
  7 12  1  0  0  0  0
  7 15  1  0  0  0  0
  7 22  1  0  0  0  0
  8 11  1  0  0  0  0
  8 12  2  0  0  0  0
  9 22  1  0  0  0  0
  9 38  1  0  0  0  0
  9 39  1  0  0  0  0
 10 23  1  0  0  0  0
 10 40  1  0  0  0  0
 10 41  1  0  0  0  0
 11 13  2  0  0  0  0
 11 14  1  0  0  0  0
 12 16  1  0  0  0  0
 13 17  1  0  0  0  0
 13 23  1  0  0  0  0
 14 18  2  0  0  0  0
 14 19  1  0  0  0  0
 15 20  2  0  0  0  0
 15 21  1  0  0  0  0
 16 17  2  0  0  0  0
 16 30  1  0  0  0  0
 17 31  1  0  0  0  0
 18 24  1  0  0  0  0
 19 25  2  0  0  0  0
 19 32  1  0  0  0  0
 20 26  1  0  0  0  0
 21 27  2  0  0  0  0
 24 28  2  0  0  0  0
 24 33  1  0  0  0  0
 25 28  1  0  0  0  0
 25 34  1  0  0  0  0
 26 29  2  0  0  0  0
 26 35  1  0  0  0  0
 27 29  1  0  0  0  0
 27 36  1  0  0  0  0
 29 37  1  0  0  0  0
M  END
> <PUBCHEM_COMPOUND_CID>
10341154

> <PUBCHEM_CONFORMER_RMSD>
0.8

> <PUBCHEM_CONFORMER_DIVERSEORDER>
1
56
44
60
38
58
43
28
57
37
55
52
50
39
47
62
46
26
45
61
63
59
36
54
21
30
48
41
13
35
18
49
4
53
25
40
29
7
51
27
14
42
9
32
34
10
12
3
6
8
31
33
16
11
22
19
5
23
17
2
24
20
15

> <PUBCHEM_MMFF94_PARTIAL_CHARGES>
40
1 -0.19
10 -0.8
11 0.31
12 0.43
13 0.09
15 0.12
16 -0.15
17 -0.15
18 0.19
19 -0.15
2 -0.19
20 0.19
21 0.19
22 0.69
23 0.54
24 -0.15
25 -0.15
26 -0.15
27 -0.15
28 0.19
29 -0.15
3 -0.19
30 0.15
31 0.15
32 0.15
33 0.15
34 0.15
35 0.15
36 0.15
37 0.15
38 0.37
39 0.37
4 -0.19
40 0.37
41 0.37
5 -0.57
6 -0.57
7 -0.29
8 -0.62
9 -0.8

> <PUBCHEM_EFFECTIVE_ROTOR_COUNT>
5

> <PUBCHEM_PHARMACOPHORE_FEATURES>
7
1 10 donor
1 5 acceptor
1 6 acceptor
1 9 donor
6 14 18 19 24 25 28 rings
6 15 20 21 26 27 29 rings
6 8 11 12 13 16 17 rings

> <PUBCHEM_HEAVY_ATOM_COUNT>
29

> <PUBCHEM_ATOM_DEF_STEREO_COUNT>
0

> <PUBCHEM_ATOM_UDEF_STEREO_COUNT>
0

> <PUBCHEM_BOND_DEF_STEREO_COUNT>
0

> <PUBCHEM_BOND_UDEF_STEREO_COUNT>
0

> <PUBCHEM_ISOTOPIC_ATOM_COUNT>
0

> <PUBCHEM_COMPONENT_COUNT>
1

> <PUBCHEM_CACTVS_TAUTO_COUNT>
4

> <PUBCHEM_CONFORMER_ID>
009DCB2200000001

> <PUBCHEM_MMFF94_ENERGY>
120.8487

> <PUBCHEM_FEATURE_SELFOVERLAP>
35.522

> <PUBCHEM_SHAPE_FINGERPRINT>
10366900 7 18410294739320893914
10498660 4 18341329981894191732
10670039 82 18334870389930373276
10906281 52 18188505617816681937
1100329 8 18195525028565308198
11405975 8 18122906426152202674
11578080 2 17631709640067543169
11963148 33 18335694005059485106
12107183 9 15406997260956548490
12166972 35 17749105604434289412
12236239 1 17632303397420243299
12516196 113 18342458188097667343
12553582 1 18411421743377306927
12788726 201 18333444331638388849
13140716 1 18123185972414381650
13224815 77 18335988566979510800
13544653 18 18335423456657637175
13782708 43 17917439692307131950
13911987 19 18115599277721346951
14178342 30 18267296543606246072
14840074 17 18202283640995290671
15537594 2 18273212032302196495
17349148 13 17967534566769398988
17492 89 18266173929407881222
17980427 23 17894358760964152204
1813 80 18271818950921864173
18681886 176 18335421288353585844
20028762 73 18058166304993272942
20681651 13 17987521411850740803
20691752 17 17314239856360689882
21033648 29 17346586452888047000
21641784 216 18186813469026455309
22393880 68 18269561529233144606
23557571 272 18130793343285909484
23559900 14 17978783515920599962
23569914 152 17121128067628778925
23569914 2 15408047294534137594
249057 3 18340481292789522623
2747138 104 18339648956967943314
283562 15 18409729547837681433
329604 57 18040715904529934253
3633792 109 16588569938380692738
3737641 26 18059305265990309078
463206 1 18194677305738882391
469060 322 18410304613693722809
497634 4 17275110535129800321
5104073 3 18268423543282855106
5486654 2 18337956795730481574
6004065 56 18196082464524493963

> <PUBCHEM_SHAPE_MULTIPOLES>
536.05
12.49
2.86
1.52
0.59
1.01
0.16
-3.33
-0.33
-2.1
-0.18
0.45
-0.02
-0.01

> <PUBCHEM_SHAPE_SELFOVERLAP>
1191.603

> <PUBCHEM_SHAPE_VOLUME>
284.8

> <PUBCHEM_COORDINATE_TYPE>
2
5
10

$$$$
