REMARK  Name = 10345757
REMARK  7 active torsions:
REMARK  status: ('A' for Active; 'I' for Inactive)
REMARK    1  A    between atoms: N_1  and  C_13
REMARK    2  A    between atoms: C_11  and  O_15
REMARK    3  A    between atoms: C_12  and  O_17
REMARK    4  A    between atoms: C_14  and  C_19
REMARK    5  A    between atoms: C_19  and  O_20
REMARK    6  A    between atoms: N_22  and  C_24
REMARK    7  A    between atoms: C_24  and  C_26
REMARK                            x       y       z     vdW  Elec       q    Type
REMARK                         _______ _______ _______ _____ _____    ______ ____
ROOT
ATOM      1  N   UNL     1       1.907  -0.467   0.230  0.00  0.00    -0.247 N 
ATOM      2  N   UNL     1       0.055   0.764   0.048  0.00  0.00    -0.242 NA
ATOM      3  N   UNL     1       0.919  -2.634   0.707  0.00  0.00    -0.228 NA
ATOM      4  N   UNL     1      -1.518  -2.505   0.769  0.00  0.00    -0.228 NA
ATOM      5  C   UNL     1       0.861  -1.321   0.442  0.00  0.00    +0.152 C 
ATOM      6  C   UNL     1       1.371   0.773  -0.002  0.00  0.00    +0.223 C 
ATOM      7  C   UNL     1      -0.277  -0.538   0.324  0.00  0.00    +0.140 C 
ATOM      8  C   UNL     1      -1.500  -1.178   0.498  0.00  0.00    +0.146 C 
ATOM      9  C   UNL     1      -0.324  -3.142   0.855  0.00  0.00    +0.253 C 
ATOM     10  N   UNL     1      -2.705  -0.462   0.394  0.00  0.00    -0.313 N 
ATOM     11  H   UNL     1      -2.663   0.502   0.196  0.00  0.00    +0.149 HD
ENDROOT
BRANCH   1  15
ATOM     12  O   UNL     1       4.083   0.317   0.766  0.00  0.00    -0.333 OA
ATOM     13  C   UNL     1       3.899  -1.136  -1.135  0.00  0.00    +0.187 C 
ATOM     14  C   UNL     1       4.657   0.126  -1.503  0.00  0.00    +0.171 C 
ATOM     15  C   UNL     1       3.332  -0.801   0.246  0.00  0.00    +0.225 C 
ATOM     16  C   UNL     1       5.148   0.613  -0.151  0.00  0.00    +0.176 C 
BRANCH  13  17
ATOM     17  O   UNL     1       4.779  -2.253  -1.024  0.00  0.00    -0.378 OA
ATOM     18  H   UNL     1       5.141  -2.469  -1.898  0.00  0.00    +0.211 HD
ENDBRANCH  13  17
BRANCH  14  19
ATOM     19  O   UNL     1       5.719  -0.099  -2.405  0.00  0.00    -0.379 OA
ATOM     20  H   UNL     1       5.363  -0.408  -3.253  0.00  0.00    +0.211 HD
ENDBRANCH  14  19
BRANCH  16  21
ATOM     21  C   UNL     1       5.456   2.099  -0.119  0.00  0.00    +0.174 C 
BRANCH  21  22
ATOM     22  O   UNL     1       5.894   2.443   1.184  0.00  0.00    -0.348 OA
ATOM     23  C   UNL     1       6.201   3.829   1.287  0.00  0.00    +0.174 C 
ENDBRANCH  21  22
ENDBRANCH  16  21
ENDBRANCH   1  15
BRANCH  10  24
ATOM     24  C   UNL     1      -3.992  -1.069   0.564  0.00  0.00    +0.115 C 
BRANCH  24  26
ATOM     25  I   UNL     1      -7.423   1.378  -2.996  0.00  0.00    -0.043 I 
ATOM     26  C   UNL     1      -5.084  -0.056   0.358  0.00  0.00    -0.002 C 
ATOM     27  C   UNL     1      -5.611   0.137  -0.912  0.00  0.00    +0.003 C 
ATOM     28  C   UNL     1      -5.553   0.675   1.443  0.00  0.00    -0.003 C 
ATOM     29  C   UNL     1      -6.625   1.077  -1.101  0.00  0.00    +0.030 C 
ATOM     30  C   UNL     1      -6.566   1.615   1.253  0.00  0.00    +0.000 C 
ATOM     31  C   UNL     1      -7.102   1.816  -0.019  0.00  0.00    +0.006 C 
ENDBRANCH  24  26
ENDBRANCH  10  24
TORSDOF 7
