REMARK  Name = 10340993
REMARK  10 active torsions:
REMARK  status: ('A' for Active; 'I' for Inactive)
REMARK    1  A    between atoms: C_3  and  C_24
REMARK    2  A    between atoms: C_4  and  S_11
REMARK    3  A    between atoms: CA_5  and  C_8
REMARK    4  A    between atoms: C_8  and  O_9
REMARK    5  A    between atoms: S_11  and  C_13
REMARK    6  A    between atoms: C_15  and  C_21
REMARK    7  A    between atoms: C_24  and  C_26
REMARK    8  A    between atoms: C_24  and  C_29
REMARK    9  A    between atoms: C_26  and  O_27
REMARK   10  A    between atoms: C_29  and  O_31
REMARK                            x       y       z     vdW  Elec       q    Type
REMARK                         _______ _______ _______ _____ _____    ______ ____
ROOT
ATOM      1  N   UNL     1      -2.428  -1.415  -0.324  0.00  0.00    -0.269 NA
ATOM      2  C   UNL     1      -1.190   0.435   0.611  0.00  0.00    +0.039 C 
ATOM      3  C   UNL     1      -2.475   0.060  -0.155  0.00  0.00    +0.117 C 
ATOM      4  C   UNL     1      -0.202  -0.630   0.127  0.00  0.00    +0.095 C 
ATOM      5  CA  UNL     1      -1.177  -1.717  -0.180  0.00  0.00    +0.138 C 
ATOM      6  C   UNL     1      -1.325   0.383   2.137  0.00  0.00    +0.003 C 
ENDROOT
BRANCH   5   8
ATOM      7  OXT UNL     1      -0.867  -3.762  -1.330  0.00  0.00    -0.244 OA
ATOM      8  C   UNL     1      -0.722  -3.121  -0.308  0.00  0.00    +0.352 C 
BRANCH   8   9
ATOM      9  O   UNL     1      -0.156  -3.509   0.842  0.00  0.00    -0.476 OA
ATOM     10  H   UNL     1      -0.105  -2.914   1.564  0.00  0.00    +0.295 HD
ENDBRANCH   8   9
ENDBRANCH   5   8
BRANCH   4  11
ATOM     11  S   UNL     1       0.664  -0.163  -1.397  0.00  0.00    -0.138 S 
BRANCH  11  13
ATOM     12  N   UNL     1       3.714   2.354  -0.919  0.00  0.00    +0.391 N 
ATOM     13  C   UNL     1       1.734   1.128  -0.709  0.00  0.00    +0.025 C 
ATOM     14  C   UNL     1       2.666   0.617   0.385  0.00  0.00    -0.004 C 
ATOM     15  C   UNL     1       3.936   1.451   0.220  0.00  0.00    +0.018 C 
ATOM     16  C   UNL     1       2.682   1.706  -1.743  0.00  0.00    -0.070 C 
ATOM     17  H   UNL     1       4.575   2.471  -1.453  0.00  0.00    -0.084 HD
ATOM     18  H   UNL     1       3.424   3.283  -0.612  0.00  0.00    -0.084 HD
BRANCH  15  21
ATOM     19  O   UNL     1       5.675   0.760  -1.215  0.00  0.00    -0.277 OA
ATOM     20  N   UNL     1       5.536  -0.313   0.842  0.00  0.00    -0.278 N 
ATOM     21  C   UNL     1       5.124   0.608  -0.122  0.00  0.00    +0.206 C 
ATOM     22  C   UNL     1       4.853  -0.460   2.125  0.00  0.00    +0.115 C 
ATOM     23  C   UNL     1       6.678  -1.196   0.639  0.00  0.00    +0.115 C 
ENDBRANCH  15  21
ENDBRANCH  11  13
ENDBRANCH   4  11
BRANCH   3  24
ATOM     24  C   UNL     1      -3.788   0.452   0.503  0.00  0.00    +0.148 C 
BRANCH  24  26
ATOM     25  O   UNL     1      -4.891  -0.205  -1.576  0.00  0.00    -0.250 OA
ATOM     26  C   UNL     1      -4.931  -0.076  -0.360  0.00  0.00    +0.318 C 
BRANCH  26  27
ATOM     27  O   UNL     1      -6.034  -0.374   0.376  0.00  0.00    -0.480 OA
ATOM     28  H   UNL     1      -6.022  -0.260   1.306  0.00  0.00    +0.295 HD
ENDBRANCH  26  27
ENDBRANCH  24  26
BRANCH  24  29
ATOM     29  C   UNL     1      -3.933   1.976   0.716  0.00  0.00    +0.123 C 
ATOM     30  C   UNL     1      -3.983   2.767  -0.586  0.00  0.00    +0.032 C 
BRANCH  29  31
ATOM     31  O   UNL     1      -5.160   2.245   1.403  0.00  0.00    -0.384 OA
ATOM     32  H   UNL     1      -5.173   1.759   2.242  0.00  0.00    +0.210 HD
ENDBRANCH  29  31
ENDBRANCH  24  29
ENDBRANCH   3  24
TORSDOF 10
