REMARK  Name = 10344787
REMARK  4 active torsions:
REMARK  status: ('A' for Active; 'I' for Inactive)
REMARK    1  A    between atoms: C_6  and  C_21
REMARK    2  A    between atoms: C_7  and  C_18
REMARK    3  A    between atoms: C_21  and  C_25
REMARK    4  A    between atoms: C_25  and  O_38
REMARK                            x       y       z     vdW  Elec       q    Type
REMARK                         _______ _______ _______ _____ _____    ______ ____
ROOT
ATOM      1  O   UNL     1      -1.249   1.140   1.416  0.00  0.00    -0.273 OA
ATOM      2  O   UNL     1       1.636  -2.627   0.263  0.00  0.00    -0.274 OA
ATOM      3  N   UNL     1       1.702  -0.301   0.038  0.00  0.00    -0.229 N 
ATOM      4  N   UNL     1       0.707   2.123   0.709  0.00  0.00    -0.298 N 
ATOM      5  N   UNL     1       3.791   0.810  -0.216  0.00  0.00    -0.393 NA
ATOM      6  C   UNL     1       0.235  -0.181   0.049  0.00  0.00    +0.160 C 
ATOM      7  C   UNL     1       1.740   2.140  -0.310  0.00  0.00    +0.139 C 
ATOM      8  C   UNL     1      -0.174   1.064   0.823  0.00  0.00    +0.241 C 
ATOM      9  C   UNL     1       2.497   0.832  -0.150  0.00  0.00    +0.184 C 
ATOM     10  C   UNL     1       2.265  -1.580   0.150  0.00  0.00    +0.242 C 
ATOM     11  C   UNL     1       3.743  -1.619   0.111  0.00  0.00    +0.151 C 
ATOM     12  C   UNL     1       4.442  -0.423  -0.072  0.00  0.00    +0.123 C 
ATOM     13  C   UNL     1       4.424  -2.833   0.249  0.00  0.00    -0.010 C 
ATOM     14  C   UNL     1       5.841  -0.458  -0.113  0.00  0.00    +0.028 C 
ATOM     15  C   UNL     1       5.817  -2.853   0.206  0.00  0.00    -0.004 C 
ATOM     16  C   UNL     1       6.526  -1.666   0.025  0.00  0.00    +0.002 C 
ATOM     17  H   UNL     1       0.632   2.881   1.332  0.00  0.00    +0.150 HD
ENDROOT
BRANCH   7  18
ATOM     18  C   UNL     1       2.623   3.372  -0.163  0.00  0.00    +0.026 C 
ATOM     19  C   UNL     1       1.810   4.649  -0.368  0.00  0.00    +0.002 C 
ATOM     20  C   UNL     1       3.305   3.388   1.205  0.00  0.00    +0.002 C 
ENDBRANCH   7  18
BRANCH   6  21
ATOM     21  C   UNL     1      -0.374  -0.228  -1.347  0.00  0.00    +0.060 C 
BRANCH  21  25
ATOM     22  O   UNL     1      -5.643  -1.645   1.098  0.00  0.00    -0.277 OA
ATOM     23  N   UNL     1      -3.629  -0.838   0.201  0.00  0.00    -0.279 N 
ATOM     24  N   UNL     1      -2.917  -2.647  -0.949  0.00  0.00    +0.405 N 
ATOM     25  C   UNL     1      -1.890  -0.257  -1.291  0.00  0.00    +0.109 C 
ATOM     26  C   UNL     1      -2.442  -1.388  -0.395  0.00  0.00    +0.052 C 
ATOM     27  C   UNL     1      -2.539   0.950  -0.633  0.00  0.00    +0.015 C 
ATOM     28  C   UNL     1      -3.603   0.543   0.189  0.00  0.00    +0.050 C 
ATOM     29  C   UNL     1      -4.028  -3.079  -0.058  0.00  0.00    +0.020 C 
ATOM     30  C   UNL     1      -4.577  -1.776   0.520  0.00  0.00    +0.208 C 
ATOM     31  C   UNL     1      -2.289   2.297  -0.830  0.00  0.00    -0.001 C 
ATOM     32  C   UNL     1      -4.458   1.440   0.798  0.00  0.00    +0.015 C 
ATOM     33  C   UNL     1      -3.559  -4.012   1.048  0.00  0.00    -0.014 C 
ATOM     34  C   UNL     1      -3.122   3.223  -0.195  0.00  0.00    -0.000 C 
ATOM     35  C   UNL     1      -4.199   2.798   0.606  0.00  0.00    +0.001 C 
ATOM     36  H   UNL     1      -2.170  -3.341  -0.948  0.00  0.00    -0.081 HD
ATOM     37  H   UNL     1      -3.225  -2.543  -1.915  0.00  0.00    -0.081 HD
BRANCH  25  38
ATOM     38  O   UNL     1      -2.413  -0.360  -2.613  0.00  0.00    -0.383 OA
ATOM     39  H   UNL     1      -2.016  -1.124  -3.059  0.00  0.00    +0.211 HD
ENDBRANCH  25  38
ENDBRANCH  21  25
ENDBRANCH   6  21
TORSDOF 4
