10342859
  -OEChem-03292013303D

 54 59  0     1  0  0  0  0  0999 V2000
   -5.3321    0.2642   -0.3243 O   0  0  0  0  0  0  0  0  0  0  0  0
    0.5837    0.5064   -0.0131 O   0  0  0  0  0  0  0  0  0  0  0  0
   -5.3230    3.1474    0.0989 O   0  0  0  0  0  0  0  0  0  0  0  0
   -0.5708    2.8949    0.4682 O   0  0  0  0  0  0  0  0  0  0  0  0
    0.0926   -3.5323    0.2283 O   0  0  0  0  0  0  0  0  0  0  0  0
    5.3789   -0.0196   -0.0791 O   0  0  0  0  0  0  0  0  0  0  0  0
    2.6819   -3.8541    0.1702 O   0  0  0  0  0  0  0  0  0  0  0  0
   -3.3248   -1.0904   -0.5542 C   0  0  1  0  0  0  0  0  0  0  0  0
   -4.8332   -1.1189   -0.1995 C   0  0  0  0  0  0  0  0  0  0  0  0
   -3.0505    0.3246   -0.2137 C   0  0  0  0  0  0  0  0  0  0  0  0
   -2.3148   -1.9978    0.1534 C   0  0  0  0  0  0  0  0  0  0  0  0
   -4.2196    1.0494   -0.1630 C   0  0  0  0  0  0  0  0  0  0  0  0
   -1.7970    0.8664    0.0109 C   0  0  0  0  0  0  0  0  0  0  0  0
   -0.9129   -1.4020    0.0992 C   0  0  0  0  0  0  0  0  0  0  0  0
   -5.6994   -2.0087   -1.1010 C   0  0  0  0  0  0  0  0  0  0  0  0
   -5.0390   -1.5418    1.2578 C   0  0  0  0  0  0  0  0  0  0  0  0
   -0.6649   -0.0753    0.0231 C   0  0  0  0  0  0  0  0  0  0  0  0
   -4.1877    2.4081    0.0544 C   0  0  0  0  0  0  0  0  0  0  0  0
   -1.7447    2.2433    0.2332 C   0  0  0  0  0  0  0  0  0  0  0  0
    0.2495   -2.3215    0.1417 C   0  0  0  0  0  0  0  0  0  0  0  0
   -2.9333    3.0063    0.2463 C   0  0  0  0  0  0  0  0  0  0  0  0
    1.5836   -1.6972    0.0807 C   0  0  0  0  0  0  0  0  0  0  0  0
    1.6921   -0.3061    0.0063 C   0  0  0  0  0  0  0  0  0  0  0  0
    2.9585    0.3029   -0.0485 C   0  0  0  0  0  0  0  0  0  0  0  0
    2.7291   -2.4943    0.0998 C   0  0  0  0  0  0  0  0  0  0  0  0
    4.1014   -0.5035   -0.0281 C   0  0  0  0  0  0  0  0  0  0  0  0
    5.5956    1.4052   -0.1279 C   0  0  0  0  0  0  0  0  0  0  0  0
    3.9855   -1.8948    0.0446 C   0  0  0  0  0  0  0  0  0  0  0  0
    3.1185    1.7494   -0.1280 C   0  0  0  0  0  0  0  0  0  0  0  0
    4.3519    2.2574   -0.1639 C   0  0  0  0  0  0  0  0  0  0  0  0
    6.4183    1.7618    1.1160 C   0  0  0  0  0  0  0  0  0  0  0  0
    6.4267    1.6706   -1.3889 C   0  0  0  0  0  0  0  0  0  0  0  0
   -3.2028   -1.1923   -1.6423 H   0  0  0  0  0  0  0  0  0  0  0  0
   -2.3446   -2.9841   -0.3235 H   0  0  0  0  0  0  0  0  0  0  0  0
   -2.5502   -2.1476    1.2124 H   0  0  0  0  0  0  0  0  0  0  0  0
   -5.6302   -1.6778   -2.1432 H   0  0  0  0  0  0  0  0  0  0  0  0
   -5.3856   -3.0558   -1.0477 H   0  0  0  0  0  0  0  0  0  0  0  0
   -6.7568   -1.9402   -0.8223 H   0  0  0  0  0  0  0  0  0  0  0  0
   -4.7814   -2.5936    1.4199 H   0  0  0  0  0  0  0  0  0  0  0  0
   -4.4638   -0.9252    1.9578 H   0  0  0  0  0  0  0  0  0  0  0  0
   -6.0894   -1.4100    1.5458 H   0  0  0  0  0  0  0  0  0  0  0  0
   -2.8764    4.0782    0.4264 H   0  0  0  0  0  0  0  0  0  0  0  0
    4.8863   -2.5048    0.0583 H   0  0  0  0  0  0  0  0  0  0  0  0
   -6.0802    2.5547   -0.0504 H   0  0  0  0  0  0  0  0  0  0  0  0
    0.1454    2.2477    0.5613 H   0  0  0  0  0  0  0  0  0  0  0  0
    2.2552    2.4008   -0.1619 H   0  0  0  0  0  0  0  0  0  0  0  0
    4.4719    3.3366   -0.2225 H   0  0  0  0  0  0  0  0  0  0  0  0
    7.3357    1.1633    1.1623 H   0  0  0  0  0  0  0  0  0  0  0  0
    6.6972    2.8211    1.1346 H   0  0  0  0  0  0  0  0  0  0  0  0
    5.8583    1.5375    2.0320 H   0  0  0  0  0  0  0  0  0  0  0  0
    7.3440    1.0699   -1.3857 H   0  0  0  0  0  0  0  0  0  0  0  0
    5.8725    1.3807   -2.2897 H   0  0  0  0  0  0  0  0  0  0  0  0
    6.7069    2.7256   -1.4822 H   0  0  0  0  0  0  0  0  0  0  0  0
    3.5862   -4.2117    0.1712 H   0  0  0  0  0  0  0  0  0  0  0  0
  1  9  1  0  0  0  0
  1 12  1  0  0  0  0
  2 17  1  0  0  0  0
  2 23  1  0  0  0  0
  3 18  1  0  0  0  0
  3 44  1  0  0  0  0
  4 19  1  0  0  0  0
  4 45  1  0  0  0  0
  5 20  2  0  0  0  0
  6 26  1  0  0  0  0
  6 27  1  0  0  0  0
  7 25  1  0  0  0  0
  7 54  1  0  0  0  0
  8  9  1  0  0  0  0
  8 10  1  0  0  0  0
  8 11  1  0  0  0  0
  8 33  1  0  0  0  0
  9 15  1  0  0  0  0
  9 16  1  0  0  0  0
 10 12  1  0  0  0  0
 10 13  2  0  0  0  0
 11 14  1  0  0  0  0
 11 34  1  0  0  0  0
 11 35  1  0  0  0  0
 12 18  2  0  0  0  0
 13 17  1  0  0  0  0
 13 19  1  0  0  0  0
 14 17  2  0  0  0  0
 14 20  1  0  0  0  0
 15 36  1  0  0  0  0
 15 37  1  0  0  0  0
 15 38  1  0  0  0  0
 16 39  1  0  0  0  0
 16 40  1  0  0  0  0
 16 41  1  0  0  0  0
 18 21  1  0  0  0  0
 19 21  2  0  0  0  0
 20 22  1  0  0  0  0
 21 42  1  0  0  0  0
 22 23  2  0  0  0  0
 22 25  1  0  0  0  0
 23 24  1  0  0  0  0
 24 26  2  0  0  0  0
 24 29  1  0  0  0  0
 25 28  2  0  0  0  0
 26 28  1  0  0  0  0
 27 30  1  0  0  0  0
 27 31  1  0  0  0  0
 27 32  1  0  0  0  0
 28 43  1  0  0  0  0
 29 30  2  0  0  0  0
 29 46  1  0  0  0  0
 30 47  1  0  0  0  0
 31 48  1  0  0  0  0
 31 49  1  0  0  0  0
 31 50  1  0  0  0  0
 32 51  1  0  0  0  0
 32 52  1  0  0  0  0
 32 53  1  0  0  0  0
M  END
> <PUBCHEM_COMPOUND_CID>
10342859

> <PUBCHEM_CONFORMER_RMSD>
0.6

> <PUBCHEM_CONFORMER_DIVERSEORDER>
1

> <PUBCHEM_MMFF94_PARTIAL_CHARGES>
35
1 -0.36
10 -0.14
11 0.14
12 0.08
13 0.03
14 -0.12
17 0.05
18 0.08
19 0.08
2 -0.16
20 0.47
21 -0.15
22 0.09
23 0.08
24 0.03
25 0.08
26 0.08
27 0.42
28 -0.15
29 -0.18
3 -0.53
30 -0.29
4 -0.53
42 0.15
43 0.15
44 0.45
45 0.45
46 0.15
47 0.15
5 -0.57
54 0.45
6 -0.36
7 -0.53
8 0.14
9 0.28

> <PUBCHEM_EFFECTIVE_ROTOR_COUNT>
1

> <PUBCHEM_PHARMACOPHORE_FEATURES>
15
1 1 acceptor
1 2 acceptor
1 3 donor
1 4 donor
1 5 acceptor
1 6 acceptor
1 7 donor
3 27 31 32 hydrophobe
3 9 15 16 hydrophobe
5 1 8 9 10 12 rings
6 10 12 13 18 19 21 rings
6 2 14 17 20 22 23 rings
6 22 23 24 25 26 28 rings
6 6 24 26 27 29 30 rings
6 8 10 11 13 14 17 rings

> <PUBCHEM_HEAVY_ATOM_COUNT>
32

> <PUBCHEM_ATOM_DEF_STEREO_COUNT>
0

> <PUBCHEM_ATOM_UDEF_STEREO_COUNT>
1

> <PUBCHEM_BOND_DEF_STEREO_COUNT>
0

> <PUBCHEM_BOND_UDEF_STEREO_COUNT>
0

> <PUBCHEM_ISOTOPIC_ATOM_COUNT>
0

> <PUBCHEM_COMPONENT_COUNT>
1

> <PUBCHEM_CACTVS_TAUTO_COUNT>
157

> <PUBCHEM_CONFORMER_ID>
009DD1CB00000001

> <PUBCHEM_MMFF94_ENERGY>
115.4608

> <PUBCHEM_FEATURE_SELFOVERLAP>
76.419

> <PUBCHEM_SHAPE_FINGERPRINT>
10050765 1 18338797797624438919
10411042 1 17762056940819174031
10595046 47 18411415107531606311
10670039 82 18335432270431994388
1100329 8 18050006885069009932
11136131 41 18261664888579199794
11513181 2 18201158762890102174
11578080 2 17532354380256628045
12107183 9 17762618391205581968
12236239 1 17821725065793231560
12390115 104 18270976677485419696
12925494 130 18340201878495397641
13140716 1 18263926531660802755
13402501 40 18341049726345061592
13617811 41 18265320880309805029
13631057 29 18343298210749741373
14394314 77 18413395328369565121
14765038 42 18129963190890831225
14767858 380 18339353192814627423
14790565 3 18410015476532194340
15196674 1 18410855425800117431
15320467 1 17762056940513485292
16087824 20 18340484569976455703
17492 89 18339360747525515503
17844677 252 18340493265907980279
17980427 23 17676779733416522469
18608769 82 18267588090044071002
18681886 176 18338794619971177792
19611394 137 17751938048870589314
21033648 144 18262230006994837133
21133410 127 17968944055178790140
21236236 1 18412265043184399273
21859007 373 17099452381372741813
22149856 69 18265636380365302739
22311459 1 18338516472717914819
22393880 68 18341339890283004110
23559900 14 18126560116049941194
245318 6 17677913398988304956
2747138 104 18190476020000303355
283562 15 18410572894984138731
335352 9 18050567339841897255
3380486 145 17973467660826855731
350125 39 18410576201486717552
392239 28 18337961193961219475
4073 2 18186809071222172947
4258327 124 16589446386924568254
44249763 50 17416112018614837648
469060 322 18265071261163324553
5104073 3 18261674774865297883
5486654 2 18338518654682789622
550186 72 18408885144319939965
5776283 40 18051419758519271256
59755656 215 18410578418296341646
6371009 1 18264759025551867404
67856867 119 18337102350952793538
9709674 26 18339084761717228839
9981440 41 18335140911991756658

> <PUBCHEM_SHAPE_MULTIPOLES>
617.46
14.67
4.06
0.83
6.98
0.45
0.03
-5.69
1.25
-0.89
-0.35
0.12
-0.02
-0.53

> <PUBCHEM_SHAPE_SELFOVERLAP>
1415.24

> <PUBCHEM_SHAPE_VOLUME>
321.7

> <PUBCHEM_COORDINATE_TYPE>
2
5
10

$$$$
