10340993
  -OEChem-03292013303D

 54 55  0     1  0  0  0  0  0999 V2000
    0.6641   -0.1628   -1.3969 S   0  0  0  0  0  0  0  0  0  0  0  0
   -5.1595    2.2447    1.4025 O   0  0  0  0  0  0  0  0  0  0  0  0
   -6.0343   -0.3738    0.3759 O   0  0  0  0  0  0  0  0  0  0  0  0
   -4.8914   -0.2047   -1.5763 O   0  0  0  0  0  0  0  0  0  0  0  0
   -0.1556   -3.5094    0.8419 O   0  0  0  0  0  0  0  0  0  0  0  0
    5.6750    0.7597   -1.2153 O   0  0  0  0  0  0  0  0  0  0  0  0
   -0.8666   -3.7619   -1.3302 O   0  0  0  0  0  0  0  0  0  0  0  0
   -2.4283   -1.4145   -0.3239 N   0  0  0  0  0  0  0  0  0  0  0  0
    3.7137    2.3538   -0.9186 N   0  0  0  0  0  0  0  0  0  0  0  0
    5.5360   -0.3133    0.8419 N   0  0  0  0  0  0  0  0  0  0  0  0
   -1.1896    0.4348    0.6105 C   0  0  2  0  0  0  0  0  0  0  0  0
   -2.4754    0.0599   -0.1553 C   0  0  2  0  0  0  0  0  0  0  0  0
   -0.2017   -0.6297    0.1274 C   0  0  1  0  0  0  0  0  0  0  0  0
    1.7338    1.1277   -0.7090 C   0  0  1  0  0  0  0  0  0  0  0  0
   -3.7881    0.4518    0.5031 C   0  0  1  0  0  0  0  0  0  0  0  0
    2.6662    0.6167    0.3848 C   0  0  0  0  0  0  0  0  0  0  0  0
   -1.1766   -1.7173   -0.1805 C   0  0  0  0  0  0  0  0  0  0  0  0
    3.9357    1.4508    0.2202 C   0  0  1  0  0  0  0  0  0  0  0  0
    2.6822    1.7061   -1.7428 C   0  0  0  0  0  0  0  0  0  0  0  0
   -1.3253    0.3827    2.1366 C   0  0  0  0  0  0  0  0  0  0  0  0
   -3.9334    1.9763    0.7163 C   0  0  1  0  0  0  0  0  0  0  0  0
   -4.9315   -0.0756   -0.3597 C   0  0  0  0  0  0  0  0  0  0  0  0
    5.1239    0.6077   -0.1219 C   0  0  0  0  0  0  0  0  0  0  0  0
   -0.7215   -3.1214   -0.3083 C   0  0  0  0  0  0  0  0  0  0  0  0
   -3.9827    2.7672   -0.5858 C   0  0  0  0  0  0  0  0  0  0  0  0
    4.8534   -0.4599    2.1248 C   0  0  0  0  0  0  0  0  0  0  0  0
    6.6777   -1.1960    0.6386 C   0  0  0  0  0  0  0  0  0  0  0  0
   -0.8904    1.4565    0.3563 H   0  0  0  0  0  0  0  0  0  0  0  0
   -2.4216    0.4862   -1.1665 H   0  0  0  0  0  0  0  0  0  0  0  0
    0.5027   -0.9559    0.8965 H   0  0  0  0  0  0  0  0  0  0  0  0
    1.1166    1.9431   -0.3147 H   0  0  0  0  0  0  0  0  0  0  0  0
   -3.8872   -0.0624    1.4687 H   0  0  0  0  0  0  0  0  0  0  0  0
    2.2109    0.7787    1.3684 H   0  0  0  0  0  0  0  0  0  0  0  0
    2.8615   -0.4550    0.2647 H   0  0  0  0  0  0  0  0  0  0  0  0
    4.1565    2.0611    1.1011 H   0  0  0  0  0  0  0  0  0  0  0  0
    2.1914    2.4372   -2.3926 H   0  0  0  0  0  0  0  0  0  0  0  0
    3.1391    0.9321   -2.3718 H   0  0  0  0  0  0  0  0  0  0  0  0
   -1.9846    1.1529    2.5383 H   0  0  0  0  0  0  0  0  0  0  0  0
   -0.3455    0.5386    2.6031 H   0  0  0  0  0  0  0  0  0  0  0  0
   -1.6972   -0.5903    2.4761 H   0  0  0  0  0  0  0  0  0  0  0  0
    4.5618    2.5322   -1.4524 H   0  0  0  0  0  0  0  0  0  0  0  0
   -3.1278    2.3746    1.3354 H   0  0  0  0  0  0  0  0  0  0  0  0
   -4.0843    3.8372   -0.3690 H   0  0  0  0  0  0  0  0  0  0  0  0
   -3.0759    2.6379   -1.1822 H   0  0  0  0  0  0  0  0  0  0  0  0
   -4.8536    2.5035   -1.1945 H   0  0  0  0  0  0  0  0  0  0  0  0
   -5.2010    3.2018    1.5697 H   0  0  0  0  0  0  0  0  0  0  0  0
   -6.7694   -0.7020   -0.1847 H   0  0  0  0  0  0  0  0  0  0  0  0
    0.1656   -4.4355    0.8046 H   0  0  0  0  0  0  0  0  0  0  0  0
    4.1643   -1.3067    2.0579 H   0  0  0  0  0  0  0  0  0  0  0  0
    4.3177    0.4338    2.4419 H   0  0  0  0  0  0  0  0  0  0  0  0
    5.5976   -0.6774    2.8983 H   0  0  0  0  0  0  0  0  0  0  0  0
    7.1056   -1.0604   -0.3579 H   0  0  0  0  0  0  0  0  0  0  0  0
    7.4406   -0.9675    1.3883 H   0  0  0  0  0  0  0  0  0  0  0  0
    6.3472   -2.2327    0.7491 H   0  0  0  0  0  0  0  0  0  0  0  0
  1 13  1  0  0  0  0
  1 14  1  0  0  0  0
  2 21  1  0  0  0  0
  2 46  1  0  0  0  0
  3 22  1  0  0  0  0
  3 47  1  0  0  0  0
  4 22  2  0  0  0  0
  5 24  1  0  0  0  0
  5 48  1  0  0  0  0
  6 23  2  0  0  0  0
  7 24  2  0  0  0  0
  8 12  1  0  0  0  0
  8 17  2  0  0  0  0
  9 18  1  0  0  0  0
  9 19  1  0  0  0  0
  9 41  1  0  0  0  0
 10 23  1  0  0  0  0
 10 26  1  0  0  0  0
 10 27  1  0  0  0  0
 11 12  1  0  0  0  0
 11 13  1  0  0  0  0
 11 20  1  0  0  0  0
 11 28  1  0  0  0  0
 12 15  1  0  0  0  0
 12 29  1  0  0  0  0
 13 17  1  0  0  0  0
 13 30  1  0  0  0  0
 14 16  1  0  0  0  0
 14 19  1  0  0  0  0
 14 31  1  0  0  0  0
 15 21  1  0  0  0  0
 15 22  1  0  0  0  0
 15 32  1  0  0  0  0
 16 18  1  0  0  0  0
 16 33  1  0  0  0  0
 16 34  1  0  0  0  0
 17 24  1  0  0  0  0
 18 23  1  0  0  0  0
 18 35  1  0  0  0  0
 19 36  1  0  0  0  0
 19 37  1  0  0  0  0
 20 38  1  0  0  0  0
 20 39  1  0  0  0  0
 20 40  1  0  0  0  0
 21 25  1  0  0  0  0
 21 42  1  0  0  0  0
 25 43  1  0  0  0  0
 25 44  1  0  0  0  0
 25 45  1  0  0  0  0
 26 49  1  0  0  0  0
 26 50  1  0  0  0  0
 26 51  1  0  0  0  0
 27 52  1  0  0  0  0
 27 53  1  0  0  0  0
 27 54  1  0  0  0  0
M  END
> <PUBCHEM_COMPOUND_CID>
10340993

> <PUBCHEM_CONFORMER_RMSD>
1

> <PUBCHEM_CONFORMER_DIVERSEORDER>
1
21
18
24
7
10
26
12
11
25
15
27
16
22
4
17
23
14
6
20
13
2
8
19
9
5
3

> <PUBCHEM_MMFF94_PARTIAL_CHARGES>
27
1 -0.46
10 -0.66
12 0.25
13 0.29
14 0.23
15 0.06
17 0.39
18 0.33
19 0.27
2 -0.68
21 0.28
22 0.66
23 0.57
24 0.72
26 0.3
27 0.3
3 -0.65
4 -0.57
41 0.36
46 0.4
47 0.5
48 0.5
5 -0.65
6 -0.57
7 -0.57
8 -0.7
9 -0.9

> <PUBCHEM_EFFECTIVE_ROTOR_COUNT>
9.6

> <PUBCHEM_PHARMACOPHORE_FEATURES>
14
1 2 acceptor
1 2 donor
1 3 acceptor
1 4 acceptor
1 5 acceptor
1 6 acceptor
1 7 acceptor
1 8 acceptor
1 9 cation
1 9 donor
3 3 4 22 anion
3 5 7 24 anion
5 8 11 12 13 17 rings
5 9 14 16 18 19 rings

> <PUBCHEM_HEAVY_ATOM_COUNT>
27

> <PUBCHEM_ATOM_DEF_STEREO_COUNT>
7

> <PUBCHEM_ATOM_UDEF_STEREO_COUNT>
0

> <PUBCHEM_BOND_DEF_STEREO_COUNT>
0

> <PUBCHEM_BOND_UDEF_STEREO_COUNT>
0

> <PUBCHEM_ISOTOPIC_ATOM_COUNT>
0

> <PUBCHEM_COMPONENT_COUNT>
1

> <PUBCHEM_CACTVS_TAUTO_COUNT>
1

> <PUBCHEM_CONFORMER_ID>
009DCA8100000001

> <PUBCHEM_MMFF94_ENERGY>
67.5063

> <PUBCHEM_FEATURE_SELFOVERLAP>
71.163

> <PUBCHEM_SHAPE_FINGERPRINT>
10692045 39 18271811155793682818
10764073 3 16808686535458959676
12107183 9 18408884002184731832
121448 382 17989495121454182233
12166972 35 18271809046738192816
12236239 1 18186801404536744129
12403260 363 18340767143377740317
12422481 6 17824536379396629788
12633257 1 18335133216027208950
12788726 201 17831592237470092055
13533116 47 17703793583576824622
13583140 156 17386576893570922121
13914758 101 17531518807586629325
14251764 18 18408603669711844564
14251764 30 13551475839226546904
14466204 15 18339078190158816208
15042514 8 18122067761111389543
15183329 4 18335139782810749292
15420108 30 18268419136477922119
15537594 2 17603297147298750626
17349148 13 18059861679235451788
173720 79 18410292549214750151
17818456 19 18409167731697902772
18222031 100 11098142218680634233
19489759 90 17989486329097204721
200 152 12463578373906306108
20197701 30 18341326717244007383
20567600 75 16008742489988996391
21033650 10 17559144066534614832
212916 134 18272645740615661992
21403212 168 18335975363975957194
21781051 124 18339364196901089419
22950370 63 8862943870575184541
23352939 185 10809342226533433966
23402539 116 18202280294989218637
23559900 14 17987522679409742832
23569917 315 18410577297068330015
23622692 88 18334009493510646606
345986 75 17823677712861769408
4017518 198 18202563948306101254
404807 14 16478839567351824174
46194498 28 13045947885546599082
5104073 3 18261393411969349376
5385378 56 18126012567985945529
54039377 194 17024299736061080402
59755656 520 18413387657161751167
6328613 192 18335427915446166180
7226269 152 17989205923836714536
9981440 41 18411989040101623219

> <PUBCHEM_SHAPE_MULTIPOLES>
509.34
14.03
3.12
1.59
8.45
2.41
-0.29
-4.56
-2.32
-1.61
0.69
0.57
-0.16
-1.93

> <PUBCHEM_SHAPE_SELFOVERLAP>
1037.086

> <PUBCHEM_SHAPE_VOLUME>
299.9

> <PUBCHEM_COORDINATE_TYPE>
2
5
10

$$$$
