REMARK  Name = 10342420
REMARK  15 active torsions:
REMARK  status: ('A' for Active; 'I' for Inactive)
REMARK    1  A    between atoms: C_2  and  C_21
REMARK    2  A    between atoms: C_4  and  O_14
REMARK    3  A    between atoms: C_8  and  O_12
REMARK    4  A    between atoms: O_14  and  C_16
REMARK    5  A    between atoms: C_16  and  C_17
REMARK    6  A    between atoms: C_17  and  C_19
REMARK    7  A    between atoms: C_21  and  C_22
REMARK    8  A    between atoms: C_22  and  C_23
REMARK    9  A    between atoms: C_23  and  O_24
REMARK   10  A    between atoms: C_23  and  C_26
REMARK   11  A    between atoms: C_26  and  C_27
REMARK   12  A    between atoms: C_27  and  O_28
REMARK   13  A    between atoms: C_27  and  C_30
REMARK   14  A    between atoms: C_30  and  C_32
REMARK   15  A    between atoms: C_32  and  O_33
REMARK                            x       y       z     vdW  Elec       q    Type
REMARK                         _______ _______ _______ _____ _____    ______ ____
ROOT
ATOM      1  C   UNL     1       2.033  -1.409  -0.135  0.00  0.00    +0.045 C 
ATOM      2  C   UNL     1       0.517  -1.544   0.172  0.00  0.00    +0.008 C 
ATOM      3  C   UNL     1       2.836  -1.583   1.184  0.00  0.00    +0.028 C 
ATOM      4  C   UNL     1       2.456  -0.100  -0.837  0.00  0.00    +0.171 C 
ATOM      5  C   UNL     1       0.204  -2.961   0.747  0.00  0.00    +0.022 C 
ATOM      6  C   UNL     1       4.338  -1.630   0.874  0.00  0.00    +0.034 C 
ATOM      7  C   UNL     1       3.963  -0.098  -1.111  0.00  0.00    +0.073 C 
ATOM      8  C   UNL     1       4.791  -0.362   0.149  0.00  0.00    +0.114 C 
ATOM      9  C   UNL     1       2.392  -2.782   1.976  0.00  0.00    -0.031 C 
ATOM     10  C   UNL     1       1.217  -3.394   1.779  0.00  0.00    -0.031 C 
ATOM     11  C   UNL     1       0.090  -4.061  -0.315  0.00  0.00    +0.005 C 
ENDROOT
BRANCH   8  12
ATOM     12  O   UNL     1       6.163  -0.509  -0.204  0.00  0.00    -0.384 OA
ATOM     13  H   UNL     1       6.687  -0.676   0.595  0.00  0.00    +0.210 HD
ENDBRANCH   8  12
BRANCH   4  14
ATOM     14  O   UNL     1       2.143   1.039  -0.040  0.00  0.00    -0.452 OA
BRANCH  14  16
ATOM     15  O   UNL     1       2.555   2.517  -1.763  0.00  0.00    -0.250 OA
ATOM     16  C   UNL     1       2.497   2.249  -0.570  0.00  0.00    +0.316 C 
BRANCH  16  17
ATOM     17  C   UNL     1       2.841   3.219   0.548  0.00  0.00    +0.099 C 
ATOM     18  C   UNL     1       4.309   3.613   0.408  0.00  0.00    +0.012 C 
BRANCH  17  19
ATOM     19  C   UNL     1       1.934   4.458   0.516  0.00  0.00    +0.011 C 
ATOM     20  C   UNL     1       0.459   4.106   0.666  0.00  0.00    +0.001 C 
ENDBRANCH  17  19
ENDBRANCH  16  17
ENDBRANCH  14  16
ENDBRANCH   4  14
BRANCH   2  21
ATOM     21  C   UNL     1      -0.376  -1.203  -1.025  0.00  0.00    +0.003 C 
BRANCH  21  22
ATOM     22  C   UNL     1      -1.849  -1.181  -0.620  0.00  0.00    +0.029 C 
BRANCH  22  23
ATOM     23  C   UNL     1      -2.797  -0.758  -1.750  0.00  0.00    +0.113 C 
BRANCH  23  24
ATOM     24  O   UNL     1      -2.567  -1.616  -2.870  0.00  0.00    -0.384 OA
ATOM     25  H   UNL     1      -1.625  -1.601  -3.100  0.00  0.00    +0.210 HD
ENDBRANCH  23  24
BRANCH  23  26
ATOM     26  C   UNL     1      -4.294  -0.797  -1.405  0.00  0.00    +0.059 C 
BRANCH  26  27
ATOM     27  C   UNL     1      -4.712   0.077  -0.217  0.00  0.00    +0.124 C 
BRANCH  27  28
ATOM     28  O   UNL     1      -4.429   1.445  -0.507  0.00  0.00    -0.384 OA
ATOM     29  H   UNL     1      -3.480   1.550  -0.675  0.00  0.00    +0.210 HD
ENDBRANCH  27  28
BRANCH  27  30
ATOM     30  C   UNL     1      -6.213  -0.051   0.043  0.00  0.00    +0.139 C 
BRANCH  30  32
ATOM     31  O   UNL     1      -5.934   1.156   2.118  0.00  0.00    -0.250 OA
ATOM     32  C   UNL     1      -6.649   0.852   1.172  0.00  0.00    +0.316 C 
BRANCH  32  33
ATOM     33  O   UNL     1      -7.916   1.310   1.016  0.00  0.00    -0.480 OA
ATOM     34  H   UNL     1      -8.421   1.046   0.273  0.00  0.00    +0.295 HD
ENDBRANCH  32  33
ENDBRANCH  30  32
ENDBRANCH  27  30
ENDBRANCH  26  27
ENDBRANCH  23  26
ENDBRANCH  22  23
ENDBRANCH  21  22
ENDBRANCH   2  21
TORSDOF 15
