REMARK  Name = 10345799
REMARK  8 active torsions:
REMARK  status: ('A' for Active; 'I' for Inactive)
REMARK    1  A    between atoms: C_8  and  C_24
REMARK    2  A    between atoms: C_12  and  O_26
REMARK    3  A    between atoms: O_26  and  C_28
REMARK    4  A    between atoms: C_29  and  O_33
REMARK    5  A    between atoms: C_30  and  O_35
REMARK    6  A    between atoms: C_31  and  O_37
REMARK    7  A    between atoms: C_32  and  C_39
REMARK    8  A    between atoms: C_39  and  O_40
REMARK                            x       y       z     vdW  Elec       q    Type
REMARK                         _______ _______ _______ _____ _____    ______ ____
ROOT
ATOM      1  O   UNL     1       2.077  -2.006  -0.630  0.00  0.00    -0.449 OA
ATOM      2  O   UNL     1      -1.255  -2.179  -3.055  0.00  0.00    -0.270 OA
ATOM      3  N   UNL     1      -2.745  -2.024  -1.287  0.00  0.00    -0.272 N 
ATOM      4  N   UNL     1      -3.730   0.185   1.499  0.00  0.00    -0.355 N 
ATOM      5  C   UNL     1      -0.570  -1.544   0.536  0.00  0.00    +0.042 C 
ATOM      6  C   UNL     1      -3.033  -1.885   0.162  0.00  0.00    +0.114 C 
ATOM      7  C   UNL     1      -1.840  -2.217   1.049  0.00  0.00    +0.031 C 
ATOM      8  C   UNL     1       0.678  -1.823   1.413  0.00  0.00    +0.097 C 
ATOM      9  C   UNL     1      -0.326  -1.931  -0.891  0.00  0.00    +0.069 C 
ATOM     10  C   UNL     1      -3.623  -0.517   0.332  0.00  0.00    +0.048 A 
ATOM     11  C   UNL     1      -3.899  -1.760  -2.169  0.00  0.00    +0.099 C 
ATOM     12  C   UNL     1       1.946  -1.381   0.656  0.00  0.00    +0.294 C 
ATOM     13  C   UNL     1      -4.222   0.222  -0.674  0.00  0.00    -0.006 A 
ATOM     14  C   UNL     1      -1.467  -2.074  -1.847  0.00  0.00    +0.248 C 
ATOM     15  C   UNL     1      -4.281  -0.265  -2.089  0.00  0.00    +0.049 C 
ATOM     16  C   UNL     1       0.918  -2.140  -1.349  0.00  0.00    +0.175 C 
ATOM     17  C   UNL     1      -4.685   1.436  -0.097  0.00  0.00    +0.013 A 
ATOM     18  C   UNL     1      -4.364   1.387   1.264  0.00  0.00    +0.056 A 
ATOM     19  C   UNL     1      -5.347   2.575  -0.596  0.00  0.00    +0.001 C 
ATOM     20  C   UNL     1      -4.678   2.425   2.150  0.00  0.00    +0.017 C 
ATOM     21  C   UNL     1      -5.665   3.620   0.279  0.00  0.00    +0.000 C 
ATOM     22  C   UNL     1      -5.335   3.544   1.630  0.00  0.00    +0.001 C 
ATOM     23  H   UNL     1      -3.404  -0.121   2.376  0.00  0.00    +0.166 HD
ENDROOT
BRANCH   8  24
ATOM     24  C   UNL     1       0.834  -3.249   1.863  0.00  0.00    -0.020 C 
ATOM     25  C   UNL     1       0.843  -3.632   3.144  0.00  0.00    -0.005 C 
ENDBRANCH   8  24
BRANCH  12  26
ATOM     26  O   UNL     1       1.939   0.043   0.533  0.00  0.00    -0.293 OA
BRANCH  26  28
ATOM     27  O   UNL     1       4.271   0.109   0.574  0.00  0.00    -0.326 OA
ATOM     28  C   UNL     1       3.106   0.510  -0.143  0.00  0.00    +0.268 C 
ATOM     29  C   UNL     1       3.025   2.034  -0.226  0.00  0.00    +0.197 C 
ATOM     30  C   UNL     1       4.309   2.629  -0.804  0.00  0.00    +0.172 C 
ATOM     31  C   UNL     1       5.545   2.053  -0.114  0.00  0.00    +0.169 C 
ATOM     32  C   UNL     1       5.479   0.525  -0.067  0.00  0.00    +0.176 C 
BRANCH  29  33
ATOM     33  O   UNL     1       1.923   2.378  -1.065  0.00  0.00    -0.378 OA
ATOM     34  H   UNL     1       1.107   2.001  -0.699  0.00  0.00    +0.211 HD
ENDBRANCH  29  33
BRANCH  30  35
ATOM     35  O   UNL     1       4.309   4.043  -0.604  0.00  0.00    -0.379 OA
ATOM     36  H   UNL     1       3.532   4.431  -1.035  0.00  0.00    +0.211 HD
ENDBRANCH  30  35
BRANCH  31  37
ATOM     37  O   UNL     1       6.712   2.452  -0.828  0.00  0.00    -0.379 OA
ATOM     38  H   UNL     1       6.757   3.420  -0.860  0.00  0.00    +0.211 HD
ENDBRANCH  31  37
BRANCH  32  39
ATOM     39  C   UNL     1       6.644  -0.067   0.720  0.00  0.00    +0.169 C 
BRANCH  39  40
ATOM     40  O   UNL     1       6.511  -1.477   0.731  0.00  0.00    -0.379 OA
ATOM     41  H   UNL     1       7.246  -1.867   1.229  0.00  0.00    +0.211 HD
ENDBRANCH  39  40
ENDBRANCH  32  39
ENDBRANCH  26  28
ENDBRANCH  12  26
TORSDOF 8
