REMARK  Name = 10342859
REMARK  3 active torsions:
REMARK  status: ('A' for Active; 'I' for Inactive)
REMARK    1  A    between atoms: C_15  and  O_30
REMARK    2  A    between atoms: C_16  and  O_32
REMARK    3  A    between atoms: C_22  and  O_34
REMARK                            x       y       z     vdW  Elec       q    Type
REMARK                         _______ _______ _______ _____ _____    ______ ____
ROOT
ATOM      1  O   UNL     1      -5.332   0.264  -0.324  0.00  0.00    -0.480 OA
ATOM      2  O   UNL     1       0.584   0.506  -0.013  0.00  0.00    -0.453 OA
ATOM      3  O   UNL     1       0.093  -3.532   0.228  0.00  0.00    -0.287 OA
ATOM      4  O   UNL     1       5.379  -0.020  -0.079  0.00  0.00    -0.478 OA
ATOM      5  C   UNL     1      -3.325  -1.090  -0.554  0.00  0.00    +0.067 C 
ATOM      6  C   UNL     1      -4.833  -1.119  -0.200  0.00  0.00    +0.137 C 
ATOM      7  C   UNL     1      -3.050   0.325  -0.214  0.00  0.00    +0.024 C 
ATOM      8  C   UNL     1      -2.315  -1.998   0.153  0.00  0.00    +0.041 C 
ATOM      9  C   UNL     1      -4.220   1.049  -0.163  0.00  0.00    +0.168 C 
ATOM     10  C   UNL     1      -1.797   0.866   0.011  0.00  0.00    +0.067 C 
ATOM     11  C   UNL     1      -0.913  -1.402   0.099  0.00  0.00    +0.052 A 
ATOM     12  C   UNL     1      -5.699  -2.009  -1.101  0.00  0.00    +0.044 C 
ATOM     13  C   UNL     1      -5.039  -1.542   1.258  0.00  0.00    +0.044 C 
ATOM     14  C   UNL     1      -0.665  -0.075   0.023  0.00  0.00    +0.147 A 
ATOM     15  C   UNL     1      -4.188   2.408   0.054  0.00  0.00    +0.170 C 
ATOM     16  C   UNL     1      -1.745   2.243   0.233  0.00  0.00    +0.139 C 
ATOM     17  C   UNL     1       0.249  -2.321   0.142  0.00  0.00    +0.200 A 
ATOM     18  C   UNL     1      -2.933   3.006   0.246  0.00  0.00    +0.076 C 
ATOM     19  C   UNL     1       1.584  -1.697   0.081  0.00  0.00    +0.107 A 
ATOM     20  C   UNL     1       1.692  -0.306   0.006  0.00  0.00    +0.154 A 
ATOM     21  C   UNL     1       2.958   0.303  -0.049  0.00  0.00    +0.069 C 
ATOM     22  C   UNL     1       2.729  -2.494   0.100  0.00  0.00    +0.143 C 
ATOM     23  C   UNL     1       4.101  -0.503  -0.028  0.00  0.00    +0.145 C 
ATOM     24  C   UNL     1       5.596   1.405  -0.128  0.00  0.00    +0.152 C 
ATOM     25  C   UNL     1       3.986  -1.895   0.045  0.00  0.00    +0.074 C 
ATOM     26  C   UNL     1       3.119   1.749  -0.128  0.00  0.00    +0.005 C 
ATOM     27  C   UNL     1       4.352   2.257  -0.164  0.00  0.00    +0.013 C 
ATOM     28  C   UNL     1       6.418   1.762   1.116  0.00  0.00    +0.048 C 
ATOM     29  C   UNL     1       6.427   1.671  -1.389  0.00  0.00    +0.048 C 
ENDROOT
BRANCH  15  30
ATOM     30  O   UNL     1      -5.323   3.147   0.099  0.00  0.00    -0.503 OA
ATOM     31  H   UNL     1      -6.155   2.736  -0.031  0.00  0.00    +0.292 HD
ENDBRANCH  15  30
BRANCH  16  32
ATOM     32  O   UNL     1      -0.571   2.895   0.468  0.00  0.00    -0.505 OA
ATOM     33  H   UNL     1       0.237   2.420   0.467  0.00  0.00    +0.292 HD
ENDBRANCH  16  32
BRANCH  22  34
ATOM     34  O   UNL     1       2.682  -3.854   0.170  0.00  0.00    -0.505 OA
ATOM     35  H   UNL     1       1.855  -4.293   0.209  0.00  0.00    +0.292 HD
ENDBRANCH  22  34
TORSDOF 3
