REMARK  Name = 10341941
REMARK  9 active torsions:
REMARK  status: ('A' for Active; 'I' for Inactive)
REMARK    1  A    between atoms: C_3  and  C_12
REMARK    2  A    between atoms: C_4  and  O_20
REMARK    3  A    between atoms: C_17  and  O_18
REMARK    4  A    between atoms: O_20  and  C_26
REMARK    5  A    between atoms: C_22  and  O_27
REMARK    6  A    between atoms: C_23  and  O_29
REMARK    7  A    between atoms: C_24  and  O_31
REMARK    8  A    between atoms: C_25  and  C_33
REMARK    9  A    between atoms: C_33  and  O_34
REMARK                            x       y       z     vdW  Elec       q    Type
REMARK                         _______ _______ _______ _____ _____    ______ ____
ROOT
ATOM      1  O   UNL     1      -1.275  -0.877   1.707  0.00  0.00    -0.474 OA
ATOM      2  O   UNL     1      -3.240  -0.937  -1.900  0.00  0.00    -0.291 OA
ATOM      3  C   UNL     1      -3.406  -0.825   0.514  0.00  0.00    +0.128 C 
ATOM      4  C   UNL     1       1.546  -1.474  -0.516  0.00  0.00    +0.144 C 
ATOM      5  C   UNL     1      -1.205  -1.072  -0.723  0.00  0.00    +0.069 C 
ATOM      6  C   UNL     1      -2.488  -0.139   1.526  0.00  0.00    +0.217 C 
ATOM      7  C   UNL     1      -0.592  -1.062   0.533  0.00  0.00    +0.144 C 
ATOM      8  C   UNL     1      -2.674  -0.920  -0.812  0.00  0.00    +0.183 C 
ATOM      9  C   UNL     1       0.783  -1.280   0.636  0.00  0.00    +0.074 C 
ATOM     10  C   UNL     1       0.935  -1.462  -1.770  0.00  0.00    +0.037 C 
ATOM     11  C   UNL     1      -0.442  -1.264  -1.878  0.00  0.00    +0.009 C 
ENDROOT
BRANCH   3  12
ATOM     12  C   UNL     1      -4.745  -0.127   0.397  0.00  0.00    -0.011 C 
ATOM     13  C   UNL     1      -5.919  -0.821   0.681  0.00  0.00    -0.001 C 
ATOM     14  C   UNL     1      -4.801   1.210   0.004  0.00  0.00    -0.001 C 
ATOM     15  C   UNL     1      -7.152  -0.178   0.573  0.00  0.00    +0.036 C 
ATOM     16  C   UNL     1      -6.034   1.853  -0.104  0.00  0.00    +0.036 C 
ATOM     17  C   UNL     1      -7.210   1.159   0.181  0.00  0.00    +0.134 C 
BRANCH  17  18
ATOM     18  O   UNL     1      -8.413   1.786   0.075  0.00  0.00    -0.506 OA
ATOM     19  H   UNL     1      -9.203   1.320   0.266  0.00  0.00    +0.292 HD
ENDBRANCH  17  18
ENDBRANCH   3  12
BRANCH   4  20
ATOM     20  O   UNL     1       2.891  -1.674  -0.416  0.00  0.00    -0.450 OA
BRANCH  20  26
ATOM     21  O   UNL     1       3.478   0.581  -0.537  0.00  0.00    -0.316 OA
ATOM     22  C   UNL     1       6.020   0.073   0.699  0.00  0.00    +0.173 C 
ATOM     23  C   UNL     1       5.697   1.395   0.001  0.00  0.00    +0.169 C 
ATOM     24  C   UNL     1       5.117  -1.053   0.197  0.00  0.00    +0.210 C 
ATOM     25  C   UNL     1       4.192   1.675   0.040  0.00  0.00    +0.177 C 
ATOM     26  C   UNL     1       3.648  -0.630   0.195  0.00  0.00    +0.318 C 
BRANCH  22  27
ATOM     27  O   UNL     1       7.383  -0.250   0.422  0.00  0.00    -0.379 OA
ATOM     28  H   UNL     1       7.956   0.464   0.741  0.00  0.00    +0.211 HD
ENDBRANCH  22  27
BRANCH  23  29
ATOM     29  O   UNL     1       6.390   2.455   0.654  0.00  0.00    -0.379 OA
ATOM     30  H   UNL     1       7.344   2.279   0.631  0.00  0.00    +0.211 HD
ENDBRANCH  23  29
BRANCH  24  31
ATOM     31  O   UNL     1       5.255  -2.188   1.052  0.00  0.00    -0.377 OA
ATOM     32  H   UNL     1       6.182  -2.472   1.066  0.00  0.00    +0.211 HD
ENDBRANCH  24  31
BRANCH  25  33
ATOM     33  C   UNL     1       3.831   2.928  -0.752  0.00  0.00    +0.169 C 
BRANCH  33  34
ATOM     34  O   UNL     1       2.430   3.118  -0.681  0.00  0.00    -0.379 OA
ATOM     35  H   UNL     1       2.186   3.913  -1.181  0.00  0.00    +0.211 HD
ENDBRANCH  33  34
ENDBRANCH  25  33
ENDBRANCH  20  26
ENDBRANCH   4  20
TORSDOF 9
