10340781
  -OEChem-03292013303D

 48 50  0     0  0  0  0  0  0999 V2000
    6.2555    1.5923   -2.3776 Cl  0  0  0  0  0  0  0  0  0  0  0  0
    6.9798    2.4846    0.4006 O   0  0  0  0  0  0  0  0  0  0  0  0
   -4.9635   -2.3289   -1.3126 O   0  0  0  0  0  0  0  0  0  0  0  0
    1.1479   -2.6722    0.1286 N   0  0  0  0  0  0  0  0  0  0  0  0
   -2.7474   -0.0188   -0.0501 N   0  0  0  0  0  0  0  0  0  0  0  0
   -0.7829   -1.3420    0.0398 N   0  0  0  0  0  0  0  0  0  0  0  0
   -0.9319   -3.7463   -0.0297 N   0  0  0  0  0  0  0  0  0  0  0  0
   -5.1078   -2.3707    0.9756 N   0  0  0  0  0  0  0  0  0  0  0  0
    3.4677   -1.9297    0.2203 C   0  0  0  0  0  0  0  0  0  0  0  0
    1.9947   -1.5235    0.2107 C   0  0  0  0  0  0  0  0  0  0  0  0
    4.4074   -0.7494    0.2599 C   0  0  0  0  0  0  0  0  0  0  0  0
   -2.0157    1.2269    0.0271 C   0  0  0  0  0  0  0  0  0  0  0  0
   -2.1430   -1.2640   -0.0437 C   0  0  0  0  0  0  0  0  0  0  0  0
   -0.2582   -2.5824    0.0418 C   0  0  0  0  0  0  0  0  0  0  0  0
    4.8464   -0.1894   -0.9294 C   0  0  0  0  0  0  0  0  0  0  0  0
    4.8140   -0.2463    1.4857 C   0  0  0  0  0  0  0  0  0  0  0  0
   -2.9466    2.3922    0.0506 C   0  0  0  0  0  0  0  0  0  0  0  0
   -2.9331   -2.4119   -0.1221 C   0  0  0  0  0  0  0  0  0  0  0  0
    5.7144    0.9017   -0.8922 C   0  0  0  0  0  0  0  0  0  0  0  0
    5.6822    0.8449    1.5229 C   0  0  0  0  0  0  0  0  0  0  0  0
    6.1324    1.4188    0.3340 C   0  0  0  0  0  0  0  0  0  0  0  0
   -2.2730   -3.6237   -0.1109 C   0  0  0  0  0  0  0  0  0  0  0  0
   -3.3451    2.9904   -1.1447 C   0  0  0  0  0  0  0  0  0  0  0  0
   -3.4183    2.8837    1.2678 C   0  0  0  0  0  0  0  0  0  0  0  0
   -4.3836   -2.3617   -0.2131 C   0  0  0  0  0  0  0  0  0  0  0  0
   -4.2157    4.0801   -1.1229 C   0  0  0  0  0  0  0  0  0  0  0  0
   -4.2888    3.9735    1.2894 C   0  0  0  0  0  0  0  0  0  0  0  0
   -4.6876    4.5717    0.0941 C   0  0  0  0  0  0  0  0  0  0  0  0
    3.6924   -2.5424   -0.6635 H   0  0  0  0  0  0  0  0  0  0  0  0
    3.6684   -2.5856    1.0784 H   0  0  0  0  0  0  0  0  0  0  0  0
    1.8101   -0.8600   -0.6439 H   0  0  0  0  0  0  0  0  0  0  0  0
    1.7667   -0.9526    1.1196 H   0  0  0  0  0  0  0  0  0  0  0  0
    1.5425   -3.6057    0.1368 H   0  0  0  0  0  0  0  0  0  0  0  0
   -1.3875    1.2413    0.9272 H   0  0  0  0  0  0  0  0  0  0  0  0
   -1.3314    1.3155   -0.8266 H   0  0  0  0  0  0  0  0  0  0  0  0
   -3.6991    0.0271   -0.3996 H   0  0  0  0  0  0  0  0  0  0  0  0
    4.5153   -0.5956   -1.8820 H   0  0  0  0  0  0  0  0  0  0  0  0
    4.4669   -0.6854    2.4166 H   0  0  0  0  0  0  0  0  0  0  0  0
    5.9985    1.2373    2.4858 H   0  0  0  0  0  0  0  0  0  0  0  0
   -2.8123   -4.5642   -0.1688 H   0  0  0  0  0  0  0  0  0  0  0  0
   -2.9863    2.6157   -2.0997 H   0  0  0  0  0  0  0  0  0  0  0  0
   -3.1170    2.4254    2.2060 H   0  0  0  0  0  0  0  0  0  0  0  0
   -4.5266    4.5455   -2.0537 H   0  0  0  0  0  0  0  0  0  0  0  0
   -4.6567    4.3560    2.2370 H   0  0  0  0  0  0  0  0  0  0  0  0
   -5.3656    5.4200    0.1111 H   0  0  0  0  0  0  0  0  0  0  0  0
    7.1534    2.6966    1.3338 H   0  0  0  0  0  0  0  0  0  0  0  0
   -6.1220   -2.3432    0.9689 H   0  0  0  0  0  0  0  0  0  0  0  0
   -4.6541   -2.4040    1.8830 H   0  0  0  0  0  0  0  0  0  0  0  0
  1 19  1  0  0  0  0
  2 21  1  0  0  0  0
  2 46  1  0  0  0  0
  3 25  2  0  0  0  0
  4 10  1  0  0  0  0
  4 14  1  0  0  0  0
  4 33  1  0  0  0  0
  5 12  1  0  0  0  0
  5 13  1  0  0  0  0
  5 36  1  0  0  0  0
  6 13  2  0  0  0  0
  6 14  1  0  0  0  0
  7 14  2  0  0  0  0
  7 22  1  0  0  0  0
  8 25  1  0  0  0  0
  8 47  1  0  0  0  0
  8 48  1  0  0  0  0
  9 10  1  0  0  0  0
  9 11  1  0  0  0  0
  9 29  1  0  0  0  0
  9 30  1  0  0  0  0
 10 31  1  0  0  0  0
 10 32  1  0  0  0  0
 11 15  2  0  0  0  0
 11 16  1  0  0  0  0
 12 17  1  0  0  0  0
 12 34  1  0  0  0  0
 12 35  1  0  0  0  0
 13 18  1  0  0  0  0
 15 19  1  0  0  0  0
 15 37  1  0  0  0  0
 16 20  2  0  0  0  0
 16 38  1  0  0  0  0
 17 23  2  0  0  0  0
 17 24  1  0  0  0  0
 18 22  2  0  0  0  0
 18 25  1  0  0  0  0
 19 21  2  0  0  0  0
 20 21  1  0  0  0  0
 20 39  1  0  0  0  0
 22 40  1  0  0  0  0
 23 26  1  0  0  0  0
 23 41  1  0  0  0  0
 24 27  2  0  0  0  0
 24 42  1  0  0  0  0
 26 28  2  0  0  0  0
 26 43  1  0  0  0  0
 27 28  1  0  0  0  0
 27 44  1  0  0  0  0
 28 45  1  0  0  0  0
M  END
> <PUBCHEM_COMPOUND_CID>
10340781

> <PUBCHEM_CONFORMER_RMSD>
1

> <PUBCHEM_CONFORMER_DIVERSEORDER>
1
205
313
347
32
266
56
218
227
111
158
352
145
302
84
155
308
246
349
123
293
265
339
207
178
58
286
208
134
236
289
43
239
149
261
19
36
106
233
157
320
73
252
333
194
66
122
340
176
179
238
75
163
305
127
257
29
350
275
290
2
279
204
292
31
216
195
247
119
325
42
358
331
353
39
133
226
295
301
7
41
336
360
48
330
64
357
26
90
281
210
172
34
317
191
44
136
38
100
67
242
16
215
101
348
343
65
321
287
175
213
356
192
244
327
310
359
249
237
152
314
109
74
147
311
254
63
345
6
322
112
188
118
57
312
319
174
306
285
309
71
94
45
169
214
105
280
140
137
220
18
98
355
170
5
315
324
291
164
245
248
256
167
318
225
148
110
120
329
328
128
121
52
96
200
278
307
259
173
8
14
81
17
255
232
80
168
159
222
186
268
88
230
180
342
258
143
316
28
146
234
223
151
267
51
344
185
59
70
362
338
189
217
240
183
251
211
46
201
354
332
235
219
85
23
271
199
272
303
115
22
274
282
181
276
102
24
231
132
40
97
125
269
55
107
68
253
346
184
284
165
250
135
304
161
150
288
260
82
108
262
131
263
103
124
104
334
35
138
221
27
294
87
296
89
166
270
182
228
25
61
277
86
283
92
76
171
62
209
95
298
93
50
341
187
326
190
337
177
91
144
229
193
141
20
129
30
116
4
162
12
361
264
79
160
49
203
224
21
323
78
297
60
197
241
139
335
117
83
130
142
54
202
47
243
212
156
351
13
300
3
10
196
299
153
206
114
99
53
273
15
69
154
126
72
33
9
37
198
11
113
77

> <PUBCHEM_MMFF94_PARTIAL_CHARGES>
42
1 -0.18
10 0.37
11 -0.14
12 0.51
13 0.41
14 0.72
15 -0.15
16 -0.15
17 -0.14
18 0.09
19 0.18
2 -0.53
20 -0.15
21 0.08
22 0.16
23 -0.15
24 -0.15
25 0.54
26 -0.15
27 -0.15
28 -0.15
3 -0.57
33 0.4
36 0.4
37 0.15
38 0.15
39 0.15
4 -0.87
40 0.15
41 0.15
42 0.15
43 0.15
44 0.15
45 0.15
46 0.45
47 0.37
48 0.37
5 -0.87
6 -0.62
7 -0.62
8 -0.8
9 0.14

> <PUBCHEM_EFFECTIVE_ROTOR_COUNT>
8

> <PUBCHEM_PHARMACOPHORE_FEATURES>
9
1 2 donor
1 3 acceptor
1 4 donor
1 5 donor
1 8 donor
4 4 6 7 14 cation
6 11 15 16 19 20 21 rings
6 17 23 24 26 27 28 rings
6 6 7 13 14 18 22 rings

> <PUBCHEM_HEAVY_ATOM_COUNT>
28

> <PUBCHEM_ATOM_DEF_STEREO_COUNT>
0

> <PUBCHEM_ATOM_UDEF_STEREO_COUNT>
0

> <PUBCHEM_BOND_DEF_STEREO_COUNT>
0

> <PUBCHEM_BOND_UDEF_STEREO_COUNT>
0

> <PUBCHEM_ISOTOPIC_ATOM_COUNT>
0

> <PUBCHEM_COMPONENT_COUNT>
1

> <PUBCHEM_CACTVS_TAUTO_COUNT>
63

> <PUBCHEM_CONFORMER_ID>
009DC9AD00000001

> <PUBCHEM_MMFF94_ENERGY>
91.0743

> <PUBCHEM_FEATURE_SELFOVERLAP>
45.672

> <PUBCHEM_SHAPE_FINGERPRINT>
10670039 82 18336837467845924910
10937287 8 18267020557439523035
11059845 2 18194091107454399914
11796584 16 9007067872509344754
12107183 9 18046612422893590410
12390115 104 18342749476573593610
12422481 6 17314235449381567948
12596602 18 16951117512661815826
12788726 201 18335691789013849835
13165053 182 18114729474832270813
14068700 686 18341621416367682495
14251764 75 18268150842550355017
14790565 3 17908987608553181129
14932702 115 18060132103551578168
15338160 23 18409172103979670361
15513586 35 17460615829121919916
15575132 122 18410013247275395175
15979999 66 18123733513085870951
19309040 13 17773875294362162125
20691028 202 18125441912714515505
21033650 10 18263382411772629638
21049683 271 18190454051928568399
21302155 148 18335988584054268312
21796203 349 17612060435166457003
23516275 100 17694208277029025480
249057 25 17967805068758763794
2748736 6 18265885874530697520
283562 15 18409440389523823779
550186 72 18410294718337199961
6034566 193 18336835169542938701
6058803 2 18262500529963977882
6608658 132 18270109253132473439
9849439 229 18337111142297050676

> <PUBCHEM_SHAPE_MULTIPOLES>
541.45
17.28
6.41
1.38
23.94
1.92
-0.28
14.3
-0.86
-12.59
-0.19
1.45
1.05
-1.24

> <PUBCHEM_SHAPE_SELFOVERLAP>
1151.257

> <PUBCHEM_SHAPE_VOLUME>
299.8

> <PUBCHEM_COORDINATE_TYPE>
2
5
10

$$$$
