REMARK  Name = 10340781
REMARK  7 active torsions:
REMARK  status: ('A' for Active; 'I' for Inactive)
REMARK    1  A    between atoms: N_1  and  C_16
REMARK    2  A    between atoms: N_2  and  C_27
REMARK    3  A    between atoms: C_7  and  C_13
REMARK    4  A    between atoms: C_16  and  C_17
REMARK    5  A    between atoms: C_17  and  C_19
REMARK    6  A    between atoms: C_24  and  O_25
REMARK    7  A    between atoms: C_27  and  C_28
REMARK                            x       y       z     vdW  Elec       q    Type
REMARK                         _______ _______ _______ _____ _____    ______ ____
ROOT
ATOM      1  N   UNL     1       1.148  -2.672   0.129  0.00  0.00    -0.268 N 
ATOM      2  N   UNL     1      -2.747  -0.019  -0.050  0.00  0.00    -0.304 N 
ATOM      3  N   UNL     1      -0.783  -1.342   0.040  0.00  0.00    -0.322 NA
ATOM      4  N   UNL     1      -0.932  -3.746  -0.030  0.00  0.00    -0.170 NA
ATOM      5  C   UNL     1      -2.143  -1.264  -0.044  0.00  0.00    +0.199 C 
ATOM      6  C   UNL     1      -0.258  -2.582   0.042  0.00  0.00    +0.146 C 
ATOM      7  C   UNL     1      -2.933  -2.412  -0.122  0.00  0.00    +0.118 C 
ATOM      8  C   UNL     1      -2.273  -3.624  -0.111  0.00  0.00    +0.120 C 
ATOM      9  H   UNL     1       1.563  -3.565   0.133  0.00  0.00    +0.159 HD
ATOM     10  H   UNL     1      -3.729   0.021  -0.111  0.00  0.00    +0.149 HD
ENDROOT
BRANCH   7  13
ATOM     11  O   UNL     1      -4.963  -2.329  -1.313  0.00  0.00    -0.270 OA
ATOM     12  N   UNL     1      -5.108  -2.371   0.976  0.00  0.00    -0.325 N 
ATOM     13  C   UNL     1      -4.384  -2.362  -0.213  0.00  0.00    +0.248 C 
ATOM     14  H   UNL     1      -6.091  -2.338   0.953  0.00  0.00    +0.145 HD
ATOM     15  H   UNL     1      -4.636  -2.410   1.839  0.00  0.00    +0.145 HD
ENDBRANCH   7  13
BRANCH   1  16
ATOM     16  C   UNL     1       1.995  -1.524   0.211  0.00  0.00    +0.102 C 
BRANCH  16  17
ATOM     17  C   UNL     1       3.468  -1.930   0.220  0.00  0.00    +0.048 C 
BRANCH  17  19
ATOM     18 CL   UNL     1       6.255   1.592  -2.378  0.00  0.00    -0.079 Cl
ATOM     19  C   UNL     1       4.407  -0.749   0.260  0.00  0.00    -0.019 C 
ATOM     20  C   UNL     1       4.846  -0.189  -0.929  0.00  0.00    +0.010 C 
ATOM     21  C   UNL     1       4.814  -0.246   1.486  0.00  0.00    -0.001 C 
ATOM     22  C   UNL     1       5.714   0.902  -0.892  0.00  0.00    +0.091 C 
ATOM     23  C   UNL     1       5.682   0.845   1.523  0.00  0.00    +0.037 C 
ATOM     24  C   UNL     1       6.132   1.419   0.334  0.00  0.00    +0.144 C 
BRANCH  24  25
ATOM     25  O   UNL     1       6.980   2.485   0.401  0.00  0.00    -0.505 OA
ATOM     26  H   UNL     1       7.293   2.884  -0.387  0.00  0.00    +0.292 HD
ENDBRANCH  24  25
ENDBRANCH  17  19
ENDBRANCH  16  17
ENDBRANCH   1  16
BRANCH   2  27
ATOM     27  C   UNL     1      -2.016   1.227   0.027  0.00  0.00    +0.116 C 
BRANCH  27  28
ATOM     28  C   UNL     1      -2.947   2.392   0.051  0.00  0.00    -0.003 C 
ATOM     29  C   UNL     1      -3.345   2.990  -1.145  0.00  0.00    -0.003 C 
ATOM     30  C   UNL     1      -3.418   2.884   1.268  0.00  0.00    -0.003 C 
ATOM     31  C   UNL     1      -4.216   4.080  -1.123  0.00  0.00    -0.000 C 
ATOM     32  C   UNL     1      -4.289   3.974   1.289  0.00  0.00    -0.000 C 
ATOM     33  C   UNL     1      -4.688   4.572   0.094  0.00  0.00    -0.000 C 
ENDBRANCH  27  28
ENDBRANCH   2  27
TORSDOF 7
