REMARK  Name = 10343423
REMARK  9 active torsions:
REMARK  status: ('A' for Active; 'I' for Inactive)
REMARK    1  A    between atoms: N_2  and  CA_22
REMARK    2  A    between atoms: C_3  and  CA_5
REMARK    3  A    between atoms: CA_5  and  C_12
REMARK    4  A    between atoms: CA_5  and  N_18
REMARK    5  A    between atoms: C_7  and  N_13
REMARK    6  A    between atoms: CA_22  and  C_29
REMARK    7  A    between atoms: CA_22  and  C_36
REMARK    8  A    between atoms: C_24  and  N_31
REMARK    9  A    between atoms: C_36  and  O_37
REMARK                            x       y       z     vdW  Elec       q    Type
REMARK                         _______ _______ _______ _____ _____    ______ ____
ROOT
ATOM      1  O   UNL     1      -0.956   1.212  -2.017  0.00  0.00    -0.273 OA
ATOM      2  N   UNL     1      -0.467   0.374   0.094  0.00  0.00    -0.292 N 
ATOM      3  C   UNL     1      -1.200   1.123  -0.814  0.00  0.00    +0.245 C 
ATOM      4  H   UNL     1      -0.750   0.373   1.037  0.00  0.00    +0.150 HD
ENDROOT
BRANCH   3   5
ATOM      5  CA  UNL     1      -2.397   1.805  -0.166  0.00  0.00    +0.171 C 
BRANCH   5  12
ATOM      6  C   UNL     1      -4.394  -1.955   0.547  0.00  0.00    -0.012 C 
ATOM      7  C   UNL     1      -5.867  -2.157   0.143  0.00  0.00    -0.039 C 
ATOM      8  C   UNL     1      -4.047  -0.478   0.749  0.00  0.00    +0.024 C 
ATOM      9  C   UNL     1      -4.396   0.337  -0.475  0.00  0.00    -0.025 C 
ATOM     10  C   UNL     1      -6.286  -1.162  -0.908  0.00  0.00    -0.048 C 
ATOM     11  C   UNL     1      -5.594  -0.050  -1.197  0.00  0.00    -0.011 C 
ATOM     12  C   UNL     1      -3.638   1.369  -0.876  0.00  0.00    -0.002 C 
BRANCH   7  13
ATOM     13  N   UNL     1      -6.744  -2.052   1.312  0.00  0.00    +0.386 N 
ATOM     14  C   UNL     1      -8.122  -2.333   0.945  0.00  0.00    -0.105 C 
ATOM     15  H   UNL     1      -6.684  -1.108   1.692  0.00  0.00    -0.084 HD
ATOM     16  H   UNL     1      -6.444  -2.734   2.009  0.00  0.00    -0.084 HD
ENDBRANCH   7  13
ENDBRANCH   5  12
BRANCH   5  18
ATOM     17  O   UNL     1      -1.051   3.639   1.638  0.00  0.00    -0.275 OA
ATOM     18  N   UNL     1      -2.233   3.225  -0.326  0.00  0.00    -0.295 N 
ATOM     19  C   UNL     1      -1.571   4.026   0.595  0.00  0.00    +0.223 C 
ATOM     20  C   UNL     1      -1.523   5.470   0.171  0.00  0.00    +0.095 C 
ATOM     21  H   UNL     1      -2.611   3.651  -1.129  0.00  0.00    +0.150 HD
ENDBRANCH   5  18
ENDBRANCH   3   5
BRANCH   2  22
ATOM     22  CA  UNL     1       0.693  -0.405  -0.276  0.00  0.00    +0.194 C 
BRANCH  22  29
ATOM     23  C   UNL     1       4.877  -1.466  -0.543  0.00  0.00    +0.029 C 
ATOM     24  C   UNL     1       5.854  -1.119   0.596  0.00  0.00    +0.094 C 
ATOM     25  C   UNL     1       3.647  -0.555  -0.546  0.00  0.00    +0.028 C 
ATOM     26  C   UNL     1       2.952  -0.571   0.795  0.00  0.00    -0.025 C 
ATOM     27  C   UNL     1       5.122  -0.883   1.892  0.00  0.00    -0.007 C 
ATOM     28  C   UNL     1       3.801  -0.664   1.969  0.00  0.00    -0.007 C 
ATOM     29  C   UNL     1       1.616  -0.502   0.900  0.00  0.00    +0.000 C 
BRANCH  24  31
ATOM     30  O   UNL     1       8.391  -1.046  -0.843  0.00  0.00    -0.275 OA
ATOM     31  N   UNL     1       6.656   0.057   0.251  0.00  0.00    -0.302 N 
ATOM     32  C   UNL     1       7.856  -0.016  -0.440  0.00  0.00    +0.223 C 
ATOM     33  C   UNL     1       8.460   1.341  -0.684  0.00  0.00    +0.095 C 
ATOM     34  H   UNL     1       6.327   0.944   0.523  0.00  0.00    +0.150 HD
ENDBRANCH  24  31
ENDBRANCH  22  29
BRANCH  22  36
ATOM     35  OXT UNL     1       1.185  -2.619  -1.118  0.00  0.00    -0.248 OA
ATOM     36  C   UNL     1       0.347  -1.817  -0.719  0.00  0.00    +0.336 C 
BRANCH  36  37
ATOM     37  O   UNL     1      -0.971  -2.125  -0.649  0.00  0.00    -0.479 OA
ATOM     38  H   UNL     1      -1.585  -1.489  -0.339  0.00  0.00    +0.295 HD
ENDBRANCH  36  37
ENDBRANCH  22  36
ENDBRANCH   2  22
TORSDOF 9
