REMARK  Name = 10342874
REMARK  6 active torsions:
REMARK  status: ('A' for Active; 'I' for Inactive)
REMARK    1  A    between atoms: C_6  and  O_22
REMARK    2  A    between atoms: C_7  and  O_26
REMARK    3  A    between atoms: C_10  and  O_24
REMARK    4  A    between atoms: C_14  and  O_30
REMARK    5  A    between atoms: O_26  and  C_28
REMARK    6  A    between atoms: O_30  and  C_32
REMARK                            x       y       z     vdW  Elec       q    Type
REMARK                         _______ _______ _______ _____ _____    ______ ____
ROOT
ATOM      1  O   UNL     1      -2.747   1.436  -2.320  0.00  0.00    -0.292 OA
ATOM      2  C   UNL     1       0.532   0.373   0.863  0.00  0.00    +0.006 C 
ATOM      3  C   UNL     1      -0.733   1.134   0.232  0.00  0.00    +0.036 C 
ATOM      4  C   UNL     1      -1.814   0.189  -0.398  0.00  0.00    +0.086 C 
ATOM      5  C   UNL     1       1.051  -0.687  -0.190  0.00  0.00    +0.046 C 
ATOM      6  C   UNL     1      -1.226  -0.910  -1.302  0.00  0.00    +0.157 C 
ATOM      7  C   UNL     1      -0.059  -1.670  -0.662  0.00  0.00    +0.196 C 
ATOM      8  C   UNL     1       2.457  -1.346   0.109  0.00  0.00    +0.040 C 
ATOM      9  C   UNL     1      -2.772  -0.368   0.677  0.00  0.00    +0.014 C 
ATOM     10  C   UNL     1      -1.367   2.206   1.189  0.00  0.00    +0.111 C 
ATOM     11  C   UNL     1       1.676   1.419   1.073  0.00  0.00    +0.004 C 
ATOM     12  C   UNL     1      -3.589   0.856   1.089  0.00  0.00    +0.028 C 
ATOM     13  C   UNL     1      -2.696   1.823   1.879  0.00  0.00    +0.034 C 
ATOM     14  C   UNL     1       3.507  -0.230   0.407  0.00  0.00    +0.169 C 
ATOM     15  C   UNL     1      -2.836   1.048  -1.167  0.00  0.00    +0.171 C 
ATOM     16  C   UNL     1       0.202  -0.217   2.255  0.00  0.00    +0.000 C 
ATOM     17  C   UNL     1       3.038   0.809   1.421  0.00  0.00    +0.044 C 
ATOM     18  C   UNL     1      -3.959   1.407  -0.253  0.00  0.00    +0.012 C 
ATOM     19  C   UNL     1       2.943  -2.132  -1.143  0.00  0.00    +0.004 C 
ATOM     20  C   UNL     1       2.458  -2.367   1.265  0.00  0.00    +0.004 C 
ATOM     21  C   UNL     1      -5.065   2.046  -0.632  0.00  0.00    -0.002 C 
ENDROOT
BRANCH   6  22
ATOM     22  O   UNL     1      -0.709  -0.346  -2.514  0.00  0.00    -0.380 OA
ATOM     23  H   UNL     1      -1.411   0.150  -2.965  0.00  0.00    +0.211 HD
ENDBRANCH   6  22
BRANCH  10  24
ATOM     24  O   UNL     1      -1.559   3.431   0.466  0.00  0.00    -0.384 OA
ATOM     25  H   UNL     1      -0.730   3.682   0.028  0.00  0.00    +0.210 HD
ENDBRANCH  10  24
BRANCH   7  26
ATOM     26  O   UNL     1      -0.525  -2.511   0.377  0.00  0.00    -0.450 OA
BRANCH  26  28
ATOM     27  O   UNL     1      -1.963  -3.558  -1.097  0.00  0.00    -0.250 OA
ATOM     28  C   UNL     1      -1.484  -3.415   0.020  0.00  0.00    +0.318 C 
ATOM     29  C   UNL     1      -1.879  -4.231   1.212  0.00  0.00    +0.121 C 
ENDBRANCH  26  28
ENDBRANCH   7  26
BRANCH  14  30
ATOM     30  O   UNL     1       3.897   0.455  -0.788  0.00  0.00    -0.452 OA
BRANCH  30  32
ATOM     31  O   UNL     1       5.727   1.440   0.219  0.00  0.00    -0.250 OA
ATOM     32  C   UNL     1       4.844   1.423  -0.627  0.00  0.00    +0.317 C 
ATOM     33  C   UNL     1       4.650   2.493  -1.659  0.00  0.00    +0.121 C 
ENDBRANCH  30  32
ENDBRANCH  14  30
TORSDOF 6
