10342874
  -OEChem-03292013303D

 65 68  0     1  0  0  0  0  0999 V2000
   -0.5254   -2.5106    0.3773 O   0  0  0  0  0  0  0  0  0  0  0  0
   -0.7094   -0.3463   -2.5142 O   0  0  0  0  0  0  0  0  0  0  0  0
   -1.5587    3.4313    0.4657 O   0  0  0  0  0  0  0  0  0  0  0  0
    3.8969    0.4551   -0.7883 O   0  0  0  0  0  0  0  0  0  0  0  0
   -2.7470    1.4363   -2.3200 O   0  0  0  0  0  0  0  0  0  0  0  0
   -1.9627   -3.5576   -1.0974 O   0  0  0  0  0  0  0  0  0  0  0  0
    5.7273    1.4402    0.2194 O   0  0  0  0  0  0  0  0  0  0  0  0
    0.5319    0.3731    0.8630 C   0  0  1  0  0  0  0  0  0  0  0  0
   -0.7330    1.1344    0.2321 C   0  0  1  0  0  0  0  0  0  0  0  0
   -1.8141    0.1891   -0.3982 C   0  0  1  0  0  0  0  0  0  0  0  0
    1.0506   -0.6871   -0.1897 C   0  0  2  0  0  0  0  0  0  0  0  0
   -1.2265   -0.9098   -1.3021 C   0  0  2  0  0  0  0  0  0  0  0  0
   -0.0586   -1.6698   -0.6617 C   0  0  2  0  0  0  0  0  0  0  0  0
    2.4573   -1.3464    0.1087 C   0  0  0  0  0  0  0  0  0  0  0  0
   -2.7717   -0.3685    0.6773 C   0  0  0  0  0  0  0  0  0  0  0  0
   -1.3667    2.2059    1.1888 C   0  0  2  0  0  0  0  0  0  0  0  0
    1.6758    1.4193    1.0727 C   0  0  0  0  0  0  0  0  0  0  0  0
   -3.5890    0.8558    1.0892 C   0  0  1  0  0  0  0  0  0  0  0  0
   -2.6958    1.8225    1.8791 C   0  0  0  0  0  0  0  0  0  0  0  0
    3.5068   -0.2304    0.4067 C   0  0  2  0  0  0  0  0  0  0  0  0
   -2.8362    1.0475   -1.1669 C   0  0  0  0  0  0  0  0  0  0  0  0
    0.2021   -0.2168    2.2551 C   0  0  0  0  0  0  0  0  0  0  0  0
    3.0379    0.8094    1.4207 C   0  0  0  0  0  0  0  0  0  0  0  0
   -3.9588    1.4067   -0.2528 C   0  0  0  0  0  0  0  0  0  0  0  0
    2.9428   -2.1317   -1.1429 C   0  0  0  0  0  0  0  0  0  0  0  0
    2.4585   -2.3668    1.2647 C   0  0  0  0  0  0  0  0  0  0  0  0
   -5.0652    2.0459   -0.6317 C   0  0  0  0  0  0  0  0  0  0  0  0
   -1.4838   -3.4152    0.0196 C   0  0  0  0  0  0  0  0  0  0  0  0
    4.8442    1.4231   -0.6273 C   0  0  0  0  0  0  0  0  0  0  0  0
   -1.8793   -4.2315    1.2125 C   0  0  0  0  0  0  0  0  0  0  0  0
    4.6498    2.4926   -1.6590 C   0  0  0  0  0  0  0  0  0  0  0  0
   -0.3207    1.7041   -0.6146 H   0  0  0  0  0  0  0  0  0  0  0  0
    1.2736   -0.0775   -1.0794 H   0  0  0  0  0  0  0  0  0  0  0  0
   -2.0531   -1.5261   -1.6477 H   0  0  0  0  0  0  0  0  0  0  0  0
    0.3700   -2.3118   -1.4400 H   0  0  0  0  0  0  0  0  0  0  0  0
   -2.2790   -0.8230    1.5348 H   0  0  0  0  0  0  0  0  0  0  0  0
   -3.4379   -1.1335    0.2530 H   0  0  0  0  0  0  0  0  0  0  0  0
   -0.6698    2.4859    1.9827 H   0  0  0  0  0  0  0  0  0  0  0  0
    1.4146    2.1243    1.8697 H   0  0  0  0  0  0  0  0  0  0  0  0
    1.7920    2.0210    0.1619 H   0  0  0  0  0  0  0  0  0  0  0  0
   -4.4669    0.5669    1.6761 H   0  0  0  0  0  0  0  0  0  0  0  0
   -3.2646    2.7304    2.1172 H   0  0  0  0  0  0  0  0  0  0  0  0
   -2.4630    1.3410    2.8369 H   0  0  0  0  0  0  0  0  0  0  0  0
    4.4125   -0.7144    0.7989 H   0  0  0  0  0  0  0  0  0  0  0  0
   -0.3621   -1.1451    2.2175 H   0  0  0  0  0  0  0  0  0  0  0  0
    1.0896   -0.4259    2.8513 H   0  0  0  0  0  0  0  0  0  0  0  0
   -0.3682    0.4810    2.8717 H   0  0  0  0  0  0  0  0  0  0  0  0
    3.7412    1.6371    1.5496 H   0  0  0  0  0  0  0  0  0  0  0  0
    2.9889    0.3407    2.4091 H   0  0  0  0  0  0  0  0  0  0  0  0
    3.9995   -2.4086   -1.0456 H   0  0  0  0  0  0  0  0  0  0  0  0
    2.3853   -3.0641   -1.2811 H   0  0  0  0  0  0  0  0  0  0  0  0
    2.8389   -1.5406   -2.0594 H   0  0  0  0  0  0  0  0  0  0  0  0
    1.7289   -3.1657    1.1082 H   0  0  0  0  0  0  0  0  0  0  0  0
    3.4385   -2.8551    1.3414 H   0  0  0  0  0  0  0  0  0  0  0  0
    2.2730   -1.9228    2.2402 H   0  0  0  0  0  0  0  0  0  0  0  0
   -0.2921    0.5084   -2.3238 H   0  0  0  0  0  0  0  0  0  0  0  0
   -0.6861    3.7271    0.1546 H   0  0  0  0  0  0  0  0  0  0  0  0
   -5.8538    2.2564    0.0827 H   0  0  0  0  0  0  0  0  0  0  0  0
   -5.2117    2.3739   -1.6550 H   0  0  0  0  0  0  0  0  0  0  0  0
   -2.2930   -3.5798    1.9861 H   0  0  0  0  0  0  0  0  0  0  0  0
   -1.0115   -4.7768    1.5918 H   0  0  0  0  0  0  0  0  0  0  0  0
   -2.6456   -4.9548    0.9194 H   0  0  0  0  0  0  0  0  0  0  0  0
    3.6650    2.9506   -1.5374 H   0  0  0  0  0  0  0  0  0  0  0  0
    4.7552    2.0660   -2.6596 H   0  0  0  0  0  0  0  0  0  0  0  0
    5.4120    3.2659   -1.5276 H   0  0  0  0  0  0  0  0  0  0  0  0
  1 13  1  0  0  0  0
  1 28  1  0  0  0  0
  2 12  1  0  0  0  0
  2 56  1  0  0  0  0
  3 16  1  0  0  0  0
  3 57  1  0  0  0  0
  4 20  1  0  0  0  0
  4 29  1  0  0  0  0
  5 21  2  0  0  0  0
  6 28  2  0  0  0  0
  7 29  2  0  0  0  0
  8  9  1  0  0  0  0
  8 11  1  0  0  0  0
  8 17  1  0  0  0  0
  8 22  1  0  0  0  0
  9 10  1  0  0  0  0
  9 16  1  0  0  0  0
  9 32  1  0  0  0  0
 10 12  1  0  0  0  0
 10 15  1  0  0  0  0
 10 21  1  0  0  0  0
 11 13  1  0  0  0  0
 11 14  1  0  0  0  0
 11 33  1  0  0  0  0
 12 13  1  0  0  0  0
 12 34  1  0  0  0  0
 13 35  1  0  0  0  0
 14 20  1  0  0  0  0
 14 25  1  0  0  0  0
 14 26  1  0  0  0  0
 15 18  1  0  0  0  0
 15 36  1  0  0  0  0
 15 37  1  0  0  0  0
 16 19  1  0  0  0  0
 16 38  1  0  0  0  0
 17 23  1  0  0  0  0
 17 39  1  0  0  0  0
 17 40  1  0  0  0  0
 18 19  1  0  0  0  0
 18 24  1  0  0  0  0
 18 41  1  0  0  0  0
 19 42  1  0  0  0  0
 19 43  1  0  0  0  0
 20 23  1  0  0  0  0
 20 44  1  0  0  0  0
 21 24  1  0  0  0  0
 22 45  1  0  0  0  0
 22 46  1  0  0  0  0
 22 47  1  0  0  0  0
 23 48  1  0  0  0  0
 23 49  1  0  0  0  0
 24 27  2  0  0  0  0
 25 50  1  0  0  0  0
 25 51  1  0  0  0  0
 25 52  1  0  0  0  0
 26 53  1  0  0  0  0
 26 54  1  0  0  0  0
 26 55  1  0  0  0  0
 27 58  1  0  0  0  0
 27 59  1  0  0  0  0
 28 30  1  0  0  0  0
 29 31  1  0  0  0  0
 30 60  1  0  0  0  0
 30 61  1  0  0  0  0
 30 62  1  0  0  0  0
 31 63  1  0  0  0  0
 31 64  1  0  0  0  0
 31 65  1  0  0  0  0
M  END
> <PUBCHEM_COMPOUND_CID>
10342874

> <PUBCHEM_CONFORMER_RMSD>
0.8

> <PUBCHEM_CONFORMER_DIVERSEORDER>
1
4
2
3

> <PUBCHEM_MMFF94_PARTIAL_CHARGES>
24
1 -0.43
10 0.06
12 0.28
13 0.28
16 0.28
18 0.14
2 -0.68
20 0.28
21 0.49
24 -0.12
27 -0.3
28 0.66
29 0.66
3 -0.68
30 0.06
31 0.06
4 -0.43
5 -0.57
56 0.4
57 0.4
58 0.15
59 0.15
6 -0.57
7 -0.57

> <PUBCHEM_EFFECTIVE_ROTOR_COUNT>
5.8

> <PUBCHEM_PHARMACOPHORE_FEATURES>
11
1 2 acceptor
1 2 donor
1 3 acceptor
1 3 donor
1 5 acceptor
1 6 acceptor
1 7 acceptor
3 14 25 26 hydrophobe
6 8 11 14 17 20 23 rings
6 8 9 10 11 12 13 rings
8 9 10 15 16 18 19 21 24 rings

> <PUBCHEM_HEAVY_ATOM_COUNT>
31

> <PUBCHEM_ATOM_DEF_STEREO_COUNT>
9

> <PUBCHEM_ATOM_UDEF_STEREO_COUNT>
0

> <PUBCHEM_BOND_DEF_STEREO_COUNT>
0

> <PUBCHEM_BOND_UDEF_STEREO_COUNT>
0

> <PUBCHEM_ISOTOPIC_ATOM_COUNT>
0

> <PUBCHEM_COMPONENT_COUNT>
1

> <PUBCHEM_CACTVS_TAUTO_COUNT>
1

> <PUBCHEM_CONFORMER_ID>
009DD1DA00000001

> <PUBCHEM_MMFF94_ENERGY>
138.3235

> <PUBCHEM_FEATURE_SELFOVERLAP>
55.856

> <PUBCHEM_SHAPE_FINGERPRINT>
10863032 1 18412543185023700451
11578080 2 18194150540636685398
11582403 64 15361866766870322807
12156800 1 17405201559809643087
12173636 292 18341337682126721913
12403814 3 17749103426315975911
12788726 201 18267291209341819003
13140716 1 18127115601481987072
13224815 77 17987508217468815393
13583140 156 17531531962569991898
13911987 19 18409442566834730005
13994607 96 18272655670722579173
14363568 33 17113833340327737866
14713325 29 18268438000132502626
14787075 74 18342168978032874751
14790565 3 18199478666410817129
16945 1 17845643747027788831
17492 54 18131346388970957909
1813 80 17834395619250082710
20691752 17 18126817492080977737
21033650 10 16988016989814356112
21756936 100 18131074831200022736
22182313 1 17771053089069587928
22907989 373 18268709596230550828
23227448 37 18335708303215505900
23559900 14 17970911059409119898
2748010 2 17698140078974099864
283562 15 17974284623477438610
350125 39 18194406816607448027
35225 105 18186792595907331211
3759504 43 18409729573354225383
4058900 60 18266466395553711345
469060 322 17460030892882191559
474 4 18340205167991024124
59444896 2 17035904260225247817
633830 44 18056483846286132607
70251023 43 17339562588638447887
9981440 41 16911108517419047898

> <PUBCHEM_SHAPE_MULTIPOLES>
596.88
8.41
4.03
1.88
6.24
3.66
0.24
-6.54
1.74
-1.51
-0.22
-0.36
-0.3
-0.49

> <PUBCHEM_SHAPE_SELFOVERLAP>
1276.926

> <PUBCHEM_SHAPE_VOLUME>
324.1

> <PUBCHEM_COORDINATE_TYPE>
2
5
10

$$$$
