10342420
  -OEChem-03292013303D

 68 69  0     1  0  0  0  0  0999 V2000
    2.1428    1.0386   -0.0402 O   0  0  0  0  0  0  0  0  0  0  0  0
    6.1630   -0.5088   -0.2042 O   0  0  0  0  0  0  0  0  0  0  0  0
   -2.5670   -1.6158   -2.8703 O   0  0  0  0  0  0  0  0  0  0  0  0
    2.5547    2.5165   -1.7630 O   0  0  0  0  0  0  0  0  0  0  0  0
   -4.4291    1.4448   -0.5066 O   0  0  0  0  0  0  0  0  0  0  0  0
   -7.9158    1.3096    1.0165 O   0  0  0  0  0  0  0  0  0  0  0  0
   -5.9339    1.1559    2.1181 O   0  0  0  0  0  0  0  0  0  0  0  0
    2.0328   -1.4086   -0.1347 C   0  0  2  0  0  0  0  0  0  0  0  0
    0.5168   -1.5439    0.1717 C   0  0  2  0  0  0  0  0  0  0  0  0
    2.8360   -1.5826    1.1837 C   0  0  2  0  0  0  0  0  0  0  0  0
    2.4558   -0.1004   -0.8370 C   0  0  2  0  0  0  0  0  0  0  0  0
    0.2041   -2.9608    0.7470 C   0  0  2  0  0  0  0  0  0  0  0  0
    4.3378   -1.6304    0.8736 C   0  0  0  0  0  0  0  0  0  0  0  0
    3.9630   -0.0984   -1.1105 C   0  0  0  0  0  0  0  0  0  0  0  0
    4.7913   -0.3624    0.1492 C   0  0  2  0  0  0  0  0  0  0  0  0
   -0.3756   -1.2028   -1.0253 C   0  0  0  0  0  0  0  0  0  0  0  0
    2.3915   -2.7816    1.9759 C   0  0  0  0  0  0  0  0  0  0  0  0
    1.2167   -3.3945    1.7786 C   0  0  0  0  0  0  0  0  0  0  0  0
   -1.8491   -1.1815   -0.6198 C   0  0  0  0  0  0  0  0  0  0  0  0
    0.0901   -4.0614   -0.3154 C   0  0  0  0  0  0  0  0  0  0  0  0
   -2.7971   -0.7581   -1.7499 C   0  0  2  0  0  0  0  0  0  0  0  0
    2.4968    2.2495   -0.5695 C   0  0  0  0  0  0  0  0  0  0  0  0
   -4.2941   -0.7973   -1.4048 C   0  0  0  0  0  0  0  0  0  0  0  0
    2.8409    3.2191    0.5483 C   0  0  2  0  0  0  0  0  0  0  0  0
   -4.7123    0.0774   -0.2168 C   0  0  2  0  0  0  0  0  0  0  0  0
    1.9339    4.4577    0.5163 C   0  0  0  0  0  0  0  0  0  0  0  0
    4.3086    3.6132    0.4079 C   0  0  0  0  0  0  0  0  0  0  0  0
   -6.2133   -0.0515    0.0433 C   0  0  0  0  0  0  0  0  0  0  0  0
    0.4592    4.1063    0.6662 C   0  0  0  0  0  0  0  0  0  0  0  0
   -6.6485    0.8523    1.1717 C   0  0  0  0  0  0  0  0  0  0  0  0
    2.3057   -2.2275   -0.8168 H   0  0  0  0  0  0  0  0  0  0  0  0
    0.2880   -0.8144    0.9640 H   0  0  0  0  0  0  0  0  0  0  0  0
    2.6592   -0.7113    1.8306 H   0  0  0  0  0  0  0  0  0  0  0  0
    1.9392   -0.0155   -1.7999 H   0  0  0  0  0  0  0  0  0  0  0  0
   -0.7575   -2.9061    1.2737 H   0  0  0  0  0  0  0  0  0  0  0  0
    4.5796   -2.5135    0.2662 H   0  0  0  0  0  0  0  0  0  0  0  0
    4.9188   -1.7441    1.7984 H   0  0  0  0  0  0  0  0  0  0  0  0
    4.1883   -0.8843   -1.8451 H   0  0  0  0  0  0  0  0  0  0  0  0
    4.3221    0.8240   -1.5779 H   0  0  0  0  0  0  0  0  0  0  0  0
    4.7148    0.4913    0.8304 H   0  0  0  0  0  0  0  0  0  0  0  0
   -0.1956   -1.8850   -1.8627 H   0  0  0  0  0  0  0  0  0  0  0  0
   -0.1395   -0.1979   -1.3914 H   0  0  0  0  0  0  0  0  0  0  0  0
    3.0427   -3.1427    2.7674 H   0  0  0  0  0  0  0  0  0  0  0  0
    0.9633   -4.2498    2.4000 H   0  0  0  0  0  0  0  0  0  0  0  0
   -1.9725   -0.5011    0.2305 H   0  0  0  0  0  0  0  0  0  0  0  0
   -2.1599   -2.1762   -0.2840 H   0  0  0  0  0  0  0  0  0  0  0  0
   -0.7601   -3.9016   -0.9844 H   0  0  0  0  0  0  0  0  0  0  0  0
   -0.0647   -5.0406    0.1535 H   0  0  0  0  0  0  0  0  0  0  0  0
    0.9953   -4.1322   -0.9275 H   0  0  0  0  0  0  0  0  0  0  0  0
   -2.5330    0.2552   -2.0736 H   0  0  0  0  0  0  0  0  0  0  0  0
    6.6644   -0.6530    0.6164 H   0  0  0  0  0  0  0  0  0  0  0  0
   -4.5891   -1.8378   -1.2155 H   0  0  0  0  0  0  0  0  0  0  0  0
   -4.8485   -0.4893   -2.3018 H   0  0  0  0  0  0  0  0  0  0  0  0
    2.7123    2.7111    1.5126 H   0  0  0  0  0  0  0  0  0  0  0  0
   -4.1515   -0.2050    0.6805 H   0  0  0  0  0  0  0  0  0  0  0  0
   -2.7830   -2.5242   -2.5984 H   0  0  0  0  0  0  0  0  0  0  0  0
    2.2198    5.1399    1.3260 H   0  0  0  0  0  0  0  0  0  0  0  0
    2.0697    5.0032   -0.4258 H   0  0  0  0  0  0  0  0  0  0  0  0
    4.9606    2.7352    0.4155 H   0  0  0  0  0  0  0  0  0  0  0  0
    4.4910    4.1465   -0.5319 H   0  0  0  0  0  0  0  0  0  0  0  0
    4.6146    4.2665    1.2317 H   0  0  0  0  0  0  0  0  0  0  0  0
   -6.4882   -1.0803    0.2968 H   0  0  0  0  0  0  0  0  0  0  0  0
   -6.7641    0.2512   -0.8559 H   0  0  0  0  0  0  0  0  0  0  0  0
   -4.5188    1.9505    0.3186 H   0  0  0  0  0  0  0  0  0  0  0  0
    0.2820    3.5466    1.5901 H   0  0  0  0  0  0  0  0  0  0  0  0
   -0.1421    5.0203    0.7035 H   0  0  0  0  0  0  0  0  0  0  0  0
    0.0998    3.5064   -0.1754 H   0  0  0  0  0  0  0  0  0  0  0  0
   -8.1838    1.9019    1.7511 H   0  0  0  0  0  0  0  0  0  0  0  0
  1 11  1  0  0  0  0
  1 22  1  0  0  0  0
  2 15  1  0  0  0  0
  2 51  1  0  0  0  0
  3 21  1  0  0  0  0
  3 56  1  0  0  0  0
  4 22  2  0  0  0  0
  5 25  1  0  0  0  0
  5 64  1  0  0  0  0
  6 30  1  0  0  0  0
  6 68  1  0  0  0  0
  7 30  2  0  0  0  0
  8  9  1  0  0  0  0
  8 10  1  0  0  0  0
  8 11  1  0  0  0  0
  8 31  1  0  0  0  0
  9 12  1  0  0  0  0
  9 16  1  0  0  0  0
  9 32  1  0  0  0  0
 10 13  1  0  0  0  0
 10 17  1  0  0  0  0
 10 33  1  0  0  0  0
 11 14  1  0  0  0  0
 11 34  1  0  0  0  0
 12 18  1  0  0  0  0
 12 20  1  0  0  0  0
 12 35  1  0  0  0  0
 13 15  1  0  0  0  0
 13 36  1  0  0  0  0
 13 37  1  0  0  0  0
 14 15  1  0  0  0  0
 14 38  1  0  0  0  0
 14 39  1  0  0  0  0
 15 40  1  0  0  0  0
 16 19  1  0  0  0  0
 16 41  1  0  0  0  0
 16 42  1  0  0  0  0
 17 18  2  0  0  0  0
 17 43  1  0  0  0  0
 18 44  1  0  0  0  0
 19 21  1  0  0  0  0
 19 45  1  0  0  0  0
 19 46  1  0  0  0  0
 20 47  1  0  0  0  0
 20 48  1  0  0  0  0
 20 49  1  0  0  0  0
 21 23  1  0  0  0  0
 21 50  1  0  0  0  0
 22 24  1  0  0  0  0
 23 25  1  0  0  0  0
 23 52  1  0  0  0  0
 23 53  1  0  0  0  0
 24 26  1  0  0  0  0
 24 27  1  0  0  0  0
 24 54  1  0  0  0  0
 25 28  1  0  0  0  0
 25 55  1  0  0  0  0
 26 29  1  0  0  0  0
 26 57  1  0  0  0  0
 26 58  1  0  0  0  0
 27 59  1  0  0  0  0
 27 60  1  0  0  0  0
 27 61  1  0  0  0  0
 28 30  1  0  0  0  0
 28 62  1  0  0  0  0
 28 63  1  0  0  0  0
 29 65  1  0  0  0  0
 29 66  1  0  0  0  0
 29 67  1  0  0  0  0
M  END
> <PUBCHEM_COMPOUND_CID>
10342420

> <PUBCHEM_CONFORMER_RMSD>
1.2

> <PUBCHEM_CONFORMER_DIVERSEORDER>
1
44
34
7
14
54
20
50
36
38
45
53
5
26
52
4
51
49
22
46
16
23
8
29
3
18
10
40
11
30
21
19
27
42
41
33
35
15
24
55
48
43
32
25
39
37
12
13
2
31
28
9
47
17
6

> <PUBCHEM_MMFF94_PARTIAL_CHARGES>
25
1 -0.43
10 0.14
11 0.28
12 0.14
15 0.28
17 -0.29
18 -0.29
2 -0.68
21 0.28
22 0.66
24 0.06
25 0.28
28 0.06
3 -0.68
30 0.66
4 -0.57
43 0.15
44 0.15
5 -0.68
51 0.4
56 0.4
6 -0.65
64 0.4
68 0.5
7 -0.57

> <PUBCHEM_EFFECTIVE_ROTOR_COUNT>
12.2

> <PUBCHEM_PHARMACOPHORE_FEATURES>
14
1 2 acceptor
1 2 donor
1 27 hydrophobe
1 29 hydrophobe
1 3 acceptor
1 3 donor
1 4 acceptor
1 5 acceptor
1 5 donor
1 6 acceptor
1 7 acceptor
3 6 7 30 anion
6 8 10 11 13 14 15 rings
6 8 9 10 12 17 18 rings

> <PUBCHEM_HEAVY_ATOM_COUNT>
30

> <PUBCHEM_ATOM_DEF_STEREO_COUNT>
9

> <PUBCHEM_ATOM_UDEF_STEREO_COUNT>
0

> <PUBCHEM_BOND_DEF_STEREO_COUNT>
0

> <PUBCHEM_BOND_UDEF_STEREO_COUNT>
0

> <PUBCHEM_ISOTOPIC_ATOM_COUNT>
0

> <PUBCHEM_COMPONENT_COUNT>
1

> <PUBCHEM_CACTVS_TAUTO_COUNT>
1

> <PUBCHEM_CONFORMER_ID>
009DD01400000001

> <PUBCHEM_MMFF94_ENERGY>
58.2636

> <PUBCHEM_FEATURE_SELFOVERLAP>
71.124

> <PUBCHEM_SHAPE_FINGERPRINT>
10165383 225 17676780837502692374
10674148 151 18273220768851017990
10906281 52 18339927134216807524
1100329 8 18336253652772671690
11578080 2 17824836778674382852
11646440 116 18335695010645074602
12788726 201 18335415713781512706
13140716 1 18043514222295738434
13583140 156 18115858621564855735
14251764 75 18263932213992478973
146900 427 18334579032033713691
14849402 71 18334576879965026028
14955137 171 18337669703052916898
15475509 8 18201730505290106078
16112460 7 18272097114284000633
19752476 56 18200028585522574164
21458453 9 17604725494359897971
21591340 35 18269831089517285288
22122407 14 18339656551319786689
23558518 356 17828759883027723750
3178227 256 18113903745234620938
373842 8 17834391229687907161
38570 142 18341065110722646397
5104073 3 18188201134394614499
5252454 2 18042402615564901102
57527295 17 18124316271296144246
57527573 199 18124028198976119716
5895379 119 17417824923695779288
9981440 41 17189796374430628168

> <PUBCHEM_SHAPE_MULTIPOLES>
576.3
14.11
5.42
1.79
28.41
3.64
0.27
6.9
-3.65
-5.91
-2.01
1.4
-0.73
-2.42

> <PUBCHEM_SHAPE_SELFOVERLAP>
1160.516

> <PUBCHEM_SHAPE_VOLUME>
333.5

> <PUBCHEM_COORDINATE_TYPE>
2
5
10

$$$$
