REMARK  Name = 10341838
REMARK  9 active torsions:
REMARK  status: ('A' for Active; 'I' for Inactive)
REMARK    1  A    between atoms: C_2  and  C_7
REMARK    2  A    between atoms: C_2  and  O_19
REMARK    3  A    between atoms: C_8  and  O_15
REMARK    4  A    between atoms: C_10  and  O_17
REMARK    5  A    between atoms: O_19  and  C_20
REMARK    6  A    between atoms: C_21  and  C_31
REMARK    7  A    between atoms: C_22  and  O_28
REMARK    8  A    between atoms: C_24  and  O_26
REMARK    9  A    between atoms: C_31  and  O_32
REMARK                            x       y       z     vdW  Elec       q    Type
REMARK                         _______ _______ _______ _____ _____    ______ ____
ROOT
ATOM      1  O   UNL     1      -0.838  -0.759  -1.762  0.00  0.00    -0.244 OA
ATOM      2  C   UNL     1      -0.312  -0.766  -0.643  0.00  0.00    +0.352 C 
ENDROOT
BRANCH   2   7
ATOM      3  O   UNL     1       5.395   1.370   0.202  0.00  0.00    -0.425 OA
ATOM      4  O   UNL     1       3.552   2.625  -0.119  0.00  0.00    -0.244 OA
ATOM      5  C   UNL     1       3.261   0.264  -0.106  0.00  0.00    +0.110 C 
ATOM      6  C   UNL     1       3.888  -0.979   0.022  0.00  0.00    +0.015 C 
ATOM      7  C   UNL     1       1.128  -0.834  -0.415  0.00  0.00    +0.143 C 
ATOM      8  C   UNL     1       1.881   0.338  -0.325  0.00  0.00    +0.149 C 
ATOM      9  C   UNL     1       3.126  -2.149  -0.070  0.00  0.00    +0.037 C 
ATOM     10  C   UNL     1       1.749  -2.075  -0.288  0.00  0.00    +0.143 C 
ATOM     11  C   UNL     1       5.323  -1.041   0.249  0.00  0.00    +0.033 C 
ATOM     12  C   UNL     1       4.053   1.513  -0.012  0.00  0.00    +0.348 C 
ATOM     13  C   UNL     1       6.012   0.104   0.330  0.00  0.00    +0.127 C 
ATOM     14  C   UNL     1       7.486   0.167   0.561  0.00  0.00    +0.073 C 
BRANCH   8  15
ATOM     15  O   UNL     1       1.235   1.533  -0.455  0.00  0.00    -0.505 OA
ATOM     16  H   UNL     1       1.717   2.335  -0.398  0.00  0.00    +0.292 HD
ENDBRANCH   8  15
BRANCH  10  17
ATOM     17  O   UNL     1       1.031  -3.230  -0.374  0.00  0.00    -0.505 OA
ATOM     18  H   UNL     1       0.106  -3.197  -0.520  0.00  0.00    +0.292 HD
ENDBRANCH  10  17
ENDBRANCH   2   7
BRANCH   2  19
ATOM     19  O   UNL     1      -1.002  -0.703   0.564  0.00  0.00    -0.418 OA
BRANCH  19  20
ATOM     20  C   UNL     1      -2.390  -0.636   0.421  0.00  0.00    +0.189 C 
ATOM     21  C   UNL     1      -2.996   0.598   0.324  0.00  0.00    +0.116 C 
ATOM     22  C   UNL     1      -3.105  -1.815   0.381  0.00  0.00    +0.172 C 
ATOM     23  C   UNL     1      -4.382   0.657   0.180  0.00  0.00    +0.047 C 
ATOM     24  C   UNL     1      -5.129  -0.519   0.136  0.00  0.00    +0.142 C 
ATOM     25  C   UNL     1      -4.491  -1.755   0.237  0.00  0.00    +0.077 C 
BRANCH  24  26
ATOM     26  O   UNL     1      -6.482  -0.461  -0.003  0.00  0.00    -0.471 OA
ATOM     27  C   UNL     1      -7.070   0.835  -0.100  0.00  0.00    +0.252 C 
ENDBRANCH  24  26
BRANCH  22  28
ATOM     28  O   UNL     1      -2.494  -3.029   0.477  0.00  0.00    -0.503 OA
ATOM     29  H   UNL     1      -1.564  -3.079   0.574  0.00  0.00    +0.292 HD
ENDBRANCH  22  28
BRANCH  21  31
ATOM     30  O   UNL     1      -1.173   1.986   0.985  0.00  0.00    -0.245 OA
ATOM     31  C   UNL     1      -2.234   1.839   0.367  0.00  0.00    +0.345 C 
BRANCH  31  32
ATOM     32  O   UNL     1      -2.839   2.824  -0.364  0.00  0.00    -0.441 OA
ATOM     33  C   UNL     1      -2.183   4.096  -0.400  0.00  0.00    +0.256 C 
ENDBRANCH  31  32
ENDBRANCH  21  31
ENDBRANCH  19  20
ENDBRANCH   2  19
TORSDOF 9
