REMARK  Name = 10341191
REMARK  4 active torsions:
REMARK  status: ('A' for Active; 'I' for Inactive)
REMARK    1  A    between atoms: C_1  and  C_13
REMARK    2  A    between atoms: C_2  and  C_8
REMARK    3  A    between atoms: C_2  and  C_19
REMARK    4  A    between atoms: C_24  and  S_25
REMARK                            x       y       z     vdW  Elec       q    Type
REMARK                         _______ _______ _______ _____ _____    ______ ____
ROOT
ATOM      1  C   UNL     1       1.066   1.610  -0.919  0.00  0.00    +0.013 C 
ATOM      2  C   UNL     1       0.515   0.260  -1.218  0.00  0.00    +0.088 C 
ATOM      3  C   UNL     1       0.640   1.283  -2.308  0.00  0.00    +0.013 C 
ENDROOT
BRANCH   2   8
ATOM      4  S   UNL     1       3.806  -1.848   1.829  0.00  0.00    -0.051 S 
ATOM      5  O   UNL     1       1.599  -1.518  -2.249  0.00  0.00    -0.274 OA
ATOM      6  N   UNL     1       2.170  -0.985  -0.028  0.00  0.00    -0.264 N 
ATOM      7  N   UNL     1       3.591  -2.864  -0.539  0.00  0.00    -0.222 NA
ATOM      8  C   UNL     1       1.492  -0.854  -1.228  0.00  0.00    +0.230 C 
ATOM      9  C   UNL     1       3.149  -1.940   0.259  0.00  0.00    +0.166 C 
ATOM     10  C   UNL     1       4.804  -3.187   1.436  0.00  0.00    +0.059 C 
ATOM     11  C   UNL     1       4.551  -3.588   0.141  0.00  0.00    +0.108 C 
ATOM     12  H   UNL     1       1.943  -0.348   0.687  0.00  0.00    +0.157 HD
ENDBRANCH   2   8
BRANCH   1  13
ATOM     13  C   UNL     1       0.247   2.614  -0.144  0.00  0.00    +0.001 C 
ATOM     14  C   UNL     1       0.442   2.463   1.372  0.00  0.00    +0.000 C 
ATOM     15  C   UNL     1       0.526   4.053  -0.601  0.00  0.00    +0.000 C 
ATOM     16  C   UNL     1       1.782   3.010   1.863  0.00  0.00    +0.000 C 
ATOM     17  C   UNL     1       1.866   4.593  -0.102  0.00  0.00    +0.000 C 
ATOM     18  C   UNL     1       2.004   4.449   1.410  0.00  0.00    +0.000 C 
ENDBRANCH   1  13
BRANCH   2  19
ATOM     19  C   UNL     1      -0.853  -0.112  -0.766  0.00  0.00    -0.015 C 
ATOM     20  C   UNL     1      -1.049  -0.633   0.514  0.00  0.00    -0.003 C 
ATOM     21  C   UNL     1      -1.943   0.059  -1.621  0.00  0.00    -0.003 C 
ATOM     22  C   UNL     1      -2.331  -0.982   0.938  0.00  0.00    +0.018 C 
ATOM     23  C   UNL     1      -3.225  -0.290  -1.197  0.00  0.00    +0.018 C 
ATOM     24  C   UNL     1      -3.420  -0.810   0.082  0.00  0.00    +0.106 C 
BRANCH  24  25
ATOM     25  S   UNL     1      -5.025  -1.247   0.613  0.00  0.00    +0.010 S 
ATOM     26  O   UNL     1      -5.826  -1.532  -0.569  0.00  0.00    -0.169 OA
ATOM     27  O   UNL     1      -4.918  -2.242   1.671  0.00  0.00    -0.169 OA
ATOM     28  C   UNL     1      -5.661   0.237   1.360  0.00  0.00    +0.182 C 
ENDBRANCH  24  25
ENDBRANCH   2  19
TORSDOF 4
