10341941
  -OEChem-03292013303D

 52 55  0     1  0  0  0  0  0999 V2000
    3.4775    0.5809   -0.5372 O   0  0  0  0  0  0  0  0  0  0  0  0
    2.8907   -1.6740   -0.4164 O   0  0  0  0  0  0  0  0  0  0  0  0
    7.3832   -0.2504    0.4225 O   0  0  0  0  0  0  0  0  0  0  0  0
    6.3903    2.4546    0.6537 O   0  0  0  0  0  0  0  0  0  0  0  0
    5.2547   -2.1879    1.0518 O   0  0  0  0  0  0  0  0  0  0  0  0
    2.4301    3.1184   -0.6811 O   0  0  0  0  0  0  0  0  0  0  0  0
   -1.2750   -0.8774    1.7074 O   0  0  0  0  0  0  0  0  0  0  0  0
   -3.2395   -0.9367   -1.9000 O   0  0  0  0  0  0  0  0  0  0  0  0
   -8.4129    1.7861    0.0752 O   0  0  0  0  0  0  0  0  0  0  0  0
    6.0197    0.0734    0.6992 C   0  0  1  0  0  0  0  0  0  0  0  0
    5.6965    1.3945    0.0011 C   0  0  1  0  0  0  0  0  0  0  0  0
    5.1170   -1.0534    0.1966 C   0  0  2  0  0  0  0  0  0  0  0  0
    4.1924    1.6753    0.0395 C   0  0  1  0  0  0  0  0  0  0  0  0
    3.6481   -0.6303    0.1952 C   0  0  1  0  0  0  0  0  0  0  0  0
    3.8314    2.9284   -0.7518 C   0  0  0  0  0  0  0  0  0  0  0  0
   -3.4061   -0.8247    0.5145 C   0  0  2  0  0  0  0  0  0  0  0  0
    1.5455   -1.4744   -0.5157 C   0  0  0  0  0  0  0  0  0  0  0  0
   -1.2054   -1.0719   -0.7230 C   0  0  0  0  0  0  0  0  0  0  0  0
   -2.4880   -0.1387    1.5265 C   0  0  0  0  0  0  0  0  0  0  0  0
   -0.5919   -1.0623    0.5334 C   0  0  0  0  0  0  0  0  0  0  0  0
   -2.6743   -0.9199   -0.8124 C   0  0  0  0  0  0  0  0  0  0  0  0
    0.7830   -1.2803    0.6363 C   0  0  0  0  0  0  0  0  0  0  0  0
    0.9349   -1.4615   -1.7700 C   0  0  0  0  0  0  0  0  0  0  0  0
   -4.7445   -0.1265    0.3965 C   0  0  0  0  0  0  0  0  0  0  0  0
   -0.4422   -1.2643   -1.8780 C   0  0  0  0  0  0  0  0  0  0  0  0
   -5.9192   -0.8212    0.6813 C   0  0  0  0  0  0  0  0  0  0  0  0
   -4.8006    1.2102    0.0043 C   0  0  0  0  0  0  0  0  0  0  0  0
   -7.1523   -0.1782    0.5734 C   0  0  0  0  0  0  0  0  0  0  0  0
   -6.0336    1.8533   -0.1036 C   0  0  0  0  0  0  0  0  0  0  0  0
   -7.2095    1.1591    0.1810 C   0  0  0  0  0  0  0  0  0  0  0  0
    5.9388    0.1744    1.7885 H   0  0  0  0  0  0  0  0  0  0  0  0
    6.0571    1.3458   -1.0347 H   0  0  0  0  0  0  0  0  0  0  0  0
    5.4328   -1.3667   -0.8063 H   0  0  0  0  0  0  0  0  0  0  0  0
    3.8456    1.8147    1.0725 H   0  0  0  0  0  0  0  0  0  0  0  0
    3.3086   -0.4941    1.2305 H   0  0  0  0  0  0  0  0  0  0  0  0
    4.1026    2.8281   -1.8079 H   0  0  0  0  0  0  0  0  0  0  0  0
    4.3126    3.8224   -0.3466 H   0  0  0  0  0  0  0  0  0  0  0  0
    7.9285    0.4897    0.7403 H   0  0  0  0  0  0  0  0  0  0  0  0
    6.3737    3.2279    0.0654 H   0  0  0  0  0  0  0  0  0  0  0  0
    4.6589   -2.8794    0.7161 H   0  0  0  0  0  0  0  0  0  0  0  0
   -3.5620   -1.8653    0.8331 H   0  0  0  0  0  0  0  0  0  0  0  0
   -2.9786   -0.0856    2.5056 H   0  0  0  0  0  0  0  0  0  0  0  0
   -2.2319    0.8912    1.2441 H   0  0  0  0  0  0  0  0  0  0  0  0
    1.2468   -1.3042    1.6189 H   0  0  0  0  0  0  0  0  0  0  0  0
    1.5275   -1.6122   -2.6684 H   0  0  0  0  0  0  0  0  0  0  0  0
    2.0062    2.3185   -1.0365 H   0  0  0  0  0  0  0  0  0  0  0  0
   -0.8997   -1.2740   -2.8632 H   0  0  0  0  0  0  0  0  0  0  0  0
   -5.8905   -1.8632    0.9882 H   0  0  0  0  0  0  0  0  0  0  0  0
   -3.8966    1.7660   -0.2289 H   0  0  0  0  0  0  0  0  0  0  0  0
   -8.0610   -0.7302    0.7979 H   0  0  0  0  0  0  0  0  0  0  0  0
   -6.0720    2.8947   -0.4115 H   0  0  0  0  0  0  0  0  0  0  0  0
   -9.1174    1.1573    0.3086 H   0  0  0  0  0  0  0  0  0  0  0  0
  1 13  1  0  0  0  0
  1 14  1  0  0  0  0
  2 14  1  0  0  0  0
  2 17  1  0  0  0  0
  3 10  1  0  0  0  0
  3 38  1  0  0  0  0
  4 11  1  0  0  0  0
  4 39  1  0  0  0  0
  5 12  1  0  0  0  0
  5 40  1  0  0  0  0
  6 15  1  0  0  0  0
  6 46  1  0  0  0  0
  7 19  1  0  0  0  0
  7 20  1  0  0  0  0
  8 21  2  0  0  0  0
  9 30  1  0  0  0  0
  9 52  1  0  0  0  0
 10 11  1  0  0  0  0
 10 12  1  0  0  0  0
 10 31  1  0  0  0  0
 11 13  1  0  0  0  0
 11 32  1  0  0  0  0
 12 14  1  0  0  0  0
 12 33  1  0  0  0  0
 13 15  1  0  0  0  0
 13 34  1  0  0  0  0
 14 35  1  0  0  0  0
 15 36  1  0  0  0  0
 15 37  1  0  0  0  0
 16 19  1  0  0  0  0
 16 21  1  0  0  0  0
 16 24  1  0  0  0  0
 16 41  1  0  0  0  0
 17 22  2  0  0  0  0
 17 23  1  0  0  0  0
 18 20  2  0  0  0  0
 18 21  1  0  0  0  0
 18 25  1  0  0  0  0
 19 42  1  0  0  0  0
 19 43  1  0  0  0  0
 20 22  1  0  0  0  0
 22 44  1  0  0  0  0
 23 25  2  0  0  0  0
 23 45  1  0  0  0  0
 24 26  2  0  0  0  0
 24 27  1  0  0  0  0
 25 47  1  0  0  0  0
 26 28  1  0  0  0  0
 26 48  1  0  0  0  0
 27 29  2  0  0  0  0
 27 49  1  0  0  0  0
 28 30  2  0  0  0  0
 28 50  1  0  0  0  0
 29 30  1  0  0  0  0
 29 51  1  0  0  0  0
M  END
> <PUBCHEM_COMPOUND_CID>
10341941

> <PUBCHEM_CONFORMER_RMSD>
0.8

> <PUBCHEM_CONFORMER_DIVERSEORDER>
3
44
327
240
254
134
26
100
329
17
32
60
126
346
298
162
315
29
318
175
307
135
182
90
159
355
178
246
199
158
51
273
358
184
118
275
250
83
235
324
323
343
98
218
115
279
56
229
79
354
127
183
290
8
150
169
316
226
165
312
208
142
43
37
163
14
57
204
360
320
21
69
247
242
41
187
269
59
336
172
238
19
12
217
139
256
92
251
198
112
266
188
294
262
302
141
157
22
52
201
326
214
122
277
207
334
328
223
244
93
303
369
10
35
39
301
80
111
205
272
72
317
103
58
99
261
114
87
13
225
190
239
138
282
4
75
237
40
332
297
308
281
344
70
292
94
216
260
233
23
45
82
96
267
271
353
117
136
123
202
359
108
236
97
287
62
249
76
265
288
209
86
341
54
105
224
213
18
152
305
16
116
156
283
38
215
311
34
48
363
129
166
109
227
143
186
219
63
149
42
176
309
197
24
145
1
232
124
337
170
245
146
295
357
203
161
85
20
6
67
110
252
228
144
284
137
131
210
36
362
160
9
291
286
104
120
196
270
314
193
243
364
180
299
168
128
101
234
46
119
174
230
322
347
325
15
78
313
368
65
365
173
66
356
148
2
248
113
7
349
289
191
11
130
5
177
255
370
276
84
200
361
88
268
68
192
91
350
132
133
179
321
263
64
47
257
71
300
33
211
73
253
258
231
154
331
212
167
102
53
185
296
259
340
89
164
306
366
264
280
330
28
25
81
351
55
107
319
50
285
345
77
121
49
304
74
106
348
147
221
222
153
220
125
241
293
140
367
278
171
206
151
335
274
95
31
155
339
61
189
310
342
181
333
194
338
30
27
352
195

> <PUBCHEM_MMFF94_PARTIAL_CHARGES>
42
1 -0.56
10 0.28
11 0.28
12 0.28
13 0.28
14 0.56
15 0.28
16 0.2
17 0.08
18 0.09
19 0.28
2 -0.36
20 0.08
21 0.42
22 -0.15
23 -0.15
24 -0.14
25 -0.15
26 -0.15
27 -0.15
28 -0.15
29 -0.15
3 -0.68
30 0.08
38 0.4
39 0.4
4 -0.68
40 0.4
44 0.15
45 0.15
46 0.4
47 0.15
48 0.15
49 0.15
5 -0.68
50 0.15
51 0.15
52 0.45
6 -0.68
7 -0.36
8 -0.57
9 -0.53

> <PUBCHEM_EFFECTIVE_ROTOR_COUNT>
5.8

> <PUBCHEM_PHARMACOPHORE_FEATURES>
17
1 1 acceptor
1 2 acceptor
1 3 acceptor
1 3 donor
1 4 acceptor
1 4 donor
1 5 acceptor
1 5 donor
1 6 acceptor
1 6 donor
1 7 acceptor
1 8 acceptor
1 9 donor
6 1 10 11 12 13 14 rings
6 17 18 20 22 23 25 rings
6 24 26 27 28 29 30 rings
6 7 16 18 19 20 21 rings

> <PUBCHEM_HEAVY_ATOM_COUNT>
30

> <PUBCHEM_ATOM_DEF_STEREO_COUNT>
5

> <PUBCHEM_ATOM_UDEF_STEREO_COUNT>
1

> <PUBCHEM_BOND_DEF_STEREO_COUNT>
0

> <PUBCHEM_BOND_UDEF_STEREO_COUNT>
0

> <PUBCHEM_ISOTOPIC_ATOM_COUNT>
0

> <PUBCHEM_COMPONENT_COUNT>
1

> <PUBCHEM_CACTVS_TAUTO_COUNT>
6

> <PUBCHEM_CONFORMER_ID>
009DCE3500000003

> <PUBCHEM_MMFF94_ENERGY>
96.3919

> <PUBCHEM_FEATURE_SELFOVERLAP>
86.37

> <PUBCHEM_SHAPE_FINGERPRINT>
10 15 18411703179957976047
10554248 39 17631727171285100055
10670039 82 17131291085812276152
10673678 19 18131073753105150557
10906281 52 16988296304633649339
11456790 92 18113333094473748200
11646440 116 16081090363902817967
11796584 16 11025798691458138113
11828532 37 16128368345832025430
11991303 11 17703504480506263967
12236239 1 18059572538106088766
12422481 6 18334575737445924229
125118 31 18335987488990608033
13167372 99 18411981338681610824
13533116 47 17604426293562884218
13540713 4 15504042369506905067
13668630 136 8574717909723336032
13685833 64 9151172052066854955
13911987 19 17203610364065903391
14117953 113 18202569453862694044
14705955 166 17385714769012531213
14767858 380 16558750096772516099
14849402 71 18114188578681137396
15131766 46 18196929088404307860
15183329 4 16917068867332850881
15238133 3 18187936109849172028
15348495 7 17968101962066868923
15419008 145 18189324694103664360
1577012 14 18201996677303407734
15840311 113 18409451358664011237
16989713 51 17130976733489124183
18335252 114 18131347492687765476
19301679 30 17975405816854915002
20157964 124 18343305833995217746
20511986 3 17845643872267584392
20715895 44 18272091590981723220
21033648 29 17748827457898834442
21130935 74 17967253079098451395
21150785 3 12823290200251014947
21298829 104 18270114742691390800
21344244 181 11167939169092994213
21641784 216 16701753657176045977
22122407 14 18337684086592215833
22956985 138 13264331712049116048
23569914 2 17684882009154488805
23576562 1 17059758028020666049
24771750 20 16986018275117026089
2838139 119 18411975867342026149
312425 54 17530964700242838083
33382 64 9295289434828716759
3383291 50 13623533454818445921
3472631 163 17203047503979793104
34797466 226 18271534105128795623
397830 11 18189067524341373299
4073 2 17822860895564522362
4144715 1 18334869294186535971
5385378 56 16878221957228971371
54039377 194 10953723501446244192
57724786 102 17968942032317186700

> <PUBCHEM_SHAPE_MULTIPOLES>
564.56
20.88
2.54
1.32
11.04
1.9
0.31
10.89
-4.68
-2.67
0.48
0.23
-0.53
-0.45

> <PUBCHEM_SHAPE_SELFOVERLAP>
1229.219

> <PUBCHEM_SHAPE_VOLUME>
301.8

> <PUBCHEM_COORDINATE_TYPE>
2
5
10

$$$$
