10356851
  -OEChem-03292013303D

 31 33  0     1  0  0  0  0  0999 V2000
    1.5421    0.3079    1.9891 O   0  0  0  0  0  0  0  0  0  0  0  0
    4.1134    0.9778    1.6577 O   0  0  0  0  0  0  0  0  0  0  0  0
   -0.9459   -2.5036    0.4269 O   0  0  0  0  0  0  0  0  0  0  0  0
    0.1020    1.8699   -0.6867 O   0  0  0  0  0  0  0  0  0  0  0  0
    5.4292    0.1639   -0.5371 O   0  0  0  0  0  0  0  0  0  0  0  0
   -5.8663   -0.3716    0.2669 O   0  0  0  0  0  0  0  0  0  0  0  0
   -0.0050   -0.4194   -0.1439 N   0  0  0  0  0  0  0  0  0  0  0  0
    3.4247    0.3125    0.6305 N   0  0  0  0  0  0  0  0  0  0  0  0
    1.3928   -0.7601   -0.1722 C   0  0  1  0  0  0  0  0  0  0  0  0
    1.9974   -0.4732   -1.5401 C   0  0  0  0  0  0  0  0  0  0  0  0
    3.4811   -0.8081   -1.5306 C   0  0  0  0  0  0  0  0  0  0  0  0
    2.0928    0.0272    0.9250 C   0  0  0  0  0  0  0  0  0  0  0  0
   -1.0071   -1.3209    0.1468 C   0  0  0  0  0  0  0  0  0  0  0  0
   -0.4903    0.8450   -0.4046 C   0  0  0  0  0  0  0  0  0  0  0  0
   -2.2563   -0.5657    0.0549 C   0  0  0  0  0  0  0  0  0  0  0  0
   -1.9438    0.7439   -0.2786 C   0  0  0  0  0  0  0  0  0  0  0  0
    4.2202   -0.0480   -0.4515 C   0  0  0  0  0  0  0  0  0  0  0  0
   -3.5585   -0.9795    0.2463 C   0  0  0  0  0  0  0  0  0  0  0  0
   -2.9169    1.7087   -0.4383 C   0  0  0  0  0  0  0  0  0  0  0  0
   -4.5616   -0.0188    0.0893 C   0  0  0  0  0  0  0  0  0  0  0  0
   -4.2439    1.3122   -0.2498 C   0  0  0  0  0  0  0  0  0  0  0  0
    1.5111   -1.8237    0.0701 H   0  0  0  0  0  0  0  0  0  0  0  0
    1.8830    0.5800   -1.8220 H   0  0  0  0  0  0  0  0  0  0  0  0
    1.4892   -1.0645   -2.3112 H   0  0  0  0  0  0  0  0  0  0  0  0
    3.9219   -0.5514   -2.5000 H   0  0  0  0  0  0  0  0  0  0  0  0
    3.6357   -1.8790   -1.3576 H   0  0  0  0  0  0  0  0  0  0  0  0
   -3.7972   -2.0042    0.5074 H   0  0  0  0  0  0  0  0  0  0  0  0
   -2.6729    2.7320   -0.6984 H   0  0  0  0  0  0  0  0  0  0  0  0
   -5.0348    2.0492   -0.3684 H   0  0  0  0  0  0  0  0  0  0  0  0
    3.9723    1.9029    1.3927 H   0  0  0  0  0  0  0  0  0  0  0  0
   -6.4266    0.4099    0.1210 H   0  0  0  0  0  0  0  0  0  0  0  0
  1 12  2  0  0  0  0
  2  8  1  0  0  0  0
  2 30  1  0  0  0  0
  3 13  2  0  0  0  0
  4 14  2  0  0  0  0
  5 17  2  0  0  0  0
  6 20  1  0  0  0  0
  6 31  1  0  0  0  0
  7  9  1  0  0  0  0
  7 13  1  0  0  0  0
  7 14  1  0  0  0  0
  8 12  1  0  0  0  0
  8 17  1  0  0  0  0
  9 10  1  0  0  0  0
  9 12  1  0  0  0  0
  9 22  1  0  0  0  0
 10 11  1  0  0  0  0
 10 23  1  0  0  0  0
 10 24  1  0  0  0  0
 11 17  1  0  0  0  0
 11 25  1  0  0  0  0
 11 26  1  0  0  0  0
 13 15  1  0  0  0  0
 14 16  1  0  0  0  0
 15 16  2  0  0  0  0
 15 18  1  0  0  0  0
 16 19  1  0  0  0  0
 18 20  2  0  0  0  0
 18 27  1  0  0  0  0
 19 21  2  0  0  0  0
 19 28  1  0  0  0  0
 20 21  1  0  0  0  0
 21 29  1  0  0  0  0
M  END
> <PUBCHEM_COMPOUND_CID>
10356851

> <PUBCHEM_CONFORMER_RMSD>
0.6

> <PUBCHEM_CONFORMER_DIVERSEORDER>
1
13
10
5
8
11
16
4
6
9
7
12
15
14
3
2

> <PUBCHEM_MMFF94_PARTIAL_CHARGES>
25
1 -0.57
11 0.06
12 0.57
13 0.54
14 0.54
15 0.09
16 0.09
17 0.57
18 -0.15
19 -0.15
2 -0.44
20 0.08
21 -0.15
27 0.15
28 0.15
29 0.15
3 -0.57
30 0.4
31 0.45
4 -0.57
5 -0.57
6 -0.53
7 -0.42
8 -0.08
9 0.36

> <PUBCHEM_EFFECTIVE_ROTOR_COUNT>
2

> <PUBCHEM_PHARMACOPHORE_FEATURES>
8
1 1 acceptor
1 3 acceptor
1 4 acceptor
1 5 acceptor
1 6 donor
5 7 13 14 15 16 rings
6 15 16 18 19 20 21 rings
6 8 9 10 11 12 17 rings

> <PUBCHEM_HEAVY_ATOM_COUNT>
21

> <PUBCHEM_ATOM_DEF_STEREO_COUNT>
0

> <PUBCHEM_ATOM_UDEF_STEREO_COUNT>
1

> <PUBCHEM_BOND_DEF_STEREO_COUNT>
0

> <PUBCHEM_BOND_UDEF_STEREO_COUNT>
0

> <PUBCHEM_ISOTOPIC_ATOM_COUNT>
0

> <PUBCHEM_COMPONENT_COUNT>
1

> <PUBCHEM_CACTVS_TAUTO_COUNT>
5

> <PUBCHEM_CONFORMER_ID>
009E087300000001

> <PUBCHEM_MMFF94_ENERGY>
49.633

> <PUBCHEM_FEATURE_SELFOVERLAP>
40.69

> <PUBCHEM_SHAPE_FINGERPRINT>
10498660 4 18263078834145212189
11132069 177 18261393321748350077
11471102 20 16988842787518303896
12011746 2 18411698781441693893
12236239 1 17167864157997644382
12390115 104 18270128886034384553
12403259 415 18272646836001452297
12403814 3 16660360372873641999
12670546 56 15936406728109784197
12730499 353 17918278657658564518
12916748 109 18334583425231044703
13140716 1 18117846718908000507
13538477 17 17386011718608228475
13544592 145 18201446848090304646
13583140 156 15647349566817327413
13760787 19 16515691069618739051
14386348 63 18202006525014551366
14573314 32 18060142007239441189
15196674 1 18262520278185609351
15219456 202 18060698390287846862
15375358 24 18272086110671973326
16945 1 18334293154873487799
18186145 218 18059856130190121651
200 152 15626225693109917450
20028762 73 18197223749189697175
20510252 161 18341050718588073513
20645477 70 17203337663195949030
21033648 29 17845924165806594137
21267235 1 18261403264734829159
221357 26 17346315960443450737
23175994 123 17561089111277994424
23402539 116 18410570695248954294
23557571 272 18411987935756834252
23559900 14 18339368466045431462
2748010 2 17974287621801883007
474 4 14691414388074044138
495365 180 17131823288137153138
4990 188 18131072597490026646
5104073 3 18264211305863240499
633830 44 17988637442102325125
69090 78 17918270965693832535
77492 1 17095243626907131686
8272917 22 15841563941587298357

> <PUBCHEM_SHAPE_MULTIPOLES>
386.99
10.11
1.56
1.23
0.83
0.16
0.22
-0.98
-0.06
1.01
-0.03
-1.54
-0.09
0.95

> <PUBCHEM_SHAPE_SELFOVERLAP>
860.222

> <PUBCHEM_SHAPE_VOLUME>
204.8

> <PUBCHEM_COORDINATE_TYPE>
2
5
10

$$$$
