REMARK  Name = 10357087
REMARK  5 active torsions:
REMARK  status: ('A' for Active; 'I' for Inactive)
REMARK    1  A    between atoms: C_6  and  O_16
REMARK    2  A    between atoms: C_6  and  C_22
REMARK    3  A    between atoms: C_10  and  C_19
REMARK    4  A    between atoms: C_19  and  O_20
REMARK    5  A    between atoms: C_22  and  O_23
REMARK                            x       y       z     vdW  Elec       q    Type
REMARK                         _______ _______ _______ _____ _____    ______ ____
ROOT
ATOM      1  O   UNL     1       0.357  -2.543   0.375  0.00  0.00    -0.447 OA
ATOM      2  O   UNL     1       2.307  -2.188   1.447  0.00  0.00    -0.247 OA
ATOM      3  C   UNL     1       0.349   0.170  -0.372  0.00  0.00    +0.046 C 
ATOM      4  C   UNL     1      -0.108   0.814   0.986  0.00  0.00    +0.025 C 
ATOM      5  C   UNL     1      -0.821  -0.747  -0.837  0.00  0.00    +0.075 C 
ATOM      6  C   UNL     1       1.692  -0.605  -0.290  0.00  0.00    +0.205 C 
ATOM      7  C   UNL     1       0.221   2.326   0.882  0.00  0.00    +0.004 C 
ATOM      8  C   UNL     1       0.440   1.388  -1.268  0.00  0.00    +0.004 C 
ATOM      9  C   UNL     1      -1.564   0.458   1.069  0.00  0.00    -0.024 C 
ATOM     10  C   UNL     1      -1.931  -0.373   0.094  0.00  0.00    +0.052 C 
ATOM     11  C   UNL     1       0.359   2.545  -0.599  0.00  0.00    +0.000 C 
ATOM     12  C   UNL     1      -0.478  -2.233  -0.753  0.00  0.00    +0.213 C 
ATOM     13  C   UNL     1       1.501  -1.839   0.589  0.00  0.00    +0.344 C 
ATOM     14  C   UNL     1      -0.775   3.252   1.574  0.00  0.00    +0.000 C 
ATOM     15  C   UNL     1       0.475   3.903  -1.196  0.00  0.00    +0.000 C 
ENDROOT
BRANCH   6  16
ATOM     16  O   UNL     1       2.044  -1.094  -1.585  0.00  0.00    -0.375 OA
ATOM     17  H   UNL     1       1.316  -1.628  -1.939  0.00  0.00    +0.211 HD
ENDBRANCH   6  16
BRANCH  10  19
ATOM     18  O   UNL     1      -4.092  -0.981   0.877  0.00  0.00    -0.245 OA
ATOM     19  C   UNL     1      -3.304  -0.833  -0.048  0.00  0.00    +0.334 C 
BRANCH  19  20
ATOM     20  O   UNL     1      -3.580  -1.075  -1.350  0.00  0.00    -0.477 OA
ATOM     21  H   UNL     1      -2.921  -0.937  -2.002  0.00  0.00    +0.295 HD
ENDBRANCH  19  20
ENDBRANCH  10  19
BRANCH   6  22
ATOM     22  C   UNL     1       2.874   0.230   0.221  0.00  0.00    +0.175 C 
BRANCH  22  23
ATOM     23  O   UNL     1       4.033  -0.577   0.185  0.00  0.00    -0.379 OA
ATOM     24  H   UNL     1       4.793  -0.067   0.505  0.00  0.00    +0.211 HD
ENDBRANCH  22  23
ENDBRANCH   6  22
TORSDOF 5
