REMARK  Name = 10356851
REMARK  3 active torsions:
REMARK  status: ('A' for Active; 'I' for Inactive)
REMARK    1  A    between atoms: N_3  and  C_15
REMARK    2  A    between atoms: C_10  and  O_22
REMARK    3  A    between atoms: N_14  and  O_20
REMARK                            x       y       z     vdW  Elec       q    Type
REMARK                         _______ _______ _______ _____ _____    ______ ____
ROOT
ATOM      1  O   UNL     1      -0.946  -2.504   0.427  0.00  0.00    -0.269 OA
ATOM      2  O   UNL     1       0.102   1.870  -0.687  0.00  0.00    -0.269 OA
ATOM      3  N   UNL     1      -0.005  -0.419  -0.144  0.00  0.00    -0.216 N 
ATOM      4  C   UNL     1      -1.007  -1.321   0.147  0.00  0.00    +0.256 C 
ATOM      5  C   UNL     1      -0.490   0.845  -0.405  0.00  0.00    +0.255 C 
ATOM      6  C   UNL     1      -2.256  -0.566   0.055  0.00  0.00    +0.061 C 
ATOM      7  C   UNL     1      -1.944   0.744  -0.279  0.00  0.00    +0.059 C 
ATOM      8  C   UNL     1      -3.558  -0.980   0.246  0.00  0.00    +0.041 C 
ATOM      9  C   UNL     1      -2.917   1.709  -0.438  0.00  0.00    +0.008 C 
ATOM     10  C   UNL     1      -4.562  -0.019   0.089  0.00  0.00    +0.134 C 
ATOM     11  C   UNL     1      -4.244   1.312  -0.250  0.00  0.00    +0.037 C 
ENDROOT
BRANCH   3  15
ATOM     12  O   UNL     1       1.542   0.308   1.989  0.00  0.00    -0.271 OA
ATOM     13  O   UNL     1       5.429   0.164  -0.537  0.00  0.00    -0.272 OA
ATOM     14  N   UNL     1       3.425   0.313   0.630  0.00  0.00    -0.114 N 
ATOM     15  C   UNL     1       1.393  -0.760  -0.172  0.00  0.00    +0.162 C 
ATOM     16  C   UNL     1       1.997  -0.473  -1.540  0.00  0.00    +0.039 C 
ATOM     17  C   UNL     1       3.481  -0.808  -1.531  0.00  0.00    +0.090 C 
ATOM     18  C   UNL     1       2.093   0.027   0.925  0.00  0.00    +0.272 C 
ATOM     19  C   UNL     1       4.220  -0.048  -0.452  0.00  0.00    +0.254 C 
BRANCH  14  20
ATOM     20  O   UNL     1       4.113   0.978   1.658  0.00  0.00    -0.285 OA
ATOM     21  H   UNL     1       3.495   1.196   2.373  0.00  0.00    +0.242 HD
ENDBRANCH  14  20
ENDBRANCH   3  15
BRANCH  10  22
ATOM     22  O   UNL     1      -5.866  -0.372   0.267  0.00  0.00    -0.506 OA
ATOM     23  H   UNL     1      -6.086  -1.254   0.492  0.00  0.00    +0.292 HD
ENDBRANCH  10  22
TORSDOF 3
