10357087
  -OEChem-03292013303D

 39 41  0     1  0  0  0  0  0999 V2000
    0.3575   -2.5430    0.3749 O   0  0  0  0  0  0  0  0  0  0  0  0
    2.0444   -1.0936   -1.5851 O   0  0  0  0  0  0  0  0  0  0  0  0
    4.0328   -0.5774    0.1849 O   0  0  0  0  0  0  0  0  0  0  0  0
    2.3067   -2.1881    1.4468 O   0  0  0  0  0  0  0  0  0  0  0  0
   -3.5798   -1.0745   -1.3500 O   0  0  0  0  0  0  0  0  0  0  0  0
   -4.0920   -0.9807    0.8769 O   0  0  0  0  0  0  0  0  0  0  0  0
    0.3489    0.1702   -0.3720 C   0  0  2  0  0  0  0  0  0  0  0  0
   -0.1079    0.8138    0.9859 C   0  0  1  0  0  0  0  0  0  0  0  0
   -0.8209   -0.7468   -0.8371 C   0  0  2  0  0  0  0  0  0  0  0  0
    1.6917   -0.6051   -0.2898 C   0  0  1  0  0  0  0  0  0  0  0  0
    0.2211    2.3262    0.8822 C   0  0  1  0  0  0  0  0  0  0  0  0
    0.4401    1.3884   -1.2678 C   0  0  0  0  0  0  0  0  0  0  0  0
   -1.5642    0.4577    1.0687 C   0  0  0  0  0  0  0  0  0  0  0  0
   -1.9315   -0.3727    0.0936 C   0  0  0  0  0  0  0  0  0  0  0  0
    0.3592    2.5454   -0.5994 C   0  0  0  0  0  0  0  0  0  0  0  0
   -0.4777   -2.2329   -0.7535 C   0  0  0  0  0  0  0  0  0  0  0  0
    1.5008   -1.8395    0.5889 C   0  0  0  0  0  0  0  0  0  0  0  0
    2.8744    0.2304    0.2212 C   0  0  0  0  0  0  0  0  0  0  0  0
   -0.7749    3.2523    1.5742 C   0  0  0  0  0  0  0  0  0  0  0  0
    0.4753    3.9033   -1.1959 C   0  0  0  0  0  0  0  0  0  0  0  0
   -3.3041   -0.8333   -0.0476 C   0  0  0  0  0  0  0  0  0  0  0  0
    0.3967    0.3778    1.8563 H   0  0  0  0  0  0  0  0  0  0  0  0
   -1.1226   -0.5188   -1.8677 H   0  0  0  0  0  0  0  0  0  0  0  0
    1.2063    2.5012    1.3352 H   0  0  0  0  0  0  0  0  0  0  0  0
    0.5831    1.3206   -2.3384 H   0  0  0  0  0  0  0  0  0  0  0  0
   -2.2226    0.8262    1.8436 H   0  0  0  0  0  0  0  0  0  0  0  0
   -1.3824   -2.8438   -0.6570 H   0  0  0  0  0  0  0  0  0  0  0  0
    0.0208   -2.5934   -1.6596 H   0  0  0  0  0  0  0  0  0  0  0  0
    2.7255    0.5710    1.2500 H   0  0  0  0  0  0  0  0  0  0  0  0
    3.0640    1.0928   -0.4250 H   0  0  0  0  0  0  0  0  0  0  0  0
   -0.4141    4.2868    1.5590 H   0  0  0  0  0  0  0  0  0  0  0  0
   -1.7554    3.2431    1.0858 H   0  0  0  0  0  0  0  0  0  0  0  0
   -0.9059    2.9670    2.6233 H   0  0  0  0  0  0  0  0  0  0  0  0
    1.2952    4.4565   -0.7270 H   0  0  0  0  0  0  0  0  0  0  0  0
   -0.4519    4.4672   -1.0557 H   0  0  0  0  0  0  0  0  0  0  0  0
    0.6767    3.8556   -2.2712 H   0  0  0  0  0  0  0  0  0  0  0  0
    1.2845   -1.0497   -2.1857 H   0  0  0  0  0  0  0  0  0  0  0  0
    4.7725   -0.0358    0.5088 H   0  0  0  0  0  0  0  0  0  0  0  0
   -4.5002   -1.3882   -1.4789 H   0  0  0  0  0  0  0  0  0  0  0  0
  1 16  1  0  0  0  0
  1 17  1  0  0  0  0
  2 10  1  0  0  0  0
  2 37  1  0  0  0  0
  3 18  1  0  0  0  0
  3 38  1  0  0  0  0
  4 17  2  0  0  0  0
  5 21  1  0  0  0  0
  5 39  1  0  0  0  0
  6 21  2  0  0  0  0
  7  8  1  0  0  0  0
  7  9  1  0  0  0  0
  7 10  1  0  0  0  0
  7 12  1  0  0  0  0
  8 11  1  0  0  0  0
  8 13  1  0  0  0  0
  8 22  1  0  0  0  0
  9 14  1  0  0  0  0
  9 16  1  0  0  0  0
  9 23  1  0  0  0  0
 10 17  1  0  0  0  0
 10 18  1  0  0  0  0
 11 15  1  0  0  0  0
 11 19  1  0  0  0  0
 11 24  1  0  0  0  0
 12 15  2  0  0  0  0
 12 25  1  0  0  0  0
 13 14  2  0  0  0  0
 13 26  1  0  0  0  0
 14 21  1  0  0  0  0
 15 20  1  0  0  0  0
 16 27  1  0  0  0  0
 16 28  1  0  0  0  0
 18 29  1  0  0  0  0
 18 30  1  0  0  0  0
 19 31  1  0  0  0  0
 19 32  1  0  0  0  0
 19 33  1  0  0  0  0
 20 34  1  0  0  0  0
 20 35  1  0  0  0  0
 20 36  1  0  0  0  0
M  END
> <PUBCHEM_COMPOUND_CID>
10357087

> <PUBCHEM_CONFORMER_RMSD>
0.6

> <PUBCHEM_CONFORMER_DIVERSEORDER>
1
5
4
6
3
2

> <PUBCHEM_MMFF94_PARTIAL_CHARGES>
25
1 -0.43
10 0.34
11 0.14
12 -0.29
13 -0.29
14 -0.12
15 -0.28
16 0.28
17 0.66
18 0.28
2 -0.68
20 0.14
21 0.71
25 0.15
26 0.15
3 -0.68
37 0.4
38 0.4
39 0.5
4 -0.57
5 -0.65
6 -0.57
7 0.14
8 0.14
9 0.14

> <PUBCHEM_EFFECTIVE_ROTOR_COUNT>
2.8

> <PUBCHEM_PHARMACOPHORE_FEATURES>
11
1 2 acceptor
1 2 donor
1 3 acceptor
1 3 donor
1 4 acceptor
1 5 acceptor
1 6 acceptor
3 5 6 21 anion
5 7 8 11 12 15 rings
5 7 8 9 13 14 rings
6 1 7 9 10 16 17 rings

> <PUBCHEM_HEAVY_ATOM_COUNT>
21

> <PUBCHEM_ATOM_DEF_STEREO_COUNT>
4

> <PUBCHEM_ATOM_UDEF_STEREO_COUNT>
1

> <PUBCHEM_BOND_DEF_STEREO_COUNT>
0

> <PUBCHEM_BOND_UDEF_STEREO_COUNT>
0

> <PUBCHEM_ISOTOPIC_ATOM_COUNT>
0

> <PUBCHEM_COMPONENT_COUNT>
1

> <PUBCHEM_CACTVS_TAUTO_COUNT>
1

> <PUBCHEM_CONFORMER_ID>
009E095F00000001

> <PUBCHEM_MMFF94_ENERGY>
62.891

> <PUBCHEM_FEATURE_SELFOVERLAP>
56.629

> <PUBCHEM_SHAPE_FINGERPRINT>
10165383 225 17469060194677188325
104564 63 18270121180313883481
10863032 1 17241591841252093830
10871710 139 18191330237598535268
10948715 1 17614571766356071581
1100329 8 18194124246693775378
11578080 2 17843085226483372929
12423570 1 16474381184638036701
13132413 78 18412263917681434709
13134695 92 18188755215540827703
13140716 1 17906450279064958475
14181834 199 18127119995064504565
14223421 5 18123183511762208754
14787075 74 18339362001913590824
14817 1 12226744432482241604
14955137 171 18199486508857257051
15490181 7 16687950731260245532
15490181 8 17255108468547114284
16945 1 18041009465602559891
18981168 100 17199657477555432810
20473742 2 18043242650948889357
20511035 2 17695060394154640022
20600515 1 18340773723188068310
21524375 3 17620189175678529501
22112679 90 17844273828786230305
2255824 54 18265055919476637631
2334 1 18412545383909623799
23388829 49 18340215110940690649
23402539 116 18272644641320688902
23419403 2 17981566546927197941
25 1 17837228330079479549
2748010 2 18341046303018392597
568465 68 17968954104779042291
589210 1 17834674890169637446
7364860 26 17984418809064735625
81228 2 17979356361320071537
9981440 41 16330403384208570498
9999458 23 18116153470705975751

> <PUBCHEM_SHAPE_MULTIPOLES>
396.95
4.34
3.75
1.41
2.32
3.21
0.02
-2.78
-0.18
-1.17
-0.1
0.03
0.44
-0.83

> <PUBCHEM_SHAPE_SELFOVERLAP>
869.683

> <PUBCHEM_SHAPE_VOLUME>
214.4

> <PUBCHEM_COORDINATE_TYPE>
2
5
10

$$$$
