10359254
  -OEChem-03292013303D

 38 40  0     0  0  0  0  0  0999 V2000
   -0.0093    0.3488   -0.1733 O   0  0  0  0  0  0  0  0  0  0  0  0
   -4.1739    2.5895   -0.5119 O   0  0  0  0  0  0  0  0  0  0  0  0
   -4.1562   -2.1178    0.2309 O   0  0  0  0  0  0  0  0  0  0  0  0
   -5.5314    0.2115   -0.1312 O   0  0  0  0  0  0  0  0  0  0  0  0
   -1.8144   -3.2587    0.3973 O   0  0  0  0  0  0  0  0  0  0  0  0
    4.6490    1.9786    0.7694 O   0  0  0  0  0  0  0  0  0  0  0  0
    6.3048   -0.0500   -0.1587 O   0  0  0  0  0  0  0  0  0  0  0  0
   -2.0598   -0.9362    0.0374 C   0  0  0  0  0  0  0  0  0  0  0  0
   -1.3785    0.2646   -0.1545 C   0  0  0  0  0  0  0  0  0  0  0  0
    0.7263   -0.8115    0.0145 C   0  0  0  0  0  0  0  0  0  0  0  0
    2.1885   -0.6086   -0.0302 C   0  0  0  0  0  0  0  0  0  0  0  0
   -1.2826   -2.1703    0.2275 C   0  0  0  0  0  0  0  0  0  0  0  0
   -3.4563   -0.9626    0.0464 C   0  0  0  0  0  0  0  0  0  0  0  0
    0.1869   -2.0265    0.2016 C   0  0  0  0  0  0  0  0  0  0  0  0
   -2.0920    1.4490   -0.3397 C   0  0  0  0  0  0  0  0  0  0  0  0
   -3.4869    1.4269   -0.3313 C   0  0  0  0  0  0  0  0  0  0  0  0
   -4.1673    0.2236   -0.1386 C   0  0  0  0  0  0  0  0  0  0  0  0
    2.7423    0.6015    0.3947 C   0  0  0  0  0  0  0  0  0  0  0  0
    3.0242   -1.6263   -0.4967 C   0  0  0  0  0  0  0  0  0  0  0  0
    4.1234    0.7927    0.3534 C   0  0  0  0  0  0  0  0  0  0  0  0
    4.4052   -1.4350   -0.5381 C   0  0  0  0  0  0  0  0  0  0  0  0
    4.9548   -0.2254   -0.1131 C   0  0  0  0  0  0  0  0  0  0  0  0
   -4.4954    3.3405    0.6572 C   0  0  0  0  0  0  0  0  0  0  0  0
    4.7985    3.0017   -0.2130 C   0  0  0  0  0  0  0  0  0  0  0  0
    0.7641   -2.9299    0.3604 H   0  0  0  0  0  0  0  0  0  0  0  0
   -1.5632    2.3869   -0.4906 H   0  0  0  0  0  0  0  0  0  0  0  0
    2.1122    1.4048    0.7702 H   0  0  0  0  0  0  0  0  0  0  0  0
    2.6338   -2.5743   -0.8571 H   0  0  0  0  0  0  0  0  0  0  0  0
    5.0414   -2.2345   -0.9083 H   0  0  0  0  0  0  0  0  0  0  0  0
   -3.5552   -2.8682    0.3524 H   0  0  0  0  0  0  0  0  0  0  0  0
   -5.8293   -0.7032    0.0155 H   0  0  0  0  0  0  0  0  0  0  0  0
   -3.5827    3.6563    1.1727 H   0  0  0  0  0  0  0  0  0  0  0  0
   -5.0497    4.2315    0.3504 H   0  0  0  0  0  0  0  0  0  0  0  0
   -5.1244    2.7523    1.3329 H   0  0  0  0  0  0  0  0  0  0  0  0
    6.7175   -0.8581   -0.5089 H   0  0  0  0  0  0  0  0  0  0  0  0
    5.2362    3.8794    0.2703 H   0  0  0  0  0  0  0  0  0  0  0  0
    5.4681    2.6727   -1.0139 H   0  0  0  0  0  0  0  0  0  0  0  0
    3.8244    3.2797   -0.6279 H   0  0  0  0  0  0  0  0  0  0  0  0
  1  9  1  0  0  0  0
  1 10  1  0  0  0  0
  2 16  1  0  0  0  0
  2 23  1  0  0  0  0
  3 13  1  0  0  0  0
  3 30  1  0  0  0  0
  4 17  1  0  0  0  0
  4 31  1  0  0  0  0
  5 12  2  0  0  0  0
  6 20  1  0  0  0  0
  6 24  1  0  0  0  0
  7 22  1  0  0  0  0
  7 35  1  0  0  0  0
  8  9  1  0  0  0  0
  8 12  1  0  0  0  0
  8 13  2  0  0  0  0
  9 15  2  0  0  0  0
 10 11  1  0  0  0  0
 10 14  2  0  0  0  0
 11 18  2  0  0  0  0
 11 19  1  0  0  0  0
 12 14  1  0  0  0  0
 13 17  1  0  0  0  0
 14 25  1  0  0  0  0
 15 16  1  0  0  0  0
 15 26  1  0  0  0  0
 16 17  2  0  0  0  0
 18 20  1  0  0  0  0
 18 27  1  0  0  0  0
 19 21  2  0  0  0  0
 19 28  1  0  0  0  0
 20 22  2  0  0  0  0
 21 22  1  0  0  0  0
 21 29  1  0  0  0  0
 23 32  1  0  0  0  0
 23 33  1  0  0  0  0
 23 34  1  0  0  0  0
 24 36  1  0  0  0  0
 24 37  1  0  0  0  0
 24 38  1  0  0  0  0
M  END
> <PUBCHEM_COMPOUND_CID>
10359254

> <PUBCHEM_CONFORMER_RMSD>
0.6

> <PUBCHEM_CONFORMER_DIVERSEORDER>
4
5
12
3
2
9
6
8
10
7
1
11

> <PUBCHEM_MMFF94_PARTIAL_CHARGES>
32
1 -0.16
10 0.05
11 0.03
12 0.47
13 0.08
14 -0.14
15 -0.15
16 0.08
17 0.08
18 -0.15
19 -0.15
2 -0.36
20 0.08
21 -0.15
22 0.08
23 0.28
24 0.28
25 0.15
26 0.15
27 0.15
28 0.15
29 0.15
3 -0.53
30 0.45
31 0.45
35 0.45
4 -0.53
5 -0.57
6 -0.36
7 -0.53
8 0.09
9 0.08

> <PUBCHEM_EFFECTIVE_ROTOR_COUNT>
3

> <PUBCHEM_PHARMACOPHORE_FEATURES>
10
1 1 acceptor
1 2 acceptor
1 3 donor
1 4 donor
1 5 acceptor
1 6 acceptor
1 7 donor
6 1 8 9 10 12 14 rings
6 11 18 19 20 21 22 rings
6 8 9 13 15 16 17 rings

> <PUBCHEM_HEAVY_ATOM_COUNT>
24

> <PUBCHEM_ATOM_DEF_STEREO_COUNT>
0

> <PUBCHEM_ATOM_UDEF_STEREO_COUNT>
0

> <PUBCHEM_BOND_DEF_STEREO_COUNT>
0

> <PUBCHEM_BOND_UDEF_STEREO_COUNT>
0

> <PUBCHEM_ISOTOPIC_ATOM_COUNT>
0

> <PUBCHEM_COMPONENT_COUNT>
1

> <PUBCHEM_CACTVS_TAUTO_COUNT>
50

> <PUBCHEM_CONFORMER_ID>
009E11D600000004

> <PUBCHEM_MMFF94_ENERGY>
93.9549

> <PUBCHEM_FEATURE_SELFOVERLAP>
50.781

> <PUBCHEM_SHAPE_FINGERPRINT>
10319926 262 18337657694909433338
10411042 1 17904485460931120915
10493431 412 18265339404867470217
11405975 8 18337670824075603170
11595378 159 17095791145127642940
12107183 9 18118674419066904594
12173636 292 18408882923763176151
12236239 1 17312821580417661606
12390115 104 18269568160620529073
12403259 415 18412267220173343776
13140716 1 17974579297073071443
13402501 40 18412542115598143880
14251764 38 18412548708235962156
14790565 3 18339365137261381145
14848178 96 18340481162563702129
15042514 8 18190748725033941115
15196674 1 18410574019732820042
15961568 22 17969221312618720596
17844677 252 18411144653446180344
17959699 21 18412544314710836536
20510252 161 18413108372786938907
20645477 56 18335140886190095830
20645477 70 17417820496149019598
21033648 29 18342166761191531336
21065198 57 18410293627483838166
21236236 1 18411699864311379599
21279426 13 18197500623548616870
21315763 129 18411134771042774462
21315764 268 18333724715308550556
21421861 104 17677883523565097834
23227448 37 18339077206578981574
23402539 116 18410849988667387911
23559900 14 18270679745538745022
245318 6 16666002190506975428
283562 15 18408881859191853579
335352 9 18266740191202613534
34797466 226 17917437535526349116
350125 39 18410578405443386865
3545911 37 18411702088846067054
3680242 22 18191583056484238786
4073 2 18187369857034537338
4214541 1 18410573981162425982
495365 180 17632002118607832890
5104073 3 18261673679580013698
5283173 99 18412544301614899152
633830 44 18270673148093984173
7064713 232 18260833678450677460
77779 3 18411699881053528830
7808743 9 18337104678651020656
90127 26 18334584563766676034
9709674 26 18413112762222948982

> <PUBCHEM_SHAPE_MULTIPOLES>
452.82
12.98
3.33
0.7
6.55
1.22
0.01
6.68
-0.23
-1.82
0.35
0.06
0.09
0.52

> <PUBCHEM_SHAPE_SELFOVERLAP>
1001.467

> <PUBCHEM_SHAPE_VOLUME>
243.1

> <PUBCHEM_COORDINATE_TYPE>
2
5
10

$$$$
