10355383
  -OEChem-03292013303D

 36 38  0     1  0  0  0  0  0999 V2000
   -3.2355   -1.0832   -1.8999 O   0  0  0  0  0  0  0  0  0  0  0  0
   -5.9272    0.2410   -0.8675 O   0  0  0  0  0  0  0  0  0  0  0  0
   -1.4623    0.3431    0.4989 N   0  0  2  0  0  0  0  0  0  0  0  0
    2.4044   -1.7353    0.5305 N   0  0  0  0  0  0  0  0  0  0  0  0
    2.0191    1.7315    0.0383 N   0  0  0  0  0  0  0  0  0  0  0  0
    4.1792    1.1456   -0.9179 N   0  0  0  0  0  0  0  0  0  0  0  0
    5.0174   -1.0964   -0.8899 N   0  0  0  0  0  0  0  0  0  0  0  0
   -3.6637    0.5310   -0.1609 C   0  0  2  0  0  0  0  0  0  0  0  0
   -3.2225   -0.8973   -0.4925 C   0  0  2  0  0  0  0  0  0  0  0  0
   -2.7167    0.9395    0.9598 C   0  0  0  0  0  0  0  0  0  0  0  0
   -1.8031   -1.0179    0.0675 C   0  0  0  0  0  0  0  0  0  0  0  0
   -0.4255    0.3634    1.5196 C   0  0  0  0  0  0  0  0  0  0  0  0
   -5.1285    0.6284    0.2373 C   0  0  0  0  0  0  0  0  0  0  0  0
    0.8471   -0.2567    1.0109 C   0  0  0  0  0  0  0  0  0  0  0  0
    1.8849    0.4220    0.3628 C   0  0  0  0  0  0  0  0  0  0  0  0
    1.1709   -1.5752    1.1104 C   0  0  0  0  0  0  0  0  0  0  0  0
    2.8586   -0.5273    0.0669 C   0  0  0  0  0  0  0  0  0  0  0  0
    4.0215   -0.1536   -0.5836 C   0  0  0  0  0  0  0  0  0  0  0  0
    3.1819    1.9973   -0.5907 C   0  0  0  0  0  0  0  0  0  0  0  0
   -3.4975    1.1702   -1.0406 H   0  0  0  0  0  0  0  0  0  0  0  0
   -3.8792   -1.6484   -0.0387 H   0  0  0  0  0  0  0  0  0  0  0  0
   -2.6435    2.0284    1.0464 H   0  0  0  0  0  0  0  0  0  0  0  0
   -3.0374    0.5260    1.9248 H   0  0  0  0  0  0  0  0  0  0  0  0
   -1.8283   -1.7103    0.9189 H   0  0  0  0  0  0  0  0  0  0  0  0
   -1.1018   -1.3946   -0.6840 H   0  0  0  0  0  0  0  0  0  0  0  0
   -0.7472   -0.1596    2.4307 H   0  0  0  0  0  0  0  0  0  0  0  0
   -0.2189    1.4006    1.8134 H   0  0  0  0  0  0  0  0  0  0  0  0
   -5.3953    1.6517    0.5209 H   0  0  0  0  0  0  0  0  0  0  0  0
   -5.3637   -0.0303    1.0795 H   0  0  0  0  0  0  0  0  0  0  0  0
   -2.9115   -1.9825   -2.0781 H   0  0  0  0  0  0  0  0  0  0  0  0
    0.6540   -2.4233    1.5372 H   0  0  0  0  0  0  0  0  0  0  0  0
   -5.7441    0.8586   -1.5960 H   0  0  0  0  0  0  0  0  0  0  0  0
    2.9008   -2.6127    0.4580 H   0  0  0  0  0  0  0  0  0  0  0  0
    3.3386    3.0329   -0.8725 H   0  0  0  0  0  0  0  0  0  0  0  0
    4.9029   -2.0692   -0.6401 H   0  0  0  0  0  0  0  0  0  0  0  0
    5.8552   -0.7888   -1.3649 H   0  0  0  0  0  0  0  0  0  0  0  0
  1  9  1  0  0  0  0
  1 30  1  0  0  0  0
  2 13  1  0  0  0  0
  2 32  1  0  0  0  0
  3 10  1  0  0  0  0
  3 11  1  0  0  0  0
  3 12  1  0  0  0  0
  4 16  1  0  0  0  0
  4 17  1  0  0  0  0
  4 33  1  0  0  0  0
  5 15  1  0  0  0  0
  5 19  2  0  0  0  0
  6 18  2  0  0  0  0
  6 19  1  0  0  0  0
  7 18  1  0  0  0  0
  7 35  1  0  0  0  0
  7 36  1  0  0  0  0
  8  9  1  0  0  0  0
  8 10  1  0  0  0  0
  8 13  1  0  0  0  0
  8 20  1  0  0  0  0
  9 11  1  0  0  0  0
  9 21  1  0  0  0  0
 10 22  1  0  0  0  0
 10 23  1  0  0  0  0
 11 24  1  0  0  0  0
 11 25  1  0  0  0  0
 12 14  1  0  0  0  0
 12 26  1  0  0  0  0
 12 27  1  0  0  0  0
 13 28  1  0  0  0  0
 13 29  1  0  0  0  0
 14 15  1  0  0  0  0
 14 16  2  0  0  0  0
 15 17  2  0  0  0  0
 16 31  1  0  0  0  0
 17 18  1  0  0  0  0
 19 34  1  0  0  0  0
M  END
> <PUBCHEM_COMPOUND_CID>
10355383

> <PUBCHEM_CONFORMER_RMSD>
0.6

> <PUBCHEM_CONFORMER_DIVERSEORDER>
8
9
19
20
30
22
21
25
26
14
2
27
24
23
32
31
4
18
17
16
3
28
10
29
11
7
6
15
1
13
5
12

> <PUBCHEM_MMFF94_PARTIAL_CHARGES>
25
1 -0.68
10 0.27
11 0.27
12 0.45
13 0.28
14 -0.18
15 0.26
16 -0.3
17 -0.15
18 0.41
19 0.47
2 -0.68
3 -0.81
30 0.4
31 0.15
32 0.4
33 0.27
34 0.15
35 0.4
36 0.4
4 0.03
5 -0.57
6 -0.62
7 -0.9
9 0.28

> <PUBCHEM_EFFECTIVE_ROTOR_COUNT>
4

> <PUBCHEM_PHARMACOPHORE_FEATURES>
13
1 1 acceptor
1 1 donor
1 2 acceptor
1 2 donor
1 3 cation
1 4 cation
1 4 donor
1 7 donor
3 5 6 19 cation
3 6 7 18 cation
5 3 8 9 10 11 rings
5 4 14 15 16 17 rings
6 5 6 15 17 18 19 rings

> <PUBCHEM_HEAVY_ATOM_COUNT>
19

> <PUBCHEM_ATOM_DEF_STEREO_COUNT>
2

> <PUBCHEM_ATOM_UDEF_STEREO_COUNT>
0

> <PUBCHEM_BOND_DEF_STEREO_COUNT>
0

> <PUBCHEM_BOND_UDEF_STEREO_COUNT>
0

> <PUBCHEM_ISOTOPIC_ATOM_COUNT>
0

> <PUBCHEM_COMPONENT_COUNT>
1

> <PUBCHEM_CACTVS_TAUTO_COUNT>
5

> <PUBCHEM_CONFORMER_ID>
009E02B700000008

> <PUBCHEM_MMFF94_ENERGY>
42.7618

> <PUBCHEM_FEATURE_SELFOVERLAP>
66.204

> <PUBCHEM_SHAPE_FINGERPRINT>
10693767 8 18268713797358445518
11471102 20 18260835890849139504
11796584 16 16486981665502409446
12236239 1 18272934899109504105
12363563 72 14836128774983369939
12403259 415 17677067848618160288
12707595 3 16056598797938499611
12730499 353 17749117681497229931
14115302 16 17846497036685861443
14252887 29 11671788152502664652
16752209 62 17417811695665486683
17834072 33 18335136518846568195
18186145 218 17968093153009537384
18915474 69 17988922309828717822
19862831 5 18343304777163770018
200 152 18272938219435715584
20374829 77 16271924904976025893
20432913 95 12103848955544358037
20612939 158 18334301963577261172
20645476 183 18413386549244947527
20645477 56 16370729231714027939
20645477 70 18114743728889481506
21065199 12 9511193927283396794
21119208 17 18342741805719694385
221357 26 18260828159512705877
22224240 67 10231458685140867470
22289505 5 17968651627486120029
22854114 59 15574715781478571953
231179 274 16877940559893655552
23402539 116 18411140234341388748
23402655 69 18410860962224218400
23557571 272 16056598716566327640
23559900 14 17131541825596704976
23598291 2 18124601877113437219
25 1 17967818249538693602
29717793 49 17988647363054727452
3004659 81 18131070398825623054
3009799 131 18187367611051113950
3060560 45 18334860506899615470
3082319 5 18342739636845664473
4028521 119 17748823012386357645
4072396 5 18040708161632015872
42 15 10735881677222502865
474 4 17895198851913540229
5374978 207 11602539806373384309
633830 44 18260268581171421396
9981440 41 17478320294459812152

> <PUBCHEM_SHAPE_MULTIPOLES>
354.37
10.75
1.63
1.24
6.4
0.15
0.09
1.38
4.41
-1.41
0.04
0.45
-0.18
-0.78

> <PUBCHEM_SHAPE_SELFOVERLAP>
766.717

> <PUBCHEM_SHAPE_VOLUME>
194.8

> <PUBCHEM_COORDINATE_TYPE>
2
5
10

$$$$
