REMARK  Name = 10356805
REMARK  3 active torsions:
REMARK  status: ('A' for Active; 'I' for Inactive)
REMARK    1  A    between atoms: N_3  and  O_22
REMARK    2  A    between atoms: C_7  and  N_14
REMARK    3  A    between atoms: C_9  and  N_21
REMARK                            x       y       z     vdW  Elec       q    Type
REMARK                         _______ _______ _______ _____ _____    ______ ____
ROOT
ATOM      1  O   UNL     1      -4.671  -1.501  -0.061  0.00  0.00    -0.259 OA
ATOM      2  O   UNL     1      -4.960   1.127  -0.013  0.00  0.00    -0.262 OA
ATOM      3  N   UNL     1      -2.365  -1.282   0.020  0.00  0.00    -0.140 N 
ATOM      4  N   UNL     1      -2.670   1.442  -0.003  0.00  0.00    -0.316 N 
ATOM      5  C   UNL     1      -1.212  -0.489   0.011  0.00  0.00    +0.118 A 
ATOM      6  C   UNL     1      -1.378   0.897   0.004  0.00  0.00    +0.080 A 
ATOM      7  C   UNL     1       1.187  -0.183   0.015  0.00  0.00    +0.081 C 
ATOM      8  C   UNL     1       0.077  -1.030   0.017  0.00  0.00    +0.039 C 
ATOM      9  C   UNL     1       1.015   1.201   0.008  0.00  0.00    +0.158 C 
ATOM     10  C   UNL     1      -0.269   1.745   0.003  0.00  0.00    +0.044 C 
ATOM     11  C   UNL     1      -3.653  -0.822  -0.030  0.00  0.00    +0.348 A 
ATOM     12  C   UNL     1      -3.819   0.680  -0.013  0.00  0.00    +0.317 A 
ATOM     13  H   UNL     1      -2.762   2.422   0.000  0.00  0.00    +0.169 HD
ENDROOT
BRANCH   7  14
ATOM     14  N   UNL     1       2.453  -0.749   0.021  0.00  0.00    -0.244 N 
ATOM     15  N   UNL     1       4.358  -1.607  -0.747  0.00  0.00    -0.224 NA
ATOM     16  C   UNL     1       3.195  -1.076   1.124  0.00  0.00    +0.092 C 
ATOM     17  C   UNL     1       3.196  -1.088  -1.079  0.00  0.00    +0.172 C 
ATOM     18  C   UNL     1       4.363  -1.602   0.625  0.00  0.00    +0.117 C 
ENDBRANCH   7  14
BRANCH   9  21
ATOM     19  O   UNL     1       1.921   3.321  -0.002  0.00  0.00    -0.126 OA
ATOM     20  O   UNL     1       3.286   1.602   0.011  0.00  0.00    -0.126 OA
ATOM     21  N   UNL     1       2.131   2.086   0.005  0.00  0.00    +0.059 N 
ENDBRANCH   9  21
BRANCH   3  22
ATOM     22  O   UNL     1      -2.185  -2.672   0.084  0.00  0.00    -0.423 OA
ATOM     23  H   UNL     1      -1.320  -3.031   0.119  0.00  0.00    +0.326 HD
ENDBRANCH   3  22
TORSDOF 3
