REMARK  Name = 10359254
REMARK  6 active torsions:
REMARK  status: ('A' for Active; 'I' for Inactive)
REMARK    1  A    between atoms: C_5  and  C_12
REMARK    2  A    between atoms: C_7  and  O_24
REMARK    3  A    between atoms: C_10  and  O_22
REMARK    4  A    between atoms: C_11  and  O_26
REMARK    5  A    between atoms: C_15  and  O_18
REMARK    6  A    between atoms: C_17  and  O_20
REMARK                            x       y       z     vdW  Elec       q    Type
REMARK                         _______ _______ _______ _____ _____    ______ ____
ROOT
ATOM      1  O   UNL     1      -0.009   0.349  -0.173  0.00  0.00    -0.453 OA
ATOM      2  O   UNL     1      -1.814  -3.259   0.397  0.00  0.00    -0.286 OA
ATOM      3  C   UNL     1      -2.060  -0.936   0.037  0.00  0.00    +0.110 C 
ATOM      4  C   UNL     1      -1.379   0.265  -0.154  0.00  0.00    +0.154 C 
ATOM      5  C   UNL     1       0.726  -0.811   0.015  0.00  0.00    +0.149 C 
ATOM      6  C   UNL     1      -1.283  -2.170   0.228  0.00  0.00    +0.205 C 
ATOM      7  C   UNL     1      -3.456  -0.963   0.046  0.00  0.00    +0.177 C 
ATOM      8  C   UNL     1       0.187  -2.026   0.202  0.00  0.00    +0.080 C 
ATOM      9  C   UNL     1      -2.092   1.449  -0.340  0.00  0.00    +0.078 C 
ATOM     10  C   UNL     1      -3.487   1.427  -0.331  0.00  0.00    +0.178 C 
ATOM     11  C   UNL     1      -4.167   0.224  -0.139  0.00  0.00    +0.202 C 
ENDROOT
BRANCH   5  12
ATOM     12  C   UNL     1       2.188  -0.609  -0.030  0.00  0.00    +0.038 C 
ATOM     13  C   UNL     1       2.742   0.602   0.395  0.00  0.00    +0.043 C 
ATOM     14  C   UNL     1       3.024  -1.626  -0.497  0.00  0.00    +0.006 C 
ATOM     15  C   UNL     1       4.123   0.793   0.353  0.00  0.00    +0.172 C 
ATOM     16  C   UNL     1       4.405  -1.435  -0.538  0.00  0.00    +0.040 C 
ATOM     17  C   UNL     1       4.955  -0.225  -0.113  0.00  0.00    +0.168 C 
BRANCH  15  18
ATOM     18  O   UNL     1       4.649   1.979   0.769  0.00  0.00    -0.468 OA
ATOM     19  C   UNL     1       4.798   3.002  -0.213  0.00  0.00    +0.253 C 
ENDBRANCH  15  18
BRANCH  17  20
ATOM     20  O   UNL     1       6.305  -0.050  -0.159  0.00  0.00    -0.503 OA
ATOM     21  H   UNL     1       6.682   0.760   0.125  0.00  0.00    +0.292 HD
ENDBRANCH  17  20
ENDBRANCH   5  12
BRANCH  10  22
ATOM     22  O   UNL     1      -4.174   2.590  -0.512  0.00  0.00    -0.468 OA
ATOM     23  C   UNL     1      -4.495   3.341   0.657  0.00  0.00    +0.253 C 
ENDBRANCH  10  22
BRANCH   7  24
ATOM     24  O   UNL     1      -4.156  -2.118   0.231  0.00  0.00    -0.503 OA
ATOM     25  H   UNL     1      -3.700  -2.927   0.357  0.00  0.00    +0.292 HD
ENDBRANCH   7  24
BRANCH  11  26
ATOM     26  O   UNL     1      -5.531   0.211  -0.131  0.00  0.00    -0.501 OA
ATOM     27  H   UNL     1      -5.992  -0.594  -0.002  0.00  0.00    +0.292 HD
ENDBRANCH  11  26
TORSDOF 6
