REMARK  Name = 10353758
REMARK  8 active torsions:
REMARK  status: ('A' for Active; 'I' for Inactive)
REMARK    1  A    between atoms: C_1  and  N_2
REMARK    2  A    between atoms: C_1  and  C_7
REMARK    3  A    between atoms: C_1  and  C_9
REMARK    4  A    between atoms: C_1  and  C_12
REMARK    5  A    between atoms: C_9  and  O_10
REMARK    6  A    between atoms: C_12  and  C_13
REMARK    7  A    between atoms: C_16  and  O_19
REMARK    8  A    between atoms: C_18  and  O_21
REMARK                            x       y       z     vdW  Elec       q    Type
REMARK                         _______ _______ _______ _____ _____    ______ ____
ROOT
ATOM      1  C   UNL     1       2.100  -0.213   0.367  0.00  0.00    +0.080 C 
ENDROOT
BRANCH   1   2
ATOM      2  N   UNL     1       3.335  -0.112   1.171  0.00  0.00    +0.392 N 
ATOM      3  H   UNL     1       3.468  -0.974   1.700  0.00  0.00    -0.088 HD
ATOM      4  H   UNL     1       3.258   0.674   1.816  0.00  0.00    -0.088 HD
ATOM      5  H   UNL     1       4.133   0.033   0.552  0.00  0.00    -0.088 HD
ENDBRANCH   1   2
BRANCH   1   7
ATOM      6  F   UNL     1       3.439  -1.240  -1.292  0.00  0.00    -0.236 F 
ATOM      7  C   UNL     1       2.302  -1.416  -0.561  0.00  0.00    +0.184 C 
ENDBRANCH   1   7
BRANCH   1   9
ATOM      8  O   UNL     1       2.479   2.174  -0.012  0.00  0.00    -0.252 OA
ATOM      9  C   UNL     1       1.982   1.118  -0.390  0.00  0.00    +0.297 C 
BRANCH   9  10
ATOM     10  O   UNL     1       1.234   1.052  -1.520  0.00  0.00    -0.481 OA
ATOM     11  H   UNL     1       0.864   0.234  -1.789  0.00  0.00    +0.295 HD
ENDBRANCH   9  10
ENDBRANCH   1   9
BRANCH   1  12
ATOM     12  C   UNL     1       0.937  -0.395   1.372  0.00  0.00    +0.020 C 
BRANCH  12  13
ATOM     13  C   UNL     1      -0.460  -0.404   0.795  0.00  0.00    -0.020 C 
ATOM     14  C   UNL     1      -1.152   0.789   0.677  0.00  0.00    +0.035 C 
ATOM     15  C   UNL     1      -1.020  -1.607   0.397  0.00  0.00    -0.001 C 
ATOM     16  C   UNL     1      -2.442   0.781   0.146  0.00  0.00    +0.167 C 
ATOM     17  C   UNL     1      -2.310  -1.616  -0.135  0.00  0.00    +0.039 C 
ATOM     18  C   UNL     1      -3.021  -0.422  -0.260  0.00  0.00    +0.167 C 
BRANCH  16  19
ATOM     19  O   UNL     1      -3.126   1.952   0.027  0.00  0.00    -0.503 OA
ATOM     20  H   UNL     1      -2.730   2.756   0.302  0.00  0.00    +0.292 HD
ENDBRANCH  16  19
BRANCH  18  21
ATOM     21  O   UNL     1      -4.279  -0.443  -0.782  0.00  0.00    -0.503 OA
ATOM     22  H   UNL     1      -4.763   0.354  -0.870  0.00  0.00    +0.292 HD
ENDBRANCH  18  21
ENDBRANCH  12  13
ENDBRANCH   1  12
TORSDOF 8
