REMARK  Name = 10358625
REMARK  9 active torsions:
REMARK  status: ('A' for Active; 'I' for Inactive)
REMARK    1  A    between atoms: O_1  and  C_2
REMARK    2  A    between atoms: O_1  and  C_15
REMARK    3  A    between atoms: C_3  and  C_12
REMARK    4  A    between atoms: C_6  and  O_9
REMARK    5  A    between atoms: C_12  and  O_13
REMARK    6  A    between atoms: C_16  and  C_25
REMARK    7  A    between atoms: C_17  and  O_23
REMARK    8  A    between atoms: C_19  and  O_21
REMARK    9  A    between atoms: C_25  and  O_26
REMARK                            x       y       z     vdW  Elec       q    Type
REMARK                         _______ _______ _______ _____ _____    ______ ____
ROOT
ATOM      1  O   UNL     1       0.179  -0.101  -1.145  0.00  0.00    -0.450 OA
ENDROOT
BRANCH   1   2
ATOM      2  C   UNL     1       1.244   0.344  -0.420  0.00  0.00    +0.154 C 
ATOM      3  C   UNL     1       2.329  -0.490  -0.153  0.00  0.00    +0.143 C 
ATOM      4  C   UNL     1       2.318   2.132   0.800  0.00  0.00    -0.016 C 
ATOM      5  C   UNL     1       1.238   1.655   0.057  0.00  0.00    +0.034 C 
ATOM      6  C   UNL     1       3.409  -0.013   0.590  0.00  0.00    +0.143 C 
ATOM      7  C   UNL     1       3.403   1.298   1.067  0.00  0.00    +0.033 C 
ATOM      8  C   UNL     1       2.312   3.534   1.308  0.00  0.00    +0.031 C 
BRANCH   6   9
ATOM      9  O   UNL     1       4.480  -0.811   0.862  0.00  0.00    -0.505 OA
ATOM     10  H   UNL     1       4.497  -1.694   0.549  0.00  0.00    +0.292 HD
ENDBRANCH   6   9
BRANCH   3  12
ATOM     11  O   UNL     1       2.896  -2.814  -0.106  0.00  0.00    -0.245 OA
ATOM     12  C   UNL     1       2.335  -1.861  -0.651  0.00  0.00    +0.344 C 
BRANCH  12  13
ATOM     13  O   UNL     1       1.639  -1.992  -1.811  0.00  0.00    -0.477 OA
ATOM     14  H   UNL     1       1.225  -1.244  -2.196  0.00  0.00    +0.295 HD
ENDBRANCH  12  13
ENDBRANCH   3  12
ENDBRANCH   1   2
BRANCH   1  15
ATOM     15  C   UNL     1      -1.063  -0.091  -0.534  0.00  0.00    +0.177 C 
ATOM     16  C   UNL     1      -2.088   0.658  -1.088  0.00  0.00    +0.048 C 
ATOM     17  C   UNL     1      -1.252  -0.833   0.619  0.00  0.00    +0.171 C 
ATOM     18  C   UNL     1      -3.338   0.666  -0.469  0.00  0.00    +0.038 C 
ATOM     19  C   UNL     1      -3.545  -0.076   0.693  0.00  0.00    +0.142 C 
ATOM     20  C   UNL     1      -2.502  -0.826   1.238  0.00  0.00    +0.077 C 
BRANCH  19  21
ATOM     21  O   UNL     1      -4.766  -0.070   1.296  0.00  0.00    -0.471 OA
ATOM     22  C   UNL     1      -4.908  -0.851   2.482  0.00  0.00    +0.252 C 
ENDBRANCH  19  21
BRANCH  17  23
ATOM     23  O   UNL     1      -0.242  -1.569   1.161  0.00  0.00    -0.503 OA
ATOM     24  H   UNL     1       0.601  -1.580   0.753  0.00  0.00    +0.292 HD
ENDBRANCH  17  23
BRANCH  16  25
ATOM     25  C   UNL     1      -1.884   1.458  -2.332  0.00  0.00    +0.167 C 
BRANCH  25  26
ATOM     26  O   UNL     1      -2.192   0.654  -3.464  0.00  0.00    -0.377 OA
ATOM     27  H   UNL     1      -2.061   1.172  -4.274  0.00  0.00    +0.211 HD
ENDBRANCH  25  26
ENDBRANCH  16  25
ENDBRANCH   1  15
TORSDOF 9
