10358486
  -OEChem-03292013303D

 37 39  0     1  0  0  0  0  0999 V2000
   -0.2575   -0.8887   -0.8878 O   0  0  0  0  0  0  0  0  0  0  0  0
   -2.3369   -0.9658   -2.4752 O   0  0  0  0  0  0  0  0  0  0  0  0
   -0.7866   -2.2984    1.0632 O   0  0  0  0  0  0  0  0  0  0  0  0
   -0.3331    2.8840    0.8056 O   0  0  0  0  0  0  0  0  0  0  0  0
   -2.0779   -0.6789    2.0864 O   0  0  0  0  0  0  0  0  0  0  0  0
    2.2670    2.8562    0.9195 O   0  0  0  0  0  0  0  0  0  0  0  0
    5.0413   -1.8064    0.0937 O   0  0  0  0  0  0  0  0  0  0  0  0
   -1.4640   -0.4660   -0.2463 C   0  0  2  0  0  0  0  0  0  0  0  0
   -2.6634   -1.0054   -1.0826 C   0  0  1  0  0  0  0  0  0  0  0  0
   -1.5564    1.0163    0.0075 C   0  0  0  0  0  0  0  0  0  0  0  0
   -0.3159    1.7560    0.3327 C   0  0  0  0  0  0  0  0  0  0  0  0
    0.8929   -0.2235   -0.5685 C   0  0  0  0  0  0  0  0  0  0  0  0
    0.9334    1.0335    0.0358 C   0  0  0  0  0  0  0  0  0  0  0  0
   -3.9424   -0.2324   -0.8897 C   0  0  0  0  0  0  0  0  0  0  0  0
   -1.4962   -1.1351    1.1113 C   0  0  0  0  0  0  0  0  0  0  0  0
   -2.7187    1.6875   -0.0536 C   0  0  0  0  0  0  0  0  0  0  0  0
   -3.9495    1.0102   -0.3871 C   0  0  0  0  0  0  0  0  0  0  0  0
    2.0859   -0.8702   -0.9023 C   0  0  0  0  0  0  0  0  0  0  0  0
    2.1644    1.6334    0.3255 C   0  0  0  0  0  0  0  0  0  0  0  0
    3.3129   -0.2734   -0.6133 C   0  0  0  0  0  0  0  0  0  0  0  0
    3.3518    0.9757    0.0030 C   0  0  0  0  0  0  0  0  0  0  0  0
    4.5827   -0.9713   -0.9655 C   0  0  0  0  0  0  0  0  0  0  0  0
   -0.7338   -3.0376    2.2875 C   0  0  0  0  0  0  0  0  0  0  0  0
   -2.8492   -2.0580   -0.8383 H   0  0  0  0  0  0  0  0  0  0  0  0
   -4.8775   -0.7038   -1.1764 H   0  0  0  0  0  0  0  0  0  0  0  0
   -2.7866    2.7540    0.1340 H   0  0  0  0  0  0  0  0  0  0  0  0
   -4.8795    1.5539   -0.2631 H   0  0  0  0  0  0  0  0  0  0  0  0
    2.0535   -1.8467   -1.3804 H   0  0  0  0  0  0  0  0  0  0  0  0
   -2.0514   -0.0612   -2.6901 H   0  0  0  0  0  0  0  0  0  0  0  0
    4.3066    1.4436    0.2319 H   0  0  0  0  0  0  0  0  0  0  0  0
    4.4573   -1.5916   -1.8597 H   0  0  0  0  0  0  0  0  0  0  0  0
    5.3732   -0.2480   -1.1949 H   0  0  0  0  0  0  0  0  0  0  0  0
    1.3925    3.1820    1.1817 H   0  0  0  0  0  0  0  0  0  0  0  0
   -1.7414   -3.3327    2.5952 H   0  0  0  0  0  0  0  0  0  0  0  0
   -0.2491   -2.4428    3.0676 H   0  0  0  0  0  0  0  0  0  0  0  0
   -0.1409   -3.9396    2.1145 H   0  0  0  0  0  0  0  0  0  0  0  0
    4.8060   -1.3900    0.9401 H   0  0  0  0  0  0  0  0  0  0  0  0
  1  8  1  0  0  0  0
  1 12  1  0  0  0  0
  2  9  1  0  0  0  0
  2 29  1  0  0  0  0
  3 15  1  0  0  0  0
  3 23  1  0  0  0  0
  4 11  2  0  0  0  0
  5 15  2  0  0  0  0
  6 19  1  0  0  0  0
  6 33  1  0  0  0  0
  7 22  1  0  0  0  0
  7 37  1  0  0  0  0
  8  9  1  0  0  0  0
  8 10  1  0  0  0  0
  8 15  1  0  0  0  0
  9 14  1  0  0  0  0
  9 24  1  0  0  0  0
 10 11  1  0  0  0  0
 10 16  2  0  0  0  0
 11 13  1  0  0  0  0
 12 13  1  0  0  0  0
 12 18  2  0  0  0  0
 13 19  2  0  0  0  0
 14 17  2  0  0  0  0
 14 25  1  0  0  0  0
 16 17  1  0  0  0  0
 16 26  1  0  0  0  0
 17 27  1  0  0  0  0
 18 20  1  0  0  0  0
 18 28  1  0  0  0  0
 19 21  1  0  0  0  0
 20 21  2  0  0  0  0
 20 22  1  0  0  0  0
 21 30  1  0  0  0  0
 22 31  1  0  0  0  0
 22 32  1  0  0  0  0
 23 34  1  0  0  0  0
 23 35  1  0  0  0  0
 23 36  1  0  0  0  0
M  END
> <PUBCHEM_COMPOUND_CID>
10358486

> <PUBCHEM_CONFORMER_RMSD>
0.6

> <PUBCHEM_CONFORMER_DIVERSEORDER>
1
4
3
2
5

> <PUBCHEM_MMFF94_PARTIAL_CHARGES>
31
1 -0.36
10 -0.12
11 0.47
12 0.08
13 0.09
14 -0.29
15 0.66
16 -0.15
17 -0.15
18 -0.15
19 0.08
2 -0.68
20 -0.14
21 -0.15
22 0.42
23 0.28
25 0.15
26 0.15
27 0.15
28 0.15
29 0.4
3 -0.43
30 0.15
33 0.45
37 0.4
4 -0.57
5 -0.57
6 -0.53
7 -0.68
8 0.48
9 0.42

> <PUBCHEM_EFFECTIVE_ROTOR_COUNT>
3.4

> <PUBCHEM_PHARMACOPHORE_FEATURES>
11
1 1 acceptor
1 2 acceptor
1 2 donor
1 4 acceptor
1 5 acceptor
1 6 donor
1 7 acceptor
1 7 donor
6 1 8 10 11 12 13 rings
6 12 13 18 19 20 21 rings
6 8 9 10 14 16 17 rings

> <PUBCHEM_HEAVY_ATOM_COUNT>
23

> <PUBCHEM_ATOM_DEF_STEREO_COUNT>
2

> <PUBCHEM_ATOM_UDEF_STEREO_COUNT>
0

> <PUBCHEM_BOND_DEF_STEREO_COUNT>
0

> <PUBCHEM_BOND_UDEF_STEREO_COUNT>
0

> <PUBCHEM_ISOTOPIC_ATOM_COUNT>
0

> <PUBCHEM_COMPONENT_COUNT>
1

> <PUBCHEM_CACTVS_TAUTO_COUNT>
5

> <PUBCHEM_CONFORMER_ID>
009E0ED600000001

> <PUBCHEM_MMFF94_ENERGY>
69.6817

> <PUBCHEM_FEATURE_SELFOVERLAP>
55.89

> <PUBCHEM_SHAPE_FINGERPRINT>
10062212 137 18272642424811316855
10863032 1 17488734722336602333
10906281 52 18199207134541326516
11582403 64 16251305969626817281
12293681 25 17758108585551837939
12553582 1 18200051589678485566
12596599 1 16916802815504429620
12714826 92 17314805193772615779
12788726 201 18124320407149144400
13140716 1 18273500078188148112
14115302 16 18040729060320457246
14223421 5 18049170165600409464
15163728 17 15938078991296786359
15196674 1 18273210902303550788
15209289 33 18335424521609053415
15295992 7 18337965544705262953
16752209 62 18261667056983094240
16945 1 18057892350725265013
18186145 218 18187069668389101525
19049666 15 18263928906893547698
19930381 70 17841156545580754719
200 152 17275100626365844557
20691752 17 18188757414432493373
20832881 197 18339077081945892952
21267235 1 18201726141038674999
23402539 116 18269550555196018788
23526113 38 18266447879585409105
23559900 14 18334297587390520060
2748010 2 18125450945140722444
335352 9 18129662980702584629
34934 24 18126280831632859909
4340502 62 17605570855687774097
5104073 3 18131068251009367283
5845 1 9758406344057258963
598444 67 18261688050735744995
633830 44 18336251410604642501
81228 2 18126022485155602632
8809292 202 18409174298618144776
9709674 26 18339639074253521420
9981440 41 17479992625495832960

> <PUBCHEM_SHAPE_MULTIPOLES>
432.24
7.08
2.77
1.59
5.33
0.02
-0.15
0.99
2.35
0.3
-1.79
-0.96
1.07
0.75

> <PUBCHEM_SHAPE_SELFOVERLAP>
956.989

> <PUBCHEM_SHAPE_VOLUME>
227.9

> <PUBCHEM_COORDINATE_TYPE>
2
5
10

$$$$
