10356805
  -OEChem-03292013303D

 28 30  0     0  0  0  0  0  0999 V2000
   -2.1847   -2.6717    0.0840 O   0  0  0  0  0  0  0  0  0  0  0  0
   -4.6714   -1.5007   -0.0607 O   0  0  0  0  0  0  0  0  0  0  0  0
   -4.9595    1.1269   -0.0133 O   0  0  0  0  0  0  0  0  0  0  0  0
    1.9214    3.3214   -0.0020 O   0  5  0  0  0  0  0  0  0  0  0  0
    3.2860    1.6019    0.0106 O   0  0  0  0  0  0  0  0  0  0  0  0
    2.4531   -0.7489    0.0205 N   0  0  0  0  0  0  0  0  0  0  0  0
   -2.3651   -1.2815    0.0196 N   0  0  0  0  0  0  0  0  0  0  0  0
   -2.6702    1.4419   -0.0029 N   0  0  0  0  0  0  0  0  0  0  0  0
    2.1306    2.0862    0.0053 N   0  3  0  0  0  0  0  0  0  0  0  0
    4.3576   -1.6072   -0.7472 N   0  0  0  0  0  0  0  0  0  0  0  0
   -1.2125   -0.4890    0.0115 C   0  0  0  0  0  0  0  0  0  0  0  0
   -1.3781    0.8967    0.0036 C   0  0  0  0  0  0  0  0  0  0  0  0
    1.1873   -0.1833    0.0151 C   0  0  0  0  0  0  0  0  0  0  0  0
    0.0769   -1.0305    0.0174 C   0  0  0  0  0  0  0  0  0  0  0  0
    1.0151    1.2011    0.0082 C   0  0  0  0  0  0  0  0  0  0  0  0
   -0.2687    1.7449    0.0028 C   0  0  0  0  0  0  0  0  0  0  0  0
   -3.6527   -0.8217   -0.0297 C   0  0  0  0  0  0  0  0  0  0  0  0
   -3.8192    0.6796   -0.0130 C   0  0  0  0  0  0  0  0  0  0  0  0
    3.1948   -1.0757    1.1243 C   0  0  0  0  0  0  0  0  0  0  0  0
    3.1964   -1.0882   -1.0794 C   0  0  0  0  0  0  0  0  0  0  0  0
    4.3629   -1.6024    0.6253 C   0  0  0  0  0  0  0  0  0  0  0  0
    0.2244   -2.1081    0.0232 H   0  0  0  0  0  0  0  0  0  0  0  0
   -0.4353    2.8197   -0.0030 H   0  0  0  0  0  0  0  0  0  0  0  0
   -2.7610    2.4540   -0.0007 H   0  0  0  0  0  0  0  0  0  0  0  0
    2.8430   -0.9127    2.1341 H   0  0  0  0  0  0  0  0  0  0  0  0
    2.8438   -0.9358   -2.0910 H   0  0  0  0  0  0  0  0  0  0  0  0
    5.2073   -1.9780    1.1845 H   0  0  0  0  0  0  0  0  0  0  0  0
   -2.3557   -2.9172   -0.8415 H   0  0  0  0  0  0  0  0  0  0  0  0
  1  7  1  0  0  0  0
  1 28  1  0  0  0  0
  2 17  2  0  0  0  0
  3 18  2  0  0  0  0
  4  9  1  0  0  0  0
  5  9  2  0  0  0  0
  6 13  1  0  0  0  0
  6 19  1  0  0  0  0
  6 20  1  0  0  0  0
  7 11  1  0  0  0  0
  7 17  1  0  0  0  0
  8 12  1  0  0  0  0
  8 18  1  0  0  0  0
  8 24  1  0  0  0  0
  9 15  1  0  0  0  0
 10 20  2  0  0  0  0
 10 21  1  0  0  0  0
 11 12  1  0  0  0  0
 11 14  2  0  0  0  0
 12 16  2  0  0  0  0
 13 14  1  0  0  0  0
 13 15  2  0  0  0  0
 14 22  1  0  0  0  0
 15 16  1  0  0  0  0
 16 23  1  0  0  0  0
 17 18  1  0  0  0  0
 19 21  2  0  0  0  0
 19 25  1  0  0  0  0
 20 26  1  0  0  0  0
 21 27  1  0  0  0  0
M  CHG  2   4  -1   9   1
M  END
> <PUBCHEM_COMPOUND_CID>
10356805

> <PUBCHEM_CONFORMER_RMSD>
0.6

> <PUBCHEM_CONFORMER_DIVERSEORDER>
1
2

> <PUBCHEM_MMFF94_PARTIAL_CHARGES>
28
1 -0.44
10 -0.57
11 0.12
12 0.12
13 -0.02
14 -0.15
15 0.13
16 -0.15
17 0.63
18 0.63
19 -0.3
2 -0.57
20 0.04
21 0.08
22 0.15
23 0.15
24 0.37
25 0.15
26 0.15
27 0.15
28 0.4
3 -0.57
4 -0.52
5 -0.52
6 0.33
7 -0.14
8 -0.55
9 0.91

> <PUBCHEM_EFFECTIVE_ROTOR_COUNT>
2

> <PUBCHEM_PHARMACOPHORE_FEATURES>
10
1 2 acceptor
1 3 acceptor
1 4 acceptor
1 4 anion
1 5 acceptor
1 8 donor
3 6 10 20 cation
5 6 10 19 20 21 rings
6 11 12 13 14 15 16 rings
6 7 8 11 12 17 18 rings

> <PUBCHEM_HEAVY_ATOM_COUNT>
21

> <PUBCHEM_ATOM_DEF_STEREO_COUNT>
0

> <PUBCHEM_ATOM_UDEF_STEREO_COUNT>
0

> <PUBCHEM_BOND_DEF_STEREO_COUNT>
0

> <PUBCHEM_BOND_UDEF_STEREO_COUNT>
0

> <PUBCHEM_ISOTOPIC_ATOM_COUNT>
0

> <PUBCHEM_COMPONENT_COUNT>
1

> <PUBCHEM_CACTVS_TAUTO_COUNT>
2

> <PUBCHEM_CONFORMER_ID>
009E084500000001

> <PUBCHEM_MMFF94_ENERGY>
82.5371

> <PUBCHEM_FEATURE_SELFOVERLAP>
50.863

> <PUBCHEM_SHAPE_FINGERPRINT>
10616163 171 18124034791085585807
10967382 1 18266458887454739185
11405975 8 18411140229956874505
11578080 2 17314484012509082204
11680986 33 18263931097168651985
116883 192 18271250404641698260
12236239 1 17749394707325969938
12403259 226 18408316683807036901
12553582 1 18264199236504283386
12633257 1 18341058415221974953
12916754 54 18412266172929466827
13140716 1 18410575102106692555
13675066 3 17846208943217288603
14115302 16 17968671444586413030
14790565 3 17403183599364853392
14866123 147 17478902584254528818
15042514 8 17905321828432890514
15099037 51 18338515240552963423
15196674 1 18410574007169658529
15375462 189 17968374529196998762
15442244 35 18411136939537191273
15475509 8 17769963201978309805
15536298 74 18412824711360670408
16945 1 18338516313814726352
17349148 13 18060419097233708815
17492 89 18339079427220407503
17804303 29 18409732841861221999
1813 80 17313097562400226516
18186145 218 17895187814174227919
200 152 17774995770252329775
20028762 73 18201717379986802167
20645477 70 18411135882959516247
20691752 17 17530957012145557832
21267235 1 18410301298200483339
21501502 16 18339641247596624461
221490 88 18336272348058403394
2255824 54 18113621213833072910
2334 1 18266459982502425737
23366157 5 18042123309842463180
23402539 116 18270390590696071279
23557571 272 18057326085716227342
23559900 14 18342173371404376320
2748010 2 18337387244253778309
3004659 81 18042411236250669982
312423 11 18338530723873096665
314173 41 18410016494528938894
335352 9 18338516331501082573
34934 24 18412260679555512444
350125 39 18336831884183269909
5104073 3 18411703209969630249
5902787 121 18408880720550259690
7364860 26 18341895259614132608
74978 22 18409731780751209195
81228 2 17983592801239257744
8809292 202 18407763629426331203
8863177 126 17896902009000932059
9709674 26 18337111297148007907
9981440 41 17688024632112941504

> <PUBCHEM_SHAPE_MULTIPOLES>
377.92
8.87
2.66
0.75
2.96
1.22
0
-3.21
0.05
-0.79
-0.02
-0.63
-0.2
0

> <PUBCHEM_SHAPE_SELFOVERLAP>
845.643

> <PUBCHEM_SHAPE_VOLUME>
199.2

> <PUBCHEM_COORDINATE_TYPE>
2
5
10

$$$$
