REMARK  Name = 10355383
REMARK  5 active torsions:
REMARK  status: ('A' for Active; 'I' for Inactive)
REMARK    1  A    between atoms: C_5  and  C_14
REMARK    2  A    between atoms: C_14  and  N_15
REMARK    3  A    between atoms: C_16  and  C_23
REMARK    4  A    between atoms: C_17  and  O_21
REMARK    5  A    between atoms: C_23  and  O_24
REMARK                            x       y       z     vdW  Elec       q    Type
REMARK                         _______ _______ _______ _____ _____    ______ ____
ROOT
ATOM      1  N   UNL     1       2.404  -1.735   0.530  0.00  0.00    -0.323 N 
ATOM      2  N   UNL     1       2.019   1.732   0.038  0.00  0.00    -0.247 NA
ATOM      3  N   UNL     1       4.179   1.146  -0.918  0.00  0.00    -0.232 NA
ATOM      4  N   UNL     1       5.017  -1.096  -0.890  0.00  0.00    -0.345 N 
ATOM      5  C   UNL     1       0.847  -0.257   1.011  0.00  0.00    -0.014 C 
ATOM      6  C   UNL     1       1.885   0.422   0.363  0.00  0.00    +0.076 C 
ATOM      7  C   UNL     1       1.171  -1.575   1.110  0.00  0.00    +0.053 C 
ATOM      8  C   UNL     1       2.859  -0.527   0.067  0.00  0.00    +0.163 C 
ATOM      9  C   UNL     1       4.021  -0.154  -0.584  0.00  0.00    +0.123 C 
ATOM     10  C   UNL     1       3.182   1.997  -0.591  0.00  0.00    +0.251 C 
ATOM     11  H   UNL     1       2.890  -2.589   0.458  0.00  0.00    +0.148 HD
ATOM     12  H   UNL     1       5.838  -0.812  -1.353  0.00  0.00    +0.143 HD
ATOM     13  H   UNL     1       4.894  -2.041  -0.641  0.00  0.00    +0.143 HD
ENDROOT
BRANCH   5  14
ATOM     14  C   UNL     1      -0.425   0.363   1.520  0.00  0.00    -0.047 C 
BRANCH  14  15
ATOM     15  N   UNL     1      -1.462   0.343   0.499  0.00  0.00    +0.391 N 
ATOM     16  C   UNL     1      -3.664   0.531  -0.161  0.00  0.00    +0.033 C 
ATOM     17  C   UNL     1      -3.223  -0.897  -0.492  0.00  0.00    +0.090 C 
ATOM     18  C   UNL     1      -2.717   0.940   0.960  0.00  0.00    -0.072 C 
ATOM     19  C   UNL     1      -1.803  -1.018   0.068  0.00  0.00    -0.047 C 
ATOM     20  H   UNL     1      -1.062   0.881  -0.270  0.00  0.00    -0.079 HD
BRANCH  17  21
ATOM     21  O   UNL     1      -3.236  -1.083  -1.900  0.00  0.00    -0.387 OA
ATOM     22  H   UNL     1      -4.145  -1.002  -2.228  0.00  0.00    +0.210 HD
ENDBRANCH  17  21
BRANCH  16  23
ATOM     23  C   UNL     1      -5.128   0.628   0.237  0.00  0.00    +0.137 C 
BRANCH  23  24
ATOM     24  O   UNL     1      -5.927   0.241  -0.868  0.00  0.00    -0.382 OA
ATOM     25  H   UNL     1      -6.865   0.299  -0.625  0.00  0.00    +0.210 HD
ENDBRANCH  23  24
ENDBRANCH  16  23
ENDBRANCH  14  15
ENDBRANCH   5  14
TORSDOF 5
