REMARK  Name = 10355487
REMARK  4 active torsions:
REMARK  status: ('A' for Active; 'I' for Inactive)
REMARK    1  A    between atoms: N_1  and  C_14
REMARK    2  A    between atoms: C_9  and  O_21
REMARK    3  A    between atoms: C_17  and  C_18
REMARK    4  A    between atoms: C_18  and  O_19
REMARK                            x       y       z     vdW  Elec       q    Type
REMARK                         _______ _______ _______ _____ _____    ______ ____
ROOT
ATOM      1  N   UNL     1      -0.533  -0.003   0.012  0.00  0.00    -0.238 N 
ATOM      2  N   UNL     1       0.638  -1.881  -0.253  0.00  0.00    -0.239 NA
ATOM      3  N   UNL     1       1.283   1.586   0.286  0.00  0.00    -0.311 NA
ATOM      4  N   UNL     1       3.455   0.480   0.155  0.00  0.00    -0.289 NA
ATOM      5  N   UNL     1       3.278   2.790   0.504  0.00  0.00    -0.283 N 
ATOM      6  C   UNL     1       0.782   0.357   0.090  0.00  0.00    +0.223 C 
ATOM      7  C   UNL     1      -0.569  -1.357  -0.194  0.00  0.00    +0.224 C 
ATOM      8  C   UNL     1       1.491  -0.821  -0.078  0.00  0.00    +0.190 C 
ATOM      9  C   UNL     1       2.879  -0.730  -0.040  0.00  0.00    +0.311 C 
ATOM     10  C   UNL     1       2.633   1.548   0.304  0.00  0.00    +0.200 C 
ATOM     11  H   UNL     1       2.743   3.609   0.620  0.00  0.00    +0.156 HD
ATOM     12  H   UNL     1       4.261   2.836   0.528  0.00  0.00    +0.156 HD
ENDROOT
BRANCH   1  14
ATOM     13  O   UNL     1      -2.779   0.167   0.747  0.00  0.00    -0.337 OA
ATOM     14  C   UNL     1      -1.694   0.881   0.128  0.00  0.00    +0.195 C 
ATOM     15  C   UNL     1      -2.195   1.415  -1.210  0.00  0.00    +0.054 C 
ATOM     16  C   UNL     1      -3.428   0.583  -1.477  0.00  0.00    +0.037 C 
ATOM     17  C   UNL     1      -3.946   0.332  -0.073  0.00  0.00    +0.146 C 
BRANCH  17  18
ATOM     18  C   UNL     1      -4.832  -0.893   0.037  0.00  0.00    +0.167 C 
BRANCH  18  19
ATOM     19  O   UNL     1      -5.249  -1.040   1.386  0.00  0.00    -0.379 OA
ATOM     20  H   UNL     1      -5.817  -1.822   1.465  0.00  0.00    +0.211 HD
ENDBRANCH  18  19
ENDBRANCH  17  18
ENDBRANCH   1  14
BRANCH   9  21
ATOM     21  O   UNL     1       3.692  -1.824  -0.193  0.00  0.00    -0.446 OA
ATOM     22  C   UNL     1       5.094  -1.591  -0.133  0.00  0.00    +0.255 C 
ENDBRANCH   9  21
TORSDOF 4
