10355487
  -OEChem-03292013303D

 34 36  0     1  0  0  0  0  0999 V2000
   -2.7786    0.1670    0.7474 O   0  0  0  0  0  0  0  0  0  0  0  0
   -5.2494   -1.0396    1.3857 O   0  0  0  0  0  0  0  0  0  0  0  0
    3.6923   -1.8242   -0.1926 O   0  0  0  0  0  0  0  0  0  0  0  0
   -0.5331   -0.0032    0.0123 N   0  0  0  0  0  0  0  0  0  0  0  0
    0.6377   -1.8810   -0.2533 N   0  0  0  0  0  0  0  0  0  0  0  0
    1.2832    1.5861    0.2862 N   0  0  0  0  0  0  0  0  0  0  0  0
    3.4550    0.4805    0.1548 N   0  0  0  0  0  0  0  0  0  0  0  0
    3.2777    2.7900    0.5044 N   0  0  0  0  0  0  0  0  0  0  0  0
   -1.6937    0.8811    0.1280 C   0  0  1  0  0  0  0  0  0  0  0  0
   -2.1952    1.4152   -1.2097 C   0  0  0  0  0  0  0  0  0  0  0  0
   -3.4282    0.5831   -1.4766 C   0  0  0  0  0  0  0  0  0  0  0  0
   -3.9464    0.3323   -0.0726 C   0  0  1  0  0  0  0  0  0  0  0  0
   -4.8318   -0.8932    0.0375 C   0  0  0  0  0  0  0  0  0  0  0  0
    0.7816    0.3575    0.0899 C   0  0  0  0  0  0  0  0  0  0  0  0
   -0.5686   -1.3566   -0.1937 C   0  0  0  0  0  0  0  0  0  0  0  0
    1.4912   -0.8210   -0.0776 C   0  0  0  0  0  0  0  0  0  0  0  0
    2.8790   -0.7303   -0.0402 C   0  0  0  0  0  0  0  0  0  0  0  0
    2.6334    1.5476    0.3036 C   0  0  0  0  0  0  0  0  0  0  0  0
    5.0938   -1.5914   -0.1334 C   0  0  0  0  0  0  0  0  0  0  0  0
   -1.4016    1.6989    0.7964 H   0  0  0  0  0  0  0  0  0  0  0  0
   -1.4602    1.3664   -2.0187 H   0  0  0  0  0  0  0  0  0  0  0  0
   -2.4895    2.4654   -1.0919 H   0  0  0  0  0  0  0  0  0  0  0  0
   -4.1584    1.0851   -2.1174 H   0  0  0  0  0  0  0  0  0  0  0  0
   -3.1361   -0.3569   -1.9596 H   0  0  0  0  0  0  0  0  0  0  0  0
   -4.4751    1.2145    0.3103 H   0  0  0  0  0  0  0  0  0  0  0  0
   -4.2948   -1.8049   -0.2438 H   0  0  0  0  0  0  0  0  0  0  0  0
   -5.7209   -0.7982   -0.5926 H   0  0  0  0  0  0  0  0  0  0  0  0
   -1.4926   -1.9090   -0.2980 H   0  0  0  0  0  0  0  0  0  0  0  0
   -4.4494   -1.1167    1.9333 H   0  0  0  0  0  0  0  0  0  0  0  0
    4.2874    2.8275    0.5280 H   0  0  0  0  0  0  0  0  0  0  0  0
    2.7206    3.6248    0.6228 H   0  0  0  0  0  0  0  0  0  0  0  0
    5.3833   -1.1914    0.8440 H   0  0  0  0  0  0  0  0  0  0  0  0
    5.4135   -0.9202   -0.9376 H   0  0  0  0  0  0  0  0  0  0  0  0
    5.6019   -2.5504   -0.2707 H   0  0  0  0  0  0  0  0  0  0  0  0
  1  9  1  0  0  0  0
  1 12  1  0  0  0  0
  2 13  1  0  0  0  0
  2 29  1  0  0  0  0
  3 17  1  0  0  0  0
  3 19  1  0  0  0  0
  4  9  1  0  0  0  0
  4 14  1  0  0  0  0
  4 15  1  0  0  0  0
  5 15  2  0  0  0  0
  5 16  1  0  0  0  0
  6 14  1  0  0  0  0
  6 18  2  0  0  0  0
  7 17  2  0  0  0  0
  7 18  1  0  0  0  0
  8 18  1  0  0  0  0
  8 30  1  0  0  0  0
  8 31  1  0  0  0  0
  9 10  1  0  0  0  0
  9 20  1  0  0  0  0
 10 11  1  0  0  0  0
 10 21  1  0  0  0  0
 10 22  1  0  0  0  0
 11 12  1  0  0  0  0
 11 23  1  0  0  0  0
 11 24  1  0  0  0  0
 12 13  1  0  0  0  0
 12 25  1  0  0  0  0
 13 26  1  0  0  0  0
 13 27  1  0  0  0  0
 14 16  2  0  0  0  0
 15 28  1  0  0  0  0
 16 17  1  0  0  0  0
 19 32  1  0  0  0  0
 19 33  1  0  0  0  0
 19 34  1  0  0  0  0
M  END
> <PUBCHEM_COMPOUND_CID>
10355487

> <PUBCHEM_CONFORMER_RMSD>
0.6

> <PUBCHEM_CONFORMER_DIVERSEORDER>
1
12
16
21
11
4
3
19
5
18
8
6
2
17
9
15
10
13
7
14
20

> <PUBCHEM_MMFF94_PARTIAL_CHARGES>
21
1 -0.56
12 0.28
13 0.28
14 0.11
15 0.04
16 0.23
17 0.39
18 0.72
19 0.28
2 -0.68
28 0.15
29 0.4
3 -0.36
30 0.4
31 0.4
4 0.05
5 -0.57
6 -0.57
7 -0.62
8 -0.9
9 0.54

> <PUBCHEM_EFFECTIVE_ROTOR_COUNT>
4

> <PUBCHEM_PHARMACOPHORE_FEATURES>
9
1 1 acceptor
1 2 acceptor
1 2 donor
1 8 donor
3 4 5 15 cation
4 6 7 8 18 cation
5 1 9 10 11 12 rings
5 4 5 14 15 16 rings
6 6 7 14 16 17 18 rings

> <PUBCHEM_HEAVY_ATOM_COUNT>
19

> <PUBCHEM_ATOM_DEF_STEREO_COUNT>
2

> <PUBCHEM_ATOM_UDEF_STEREO_COUNT>
0

> <PUBCHEM_BOND_DEF_STEREO_COUNT>
0

> <PUBCHEM_BOND_UDEF_STEREO_COUNT>
0

> <PUBCHEM_ISOTOPIC_ATOM_COUNT>
0

> <PUBCHEM_COMPONENT_COUNT>
1

> <PUBCHEM_CACTVS_TAUTO_COUNT>
3

> <PUBCHEM_CONFORMER_ID>
009E031F00000001

> <PUBCHEM_MMFF94_ENERGY>
44.9156

> <PUBCHEM_FEATURE_SELFOVERLAP>
45.807

> <PUBCHEM_SHAPE_FINGERPRINT>
10366900 7 17748832890563115027
10608611 8 18335130969290197909
11471102 20 18412539899589827764
11578080 2 16843027887267735906
11615757 297 18272087180234803171
12032990 46 18409167675456717108
12236239 1 17346594166976104141
12403259 226 18335695005775269628
12403259 415 18259981570071816533
12715332 25 18060695091574193958
12916754 54 18411698785989836101
13583140 156 17169521139121535041
13690532 89 18341611469554960934
13760787 5 18131627898549759861
13862211 1 18268705022766211014
14350574 20 18408890619969939431
15196674 1 18411418401671249933
15219456 202 18334852823139689525
16945 1 18341609261888847894
18186145 218 18273492377406569596
18785283 64 18336543923774092352
200 152 18130777933243593917
20028762 73 18131346432053214991
20645477 70 18412546505191708110
21041028 32 18130792213493486249
21065201 7 17312813858319489217
21267235 1 18341902849053537718
21682296 61 18128541461836677918
221490 88 18409449176166308206
22854114 59 18410855490562379993
23402539 116 17987227829656692902
23532345 42 17386002910031016725
23557571 272 17531247215239528485
23559900 14 17748543723479298759
2748010 2 18339363084308711422
2871803 45 18187075162058623487
312423 11 18271819994351068416
3286 77 18410013212836392764
350125 39 18410298007828045836
474 4 17057782281895838536
5104073 3 18409165489608832897
7364860 26 18343578569240793936
7495541 125 18334581239319719630
77492 1 17274818060657558869

> <PUBCHEM_SHAPE_MULTIPOLES>
348.5
9.83
2.11
0.92
3.1
0.62
0.11
-2.93
-0.94
-2.17
-0.1
1.04
0.1
1.25

> <PUBCHEM_SHAPE_SELFOVERLAP>
751.078

> <PUBCHEM_SHAPE_VOLUME>
191.5

> <PUBCHEM_COORDINATE_TYPE>
2
5
10

$$$$
