REMARK  Name = 10359384
REMARK  7 active torsions:
REMARK  status: ('A' for Active; 'I' for Inactive)
REMARK    1  A    between atoms: C_3  and  C_12
REMARK    2  A    between atoms: C_6  and  O_24
REMARK    3  A    between atoms: C_8  and  O_26
REMARK    4  A    between atoms: C_10  and  O_28
REMARK    5  A    between atoms: C_15  and  O_20
REMARK    6  A    between atoms: C_16  and  O_22
REMARK    7  A    between atoms: C_17  and  O_18
REMARK                            x       y       z     vdW  Elec       q    Type
REMARK                         _______ _______ _______ _____ _____    ______ ____
ROOT
ATOM      1  O   UNL     1      -0.794  -0.859   0.012  0.00  0.00    -0.450 OA
ATOM      2  O   UNL     1      -2.522   2.831  -0.008  0.00  0.00    -0.283 OA
ATOM      3  C   UNL     1      -0.030   0.297   0.037  0.00  0.00    +0.182 A 
ATOM      4  C   UNL     1      -2.811   0.491  -0.011  0.00  0.00    +0.110 A 
ATOM      5  C   UNL     1      -2.160  -0.741  -0.006  0.00  0.00    +0.155 A 
ATOM      6  C   UNL     1      -0.534   1.545   0.026  0.00  0.00    +0.208 A 
ATOM      7  C   UNL     1      -2.006   1.722   0.002  0.00  0.00    +0.238 A 
ATOM      8  C   UNL     1      -4.207   0.550  -0.031  0.00  0.00    +0.143 C 
ATOM      9  C   UNL     1      -2.901  -1.923  -0.020  0.00  0.00    +0.074 C 
ATOM     10  C   UNL     1      -4.295  -1.867  -0.040  0.00  0.00    +0.140 C 
ATOM     11  C   UNL     1      -4.946  -0.633  -0.045  0.00  0.00    +0.073 C 
ENDROOT
BRANCH   3  12
ATOM     12  C   UNL     1       1.419   0.029   0.054  0.00  0.00    +0.044 C 
ATOM     13  C   UNL     1       2.118  -0.105  -1.146  0.00  0.00    +0.043 C 
ATOM     14  C   UNL     1       2.093  -0.092   1.270  0.00  0.00    +0.043 C 
ATOM     15  C   UNL     1       3.464  -0.346   1.285  0.00  0.00    +0.171 C 
ATOM     16  C   UNL     1       3.489  -0.359  -1.131  0.00  0.00    +0.171 C 
ATOM     17  C   UNL     1       4.162  -0.479   0.085  0.00  0.00    +0.206 C 
BRANCH  17  18
ATOM     18  O   UNL     1       5.503  -0.728   0.100  0.00  0.00    -0.465 OA
ATOM     19  C   UNL     1       6.346   0.233  -0.531  0.00  0.00    +0.253 C 
ENDBRANCH  17  18
BRANCH  15  20
ATOM     20  O   UNL     1       4.110  -0.462   2.479  0.00  0.00    -0.503 OA
ATOM     21  H   UNL     1       3.633  -0.371   3.281  0.00  0.00    +0.292 HD
ENDBRANCH  15  20
BRANCH  16  22
ATOM     22  O   UNL     1       4.159  -0.487  -2.310  0.00  0.00    -0.503 OA
ATOM     23  H   UNL     1       3.699  -0.405  -3.122  0.00  0.00    +0.292 HD
ENDBRANCH  16  22
ENDBRANCH   3  12
BRANCH   6  24
ATOM     24  O   UNL     1       0.255   2.675   0.018  0.00  0.00    -0.501 OA
ATOM     25  H   UNL     1       1.188   2.595   0.033  0.00  0.00    +0.292 HD
ENDBRANCH   6  24
BRANCH   8  26
ATOM     26  O   UNL     1      -4.892   1.727  -0.037  0.00  0.00    -0.505 OA
ATOM     27  H   UNL     1      -4.427   2.541  -0.028  0.00  0.00    +0.292 HD
ENDBRANCH   8  26
BRANCH  10  28
ATOM     28  O   UNL     1      -5.020  -3.019  -0.054  0.00  0.00    -0.505 OA
ATOM     29  H   UNL     1      -4.583  -3.848  -0.050  0.00  0.00    +0.292 HD
ENDBRANCH  10  28
TORSDOF 7
