REMARK  Name = 10358486
REMARK  6 active torsions:
REMARK  status: ('A' for Active; 'I' for Inactive)
REMARK    1  A    between atoms: C_3  and  C_19
REMARK    2  A    between atoms: C_4  and  O_16
REMARK    3  A    between atoms: C_13  and  O_22
REMARK    4  A    between atoms: C_14  and  C_24
REMARK    5  A    between atoms: C_19  and  O_20
REMARK    6  A    between atoms: C_24  and  O_25
REMARK                            x       y       z     vdW  Elec       q    Type
REMARK                         _______ _______ _______ _____ _____    ______ ____
ROOT
ATOM      1  O   UNL     1      -0.258  -0.889  -0.888  0.00  0.00    -0.465 OA
ATOM      2  O   UNL     1      -0.333   2.884   0.806  0.00  0.00    -0.287 OA
ATOM      3  C   UNL     1      -1.464  -0.466  -0.246  0.00  0.00    +0.270 C 
ATOM      4  C   UNL     1      -2.663  -1.005  -1.083  0.00  0.00    +0.184 C 
ATOM      5  C   UNL     1      -1.556   1.016   0.007  0.00  0.00    +0.066 C 
ATOM      6  C   UNL     1      -0.316   1.756   0.333  0.00  0.00    +0.201 C 
ATOM      7  C   UNL     1       0.893  -0.224  -0.569  0.00  0.00    +0.145 C 
ATOM      8  C   UNL     1       0.933   1.034   0.036  0.00  0.00    +0.106 C 
ATOM      9  C   UNL     1      -3.942  -0.232  -0.890  0.00  0.00    +0.007 C 
ATOM     10  C   UNL     1      -2.719   1.688  -0.054  0.00  0.00    +0.003 C 
ATOM     11  C   UNL     1      -3.950   1.010  -0.387  0.00  0.00    -0.002 C 
ATOM     12  C   UNL     1       2.086  -0.870  -0.902  0.00  0.00    +0.035 C 
ATOM     13  C   UNL     1       2.164   1.633   0.326  0.00  0.00    +0.139 C 
ATOM     14  C   UNL     1       3.313  -0.273  -0.613  0.00  0.00    +0.013 C 
ATOM     15  C   UNL     1       3.352   0.976   0.003  0.00  0.00    +0.035 C 
ENDROOT
BRANCH   4  16
ATOM     16  O   UNL     1      -2.337  -0.966  -2.475  0.00  0.00    -0.376 OA
ATOM     17  H   UNL     1      -1.515  -1.457  -2.629  0.00  0.00    +0.211 HD
ENDBRANCH   4  16
BRANCH   3  19
ATOM     18  O   UNL     1      -2.078  -0.679   2.086  0.00  0.00    -0.246 OA
ATOM     19  C   UNL     1      -1.496  -1.135   1.111  0.00  0.00    +0.361 C 
BRANCH  19  20
ATOM     20  O   UNL     1      -0.787  -2.298   1.063  0.00  0.00    -0.442 OA
ATOM     21  C   UNL     1      -0.734  -3.038   2.288  0.00  0.00    +0.256 C 
ENDBRANCH  19  20
ENDBRANCH   3  19
BRANCH  13  22
ATOM     22  O   UNL     1       2.267   2.856   0.919  0.00  0.00    -0.505 OA
ATOM     23  H   UNL     1       1.493   3.331   1.152  0.00  0.00    +0.292 HD
ENDBRANCH  13  22
BRANCH  14  24
ATOM     24  C   UNL     1       4.583  -0.971  -0.966  0.00  0.00    +0.164 C 
BRANCH  24  25
ATOM     25  O   UNL     1       5.041  -1.806   0.094  0.00  0.00    -0.377 OA
ATOM     26  H   UNL     1       5.866  -2.242  -0.172  0.00  0.00    +0.211 HD
ENDBRANCH  24  25
ENDBRANCH  14  24
TORSDOF 6
