REMARK  Name = 10361934
REMARK  4 active torsions:
REMARK  status: ('A' for Active; 'I' for Inactive)
REMARK    1  A    between atoms: C_9  and  C_11
REMARK    2  A    between atoms: C_10  and  C_23
REMARK    3  A    between atoms: C_16  and  C_19
REMARK    4  A    between atoms: C_28  and  C_31
REMARK                            x       y       z     vdW  Elec       q    Type
REMARK                         _______ _______ _______ _____ _____    ______ ____
ROOT
ATOM      1  O   UNL     1       0.000   0.457  -0.001  0.00  0.00    -0.287 OA
ATOM      2  C   UNL     1      -0.495   4.952  -0.585  0.00  0.00    +0.005 C 
ATOM      3  C   UNL     1       0.486   4.953   0.587  0.00  0.00    +0.005 C 
ATOM      4  C   UNL     1      -0.349   3.754  -1.520  0.00  0.00    +0.030 C 
ATOM      5  C   UNL     1       0.342   3.753   1.521  0.00  0.00    +0.030 C 
ATOM      6  C   UNL     1      -0.859   2.469  -0.933  0.00  0.00    +0.016 C 
ATOM      7  C   UNL     1       0.855   2.470   0.932  0.00  0.00    +0.016 C 
ATOM      8  C   UNL     1      -0.001   1.684  -0.001  0.00  0.00    +0.188 C 
ATOM      9  C   UNL     1      -2.034   1.923  -1.280  0.00  0.00    -0.001 C 
ATOM     10  C   UNL     1       2.030   1.926   1.280  0.00  0.00    -0.001 C 
ENDROOT
BRANCH   9  11
ATOM     11  C   UNL     1      -2.544   0.622  -0.822  0.00  0.00    -0.000 C 
ATOM     12  C   UNL     1      -2.270  -0.517  -1.564  0.00  0.00    +0.000 C 
ATOM     13  C   UNL     1      -3.292   0.556   0.345  0.00  0.00    +0.000 C 
ATOM     14  C   UNL     1      -2.754  -1.751  -1.129  0.00  0.00    +0.003 C 
ATOM     15  C   UNL     1      -3.776  -0.678   0.779  0.00  0.00    +0.003 C 
ATOM     16  C   UNL     1      -3.507  -1.831   0.042  0.00  0.00    +0.031 C 
BRANCH  16  19
ATOM     17  N   UNL     1      -3.761  -4.287  -0.220  0.00  0.00    -0.343 N 
ATOM     18  N   UNL     1      -4.729  -3.190   1.602  0.00  0.00    -0.285 NA
ATOM     19  C   UNL     1      -4.013  -3.118   0.495  0.00  0.00    +0.117 C 
ATOM     20  H   UNL     1      -4.113  -5.148   0.105  0.00  0.00    +0.144 HD
ATOM     21  H   UNL     1      -3.232  -4.254  -1.049  0.00  0.00    +0.144 HD
ATOM     22  H   UNL     1      -5.072  -4.060   1.910  0.00  0.00    +0.188 HD
ENDBRANCH  16  19
ENDBRANCH   9  11
BRANCH  10  23
ATOM     23  C   UNL     1       2.543   0.626   0.822  0.00  0.00    -0.000 C 
ATOM     24  C   UNL     1       2.269  -0.514   1.563  0.00  0.00    +0.000 C 
ATOM     25  C   UNL     1       3.292   0.561  -0.344  0.00  0.00    +0.000 C 
ATOM     26  C   UNL     1       2.756  -1.747   1.129  0.00  0.00    +0.003 C 
ATOM     27  C   UNL     1       3.778  -0.672  -0.778  0.00  0.00    +0.003 C 
ATOM     28  C   UNL     1       3.511  -1.826  -0.042  0.00  0.00    +0.031 C 
BRANCH  28  31
ATOM     29  N   UNL     1       3.768  -4.282   0.219  0.00  0.00    -0.343 N 
ATOM     30  N   UNL     1       4.736  -3.183  -1.602  0.00  0.00    -0.285 NA
ATOM     31  C   UNL     1       4.018  -3.111  -0.495  0.00  0.00    +0.117 C 
ATOM     32  H   UNL     1       4.121  -5.142  -0.106  0.00  0.00    +0.144 HD
ATOM     33  H   UNL     1       3.238  -4.249   1.048  0.00  0.00    +0.144 HD
ATOM     34  H   UNL     1       5.080  -4.052  -1.910  0.00  0.00    +0.188 HD
ENDBRANCH  28  31
ENDBRANCH  10  23
TORSDOF 4
