REMARK  Name = 10364086
REMARK  8 active torsions:
REMARK  status: ('A' for Active; 'I' for Inactive)
REMARK    1  A    between atoms: C_4  and  C_22
REMARK    2  A    between atoms: C_7  and  C_19
REMARK    3  A    between atoms: C_8  and  S_9
REMARK    4  A    between atoms: S_9  and  C_11
REMARK    5  A    between atoms: C_12  and  N_14
REMARK    6  A    between atoms: C_19  and  O_20
REMARK    7  A    between atoms: C_22  and  O_24
REMARK    8  A    between atoms: O_24  and  S_25
REMARK                            x       y       z     vdW  Elec       q    Type
REMARK                         _______ _______ _______ _____ _____    ______ ____
ROOT
ATOM      1  O   UNL     1       2.889  -1.140  -1.570  0.00  0.00    -0.274 OA
ATOM      2  N   UNL     1       1.736  -2.183   0.205  0.00  0.00    -0.254 N 
ATOM      3  C   UNL     1       1.804  -1.555   1.544  0.00  0.00    +0.096 C 
ATOM      4  C   UNL     1       2.779  -0.527   0.909  0.00  0.00    +0.125 C 
ATOM      5  C   UNL     1       0.344  -1.249   1.893  0.00  0.00    +0.058 C 
ATOM      6  C   UNL     1       2.567  -1.296  -0.414  0.00  0.00    +0.233 C 
ATOM      7  C   UNL     1       0.434  -2.417  -0.135  0.00  0.00    +0.134 C 
ATOM      8  C   UNL     1      -0.410  -1.933   0.785  0.00  0.00    +0.060 C 
ENDROOT
BRANCH   8   9
ATOM      9  S   UNL     1      -2.168  -2.007   0.692  0.00  0.00    +0.087 S 
ATOM     10  O   UNL     1      -2.690  -1.824   2.091  0.00  0.00    -0.247 OA
BRANCH   9  11
ATOM     11  C   UNL     1      -2.500  -0.472  -0.157  0.00  0.00    +0.084 C 
ATOM     12  C   UNL     1      -3.657   0.151   0.092  0.00  0.00    +0.074 C 
BRANCH  12  14
ATOM     13  O   UNL     1      -6.082   1.631   0.497  0.00  0.00    -0.275 OA
ATOM     14  N   UNL     1      -3.995   1.328  -0.502  0.00  0.00    -0.282 N 
ATOM     15  C   UNL     1      -5.188   1.996  -0.263  0.00  0.00    +0.227 C 
ATOM     16  C   UNL     1      -5.316   3.255  -1.080  0.00  0.00    +0.095 C 
ATOM     17  H   UNL     1      -3.358   1.728  -1.137  0.00  0.00    +0.155 HD
ENDBRANCH  12  14
ENDBRANCH   9  11
ENDBRANCH   8   9
BRANCH   7  19
ATOM     18  O   UNL     1      -0.874  -2.839  -2.075  0.00  0.00    -0.244 OA
ATOM     19  C   UNL     1       0.119  -3.068  -1.403  0.00  0.00    +0.352 C 
BRANCH  19  20
ATOM     20  O   UNL     1       1.089  -3.955  -1.716  0.00  0.00    -0.476 OA
ATOM     21  H   UNL     1       1.822  -4.070  -1.143  0.00  0.00    +0.295 HD
ENDBRANCH  19  20
ENDBRANCH   7  19
BRANCH   4  22
ATOM     22  C   UNL     1       2.346   0.918   0.871  0.00  0.00    +0.158 C 
ATOM     23  C   UNL     1       2.624   1.614   2.199  0.00  0.00    +0.035 C 
BRANCH  22  24
ATOM     24  O   UNL     1       3.050   1.599  -0.167  0.00  0.00    -0.202 OA
BRANCH  24  25
ATOM     25  S   UNL     1       2.769   3.185  -0.427  0.00  0.00    +0.239 S 
ATOM     26  O   UNL     1       3.623   3.511  -1.778  0.00  0.00    -0.116 OA
ATOM     27  O   UNL     1       3.344   3.953   0.662  0.00  0.00    -0.022 OA
ATOM     28  O   UNL     1       1.362   3.326  -0.754  0.00  0.00    -0.116 OA
ENDBRANCH  24  25
ENDBRANCH  22  24
ENDBRANCH   4  22
TORSDOF 8
