10366595
  -OEChem-03292013303D

 57 60  0     1  0  0  0  0  0999 V2000
   -1.3477   -0.0954   -0.1157 O   0  0  0  0  0  0  0  0  0  0  0  0
   -1.3424   -2.9306    0.3801 O   0  0  0  0  0  0  0  0  0  0  0  0
   -3.7733   -3.5073   -0.7643 O   0  0  0  0  0  0  0  0  0  0  0  0
   -5.3050    1.9852    2.4943 O   0  0  0  0  0  0  0  0  0  0  0  0
   -6.5136    1.2828   -2.0865 O   0  0  0  0  0  0  0  0  0  0  0  0
   -7.0154    2.4626    0.3679 O   0  0  0  0  0  0  0  0  0  0  0  0
    9.3112    0.1528    1.4661 O   0  0  0  0  0  0  0  0  0  0  0  0
    7.3842    2.8070   -2.0019 O   0  0  0  0  0  0  0  0  0  0  0  0
   -2.5157   -0.9148   -0.3012 C   0  0  1  0  0  0  0  0  0  0  0  0
   -2.4817   -2.1032    0.6736 C   0  0  1  0  0  0  0  0  0  0  0  0
   -3.7171   -0.0124   -0.1222 C   0  0  0  0  0  0  0  0  0  0  0  0
   -3.7078   -3.0045    0.5575 C   0  0  0  0  0  0  0  0  0  0  0  0
   -0.1976   -0.8293   -0.0153 C   0  0  0  0  0  0  0  0  0  0  0  0
   -0.1950   -2.2045    0.2146 C   0  0  0  0  0  0  0  0  0  0  0  0
   -4.5749    0.2262   -1.1954 C   0  0  0  0  0  0  0  0  0  0  0  0
   -3.9658    0.5800    1.1156 C   0  0  0  0  0  0  0  0  0  0  0  0
    1.0086   -0.1401   -0.1448 C   0  0  0  0  0  0  0  0  0  0  0  0
    1.0124   -2.9014    0.2713 C   0  0  0  0  0  0  0  0  0  0  0  0
   -5.0734    1.4118    1.2803 C   0  0  0  0  0  0  0  0  0  0  0  0
   -5.6824    1.0581   -1.0308 C   0  0  0  0  0  0  0  0  0  0  0  0
    2.2163   -0.8345   -0.0739 C   0  0  0  0  0  0  0  0  0  0  0  0
    2.2181   -2.2147    0.1284 C   0  0  0  0  0  0  0  0  0  0  0  0
   -5.9318    1.6508    0.2070 C   0  0  0  0  0  0  0  0  0  0  0  0
    3.4751   -0.1198   -0.2164 C   0  0  0  0  0  0  0  0  0  0  0  0
    4.6819   -0.5741    0.1968 C   0  0  0  0  0  0  0  0  0  0  0  0
    5.9596    0.1417    0.0347 C   0  0  0  0  0  0  0  0  0  0  0  0
   -4.7120    3.2601    2.7325 C   0  0  0  0  0  0  0  0  0  0  0  0
   -6.1874    0.6389   -3.3167 C   0  0  0  0  0  0  0  0  0  0  0  0
    6.0602    1.1429   -0.9175 C   0  0  0  0  0  0  0  0  0  0  0  0
    7.0354   -0.2002    0.8379 C   0  0  0  0  0  0  0  0  0  0  0  0
    8.2451    0.4774    0.6846 C   0  0  0  0  0  0  0  0  0  0  0  0
    7.2697    1.8207   -1.0708 C   0  0  0  0  0  0  0  0  0  0  0  0
    8.3621    1.4880   -0.2698 C   0  0  0  0  0  0  0  0  0  0  0  0
   -2.4769   -1.2789   -1.3379 H   0  0  0  0  0  0  0  0  0  0  0  0
   -2.3844   -1.7679    1.7148 H   0  0  0  0  0  0  0  0  0  0  0  0
   -4.6389   -2.4790    0.7855 H   0  0  0  0  0  0  0  0  0  0  0  0
   -3.6236   -3.8617    1.2339 H   0  0  0  0  0  0  0  0  0  0  0  0
   -4.3333   -0.2611   -2.1337 H   0  0  0  0  0  0  0  0  0  0  0  0
   -3.2998    0.4071    1.9571 H   0  0  0  0  0  0  0  0  0  0  0  0
    0.9952    0.9352   -0.3097 H   0  0  0  0  0  0  0  0  0  0  0  0
    1.0216   -3.9761    0.4319 H   0  0  0  0  0  0  0  0  0  0  0  0
    3.1315   -2.8009    0.1635 H   0  0  0  0  0  0  0  0  0  0  0  0
   -2.9420   -3.9797   -0.9419 H   0  0  0  0  0  0  0  0  0  0  0  0
    3.3841    0.8585   -0.6802 H   0  0  0  0  0  0  0  0  0  0  0  0
    4.7699   -1.5288    0.7084 H   0  0  0  0  0  0  0  0  0  0  0  0
   -7.4913    2.5107   -0.4794 H   0  0  0  0  0  0  0  0  0  0  0  0
   -3.6208    3.1906    2.6817 H   0  0  0  0  0  0  0  0  0  0  0  0
   -4.9951    3.5875    3.7366 H   0  0  0  0  0  0  0  0  0  0  0  0
   -5.0758    3.9963    2.0088 H   0  0  0  0  0  0  0  0  0  0  0  0
   -6.2333   -0.4518   -3.2265 H   0  0  0  0  0  0  0  0  0  0  0  0
   -5.2266    0.9859   -3.7121 H   0  0  0  0  0  0  0  0  0  0  0  0
   -6.9526    0.9291   -4.0444 H   0  0  0  0  0  0  0  0  0  0  0  0
    5.2403    1.4155   -1.5750 H   0  0  0  0  0  0  0  0  0  0  0  0
    6.9467   -0.9863    1.5840 H   0  0  0  0  0  0  0  0  0  0  0  0
    9.3077    2.0122   -0.3840 H   0  0  0  0  0  0  0  0  0  0  0  0
    9.0534   -0.5654    2.0691 H   0  0  0  0  0  0  0  0  0  0  0  0
    8.2873    3.1667   -1.9708 H   0  0  0  0  0  0  0  0  0  0  0  0
  1  9  1  0  0  0  0
  1 13  1  0  0  0  0
  2 10  1  0  0  0  0
  2 14  1  0  0  0  0
  3 12  1  0  0  0  0
  3 43  1  0  0  0  0
  4 19  1  0  0  0  0
  4 27  1  0  0  0  0
  5 20  1  0  0  0  0
  5 28  1  0  0  0  0
  6 23  1  0  0  0  0
  6 46  1  0  0  0  0
  7 31  1  0  0  0  0
  7 56  1  0  0  0  0
  8 32  1  0  0  0  0
  8 57  1  0  0  0  0
  9 10  1  0  0  0  0
  9 11  1  0  0  0  0
  9 34  1  0  0  0  0
 10 12  1  0  0  0  0
 10 35  1  0  0  0  0
 11 15  2  0  0  0  0
 11 16  1  0  0  0  0
 12 36  1  0  0  0  0
 12 37  1  0  0  0  0
 13 14  2  0  0  0  0
 13 17  1  0  0  0  0
 14 18  1  0  0  0  0
 15 20  1  0  0  0  0
 15 38  1  0  0  0  0
 16 19  2  0  0  0  0
 16 39  1  0  0  0  0
 17 21  2  0  0  0  0
 17 40  1  0  0  0  0
 18 22  2  0  0  0  0
 18 41  1  0  0  0  0
 19 23  1  0  0  0  0
 20 23  2  0  0  0  0
 21 22  1  0  0  0  0
 21 24  1  0  0  0  0
 22 42  1  0  0  0  0
 24 25  2  0  0  0  0
 24 44  1  0  0  0  0
 25 26  1  0  0  0  0
 25 45  1  0  0  0  0
 26 29  2  0  0  0  0
 26 30  1  0  0  0  0
 27 47  1  0  0  0  0
 27 48  1  0  0  0  0
 27 49  1  0  0  0  0
 28 50  1  0  0  0  0
 28 51  1  0  0  0  0
 28 52  1  0  0  0  0
 29 32  1  0  0  0  0
 29 53  1  0  0  0  0
 30 31  2  0  0  0  0
 30 54  1  0  0  0  0
 31 33  1  0  0  0  0
 32 33  2  0  0  0  0
 33 55  1  0  0  0  0
M  END
> <PUBCHEM_COMPOUND_CID>
10366595

> <PUBCHEM_CONFORMER_RMSD>
1

> <PUBCHEM_CONFORMER_DIVERSEORDER>
2
13
11
10
8
3
7
5
1
12
9
6
4

> <PUBCHEM_MMFF94_PARTIAL_CHARGES>
47
1 -0.36
10 0.28
11 -0.14
12 0.28
13 0.08
14 0.08
15 -0.15
16 -0.15
17 -0.15
18 -0.15
19 0.08
2 -0.36
20 0.08
21 0.03
22 -0.15
23 0.08
24 -0.18
25 -0.18
26 0.03
27 0.28
28 0.28
29 -0.15
3 -0.68
30 -0.15
31 0.08
32 0.08
33 -0.15
38 0.15
39 0.15
4 -0.36
40 0.15
41 0.15
42 0.15
43 0.4
44 0.15
45 0.15
46 0.45
5 -0.36
53 0.15
54 0.15
55 0.15
56 0.45
57 0.45
6 -0.53
7 -0.53
8 -0.53
9 0.42

> <PUBCHEM_EFFECTIVE_ROTOR_COUNT>
6.8

> <PUBCHEM_PHARMACOPHORE_FEATURES>
13
1 1 acceptor
1 2 acceptor
1 3 acceptor
1 3 donor
1 4 acceptor
1 5 acceptor
1 6 donor
1 7 donor
1 8 donor
6 1 2 9 10 13 14 rings
6 11 15 16 19 20 23 rings
6 13 14 17 18 21 22 rings
6 26 29 30 31 32 33 rings

> <PUBCHEM_HEAVY_ATOM_COUNT>
33

> <PUBCHEM_ATOM_DEF_STEREO_COUNT>
2

> <PUBCHEM_ATOM_UDEF_STEREO_COUNT>
0

> <PUBCHEM_BOND_DEF_STEREO_COUNT>
1

> <PUBCHEM_BOND_UDEF_STEREO_COUNT>
0

> <PUBCHEM_ISOTOPIC_ATOM_COUNT>
0

> <PUBCHEM_COMPONENT_COUNT>
1

> <PUBCHEM_CACTVS_TAUTO_COUNT>
10

> <PUBCHEM_CONFORMER_ID>
009E2E8300000002

> <PUBCHEM_MMFF94_ENERGY>
124.8461

> <PUBCHEM_FEATURE_SELFOVERLAP>
66.021

> <PUBCHEM_SHAPE_FINGERPRINT>
10 15 17530969081235703124
10076449 9 18059855134475848431
10554248 39 18340199701183985438
10835480 77 18413670214971327822
10906281 52 18271536307534544658
10930396 42 16732991916999513697
11135926 11 18410293584244040854
11273773 42 18130788919981187009
11475781 23 18272098197485476270
11621639 307 17984980402294880033
13627175 4 8935011373925999928
13782708 43 11242254095384086750
14150022 121 18338251465622368275
15021287 119 16950566618348609484
15183329 4 18411982473091482256
15400415 2 18262237828795239114
1577012 14 17917710158480438874
16067689 68 12973605508658166777
16126227 98 18343030964978460571
16989713 51 17701254973762470830
17980427 23 17895480327206970678
21033648 144 18336823101001257519
21033650 10 16773800256245531515
21133410 221 16443334412929666469
21756936 100 18131638864054934467
21774942 28 17774728563452674688
21814621 53 16009305379855242912
22288116 15 17560791169776414551
23576562 1 17488167391770058572
249057 25 17386858390181199510
2748736 6 18411419492840850128
2838139 119 17917991680944513120
312425 54 14129055885339190081
393628 194 18410580569722392885
397830 11 13046233844131193334
4169191 19 18335702728163196188
44555599 121 18261678155727648508
445580 204 18060140907759559792
44880568 143 16200435762850608848
4516262 110 18056763127452992033
45377200 153 11819276634238318008
504843 32 18336826484729449335
5470011 282 13470683763677617056
57527295 17 17274534339777306827
5937810 71 18265910210369259116
6328613 192 18409452518315899080
636775 72 18131631188701022392
636775 8 11959726127281163772
6608658 132 17917423182310466249
6698420 124 18268445537937478563
9953998 17 14129059201502166501

> <PUBCHEM_SHAPE_MULTIPOLES>
632.17
26.25
3.44
1.92
45.81
1.33
0.52
-22.1
2.47
-3.81
-0.89
-3.94
-1.84
-3.11

> <PUBCHEM_SHAPE_SELFOVERLAP>
1383.855

> <PUBCHEM_SHAPE_VOLUME>
342.3

> <PUBCHEM_COORDINATE_TYPE>
2
5
10

$$$$
