REMARK  Name = 10360755
REMARK  6 active torsions:
REMARK  status: ('A' for Active; 'I' for Inactive)
REMARK    1  A    between atoms: C_3  and  C_13
REMARK    2  A    between atoms: C_5  and  O_26
REMARK    3  A    between atoms: C_10  and  O_28
REMARK    4  A    between atoms: C_14  and  C_23
REMARK    5  A    between atoms: C_15  and  O_20
REMARK    6  A    between atoms: C_23  and  O_24
REMARK                            x       y       z     vdW  Elec       q    Type
REMARK                         _______ _______ _______ _____ _____    ______ ____
ROOT
ATOM      1  O   UNL     1       0.076   0.229  -2.454  0.00  0.00    -0.283 OA
ATOM      2  O   UNL     1      -2.564   0.236  -2.584  0.00  0.00    -0.283 OA
ATOM      3  C   UNL     1       0.100   0.103  -0.068  0.00  0.00    +0.079 C 
ATOM      4  C   UNL     1      -2.143   0.038   0.991  0.00  0.00    +0.040 C 
ATOM      5  C   UNL     1      -0.665   0.041   1.042  0.00  0.00    +0.137 C 
ATOM      6  C   UNL     1      -2.821   0.104  -0.234  0.00  0.00    +0.079 C 
ATOM      7  C   UNL     1      -0.549   0.173  -1.404  0.00  0.00    +0.237 C 
ATOM      8  C   UNL     1      -2.046   0.175  -1.480  0.00  0.00    +0.237 C 
ATOM      9  C   UNL     1      -2.918  -0.029   2.162  0.00  0.00    +0.003 C 
ATOM     10  C   UNL     1      -4.220   0.102  -0.297  0.00  0.00    +0.137 C 
ATOM     11  C   UNL     1      -4.315  -0.031   2.105  0.00  0.00    +0.003 C 
ATOM     12  C   UNL     1      -4.965   0.035   0.877  0.00  0.00    +0.037 C 
ENDROOT
BRANCH   3  13
ATOM     13  C   UNL     1       1.572   0.104  -0.005  0.00  0.00    +0.046 C 
ATOM     14  C   UNL     1       2.283  -1.096  -0.039  0.00  0.00    +0.078 C 
ATOM     15  C   UNL     1       2.257   1.317   0.089  0.00  0.00    +0.139 C 
ATOM     16  C   UNL     1       4.360   0.128   0.116  0.00  0.00    -0.019 C 
ATOM     17  C   UNL     1       3.677  -1.084   0.021  0.00  0.00    +0.002 C 
ATOM     18  C   UNL     1       3.651   1.328   0.150  0.00  0.00    +0.033 C 
ATOM     19  C   UNL     1       5.850   0.141   0.181  0.00  0.00    +0.031 C 
BRANCH  15  20
ATOM     20  O   UNL     1       1.591   2.507   0.125  0.00  0.00    -0.471 OA
ATOM     21  C   UNL     1       2.383   3.688   0.222  0.00  0.00    +0.252 C 
ENDBRANCH  15  20
BRANCH  14  23
ATOM     22  O   UNL     1       0.531  -2.585  -0.698  0.00  0.00    -0.245 OA
ATOM     23  C   UNL     1       1.610  -2.386  -0.137  0.00  0.00    +0.338 C 
BRANCH  23  24
ATOM     24  O   UNL     1       2.311  -3.381   0.470  0.00  0.00    -0.477 OA
ATOM     25  H   UNL     1       3.129  -3.191   0.886  0.00  0.00    +0.295 HD
ENDBRANCH  23  24
ENDBRANCH  14  23
ENDBRANCH   3  13
BRANCH   5  26
ATOM     26  O   UNL     1      -0.142  -0.024   2.322  0.00  0.00    -0.505 OA
ATOM     27  H   UNL     1       0.787  -0.028   2.449  0.00  0.00    +0.292 HD
ENDBRANCH   5  26
BRANCH  10  28
ATOM     28  O   UNL     1      -4.904   0.166  -1.474  0.00  0.00    -0.505 OA
ATOM     29  H   UNL     1      -4.438   0.212  -2.285  0.00  0.00    +0.292 HD
ENDBRANCH  10  28
TORSDOF 6
