REMARK  Name = 10360321
REMARK  8 active torsions:
REMARK  status: ('A' for Active; 'I' for Inactive)
REMARK    1  A    between atoms: C_3  and  N_12
REMARK    2  A    between atoms: C_8  and  C_19
REMARK    3  A    between atoms: C_13  and  C_16
REMARK    4  A    between atoms: C_16  and  O_17
REMARK    5  A    between atoms: C_19  and  O_20
REMARK    6  A    between atoms: C_19  and  C_22
REMARK    7  A    between atoms: C_22  and  C_23
REMARK    8  A    between atoms: C_23  and  C_25
REMARK                            x       y       z     vdW  Elec       q    Type
REMARK                         _______ _______ _______ _____ _____    ______ ____
ROOT
ATOM      1  S   UNL     1      -2.135   0.362  -1.881  0.00  0.00    -0.055 S 
ATOM      2  N   UNL     1      -2.817   1.033   0.514  0.00  0.00    -0.401 NA
ATOM      3  C   UNL     1       1.347   0.735   0.188  0.00  0.00    +0.054 C 
ATOM      4  C   UNL     1       0.518   0.485  -0.909  0.00  0.00    +0.023 C 
ATOM      5  C   UNL     1      -0.871   0.602  -0.733  0.00  0.00    +0.059 C 
ATOM      6  C   UNL     1      -1.432   0.958   0.497  0.00  0.00    +0.120 C 
ATOM      7  C   UNL     1       0.812   1.091   1.421  0.00  0.00    -0.004 C 
ATOM      8  C   UNL     1      -3.288   0.741  -0.676  0.00  0.00    +0.165 C 
ATOM      9  C   UNL     1      -0.571   1.206   1.588  0.00  0.00    +0.087 C 
ENDROOT
BRANCH   3  12
ATOM     10  O   UNL     1       4.977   0.628   0.456  0.00  0.00    -0.434 OA
ATOM     11  O   UNL     1       3.605   1.172   2.178  0.00  0.00    -0.226 OA
ATOM     12  N   UNL     1       2.759   0.624   0.038  0.00  0.00    -0.222 N 
ATOM     13  C   UNL     1       4.819   0.048  -0.846  0.00  0.00    +0.220 C 
ATOM     14  C   UNL     1       3.391   0.370  -1.230  0.00  0.00    +0.148 C 
ATOM     15  C   UNL     1       3.733   0.833   1.010  0.00  0.00    +0.409 C 
BRANCH  13  16
ATOM     16  C   UNL     1       5.093  -1.447  -0.755  0.00  0.00    +0.187 C 
BRANCH  16  17
ATOM     17  O   UNL     1       6.452  -1.638  -0.403  0.00  0.00    -0.347 OA
ATOM     18  C   UNL     1       6.779  -3.019  -0.300  0.00  0.00    +0.174 C 
ENDBRANCH  16  17
ENDBRANCH  13  16
ENDBRANCH   3  12
BRANCH   8  19
ATOM     19  C   UNL     1      -4.725   0.723  -1.024  0.00  0.00    +0.170 C 
BRANCH  19  20
ATOM     20  O   UNL     1      -5.231   2.062  -0.889  0.00  0.00    -0.377 OA
ATOM     21  H   UNL     1      -4.700   2.665  -1.431  0.00  0.00    +0.211 HD
ENDBRANCH  19  20
BRANCH  19  22
ATOM     22  C   UNL     1      -5.592  -0.213  -0.148  0.00  0.00    +0.053 C 
BRANCH  22  23
ATOM     23  C   UNL     1      -5.117  -1.667  -0.188  0.00  0.00    +0.108 C 
BRANCH  23  25
ATOM     24  N   UNL     1      -6.575  -3.179   1.395  0.00  0.00    -0.196 NA
ATOM     25  C   UNL     1      -5.932  -2.511   0.697  0.00  0.00    +0.073 C 
ENDBRANCH  23  25
ENDBRANCH  22  23
ENDBRANCH  19  22
ENDBRANCH   8  19
TORSDOF 8
