REMARK  Name = 10364459
REMARK  18 active torsions:
REMARK  status: ('A' for Active; 'I' for Inactive)
REMARK    1  A    between atoms: P_1  and  O_3
REMARK    2  A    between atoms: P_1  and  O_5
REMARK    3  A    between atoms: P_1  and  C_21
REMARK    4  A    between atoms: O_5  and  C_7
REMARK    5  A    between atoms: C_8  and  O_13
REMARK    6  A    between atoms: C_9  and  O_15
REMARK    7  A    between atoms: C_11  and  O_17
REMARK    8  A    between atoms: C_12  and  O_19
REMARK    9  A    between atoms: C_21  and  C_22
REMARK   10  A    between atoms: C_22  and  C_23
REMARK   11  A    between atoms: C_23  and  C_24
REMARK   12  A    between atoms: C_24  and  C_25
REMARK   13  A    between atoms: C_25  and  C_26
REMARK   14  A    between atoms: C_26  and  C_27
REMARK   15  A    between atoms: C_27  and  C_28
REMARK   16  A    between atoms: C_28  and  C_29
REMARK   17  A    between atoms: C_29  and  C_30
REMARK   18  A    between atoms: C_30  and  C_31
REMARK                            x       y       z     vdW  Elec       q    Type
REMARK                         _______ _______ _______ _____ _____    ______ ____
ROOT
ATOM      1  P   UNL     1       3.068   2.453  -0.213  0.00  0.00    +0.340 P 
ATOM      2  O   UNL     1       2.708   2.452  -1.660  0.00  0.00    -0.258 OA
ENDROOT
BRANCH   1   3
ATOM      3  O   UNL     1       4.610   2.800   0.103  0.00  0.00    -0.323 OA
ATOM      4  H   UNL     1       5.184   2.174  -0.366  0.00  0.00    +0.220 HD
ENDBRANCH   1   3
BRANCH   1   5
ATOM      5  O   UNL     1       2.787   1.070   0.565  0.00  0.00    -0.291 OA
BRANCH   5   7
ATOM      6  F   UNL     1       0.811  -0.919   0.482  0.00  0.00    -0.232 F 
ATOM      7  C   UNL     1       2.960  -0.195  -0.077  0.00  0.00    +0.188 C 
ATOM      8  C   UNL     1       4.446  -0.555  -0.083  0.00  0.00    +0.170 C 
ATOM      9  C   UNL     1       4.687  -1.989  -0.555  0.00  0.00    +0.169 C 
ATOM     10  C   UNL     1       2.130  -1.212   0.694  0.00  0.00    +0.220 C 
ATOM     11  C   UNL     1       3.849  -3.004   0.221  0.00  0.00    +0.169 C 
ATOM     12  C   UNL     1       2.366  -2.641   0.223  0.00  0.00    +0.175 C 
BRANCH   8  13
ATOM     13  O   UNL     1       5.133   0.317  -0.983  0.00  0.00    -0.379 OA
ATOM     14  H   UNL     1       4.998   1.238  -0.709  0.00  0.00    +0.211 HD
ENDBRANCH   8  13
BRANCH   9  15
ATOM     15  O   UNL     1       6.066  -2.314  -0.353  0.00  0.00    -0.379 OA
ATOM     16  H   UNL     1       6.621  -1.682  -0.837  0.00  0.00    +0.211 HD
ENDBRANCH   9  15
BRANCH  11  17
ATOM     17  O   UNL     1       3.988  -4.285  -0.399  0.00  0.00    -0.379 OA
ATOM     18  H   UNL     1       4.924  -4.539  -0.413  0.00  0.00    +0.211 HD
ENDBRANCH  11  17
BRANCH  12  19
ATOM     19  O   UNL     1       1.694  -3.530   1.117  0.00  0.00    -0.379 OA
ATOM     20  H   UNL     1       0.747  -3.317   1.133  0.00  0.00    +0.211 HD
ENDBRANCH  12  19
ENDBRANCH   5   7
ENDBRANCH   1   5
BRANCH   1  21
ATOM     21  C   UNL     1       2.172   3.704   0.732  0.00  0.00    +0.116 C 
BRANCH  21  22
ATOM     22  C   UNL     1       0.711   3.849   0.327  0.00  0.00    +0.013 C 
BRANCH  22  23
ATOM     23  C   UNL     1      -0.128   2.579   0.500  0.00  0.00    +0.001 C 
BRANCH  23  24
ATOM     24  C   UNL     1      -1.607   2.699   0.123  0.00  0.00    +0.000 C 
BRANCH  24  25
ATOM     25  C   UNL     1      -2.375   1.381   0.248  0.00  0.00    +0.000 C 
BRANCH  25  26
ATOM     26  C   UNL     1      -3.863   1.579  -0.052  0.00  0.00    +0.000 C 
BRANCH  26  27
ATOM     27  C   UNL     1      -4.688   0.296   0.084  0.00  0.00    +0.000 C 
BRANCH  27  28
ATOM     28  C   UNL     1      -6.172   0.488  -0.240  0.00  0.00    +0.000 C 
BRANCH  28  29
ATOM     29  C   UNL     1      -6.959  -0.805  -0.018  0.00  0.00    +0.000 C 
BRANCH  29  30
ATOM     30  C   UNL     1      -8.448  -0.606  -0.305  0.00  0.00    +0.000 C 
BRANCH  30  31
ATOM     31  C   UNL     1      -9.229  -1.906  -0.115  0.00  0.00    +0.000 C 
ATOM     32  C   UNL     1     -10.715  -1.706  -0.366  0.00  0.00    +0.000 C 
ENDBRANCH  30  31
ENDBRANCH  29  30
ENDBRANCH  28  29
ENDBRANCH  27  28
ENDBRANCH  26  27
ENDBRANCH  25  26
ENDBRANCH  24  25
ENDBRANCH  23  24
ENDBRANCH  22  23
ENDBRANCH  21  22
ENDBRANCH   1  21
TORSDOF 18
