10368235
  -OEChem-03292013303D

 75 78  0     1  0  0  0  0  0999 V2000
   -4.3356    0.6289    1.3010 O   0  0  0  0  0  0  0  0  0  0  0  0
   -1.1852   -0.0822   -3.3551 O   0  0  0  0  0  0  0  0  0  0  0  0
    3.6424   -1.2828    1.9576 O   0  0  0  0  0  0  0  0  0  0  0  0
    1.4131    0.3984    2.3692 O   0  0  0  0  0  0  0  0  0  0  0  0
    4.4732    2.5624   -0.4370 O   0  0  0  0  0  0  0  0  0  0  0  0
    3.6179   -2.4216   -0.0377 O   0  0  0  0  0  0  0  0  0  0  0  0
   -6.0776    1.9702    0.6336 O   0  0  0  0  0  0  0  0  0  0  0  0
   -1.5406   -0.2870   -1.0016 C   0  0  1  0  0  0  0  0  0  0  0  0
    0.9496   -1.0343   -0.3299 C   0  0  1  0  0  0  0  0  0  0  0  0
   -0.0385    0.1353   -0.6821 C   0  0  1  0  0  0  0  0  0  0  0  0
   -2.0411   -1.1645    0.2087 C   0  0  1  0  0  0  0  0  0  0  0  0
    2.3023   -0.3770    0.1942 C   0  0  1  0  0  0  0  0  0  0  0  0
    0.3078   -1.9720    0.7312 C   0  0  0  0  0  0  0  0  0  0  0  0
   -3.5844   -1.4755    0.2470 C   0  0  0  0  0  0  0  0  0  0  0  0
   -1.1343   -2.3916    0.4257 C   0  0  0  0  0  0  0  0  0  0  0  0
    2.9683    0.6239   -0.8543 C   0  0  1  0  0  0  0  0  0  0  0  0
   -2.4300    0.9970   -1.0562 C   0  0  0  0  0  0  0  0  0  0  0  0
   -4.3927   -0.1514    0.1025 C   0  0  2  0  0  0  0  0  0  0  0  0
    0.6036    1.0656   -1.6879 C   0  0  0  0  0  0  0  0  0  0  0  0
   -1.6425   -0.9887   -2.3787 C   0  0  0  0  0  0  0  0  0  0  0  0
   -3.9377    0.7248   -1.0619 C   0  0  0  0  0  0  0  0  0  0  0  0
    1.2648   -1.9297   -1.5699 C   0  0  0  0  0  0  0  0  0  0  0  0
    1.9302    1.2780   -1.7984 C   0  0  0  0  0  0  0  0  0  0  0  0
    2.1298    0.5786    1.3952 C   0  0  0  0  0  0  0  0  0  0  0  0
    3.5335    1.6982    0.0690 C   0  0  0  0  0  0  0  0  0  0  0  0
   -3.9584   -2.1202    1.6099 C   0  0  0  0  0  0  0  0  0  0  0  0
   -4.0363   -2.4746   -0.8379 C   0  0  0  0  0  0  0  0  0  0  0  0
    3.2497   -1.4774    0.6607 C   0  0  0  0  0  0  0  0  0  0  0  0
    4.1181   -0.0194   -1.6615 C   0  0  0  0  0  0  0  0  0  0  0  0
    3.0409    1.7347    1.3105 C   0  0  0  0  0  0  0  0  0  0  0  0
    2.4173    2.2132   -2.8812 C   0  0  0  0  0  0  0  0  0  0  0  0
    3.2833    2.6471    2.4510 C   0  0  0  0  0  0  0  0  0  0  0  0
   -5.0485    1.7968    1.2863 C   0  0  0  0  0  0  0  0  0  0  0  0
    4.5375   -2.2637    2.4930 C   0  0  0  0  0  0  0  0  0  0  0  0
   -4.3997    2.8605    2.1853 C   0  0  0  0  0  0  0  0  0  0  0  0
   -0.1375    0.7502    0.2249 H   0  0  0  0  0  0  0  0  0  0  0  0
   -1.8775   -0.5362    1.1006 H   0  0  0  0  0  0  0  0  0  0  0  0
    0.2939   -1.4965    1.7147 H   0  0  0  0  0  0  0  0  0  0  0  0
    0.9123   -2.8801    0.8516 H   0  0  0  0  0  0  0  0  0  0  0  0
   -1.1677   -3.0642   -0.4351 H   0  0  0  0  0  0  0  0  0  0  0  0
   -1.4794   -2.9818    1.2805 H   0  0  0  0  0  0  0  0  0  0  0  0
   -2.1967    1.6329   -1.9159 H   0  0  0  0  0  0  0  0  0  0  0  0
   -2.2096    1.6163   -0.1758 H   0  0  0  0  0  0  0  0  0  0  0  0
   -5.4480   -0.4176   -0.0522 H   0  0  0  0  0  0  0  0  0  0  0  0
   -0.0461    1.6654   -2.3167 H   0  0  0  0  0  0  0  0  0  0  0  0
   -2.6622   -1.2351   -2.6586 H   0  0  0  0  0  0  0  0  0  0  0  0
   -1.0915   -1.9172   -2.4645 H   0  0  0  0  0  0  0  0  0  0  0  0
   -4.4453    1.6929   -1.0986 H   0  0  0  0  0  0  0  0  0  0  0  0
   -4.2063    0.2381   -2.0059 H   0  0  0  0  0  0  0  0  0  0  0  0
    1.3168   -1.3549   -2.4991 H   0  0  0  0  0  0  0  0  0  0  0  0
    2.1840   -2.5020   -1.5301 H   0  0  0  0  0  0  0  0  0  0  0  0
    0.5152   -2.7088   -1.7168 H   0  0  0  0  0  0  0  0  0  0  0  0
   -3.5331   -1.5631    2.4519 H   0  0  0  0  0  0  0  0  0  0  0  0
   -3.6060   -3.1546    1.6813 H   0  0  0  0  0  0  0  0  0  0  0  0
   -5.0461   -2.1463    1.7466 H   0  0  0  0  0  0  0  0  0  0  0  0
   -4.9907   -2.9380   -0.5550 H   0  0  0  0  0  0  0  0  0  0  0  0
   -3.3238   -3.2920   -0.9766 H   0  0  0  0  0  0  0  0  0  0  0  0
   -4.2334   -2.0123   -1.8046 H   0  0  0  0  0  0  0  0  0  0  0  0
    4.5808    0.6579   -2.3858 H   0  0  0  0  0  0  0  0  0  0  0  0
    4.9343   -0.3562   -1.0115 H   0  0  0  0  0  0  0  0  0  0  0  0
    3.7666   -0.8797   -2.2391 H   0  0  0  0  0  0  0  0  0  0  0  0
    3.0983    1.7056   -3.5693 H   0  0  0  0  0  0  0  0  0  0  0  0
    2.9156    3.0886   -2.4578 H   0  0  0  0  0  0  0  0  0  0  0  0
    1.5921    2.5943   -3.4944 H   0  0  0  0  0  0  0  0  0  0  0  0
   -1.9464    0.4312   -3.6747 H   0  0  0  0  0  0  0  0  0  0  0  0
    4.0139    3.4209    2.1952 H   0  0  0  0  0  0  0  0  0  0  0  0
    3.6692    2.0915    3.3114 H   0  0  0  0  0  0  0  0  0  0  0  0
    2.3551    3.1455    2.7474 H   0  0  0  0  0  0  0  0  0  0  0  0
    4.6313    2.3675   -1.3724 H   0  0  0  0  0  0  0  0  0  0  0  0
    4.7668   -1.9861    3.5252 H   0  0  0  0  0  0  0  0  0  0  0  0
    5.4682   -2.2798    1.9181 H   0  0  0  0  0  0  0  0  0  0  0  0
    4.0627   -3.2494    2.4911 H   0  0  0  0  0  0  0  0  0  0  0  0
   -3.3946    3.0808    1.8182 H   0  0  0  0  0  0  0  0  0  0  0  0
   -4.3684    2.4951    3.2143 H   0  0  0  0  0  0  0  0  0  0  0  0
   -5.0013    3.7726    2.1482 H   0  0  0  0  0  0  0  0  0  0  0  0
  1 18  1  0  0  0  0
  1 33  1  0  0  0  0
  2 20  1  0  0  0  0
  2 65  1  0  0  0  0
  3 28  1  0  0  0  0
  3 34  1  0  0  0  0
  4 24  2  0  0  0  0
  5 25  1  0  0  0  0
  5 69  1  0  0  0  0
  6 28  2  0  0  0  0
  7 33  2  0  0  0  0
  8 10  1  0  0  0  0
  8 11  1  0  0  0  0
  8 17  1  0  0  0  0
  8 20  1  0  0  0  0
  9 10  1  0  0  0  0
  9 12  1  0  0  0  0
  9 13  1  0  0  0  0
  9 22  1  0  0  0  0
 10 19  1  0  0  0  0
 10 36  1  0  0  0  0
 11 14  1  0  0  0  0
 11 15  1  0  0  0  0
 11 37  1  0  0  0  0
 12 16  1  0  0  0  0
 12 24  1  0  0  0  0
 12 28  1  0  0  0  0
 13 15  1  0  0  0  0
 13 38  1  0  0  0  0
 13 39  1  0  0  0  0
 14 18  1  0  0  0  0
 14 26  1  0  0  0  0
 14 27  1  0  0  0  0
 15 40  1  0  0  0  0
 15 41  1  0  0  0  0
 16 23  1  0  0  0  0
 16 25  1  0  0  0  0
 16 29  1  0  0  0  0
 17 21  1  0  0  0  0
 17 42  1  0  0  0  0
 17 43  1  0  0  0  0
 18 21  1  0  0  0  0
 18 44  1  0  0  0  0
 19 23  2  0  0  0  0
 19 45  1  0  0  0  0
 20 46  1  0  0  0  0
 20 47  1  0  0  0  0
 21 48  1  0  0  0  0
 21 49  1  0  0  0  0
 22 50  1  0  0  0  0
 22 51  1  0  0  0  0
 22 52  1  0  0  0  0
 23 31  1  0  0  0  0
 24 30  1  0  0  0  0
 25 30  2  0  0  0  0
 26 53  1  0  0  0  0
 26 54  1  0  0  0  0
 26 55  1  0  0  0  0
 27 56  1  0  0  0  0
 27 57  1  0  0  0  0
 27 58  1  0  0  0  0
 29 59  1  0  0  0  0
 29 60  1  0  0  0  0
 29 61  1  0  0  0  0
 30 32  1  0  0  0  0
 31 62  1  0  0  0  0
 31 63  1  0  0  0  0
 31 64  1  0  0  0  0
 32 66  1  0  0  0  0
 32 67  1  0  0  0  0
 32 68  1  0  0  0  0
 33 35  1  0  0  0  0
 34 70  1  0  0  0  0
 34 71  1  0  0  0  0
 34 72  1  0  0  0  0
 35 73  1  0  0  0  0
 35 74  1  0  0  0  0
 35 75  1  0  0  0  0
M  END
> <PUBCHEM_COMPOUND_CID>
10368235

> <PUBCHEM_CONFORMER_RMSD>
1

> <PUBCHEM_CONFORMER_DIVERSEORDER>
1
2

> <PUBCHEM_MMFF94_PARTIAL_CHARGES>
26
1 -0.43
10 0.14
12 0.12
16 0.28
18 0.28
19 -0.29
2 -0.68
20 0.28
23 -0.28
24 0.49
25 -0.06
28 0.66
3 -0.43
30 -0.12
31 0.14
32 0.14
33 0.66
34 0.28
35 0.06
4 -0.57
45 0.15
5 -0.53
6 -0.57
65 0.4
69 0.45
7 -0.57

> <PUBCHEM_EFFECTIVE_ROTOR_COUNT>
6.2

> <PUBCHEM_PHARMACOPHORE_FEATURES>
11
1 2 acceptor
1 2 donor
1 4 acceptor
1 5 donor
1 6 acceptor
1 7 acceptor
3 14 26 27 hydrophobe
5 12 16 24 25 30 rings
6 8 11 14 17 18 21 rings
6 8 9 10 11 13 15 rings
6 9 10 12 16 19 23 rings

> <PUBCHEM_HEAVY_ATOM_COUNT>
35

> <PUBCHEM_ATOM_DEF_STEREO_COUNT>
7

> <PUBCHEM_ATOM_UDEF_STEREO_COUNT>
0

> <PUBCHEM_BOND_DEF_STEREO_COUNT>
0

> <PUBCHEM_BOND_UDEF_STEREO_COUNT>
0

> <PUBCHEM_ISOTOPIC_ATOM_COUNT>
0

> <PUBCHEM_COMPONENT_COUNT>
1

> <PUBCHEM_CACTVS_TAUTO_COUNT>
3

> <PUBCHEM_CONFORMER_ID>
009E34EB00000001

> <PUBCHEM_MMFF94_ENERGY>
153.9722

> <PUBCHEM_FEATURE_SELFOVERLAP>
56.08

> <PUBCHEM_SHAPE_FINGERPRINT>
10928967 22 14923944557207831505
11387372 6 14715021800165072312
11552529 35 18044386147780414179
11578080 2 18268158732969461648
12156800 1 15975009237278946310
12160290 23 15122362519966350271
12422481 6 17898536944400356264
12553582 1 15791448223458604891
12633257 1 18336823087620288395
13140716 1 17896021196722615742
13224815 77 18337382850660516407
13583140 156 18201147854015476183
14223421 5 17096076017223005446
14739800 52 18200588219624353264
14790565 3 17243595366666484300
14950920 106 17895770504108773841
15219462 58 17626923607147749202
15238133 3 18059013865301544208
15484559 13 13385491201643961443
17921350 177 17274826847912928016
1813 80 15719398356256792583
20691752 17 17167864183477778503
20739085 24 18041007197791106670
21033648 29 16917350337982874081
21756936 100 18129096900044856780
21864079 5 17917704755585822841
23559900 14 18335428940988392559
460360 51 16988837289585995663
463206 1 9005687989100173049
5104073 3 18260269650861164187
6086070 43 17917708002691907133

> <PUBCHEM_SHAPE_MULTIPOLES>
679.2
10.54
3.16
2.81
7.78
0.28
0.47
3.3
-4.63
0.06
-1.32
-1.39
0.86
-1.99

> <PUBCHEM_SHAPE_SELFOVERLAP>
1454.268

> <PUBCHEM_SHAPE_VOLUME>
368.9

> <PUBCHEM_COORDINATE_TYPE>
2
5
10

$$$$
