10360321
  -OEChem-03292013303D

 41 43  0     1  0  0  0  0  0999 V2000
   -2.1345    0.3618   -1.8812 S   0  0  0  0  0  0  0  0  0  0  0  0
    4.9768    0.6283    0.4564 O   0  0  0  0  0  0  0  0  0  0  0  0
    6.4522   -1.6383   -0.4028 O   0  0  0  0  0  0  0  0  0  0  0  0
    3.6047    1.1722    2.1783 O   0  0  0  0  0  0  0  0  0  0  0  0
   -5.2312    2.0617   -0.8886 O   0  0  0  0  0  0  0  0  0  0  0  0
    2.7590    0.6235    0.0377 N   0  0  0  0  0  0  0  0  0  0  0  0
   -2.8171    1.0329    0.5138 N   0  0  0  0  0  0  0  0  0  0  0  0
   -6.5746   -3.1785    1.3950 N   0  0  0  0  0  0  0  0  0  0  0  0
    4.8190    0.0482   -0.8460 C   0  0  2  0  0  0  0  0  0  0  0  0
    3.3908    0.3703   -1.2296 C   0  0  0  0  0  0  0  0  0  0  0  0
    1.3472    0.7349    0.1875 C   0  0  0  0  0  0  0  0  0  0  0  0
    5.0932   -1.4466   -0.7550 C   0  0  0  0  0  0  0  0  0  0  0  0
    3.7331    0.8332    1.0104 C   0  0  0  0  0  0  0  0  0  0  0  0
    0.5176    0.4852   -0.9087 C   0  0  0  0  0  0  0  0  0  0  0  0
   -0.8707    0.6024   -0.7333 C   0  0  0  0  0  0  0  0  0  0  0  0
   -1.4319    0.9583    0.4969 C   0  0  0  0  0  0  0  0  0  0  0  0
    0.8121    1.0907    1.4207 C   0  0  0  0  0  0  0  0  0  0  0  0
   -4.7252    0.7231   -1.0242 C   0  0  1  0  0  0  0  0  0  0  0  0
   -3.2877    0.7411   -0.6764 C   0  0  0  0  0  0  0  0  0  0  0  0
   -0.5710    1.2055    1.5882 C   0  0  0  0  0  0  0  0  0  0  0  0
   -5.5922   -0.2132   -0.1481 C   0  0  0  0  0  0  0  0  0  0  0  0
   -5.1170   -1.6668   -0.1880 C   0  0  0  0  0  0  0  0  0  0  0  0
    6.7793   -3.0191   -0.2997 C   0  0  0  0  0  0  0  0  0  0  0  0
   -5.9320   -2.5109    0.6967 C   0  0  0  0  0  0  0  0  0  0  0  0
    5.5344    0.5236   -1.5260 H   0  0  0  0  0  0  0  0  0  0  0  0
    3.3445    1.2915   -1.8214 H   0  0  0  0  0  0  0  0  0  0  0  0
    2.9270   -0.4511   -1.7831 H   0  0  0  0  0  0  0  0  0  0  0  0
    4.8948   -1.9249   -1.7210 H   0  0  0  0  0  0  0  0  0  0  0  0
    4.4597   -1.9091    0.0115 H   0  0  0  0  0  0  0  0  0  0  0  0
    0.8998    0.2151   -1.8865 H   0  0  0  0  0  0  0  0  0  0  0  0
    1.4077    1.2934    2.3005 H   0  0  0  0  0  0  0  0  0  0  0  0
   -4.8730    0.4427   -2.0744 H   0  0  0  0  0  0  0  0  0  0  0  0
   -0.9798    1.4835    2.5557 H   0  0  0  0  0  0  0  0  0  0  0  0
   -6.6387   -0.1459   -0.4746 H   0  0  0  0  0  0  0  0  0  0  0  0
   -5.5887    0.1543    0.8877 H   0  0  0  0  0  0  0  0  0  0  0  0
   -5.1724   -2.0461   -1.2147 H   0  0  0  0  0  0  0  0  0  0  0  0
   -4.0712   -1.7418    0.1287 H   0  0  0  0  0  0  0  0  0  0  0  0
   -6.1673    2.0475   -1.1519 H   0  0  0  0  0  0  0  0  0  0  0  0
    7.8352   -3.1028   -0.0292 H   0  0  0  0  0  0  0  0  0  0  0  0
    6.6229   -3.5225   -1.2586 H   0  0  0  0  0  0  0  0  0  0  0  0
    6.1795   -3.4976    0.4805 H   0  0  0  0  0  0  0  0  0  0  0  0
  1 15  1  0  0  0  0
  1 19  1  0  0  0  0
  2  9  1  0  0  0  0
  2 13  1  0  0  0  0
  3 12  1  0  0  0  0
  3 23  1  0  0  0  0
  4 13  2  0  0  0  0
  5 18  1  0  0  0  0
  5 38  1  0  0  0  0
  6 10  1  0  0  0  0
  6 11  1  0  0  0  0
  6 13  1  0  0  0  0
  7 16  1  0  0  0  0
  7 19  2  0  0  0  0
  8 24  3  0  0  0  0
  9 10  1  0  0  0  0
  9 12  1  0  0  0  0
  9 25  1  0  0  0  0
 10 26  1  0  0  0  0
 10 27  1  0  0  0  0
 11 14  2  0  0  0  0
 11 17  1  0  0  0  0
 12 28  1  0  0  0  0
 12 29  1  0  0  0  0
 14 15  1  0  0  0  0
 14 30  1  0  0  0  0
 15 16  2  0  0  0  0
 16 20  1  0  0  0  0
 17 20  2  0  0  0  0
 17 31  1  0  0  0  0
 18 19  1  0  0  0  0
 18 21  1  0  0  0  0
 18 32  1  0  0  0  0
 20 33  1  0  0  0  0
 21 22  1  0  0  0  0
 21 34  1  0  0  0  0
 21 35  1  0  0  0  0
 22 24  1  0  0  0  0
 22 36  1  0  0  0  0
 22 37  1  0  0  0  0
 23 39  1  0  0  0  0
 23 40  1  0  0  0  0
 23 41  1  0  0  0  0
M  END
> <PUBCHEM_COMPOUND_CID>
10360321

> <PUBCHEM_CONFORMER_RMSD>
0.8

> <PUBCHEM_CONFORMER_DIVERSEORDER>
2
96
116
21
51
66
166
127
131
183
180
79
125
123
34
36
163
84
101
141
22
100
115
134
158
95
70
93
129
136
47
110
140
44
121
45
80
77
81
173
159
65
176
52
67
135
11
90
112
149
41
185
114
111
8
122
89
162
10
154
150
16
133
119
5
60
46
124
49
147
76
164
18
62
38
57
24
48
146
153
113
37
165
178
97
117
179
108
32
138
35
92
68
7
40
109
181
106
28
29
156
182
145
59
177
132
184
99
118
91
6
143
174
157
53
137
75
103
130
171
1
63
94
30
152
26
86
3
142
82
148
170
87
105
72
78
160
144
43
167
39
20
14
175
186
85
13
56
42
88
83
120
155
58
73
55
102
15
139
98
161
54
17
168
25
27
104
31
126
107
12
151
19
169
172
23
69
4
9
61
33
74
64
71
50
128

> <PUBCHEM_MMFF94_PARTIAL_CHARGES>
27
1 -0.08
10 0.3
11 0.12
12 0.28
13 0.78
14 -0.15
15 0.04
16 0.23
17 -0.15
18 0.46
19 0.2
2 -0.43
20 -0.15
22 0.2
23 0.28
24 0.36
3 -0.56
30 0.15
31 0.15
33 0.15
38 0.4
4 -0.57
5 -0.68
6 -0.48
7 -0.57
8 -0.56
9 0.28

> <PUBCHEM_EFFECTIVE_ROTOR_COUNT>
6.8

> <PUBCHEM_PHARMACOPHORE_FEATURES>
9
1 3 acceptor
1 4 acceptor
1 5 acceptor
1 5 donor
1 7 acceptor
1 8 acceptor
5 1 7 15 16 19 rings
5 2 6 9 10 13 rings
6 11 14 15 16 17 20 rings

> <PUBCHEM_HEAVY_ATOM_COUNT>
24

> <PUBCHEM_ATOM_DEF_STEREO_COUNT>
2

> <PUBCHEM_ATOM_UDEF_STEREO_COUNT>
0

> <PUBCHEM_BOND_DEF_STEREO_COUNT>
0

> <PUBCHEM_BOND_UDEF_STEREO_COUNT>
0

> <PUBCHEM_ISOTOPIC_ATOM_COUNT>
0

> <PUBCHEM_COMPONENT_COUNT>
1

> <PUBCHEM_CACTVS_TAUTO_COUNT>
1

> <PUBCHEM_CONFORMER_ID>
009E160100000002

> <PUBCHEM_MMFF94_ENERGY>
55.1835

> <PUBCHEM_FEATURE_SELFOVERLAP>
45.746

> <PUBCHEM_SHAPE_FINGERPRINT>
10554248 39 12757418463057557666
10670039 82 14274019854217327342
10906281 52 15266787757146647028
11315621 246 17675923209943377487
11545043 162 18411976992844841049
11796584 16 18338516331073931399
12236239 1 18201999885491250196
12422481 6 15697456463516023025
12616971 3 16415478267989885221
12661589 4 18260542351415439794
13533116 47 18060412492222879938
13782708 43 18410009948640337047
13862211 1 16988552490156950469
13911987 19 13334733544644063003
14211702 104 18200884971958166598
14251764 30 18408886239134725215
14528608 73 16153426155641320124
14739800 52 12246529362682766731
14767858 380 15285355141564511083
15209294 21 13110694860824694941
15352257 5 18408889524822337935
15510800 12 18059307448646455974
15961568 22 8358251575423013518
18335252 98 18337676433413563848
19841028 212 18118963582610912562
20281389 69 10880005661671105319
20567600 247 18041561335136924626
20621476 21 18335708286236512283
21150785 3 17241049915184412860
21267235 1 17060343998919296052
21315759 148 18411132580314210577
21585482 111 10519980457634447978
21623969 137 17917999390342510639
21792934 111 16629952240562399369
220451 1 17385719163053698537
2303208 19 18342459261549315047
23402539 116 16153417347206793165
23522609 53 15409498899133692833
23559900 14 18342448249185051280
25122255 55 18410865360118041095
33382 64 18411986879205526299
34797466 226 18113902697041535508
3680242 22 16988840579789264406
439807 62 18408890637667201935
465052 167 18131072628192932382
484989 97 18409739456486372258
5104073 3 17346882234659004320
58083652 198 16845565440071918297
8863177 126 18200875191974572951
999808 66 18272374156759249711

> <PUBCHEM_SHAPE_MULTIPOLES>
459.34
17.55
2.48
1.59
2.36
2.79
-0.26
15.43
0.15
-1.31
-0.73
-0.16
-0.37
3

> <PUBCHEM_SHAPE_SELFOVERLAP>
963.273

> <PUBCHEM_SHAPE_VOLUME>
262.4

> <PUBCHEM_COORDINATE_TYPE>
2
5
10

$$$$
