10365526
  -OEChem-03292013303D

 67 70  0     1  0  0  0  0  0999 V2000
    1.7369   -1.3359   -1.8576 O   0  0  0  0  0  0  0  0  0  0  0  0
   -0.9335    1.2668    1.7893 O   0  0  0  0  0  0  0  0  0  0  0  0
    3.6778   -2.4651    0.5186 O   0  0  0  0  0  0  0  0  0  0  0  0
    4.9146   -0.0695   -0.0572 O   0  0  0  0  0  0  0  0  0  0  0  0
   -7.1755    2.0894   -1.3965 O   0  0  0  0  0  0  0  0  0  0  0  0
    4.8826    2.2367    0.0060 O   0  0  0  0  0  0  0  0  0  0  0  0
    0.5124   -1.0048    0.2487 C   0  0  1  0  0  0  0  0  0  0  0  0
   -0.7142   -1.7610   -0.3063 C   0  0  2  0  0  0  0  0  0  0  0  0
   -2.0486   -1.2922    0.2931 C   0  0  1  0  0  0  0  0  0  0  0  0
   -2.2378    0.2269   -0.0243 C   0  0  1  0  0  0  0  0  0  0  0  0
    1.6417   -1.7631   -0.5021 C   0  0  1  0  0  0  0  0  0  0  0  0
    0.3408    0.4844   -0.1146 C   0  0  0  0  0  0  0  0  0  0  0  0
   -3.6380    0.7876    0.4577 C   0  0  2  0  0  0  0  0  0  0  0  0
   -0.9955    1.0795    0.3825 C   0  0  2  0  0  0  0  0  0  0  0  0
   -0.3182   -3.2285   -0.1669 C   0  0  0  0  0  0  0  0  0  0  0  0
    1.1960   -3.2429   -0.4638 C   0  0  0  0  0  0  0  0  0  0  0  0
   -3.2123   -2.1087   -0.2906 C   0  0  0  0  0  0  0  0  0  0  0  0
    0.6988   -1.1795    1.7814 C   0  0  0  0  0  0  0  0  0  0  0  0
   -4.7522   -0.1422   -0.0418 C   0  0  0  0  0  0  0  0  0  0  0  0
   -4.5593   -1.6164    0.2165 C   0  0  0  0  0  0  0  0  0  0  0  0
   -3.8213    2.2102   -0.1471 C   0  0  0  0  0  0  0  0  0  0  0  0
   -3.7733    0.8750    1.9948 C   0  0  0  0  0  0  0  0  0  0  0  0
    3.0091   -1.5347    0.0709 C   0  0  0  0  0  0  0  0  0  0  0  0
   -5.2569    2.7090   -0.1043 C   0  0  0  0  0  0  0  0  0  0  0  0
   -5.8741    0.2830   -0.6465 C   0  0  0  0  0  0  0  0  0  0  0  0
   -6.1689    1.7271   -0.7912 C   0  0  0  0  0  0  0  0  0  0  0  0
    3.5085   -0.1057    0.0648 C   0  0  0  0  0  0  0  0  0  0  0  0
    5.4909    1.1784   -0.0750 C   0  0  0  0  0  0  0  0  0  0  0  0
    6.9904    1.0427   -0.2107 C   0  0  0  0  0  0  0  0  0  0  0  0
    7.6850    2.4012   -0.2620 C   0  0  0  0  0  0  0  0  0  0  0  0
    9.1941    2.2521   -0.3657 C   0  0  0  0  0  0  0  0  0  0  0  0
   -0.7805   -1.5681   -1.3901 H   0  0  0  0  0  0  0  0  0  0  0  0
   -2.0447   -1.4473    1.3767 H   0  0  0  0  0  0  0  0  0  0  0  0
   -2.2604    0.2840   -1.1260 H   0  0  0  0  0  0  0  0  0  0  0  0
    0.3758    0.6147   -1.2030 H   0  0  0  0  0  0  0  0  0  0  0  0
    1.1567    1.0792    0.3057 H   0  0  0  0  0  0  0  0  0  0  0  0
   -1.0921    2.0778   -0.0590 H   0  0  0  0  0  0  0  0  0  0  0  0
   -0.8627   -3.8697   -0.8677 H   0  0  0  0  0  0  0  0  0  0  0  0
   -0.5144   -3.6015    0.8446 H   0  0  0  0  0  0  0  0  0  0  0  0
    1.3804   -3.7428   -1.4217 H   0  0  0  0  0  0  0  0  0  0  0  0
    1.6954   -3.8305    0.3139 H   0  0  0  0  0  0  0  0  0  0  0  0
   -3.1023   -3.1656   -0.0210 H   0  0  0  0  0  0  0  0  0  0  0  0
   -3.1944   -2.0585   -1.3872 H   0  0  0  0  0  0  0  0  0  0  0  0
    1.0061   -2.1950    2.0531 H   0  0  0  0  0  0  0  0  0  0  0  0
    1.4651   -0.5008    2.1688 H   0  0  0  0  0  0  0  0  0  0  0  0
   -0.2125   -0.9793    2.3482 H   0  0  0  0  0  0  0  0  0  0  0  0
   -5.3512   -2.2109   -0.2556 H   0  0  0  0  0  0  0  0  0  0  0  0
   -4.6374   -1.8043    1.2943 H   0  0  0  0  0  0  0  0  0  0  0  0
   -3.4968    2.2063   -1.1973 H   0  0  0  0  0  0  0  0  0  0  0  0
   -3.1829    2.9358    0.3710 H   0  0  0  0  0  0  0  0  0  0  0  0
   -4.8179    1.0140    2.2995 H   0  0  0  0  0  0  0  0  0  0  0  0
   -3.2209    1.7252    2.4066 H   0  0  0  0  0  0  0  0  0  0  0  0
   -3.4152   -0.0303    2.4946 H   0  0  0  0  0  0  0  0  0  0  0  0
    2.3474   -1.9331   -2.3231 H   0  0  0  0  0  0  0  0  0  0  0  0
   -5.6067    2.8575    0.9221 H   0  0  0  0  0  0  0  0  0  0  0  0
   -5.3200    3.6687   -0.6290 H   0  0  0  0  0  0  0  0  0  0  0  0
   -0.1780    1.8485    1.9790 H   0  0  0  0  0  0  0  0  0  0  0  0
   -6.6349   -0.4072   -0.9951 H   0  0  0  0  0  0  0  0  0  0  0  0
    3.0836    0.4348   -0.7856 H   0  0  0  0  0  0  0  0  0  0  0  0
    3.2140    0.3695    1.0046 H   0  0  0  0  0  0  0  0  0  0  0  0
    7.2017    0.4844   -1.1295 H   0  0  0  0  0  0  0  0  0  0  0  0
    7.3580    0.4699    0.6480 H   0  0  0  0  0  0  0  0  0  0  0  0
    7.3168    2.9769   -1.1196 H   0  0  0  0  0  0  0  0  0  0  0  0
    7.4410    2.9810    0.6363 H   0  0  0  0  0  0  0  0  0  0  0  0
    9.4727    1.7058   -1.2726 H   0  0  0  0  0  0  0  0  0  0  0  0
    9.5954    1.7123    0.4980 H   0  0  0  0  0  0  0  0  0  0  0  0
    9.6707    3.2367   -0.4024 H   0  0  0  0  0  0  0  0  0  0  0  0
  1 11  1  0  0  0  0
  1 54  1  0  0  0  0
  2 14  1  0  0  0  0
  2 57  1  0  0  0  0
  3 23  2  0  0  0  0
  4 27  1  0  0  0  0
  4 28  1  0  0  0  0
  5 26  2  0  0  0  0
  6 28  2  0  0  0  0
  7  8  1  0  0  0  0
  7 11  1  0  0  0  0
  7 12  1  0  0  0  0
  7 18  1  0  0  0  0
  8  9  1  0  0  0  0
  8 15  1  0  0  0  0
  8 32  1  0  0  0  0
  9 10  1  0  0  0  0
  9 17  1  0  0  0  0
  9 33  1  0  0  0  0
 10 13  1  0  0  0  0
 10 14  1  0  0  0  0
 10 34  1  0  0  0  0
 11 16  1  0  0  0  0
 11 23  1  0  0  0  0
 12 14  1  0  0  0  0
 12 35  1  0  0  0  0
 12 36  1  0  0  0  0
 13 19  1  0  0  0  0
 13 21  1  0  0  0  0
 13 22  1  0  0  0  0
 14 37  1  0  0  0  0
 15 16  1  0  0  0  0
 15 38  1  0  0  0  0
 15 39  1  0  0  0  0
 16 40  1  0  0  0  0
 16 41  1  0  0  0  0
 17 20  1  0  0  0  0
 17 42  1  0  0  0  0
 17 43  1  0  0  0  0
 18 44  1  0  0  0  0
 18 45  1  0  0  0  0
 18 46  1  0  0  0  0
 19 20  1  0  0  0  0
 19 25  2  0  0  0  0
 20 47  1  0  0  0  0
 20 48  1  0  0  0  0
 21 24  1  0  0  0  0
 21 49  1  0  0  0  0
 21 50  1  0  0  0  0
 22 51  1  0  0  0  0
 22 52  1  0  0  0  0
 22 53  1  0  0  0  0
 23 27  1  0  0  0  0
 24 26  1  0  0  0  0
 24 55  1  0  0  0  0
 24 56  1  0  0  0  0
 25 26  1  0  0  0  0
 25 58  1  0  0  0  0
 27 59  1  0  0  0  0
 27 60  1  0  0  0  0
 28 29  1  0  0  0  0
 29 30  1  0  0  0  0
 29 61  1  0  0  0  0
 29 62  1  0  0  0  0
 30 31  1  0  0  0  0
 30 63  1  0  0  0  0
 30 64  1  0  0  0  0
 31 65  1  0  0  0  0
 31 66  1  0  0  0  0
 31 67  1  0  0  0  0
M  END
> <PUBCHEM_COMPOUND_CID>
10365526

> <PUBCHEM_CONFORMER_RMSD>
1

> <PUBCHEM_CONFORMER_DIVERSEORDER>
1
16
23
2
8
19
22
3
24
25
17
20
11
21
6
18
13
15
4
14
26
10
7
9
5
12

> <PUBCHEM_MMFF94_PARTIAL_CHARGES>
21
1 -0.68
11 0.34
13 0.14
14 0.28
19 -0.28
2 -0.68
20 0.14
23 0.45
24 0.06
25 -0.14
26 0.49
27 0.34
28 0.66
29 0.06
3 -0.57
4 -0.43
5 -0.57
54 0.4
57 0.4
58 0.15
6 -0.57

> <PUBCHEM_EFFECTIVE_ROTOR_COUNT>
7.8

> <PUBCHEM_PHARMACOPHORE_FEATURES>
12
1 1 acceptor
1 1 donor
1 2 acceptor
1 2 donor
1 3 acceptor
1 31 hydrophobe
1 5 acceptor
1 6 acceptor
5 7 8 11 15 16 rings
6 13 19 21 24 25 26 rings
6 7 8 9 10 12 14 rings
6 9 10 13 17 19 20 rings

> <PUBCHEM_HEAVY_ATOM_COUNT>
31

> <PUBCHEM_ATOM_DEF_STEREO_COUNT>
7

> <PUBCHEM_ATOM_UDEF_STEREO_COUNT>
0

> <PUBCHEM_BOND_DEF_STEREO_COUNT>
0

> <PUBCHEM_BOND_UDEF_STEREO_COUNT>
0

> <PUBCHEM_ISOTOPIC_ATOM_COUNT>
0

> <PUBCHEM_COMPONENT_COUNT>
1

> <PUBCHEM_CACTVS_TAUTO_COUNT>
10

> <PUBCHEM_CONFORMER_ID>
009E2A5600000001

> <PUBCHEM_MMFF94_ENERGY>
89.4337

> <PUBCHEM_FEATURE_SELFOVERLAP>
60.99

> <PUBCHEM_SHAPE_FINGERPRINT>
10 15 18187367640145298521
10050765 1 18410292523746535966
10366900 7 17060049320875669883
10669705 176 18343026605966495508
10835480 77 18335980883568205885
10906281 52 17774167786852554883
11135609 187 18411979144006343033
11578080 2 17605254221359614637
11961588 58 18335132052154329627
12013929 112 18190203312201721228
12422481 6 17458064858770248596
12788726 201 17703795777893215120
12838862 33 18341036494231707384
13150687 139 18273220777060956398
13248334 5 18191299374206814778
13631057 29 18129660928378032239
13673619 4 11455886957823414096
13690498 29 17559104587606720031
13726171 33 18340212903707458905
13782708 43 12319444477090396981
13911987 19 17846779602858656255
14117953 113 18408325484701630644
14790565 3 18411702101324774026
14931854 50 17988932167438434840
15289351 153 18202002106759410752
1577012 14 18335135423967290640
15961568 22 18260266330625214524
17492 54 18131912650391182986
17980427 23 17676774253032796222
18608769 82 18410013239830107923
19427546 20 18341047536033300487
20511986 3 18114454583480754223
20567600 254 18341894104331155564
20715895 44 18409446960073972948
21033648 144 18187075136183156479
21033650 10 14979689753617843139
21298829 104 18409169896150878140
21365058 113 13614231598809961299
23522609 53 17487908805006306849
23559900 14 18054790581005231895
2838139 119 18339922740201662380
34797466 226 18060424569196091679
350125 39 18341896320771449523
4073 2 18113903770946909586
465052 167 8358253765676245810
5104073 3 18187089408064380883
563151 97 18411129264447276591
6327066 14 18410572899062789308
636775 72 18268709597170313896
99344 41 18408884045082157420
9981440 41 18334584571972242562

> <PUBCHEM_SHAPE_MULTIPOLES>
602.75
19.01
3.52
1.15
30.47
0.94
-0.34
-21.33
4.46
0.64
0.51
-0.88
-0.08
0.25

> <PUBCHEM_SHAPE_SELFOVERLAP>
1277.92

> <PUBCHEM_SHAPE_VOLUME>
332.5

> <PUBCHEM_COORDINATE_TYPE>
2
5
10

$$$$
