REMARK  Name = 10361141
REMARK  2 active torsions:
REMARK  status: ('A' for Active; 'I' for Inactive)
REMARK    1  A    between atoms: C_9  and  O_25
REMARK    2  A    between atoms: C_10  and  O_27
REMARK                            x       y       z     vdW  Elec       q    Type
REMARK                         _______ _______ _______ _____ _____    ______ ____
ROOT
ATOM      1  O   UNL     1       3.192   2.007   0.301  0.00  0.00    -0.348 OA
ATOM      2  O   UNL     1      -3.192  -2.007  -0.303  0.00  0.00    -0.348 OA
ATOM      3  O   UNL     1       0.173   0.237   2.588  0.00  0.00    -0.293 OA
ATOM      4  O   UNL     1      -0.172  -0.237  -2.588  0.00  0.00    -0.293 OA
ATOM      5  O   UNL     1      -0.780   3.365  -0.080  0.00  0.00    -0.289 OA
ATOM      6  O   UNL     1       0.779  -3.365   0.081  0.00  0.00    -0.289 OA
ATOM      7  C   UNL     1       1.170   0.797   0.443  0.00  0.00    +0.134 C 
ATOM      8  C   UNL     1      -1.169  -0.797  -0.443  0.00  0.00    +0.134 C 
ATOM      9  C   UNL     1       0.257   1.274  -0.728  0.00  0.00    +0.206 C 
ATOM     10  C   UNL     1      -0.257  -1.274   0.728  0.00  0.00    +0.206 C 
ATOM     11  C   UNL     1       0.343  -0.042   1.407  0.00  0.00    +0.190 C 
ATOM     12  C   UNL     1      -0.343   0.043  -1.407  0.00  0.00    +0.190 C 
ATOM     13  C   UNL     1       2.275  -0.127  -0.024  0.00  0.00    -0.005 C 
ATOM     14  C   UNL     1      -2.276   0.127   0.023  0.00  0.00    -0.005 C 
ATOM     15  C   UNL     1       2.011   1.879   1.105  0.00  0.00    +0.156 C 
ATOM     16  C   UNL     1      -2.010  -1.879  -1.106  0.00  0.00    +0.156 C 
ATOM     17  C   UNL     1      -0.896   2.147  -0.205  0.00  0.00    +0.200 C 
ATOM     18  C   UNL     1       0.896  -2.147   0.205  0.00  0.00    +0.200 C 
ATOM     19  C   UNL     1       2.196  -1.467  -0.148  0.00  0.00    +0.011 C 
ATOM     20  C   UNL     1      -2.196   1.466   0.148  0.00  0.00    +0.011 C 
ATOM     21  C   UNL     1       3.509   0.700  -0.205  0.00  0.00    +0.165 C 
ATOM     22  C   UNL     1      -3.509  -0.700   0.204  0.00  0.00    +0.165 C 
ATOM     23  C   UNL     1       3.315  -2.357  -0.592  0.00  0.00    +0.034 C 
ATOM     24  C   UNL     1      -3.315   2.357   0.594  0.00  0.00    +0.034 C 
ENDROOT
BRANCH   9  25
ATOM     25  O   UNL     1       0.964   2.022  -1.695  0.00  0.00    -0.373 OA
ATOM     26  H   UNL     1       1.698   1.490  -2.041  0.00  0.00    +0.211 HD
ENDBRANCH   9  25
BRANCH  10  27
ATOM     27  O   UNL     1      -0.964  -2.021   1.696  0.00  0.00    -0.373 OA
ATOM     28  H   UNL     1      -1.698  -1.489   2.041  0.00  0.00    +0.211 HD
ENDBRANCH  10  27
TORSDOF 2
