REMARK  Name = 10365526
REMARK  8 active torsions:
REMARK  status: ('A' for Active; 'I' for Inactive)
REMARK    1  A    between atoms: C_6  and  O_21
REMARK    2  A    between atoms: C_6  and  C_26
REMARK    3  A    between atoms: C_9  and  O_23
REMARK    4  A    between atoms: C_26  and  C_27
REMARK    5  A    between atoms: C_27  and  O_28
REMARK    6  A    between atoms: O_28  and  C_30
REMARK    7  A    between atoms: C_30  and  C_31
REMARK    8  A    between atoms: C_31  and  C_32
REMARK                            x       y       z     vdW  Elec       q    Type
REMARK                         _______ _______ _______ _____ _____    ______ ____
ROOT
ATOM      1  O   UNL     1      -7.176   2.089  -1.397  0.00  0.00    -0.291 OA
ATOM      2  C   UNL     1       0.512  -1.005   0.249  0.00  0.00    +0.031 C 
ATOM      3  C   UNL     1      -0.714  -1.761  -0.306  0.00  0.00    +0.003 C 
ATOM      4  C   UNL     1      -2.049  -1.292   0.293  0.00  0.00    +0.003 C 
ATOM      5  C   UNL     1      -2.238   0.227  -0.024  0.00  0.00    +0.030 C 
ATOM      6  C   UNL     1       1.642  -1.763  -0.502  0.00  0.00    +0.143 C 
ATOM      7  C   UNL     1       0.341   0.484  -0.115  0.00  0.00    +0.032 C 
ATOM      8  C   UNL     1      -3.638   0.788   0.458  0.00  0.00    +0.018 C 
ATOM      9  C   UNL     1      -0.996   1.079   0.383  0.00  0.00    +0.111 C 
ATOM     10  C   UNL     1      -0.318  -3.228  -0.167  0.00  0.00    +0.003 C 
ATOM     11  C   UNL     1       1.196  -3.243  -0.464  0.00  0.00    +0.034 C 
ATOM     12  C   UNL     1      -3.212  -2.109  -0.291  0.00  0.00    +0.004 C 
ATOM     13  C   UNL     1       0.699  -1.179   1.781  0.00  0.00    +0.003 C 
ATOM     14  C   UNL     1      -4.752  -0.142  -0.042  0.00  0.00    -0.042 C 
ATOM     15  C   UNL     1      -4.559  -1.616   0.216  0.00  0.00    +0.022 C 
ATOM     16  C   UNL     1      -3.821   2.210  -0.147  0.00  0.00    +0.012 C 
ATOM     17  C   UNL     1      -3.773   0.875   1.995  0.00  0.00    +0.004 C 
ATOM     18  C   UNL     1      -5.257   2.709  -0.104  0.00  0.00    +0.069 C 
ATOM     19  C   UNL     1      -5.874   0.283  -0.646  0.00  0.00    +0.029 C 
ATOM     20  C   UNL     1      -6.169   1.727  -0.791  0.00  0.00    +0.173 C 
ENDROOT
BRANCH   6  21
ATOM     21  O   UNL     1       1.737  -1.336  -1.858  0.00  0.00    -0.380 OA
ATOM     22  H   UNL     1       0.880  -1.456  -2.295  0.00  0.00    +0.211 HD
ENDBRANCH   6  21
BRANCH   9  23
ATOM     23  O   UNL     1      -0.933   1.267   1.789  0.00  0.00    -0.384 OA
ATOM     24  H   UNL     1      -1.772   1.640   2.103  0.00  0.00    +0.210 HD
ENDBRANCH   9  23
BRANCH   6  26
ATOM     25  O   UNL     1       3.678  -2.465   0.519  0.00  0.00    -0.290 OA
ATOM     26  C   UNL     1       3.009  -1.535   0.071  0.00  0.00    +0.218 C 
BRANCH  26  27
ATOM     27  C   UNL     1       3.509  -0.106   0.065  0.00  0.00    +0.274 C 
BRANCH  27  28
ATOM     28  O   UNL     1       4.915  -0.070  -0.057  0.00  0.00    -0.440 OA
BRANCH  28  30
ATOM     29  O   UNL     1       4.883   2.237   0.006  0.00  0.00    -0.250 OA
ATOM     30  C   UNL     1       5.491   1.178  -0.075  0.00  0.00    +0.317 C 
BRANCH  30  31
ATOM     31  C   UNL     1       6.990   1.043  -0.211  0.00  0.00    +0.110 C 
BRANCH  31  32
ATOM     32  C   UNL     1       7.685   2.401  -0.262  0.00  0.00    +0.012 C 
ATOM     33  C   UNL     1       9.194   2.252  -0.366  0.00  0.00    +0.001 C 
ENDBRANCH  31  32
ENDBRANCH  30  31
ENDBRANCH  28  30
ENDBRANCH  27  28
ENDBRANCH  26  27
ENDBRANCH   6  26
TORSDOF 8
