REMARK  Name = 10364044
REMARK  14 active torsions:
REMARK  status: ('A' for Active; 'I' for Inactive)
REMARK    1  A    between atoms: CA_1  and  C_4
REMARK    2  A    between atoms: CA_1  and  N_21
REMARK    3  A    between atoms: CA_1  and  CB_33
REMARK    4  A    between atoms: N_3  and  CA_6
REMARK    5  A    between atoms: CA_6  and  C_8
REMARK    6  A    between atoms: CA_6  and  CB_11
REMARK    7  A    between atoms: C_8  and  O_9
REMARK    8  A    between atoms: CB_11  and  CG_12
REMARK    9  A    between atoms: CZ_17  and  OH_18
REMARK   10  A    between atoms: C_22  and  CA_24
REMARK   11  A    between atoms: CA_24  and  N_25
REMARK   12  A    between atoms: CA_24  and  CB_29
REMARK   13  A    between atoms: CB_29  and  CG_30
REMARK   14  A    between atoms: CB_33  and  CG1_35
REMARK                            x       y       z     vdW  Elec       q    Type
REMARK                         _______ _______ _______ _____ _____    ______ ____
ROOT
ATOM      1  CA  ILE A   2      -0.032   1.538  -0.760  0.00  0.00    +0.148 C 
ENDROOT
BRANCH   1   4
ATOM      2  O   ILE A   2       0.343   0.612   1.451  0.00  0.00    -0.273 OA
ATOM      3  N   TYR A   3       2.137   0.764  -0.015  0.00  0.00    -0.295 N 
ATOM      4  C   ILE A   2       0.811   0.933   0.360  0.00  0.00    +0.241 C 
ATOM      5  H   TYR A   3       2.409   1.056  -0.914  0.00  0.00    +0.150 HD
BRANCH   3   6
ATOM      6  CA  TYR A   3       3.137   0.180   0.850  0.00  0.00    +0.176 C 
BRANCH   6   8
ATOM      7  OXT TYR A   3       5.133   0.950   1.979  0.00  0.00    -0.248 OA
ATOM      8  C   TYR A   3       4.222   1.191   1.194  0.00  0.00    +0.332 C 
BRANCH   8   9
ATOM      9  O   TYR A   3       4.110   2.383   0.561  0.00  0.00    -0.479 OA
ATOM     10  H   TYR A   3       3.401   2.534  -0.033  0.00  0.00    +0.295 HD
ENDBRANCH   8   9
ENDBRANCH   6   8
BRANCH   6  11
ATOM     11  CB  TYR A   3       3.765  -1.064   0.209  0.00  0.00    +0.057 C 
BRANCH  11  12
ATOM     12  CG  TYR A   3       2.750  -2.131  -0.124  0.00  0.00    -0.020 C 
ATOM     13  CD1 TYR A   3       2.433  -3.111   0.816  0.00  0.00    -0.001 C 
ATOM     14  CD2 TYR A   3       2.128  -2.136  -1.373  0.00  0.00    -0.001 C 
ATOM     15  CE1 TYR A   3       1.495  -4.096   0.508  0.00  0.00    +0.036 C 
ATOM     16  CE2 TYR A   3       1.190  -3.121  -1.682  0.00  0.00    +0.036 C 
ATOM     17  CZ  TYR A   3       0.874  -4.101  -0.741  0.00  0.00    +0.134 C 
BRANCH  17  18
ATOM     18  OH  TYR A   3      -0.042  -5.062  -1.041  0.00  0.00    -0.506 OA
ATOM     19  HH  TYR A   3      -0.254  -5.721  -0.409  0.00  0.00    +0.292 HD
ENDBRANCH  17  18
ENDBRANCH  11  12
ENDBRANCH   6  11
ENDBRANCH   3   6
ENDBRANCH   1   4
BRANCH   1  21
ATOM     20  O   LEU A   1      -1.877  -0.665  -1.028  0.00  0.00    -0.277 OA
ATOM     21  N   ILE A   2      -1.417   1.507  -0.349  0.00  0.00    -0.300 N 
ATOM     22  C   LEU A   1      -2.231   0.397  -0.519  0.00  0.00    +0.202 C 
ATOM     23  H   ILE A   2      -1.800   2.311   0.072  0.00  0.00    +0.150 HD
BRANCH  22  24
ATOM     24  CA  LEU A   1      -3.656   0.636  -0.031  0.00  0.00    +0.013 C 
BRANCH  24  25
ATOM     25  N   LEU A   1      -4.356   1.270  -1.151  0.00  0.00    +0.387 N 
ATOM     26  H1  LEU A   1      -5.323   1.457  -0.886  0.00  0.00    -0.089 HD
ATOM     27  H2  LEU A   1      -4.339   0.647  -1.959  0.00  0.00    -0.089 HD
ATOM     28  H3  LEU A   1      -3.893   2.147  -1.390  0.00  0.00    -0.089 HD
ENDBRANCH  24  25
BRANCH  24  29
ATOM     29  CB  LEU A   1      -4.365  -0.669   0.364  0.00  0.00    -0.013 C 
BRANCH  29  30
ATOM     30  CG  LEU A   1      -5.795  -0.479   0.915  0.00  0.00    -0.002 C 
ATOM     31  CD1 LEU A   1      -5.752   0.398   2.169  0.00  0.00    -0.000 C 
ATOM     32  CD2 LEU A   1      -6.479  -1.808   1.239  0.00  0.00    -0.000 C 
ENDBRANCH  29  30
ENDBRANCH  24  29
ENDBRANCH  22  24
ENDBRANCH   1  21
BRANCH   1  33
ATOM     33  CB  ILE A   2       0.447   2.954  -1.163  0.00  0.00    +0.027 C 
ATOM     34  CG2 ILE A   2      -0.379   3.474  -2.348  0.00  0.00    +0.002 C 
BRANCH  33  35
ATOM     35  CG1 ILE A   2       0.422   3.940   0.025  0.00  0.00    +0.002 C 
ATOM     36  CD1 ILE A   2       0.984   5.315  -0.314  0.00  0.00    +0.000 C 
ENDBRANCH  33  35
ENDBRANCH   1  33
TORSDOF 14
