REMARK  Name = 10360632
REMARK  5 active torsions:
REMARK  status: ('A' for Active; 'I' for Inactive)
REMARK    1  A    between atoms: C_8  and  O_22
REMARK    2  A    between atoms: C_15  and  O_24
REMARK    3  A    between atoms: C_16  and  O_26
REMARK    4  A    between atoms: C_18  and  O_28
REMARK    5  A    between atoms: C_20  and  O_30
REMARK                            x       y       z     vdW  Elec       q    Type
REMARK                         _______ _______ _______ _____ _____    ______ ____
ROOT
ATOM      1  O   UNL     1       1.277   2.772  -0.002  0.00  0.00    -0.287 OA
ATOM      2  O   UNL     1       1.246  -2.569   0.001  0.00  0.00    -0.286 OA
ATOM      3  C   UNL     1      -0.041   0.798  -0.001  0.00  0.00    +0.041 A 
ATOM      4  C   UNL     1      -0.040  -0.596  -0.001  0.00  0.00    +0.076 A 
ATOM      5  C   UNL     1      -1.255   1.496  -0.001  0.00  0.00    -0.018 A 
ATOM      6  C   UNL     1      -2.479   0.806  -0.001  0.00  0.00    +0.005 A 
ATOM      7  C   UNL     1      -2.478  -0.608  -0.001  0.00  0.00    +0.067 A 
ATOM      8  C   UNL     1      -1.253  -1.296   0.000  0.00  0.00    +0.140 A 
ATOM      9  C   UNL     1       2.506   0.801   0.000  0.00  0.00    +0.048 C 
ATOM     10  C   UNL     1       2.507  -0.595   0.000  0.00  0.00    +0.076 C 
ATOM     11  C   UNL     1       1.232   1.549   0.000  0.00  0.00    +0.196 C 
ATOM     12  C   UNL     1       1.234  -1.345   0.000  0.00  0.00    +0.202 C 
ATOM     13  C   UNL     1      -1.289   2.999   0.002  0.00  0.00    +0.031 C 
ATOM     14  C   UNL     1      -3.705   1.492   0.000  0.00  0.00    +0.037 C 
ATOM     15  C   UNL     1      -3.703  -1.295   0.000  0.00  0.00    +0.140 C 
ATOM     16  C   UNL     1       3.721  -1.293   0.000  0.00  0.00    +0.140 C 
ATOM     17  C   UNL     1       3.719   1.500   0.001  0.00  0.00    +0.040 C 
ATOM     18  C   UNL     1      -4.912   0.793   0.001  0.00  0.00    +0.137 C 
ATOM     19  C   UNL     1      -4.912  -0.598   0.001  0.00  0.00    +0.073 C 
ATOM     20  C   UNL     1       4.926   0.801   0.001  0.00  0.00    +0.137 C 
ATOM     21  C   UNL     1       4.927  -0.592   0.000  0.00  0.00    +0.073 C 
ENDROOT
BRANCH   8  22
ATOM     22  O   UNL     1      -1.246  -2.664   0.000  0.00  0.00    -0.505 OA
ATOM     23  H   UNL     1      -0.433  -3.128   0.000  0.00  0.00    +0.292 HD
ENDBRANCH   8  22
BRANCH  15  24
ATOM     24  O   UNL     1      -3.795  -2.658  -0.001  0.00  0.00    -0.505 OA
ATOM     25  H   UNL     1      -3.017  -3.180  -0.001  0.00  0.00    +0.292 HD
ENDBRANCH  15  24
BRANCH  16  26
ATOM     26  O   UNL     1       3.797  -2.654   0.000  0.00  0.00    -0.505 OA
ATOM     27  H   UNL     1       3.014  -3.167   0.000  0.00  0.00    +0.292 HD
ENDBRANCH  16  26
BRANCH  18  28
ATOM     28  O   UNL     1      -6.092   1.472   0.000  0.00  0.00    -0.505 OA
ATOM     29  H   UNL     1      -6.093   2.409   0.000  0.00  0.00    +0.292 HD
ENDBRANCH  18  28
BRANCH  20  30
ATOM     30  O   UNL     1       6.105   1.482  -0.001  0.00  0.00    -0.505 OA
ATOM     31  H   UNL     1       6.105   2.419   0.000  0.00  0.00    +0.292 HD
ENDBRANCH  20  30
TORSDOF 5
