10367662
  -OEChem-03292013303D

 55 57  0     1  0  0  0  0  0999 V2000
   -1.8291    2.7695   -2.2540 Cl  0  0  0  0  0  0  0  0  0  0  0  0
   -3.2643   -1.8627   -1.1931 S   0  0  0  0  0  0  0  0  0  0  0  0
    2.1300    2.5467   -0.4037 O   0  0  0  0  0  0  0  0  0  0  0  0
    4.0664   -2.7245    0.3692 O   0  0  0  0  0  0  0  0  0  0  0  0
    1.4901    0.4940   -1.1811 O   0  0  0  0  0  0  0  0  0  0  0  0
   -5.1379   -0.4750    1.6235 O   0  0  0  0  0  0  0  0  0  0  0  0
   -6.4756   -0.2166   -0.1933 O   0  0  0  0  0  0  0  0  0  0  0  0
    3.4165    0.7692    0.1327 N   0  0  0  0  0  0  0  0  0  0  0  0
    5.3678   -2.2476    0.4687 N   0  0  0  0  0  0  0  0  0  0  0  0
    1.8188   -2.0264    0.1248 C   0  0  0  0  0  0  0  0  0  0  0  0
    3.2140   -1.6764    0.2353 C   0  0  0  0  0  0  0  0  0  0  0  0
    0.9932    3.1321   -1.0494 C   0  0  1  0  0  0  0  0  0  0  0  0
    3.9211   -0.5032    0.2432 C   0  0  0  0  0  0  0  0  0  0  0  0
   -0.8792   -2.7022   -0.0897 C   0  0  0  0  0  0  0  0  0  0  0  0
   -0.1855    3.1028   -0.1059 C   0  0  0  0  0  0  0  0  0  0  0  0
    1.3829   -2.8305   -0.9282 C   0  0  0  0  0  0  0  0  0  0  0  0
    0.9057   -1.5600    1.0706 C   0  0  0  0  0  0  0  0  0  0  0  0
    5.2559   -0.9186    0.3909 C   0  0  0  0  0  0  0  0  0  0  0  0
    0.0339   -3.1684   -1.0356 C   0  0  0  0  0  0  0  0  0  0  0  0
   -0.4433   -1.8979    0.9633 C   0  0  0  0  0  0  0  0  0  0  0  0
   -2.3216   -3.0635   -0.2046 C   0  0  0  0  0  0  0  0  0  0  0  0
    1.3360    4.5496   -1.4939 C   0  0  0  0  0  0  0  0  0  0  0  0
    2.2714    1.1918   -0.5462 C   0  0  0  0  0  0  0  0  0  0  0  0
   -1.4911    2.9431   -0.5704 C   0  0  0  0  0  0  0  0  0  0  0  0
    0.0565    3.2403    1.2609 C   0  0  0  0  0  0  0  0  0  0  0  0
    6.4657   -0.0815    0.4610 C   0  0  0  0  0  0  0  0  0  0  0  0
   -4.8866   -2.6504   -1.0800 C   0  0  0  0  0  0  0  0  0  0  0  0
   -2.5546    2.9211    0.3319 C   0  0  0  0  0  0  0  0  0  0  0  0
   -1.0071    3.2184    2.1632 C   0  0  0  0  0  0  0  0  0  0  0  0
   -2.3125    3.0589    1.6988 C   0  0  0  0  0  0  0  0  0  0  0  0
   -5.5509   -2.4008    0.2669 C   0  0  0  0  0  0  0  0  0  0  0  0
   -5.7866   -0.9312    0.5241 C   0  0  0  0  0  0  0  0  0  0  0  0
    0.7872    2.5633   -1.9623 H   0  0  0  0  0  0  0  0  0  0  0  0
    2.0807   -3.2001   -1.6759 H   0  0  0  0  0  0  0  0  0  0  0  0
    1.2274   -0.9333    1.8991 H   0  0  0  0  0  0  0  0  0  0  0  0
   -0.2927   -3.7943   -1.8619 H   0  0  0  0  0  0  0  0  0  0  0  0
   -1.1445   -1.5262    1.7059 H   0  0  0  0  0  0  0  0  0  0  0  0
   -2.4197   -4.0555   -0.6609 H   0  0  0  0  0  0  0  0  0  0  0  0
   -2.7551   -3.1368    0.7983 H   0  0  0  0  0  0  0  0  0  0  0  0
    4.0460    1.5104    0.4299 H   0  0  0  0  0  0  0  0  0  0  0  0
    2.1978    4.5372   -2.1702 H   0  0  0  0  0  0  0  0  0  0  0  0
    0.4967    5.0308   -2.0057 H   0  0  0  0  0  0  0  0  0  0  0  0
    1.6196    5.1736   -0.6385 H   0  0  0  0  0  0  0  0  0  0  0  0
    1.0605    3.3809    1.6518 H   0  0  0  0  0  0  0  0  0  0  0  0
    6.5346    0.5695   -0.4166 H   0  0  0  0  0  0  0  0  0  0  0  0
    7.3788   -0.6848    0.5006 H   0  0  0  0  0  0  0  0  0  0  0  0
    6.4424    0.5504    1.3548 H   0  0  0  0  0  0  0  0  0  0  0  0
   -4.7957   -3.7242   -1.2730 H   0  0  0  0  0  0  0  0  0  0  0  0
   -5.5071   -2.2328   -1.8804 H   0  0  0  0  0  0  0  0  0  0  0  0
   -3.5777    2.7960   -0.0136 H   0  0  0  0  0  0  0  0  0  0  0  0
   -0.8192    3.3285    3.2272 H   0  0  0  0  0  0  0  0  0  0  0  0
   -4.9713   -2.8322    1.0899 H   0  0  0  0  0  0  0  0  0  0  0  0
   -6.5300   -2.8933    0.2981 H   0  0  0  0  0  0  0  0  0  0  0  0
   -3.1406    3.0414    2.4013 H   0  0  0  0  0  0  0  0  0  0  0  0
   -5.2905    0.4832    1.7680 H   0  0  0  0  0  0  0  0  0  0  0  0
  1 24  1  0  0  0  0
  2 21  1  0  0  0  0
  2 27  1  0  0  0  0
  3 12  1  0  0  0  0
  3 23  1  0  0  0  0
  4  9  1  0  0  0  0
  4 11  1  0  0  0  0
  5 23  2  0  0  0  0
  6 32  1  0  0  0  0
  6 55  1  0  0  0  0
  7 32  2  0  0  0  0
  8 13  1  0  0  0  0
  8 23  1  0  0  0  0
  8 40  1  0  0  0  0
  9 18  2  0  0  0  0
 10 11  1  0  0  0  0
 10 16  2  0  0  0  0
 10 17  1  0  0  0  0
 11 13  2  0  0  0  0
 12 15  1  0  0  0  0
 12 22  1  0  0  0  0
 12 33  1  0  0  0  0
 13 18  1  0  0  0  0
 14 19  2  0  0  0  0
 14 20  1  0  0  0  0
 14 21  1  0  0  0  0
 15 24  1  0  0  0  0
 15 25  2  0  0  0  0
 16 19  1  0  0  0  0
 16 34  1  0  0  0  0
 17 20  2  0  0  0  0
 17 35  1  0  0  0  0
 18 26  1  0  0  0  0
 19 36  1  0  0  0  0
 20 37  1  0  0  0  0
 21 38  1  0  0  0  0
 21 39  1  0  0  0  0
 22 41  1  0  0  0  0
 22 42  1  0  0  0  0
 22 43  1  0  0  0  0
 24 28  2  0  0  0  0
 25 29  1  0  0  0  0
 25 44  1  0  0  0  0
 26 45  1  0  0  0  0
 26 46  1  0  0  0  0
 26 47  1  0  0  0  0
 27 31  1  0  0  0  0
 27 48  1  0  0  0  0
 27 49  1  0  0  0  0
 28 30  1  0  0  0  0
 28 50  1  0  0  0  0
 29 30  2  0  0  0  0
 29 51  1  0  0  0  0
 30 54  1  0  0  0  0
 31 32  1  0  0  0  0
 31 52  1  0  0  0  0
 31 53  1  0  0  0  0
M  END
> <PUBCHEM_COMPOUND_CID>
10367662

> <PUBCHEM_CONFORMER_RMSD>
1

> <PUBCHEM_CONFORMER_DIVERSEORDER>
1
73
96
135
146
179
93
204
14
32
95
164
137
121
218
43
10
144
117
94
123
101
147
57
222
11
38
203
115
131
45
141
86
156
167
50
194
22
182
60
152
71
186
92
64
62
58
23
29
80
72
106
87
15
205
111
55
132
119
49
215
112
36
40
197
17
13
97
129
83
37
223
100
166
33
2
65
59
61
177
31
198
107
82
227
108
19
124
69
56
192
89
140
172
133
28
109
85
53
105
206
88
90
221
126
103
6
165
77
169
46
27
159
128
214
21
224
220
75
110
98
12
171
25
160
157
155
7
161
145
216
51
148
178
35
34
120
134
78
39
188
139
143
116
9
225
74
102
174
209
67
118
168
196
70
81
68
142
170
24
219
163
212
20
84
210
154
99
47
180
41
52
122
213
208
189
66
184
4
199
48
187
76
54
202
44
26
217
104
181
193
211
63
18
91
114
173
200
158
226
190
125
16
150
113
79
162
130
185
42
183
138
191
5
30
3
207
175
201
8
176
127
149
195
136
151
153

> <PUBCHEM_MMFF94_PARTIAL_CHARGES>
41
1 -0.18
10 0.05
11 0.09
12 0.42
13 0.06
14 -0.14
15 -0.14
16 -0.15
17 -0.15
18 0.11
19 -0.15
2 -0.46
20 -0.15
21 0.37
23 0.78
24 0.18
25 -0.15
26 0.18
27 0.23
28 -0.15
29 -0.15
3 -0.43
30 -0.15
31 0.06
32 0.66
34 0.15
35 0.15
36 0.15
37 0.15
4 -0.02
40 0.37
44 0.15
5 -0.57
50 0.15
51 0.15
54 0.15
55 0.5
6 -0.65
7 -0.57
8 -0.49
9 -0.41

> <PUBCHEM_EFFECTIVE_ROTOR_COUNT>
11

> <PUBCHEM_PHARMACOPHORE_FEATURES>
10
1 5 acceptor
1 6 acceptor
1 7 acceptor
1 8 donor
1 9 acceptor
3 6 7 32 anion
4 2 21 27 31 hydrophobe
5 4 9 11 13 18 rings
6 10 14 16 17 19 20 rings
6 15 24 25 28 29 30 rings

> <PUBCHEM_HEAVY_ATOM_COUNT>
32

> <PUBCHEM_ATOM_DEF_STEREO_COUNT>
0

> <PUBCHEM_ATOM_UDEF_STEREO_COUNT>
1

> <PUBCHEM_BOND_DEF_STEREO_COUNT>
0

> <PUBCHEM_BOND_UDEF_STEREO_COUNT>
0

> <PUBCHEM_ISOTOPIC_ATOM_COUNT>
0

> <PUBCHEM_COMPONENT_COUNT>
1

> <PUBCHEM_CACTVS_TAUTO_COUNT>
2

> <PUBCHEM_CONFORMER_ID>
009E32AE00000001

> <PUBCHEM_MMFF94_ENERGY>
72.58

> <PUBCHEM_FEATURE_SELFOVERLAP>
50.805

> <PUBCHEM_SHAPE_FINGERPRINT>
10439779 11 17767111378016269171
10815517 723 18271253737351859470
11578080 2 17844221014385918330
12156800 1 18055383299523837565
12788726 201 18271259299355379628
13590594 115 18334573542606443415
14028597 1 17531787101340221378
14068700 675 18341613754314240064
14117953 113 18341052909480064263
14394314 77 18270967946386950849
150020 26 17685217570568935195
18336668 15 18335421287878429245
20567600 299 17983013642005499003
25019877 29 17489590056125328006
463206 1 18341341075915582449
469060 322 17241334555546850015
46939830 39 17458633344883611252

> <PUBCHEM_SHAPE_MULTIPOLES>
624.96
11.51
6.48
1.58
2.96
4.72
0
-9.57
-2.03
1.46
0.93
1.04
1.45
-1.47

> <PUBCHEM_SHAPE_SELFOVERLAP>
1307.226

> <PUBCHEM_SHAPE_VOLUME>
355.2

> <PUBCHEM_COORDINATE_TYPE>
2
5
10

$$$$
