REMARK  Name = 10366595
REMARK  10 active torsions:
REMARK  status: ('A' for Active; 'I' for Inactive)
REMARK    1  A    between atoms: C_3  and  C_11
REMARK    2  A    between atoms: C_4  and  C_35
REMARK    3  A    between atoms: C_9  and  C_23
REMARK    4  A    between atoms: C_14  and  O_17
REMARK    5  A    between atoms: C_15  and  O_19
REMARK    6  A    between atoms: C_16  and  O_21
REMARK    7  A    between atoms: C_24  and  C_25
REMARK    8  A    between atoms: C_28  and  O_31
REMARK    9  A    between atoms: C_29  and  O_33
REMARK   10  A    between atoms: C_35  and  O_36
REMARK                            x       y       z     vdW  Elec       q    Type
REMARK                         _______ _______ _______ _____ _____    ______ ____
ROOT
ATOM      1  O   UNL     1      -1.348  -0.095  -0.116  0.00  0.00    -0.468 OA
ATOM      2  O   UNL     1      -1.342  -2.931   0.380  0.00  0.00    -0.469 OA
ATOM      3  C   UNL     1      -2.516  -0.915  -0.301  0.00  0.00    +0.231 C 
ATOM      4  C   UNL     1      -2.482  -2.103   0.674  0.00  0.00    +0.239 C 
ATOM      5  C   UNL     1      -0.198  -0.829  -0.015  0.00  0.00    +0.173 C 
ATOM      6  C   UNL     1      -0.195  -2.204   0.215  0.00  0.00    +0.172 C 
ATOM      7  C   UNL     1       1.009  -0.140  -0.145  0.00  0.00    +0.040 C 
ATOM      8  C   UNL     1       1.012  -2.901   0.271  0.00  0.00    +0.040 C 
ATOM      9  C   UNL     1       2.216  -0.835  -0.074  0.00  0.00    +0.003 C 
ATOM     10  C   UNL     1       2.218  -2.215   0.128  0.00  0.00    +0.003 C 
ENDROOT
BRANCH   3  11
ATOM     11  C   UNL     1      -3.717  -0.012  -0.122  0.00  0.00    +0.027 C 
ATOM     12  C   UNL     1      -4.575   0.226  -1.195  0.00  0.00    +0.040 C 
ATOM     13  C   UNL     1      -3.966   0.580   1.116  0.00  0.00    +0.040 C 
ATOM     14  C   UNL     1      -5.073   1.412   1.280  0.00  0.00    +0.175 C 
ATOM     15  C   UNL     1      -5.682   1.058  -1.031  0.00  0.00    +0.175 C 
ATOM     16  C   UNL     1      -5.932   1.651   0.207  0.00  0.00    +0.202 C 
BRANCH  14  17
ATOM     17  O   UNL     1      -5.305   1.985   2.494  0.00  0.00    -0.468 OA
ATOM     18  C   UNL     1      -4.712   3.260   2.732  0.00  0.00    +0.253 C 
ENDBRANCH  14  17
BRANCH  15  19
ATOM     19  O   UNL     1      -6.514   1.283  -2.087  0.00  0.00    -0.468 OA
ATOM     20  C   UNL     1      -6.187   0.639  -3.317  0.00  0.00    +0.253 C 
ENDBRANCH  15  19
BRANCH  16  21
ATOM     21  O   UNL     1      -7.015   2.463   0.368  0.00  0.00    -0.501 OA
ATOM     22  H   UNL     1      -7.183   2.861   1.199  0.00  0.00    +0.292 HD
ENDBRANCH  16  21
ENDBRANCH   3  11
BRANCH   9  23
ATOM     23  C   UNL     1       3.475  -0.120  -0.216  0.00  0.00    +0.000 C 
ATOM     24  C   UNL     1       4.682  -0.574   0.197  0.00  0.00    +0.000 C 
BRANCH  24  25
ATOM     25  C   UNL     1       5.960   0.142   0.035  0.00  0.00    +0.006 C 
ATOM     26  C   UNL     1       6.060   1.143  -0.917  0.00  0.00    +0.037 C 
ATOM     27  C   UNL     1       7.035  -0.200   0.838  0.00  0.00    +0.037 C 
ATOM     28  C   UNL     1       8.245   0.477   0.685  0.00  0.00    +0.137 C 
ATOM     29  C   UNL     1       7.270   1.821  -1.071  0.00  0.00    +0.137 C 
ATOM     30  C   UNL     1       8.362   1.488  -0.270  0.00  0.00    +0.073 C 
BRANCH  28  31
ATOM     31  O   UNL     1       9.311   0.153   1.466  0.00  0.00    -0.505 OA
ATOM     32  H   UNL     1       9.233  -0.526   2.107  0.00  0.00    +0.292 HD
ENDBRANCH  28  31
BRANCH  29  33
ATOM     33  O   UNL     1       7.384   2.807  -2.002  0.00  0.00    -0.505 OA
ATOM     34  H   UNL     1       6.651   3.031  -2.540  0.00  0.00    +0.292 HD
ENDBRANCH  29  33
ENDBRANCH  24  25
ENDBRANCH   9  23
BRANCH   4  35
ATOM     35  C   UNL     1      -3.708  -3.005   0.557  0.00  0.00    +0.185 C 
BRANCH  35  36
ATOM     36  O   UNL     1      -3.773  -3.507  -0.764  0.00  0.00    -0.378 OA
ATOM     37  H   UNL     1      -4.549  -4.083  -0.853  0.00  0.00    +0.211 HD
ENDBRANCH  35  36
ENDBRANCH   4  35
TORSDOF 10
