10364459
  -OEChem-03292013303D

 63 63  0     1  0  0  0  0  0999 V2000
    3.0677    2.4527   -0.2130 P   0  0  1  0  0  0  0  0  0  0  0  0
    0.8109   -0.9193    0.4825 F   0  0  0  0  0  0  0  0  0  0  0  0
    2.7874    1.0701    0.5645 O   0  0  0  0  0  0  0  0  0  0  0  0
    5.1334    0.3174   -0.9834 O   0  0  0  0  0  0  0  0  0  0  0  0
    6.0657   -2.3139   -0.3531 O   0  0  0  0  0  0  0  0  0  0  0  0
    3.9877   -4.2854   -0.3993 O   0  0  0  0  0  0  0  0  0  0  0  0
    1.6935   -3.5305    1.1165 O   0  0  0  0  0  0  0  0  0  0  0  0
    4.6097    2.7996    0.1030 O   0  0  0  0  0  0  0  0  0  0  0  0
    2.7080    2.4519   -1.6604 O   0  0  0  0  0  0  0  0  0  0  0  0
    2.9600   -0.1949   -0.0768 C   0  0  1  0  0  0  0  0  0  0  0  0
    4.4456   -0.5550   -0.0826 C   0  0  1  0  0  0  0  0  0  0  0  0
    4.6872   -1.9888   -0.5546 C   0  0  2  0  0  0  0  0  0  0  0  0
    2.1296   -1.2121    0.6940 C   0  0  2  0  0  0  0  0  0  0  0  0
    3.8490   -3.0039    0.2210 C   0  0  1  0  0  0  0  0  0  0  0  0
    2.3665   -2.6408    0.2232 C   0  0  1  0  0  0  0  0  0  0  0  0
    2.1720    3.7038    0.7319 C   0  0  0  0  0  0  0  0  0  0  0  0
    0.7110    3.8494    0.3268 C   0  0  0  0  0  0  0  0  0  0  0  0
   -0.1275    2.5794    0.4997 C   0  0  0  0  0  0  0  0  0  0  0  0
   -1.6072    2.6991    0.1235 C   0  0  0  0  0  0  0  0  0  0  0  0
   -2.3752    1.3807    0.2479 C   0  0  0  0  0  0  0  0  0  0  0  0
   -3.8634    1.5791   -0.0519 C   0  0  0  0  0  0  0  0  0  0  0  0
   -4.6884    0.2961    0.0841 C   0  0  0  0  0  0  0  0  0  0  0  0
   -6.1716    0.4883   -0.2402 C   0  0  0  0  0  0  0  0  0  0  0  0
   -6.9590   -0.8050   -0.0179 C   0  0  0  0  0  0  0  0  0  0  0  0
   -8.4483   -0.6063   -0.3046 C   0  0  0  0  0  0  0  0  0  0  0  0
   -9.2291   -1.9064   -0.1147 C   0  0  0  0  0  0  0  0  0  0  0  0
  -10.7151   -1.7055   -0.3662 C   0  0  0  0  0  0  0  0  0  0  0  0
    2.5714   -0.1084   -1.0984 H   0  0  0  0  0  0  0  0  0  0  0  0
    4.8898   -0.3840    0.9049 H   0  0  0  0  0  0  0  0  0  0  0  0
    4.5100   -2.0802   -1.6328 H   0  0  0  0  0  0  0  0  0  0  0  0
    2.2905   -1.1150    1.7741 H   0  0  0  0  0  0  0  0  0  0  0  0
    4.2254   -3.1206    1.2443 H   0  0  0  0  0  0  0  0  0  0  0  0
    1.9175   -2.7964   -0.7643 H   0  0  0  0  0  0  0  0  0  0  0  0
    2.6700    4.6655    0.5637 H   0  0  0  0  0  0  0  0  0  0  0  0
    2.2579    3.4785    1.8003 H   0  0  0  0  0  0  0  0  0  0  0  0
    4.7376    0.2130   -1.8655 H   0  0  0  0  0  0  0  0  0  0  0  0
    6.2596   -2.2291    0.5961 H   0  0  0  0  0  0  0  0  0  0  0  0
    3.6693   -4.2130   -1.3153 H   0  0  0  0  0  0  0  0  0  0  0  0
    2.0659   -3.4050    2.0060 H   0  0  0  0  0  0  0  0  0  0  0  0
    0.6616    4.1610   -0.7234 H   0  0  0  0  0  0  0  0  0  0  0  0
    0.2614    4.6570    0.9166 H   0  0  0  0  0  0  0  0  0  0  0  0
   -0.0535    2.2463    1.5426 H   0  0  0  0  0  0  0  0  0  0  0  0
    0.3063    1.7810   -0.1129 H   0  0  0  0  0  0  0  0  0  0  0  0
   -1.6865    3.0665   -0.9071 H   0  0  0  0  0  0  0  0  0  0  0  0
   -2.0727    3.4566    0.7661 H   0  0  0  0  0  0  0  0  0  0  0  0
   -2.2577    0.9822    1.2627 H   0  0  0  0  0  0  0  0  0  0  0  0
   -1.9528    0.6405   -0.4419 H   0  0  0  0  0  0  0  0  0  0  0  0
   -3.9766    1.9712   -1.0703 H   0  0  0  0  0  0  0  0  0  0  0  0
   -4.2723    2.3381    0.6267 H   0  0  0  0  0  0  0  0  0  0  0  0
   -4.5870   -0.0825    1.1088 H   0  0  0  0  0  0  0  0  0  0  0  0
   -4.2712   -0.4717   -0.5793 H   0  0  0  0  0  0  0  0  0  0  0  0
   -6.5833    1.2821    0.3948 H   0  0  0  0  0  0  0  0  0  0  0  0
   -6.2807    0.8165   -1.2808 H   0  0  0  0  0  0  0  0  0  0  0  0
    5.3184    2.2975   -0.3521 H   0  0  0  0  0  0  0  0  0  0  0  0
   -6.5598   -1.5925   -0.6686 H   0  0  0  0  0  0  0  0  0  0  0  0
   -6.8282   -1.1435    1.0172 H   0  0  0  0  0  0  0  0  0  0  0  0
   -8.5811   -0.2460   -1.3320 H   0  0  0  0  0  0  0  0  0  0  0  0
   -8.8499    0.1659    0.3628 H   0  0  0  0  0  0  0  0  0  0  0  0
   -8.8479   -2.6732   -0.7990 H   0  0  0  0  0  0  0  0  0  0  0  0
   -9.0859   -2.2814    0.9054 H   0  0  0  0  0  0  0  0  0  0  0  0
  -11.1341   -0.9682    0.3260 H   0  0  0  0  0  0  0  0  0  0  0  0
  -11.2539   -2.6478   -0.2258 H   0  0  0  0  0  0  0  0  0  0  0  0
  -10.8965   -1.3593   -1.3887 H   0  0  0  0  0  0  0  0  0  0  0  0
  1  3  1  0  0  0  0
  1  8  1  0  0  0  0
  1  9  2  0  0  0  0
  1 16  1  0  0  0  0
  2 13  1  0  0  0  0
  3 10  1  0  0  0  0
  4 11  1  0  0  0  0
  4 36  1  0  0  0  0
  5 12  1  0  0  0  0
  5 37  1  0  0  0  0
  6 14  1  0  0  0  0
  6 38  1  0  0  0  0
  7 15  1  0  0  0  0
  7 39  1  0  0  0  0
  8 54  1  0  0  0  0
 10 11  1  0  0  0  0
 10 13  1  0  0  0  0
 10 28  1  0  0  0  0
 11 12  1  0  0  0  0
 11 29  1  0  0  0  0
 12 14  1  0  0  0  0
 12 30  1  0  0  0  0
 13 15  1  0  0  0  0
 13 31  1  0  0  0  0
 14 15  1  0  0  0  0
 14 32  1  0  0  0  0
 15 33  1  0  0  0  0
 16 17  1  0  0  0  0
 16 34  1  0  0  0  0
 16 35  1  0  0  0  0
 17 18  1  0  0  0  0
 17 40  1  0  0  0  0
 17 41  1  0  0  0  0
 18 19  1  0  0  0  0
 18 42  1  0  0  0  0
 18 43  1  0  0  0  0
 19 20  1  0  0  0  0
 19 44  1  0  0  0  0
 19 45  1  0  0  0  0
 20 21  1  0  0  0  0
 20 46  1  0  0  0  0
 20 47  1  0  0  0  0
 21 22  1  0  0  0  0
 21 48  1  0  0  0  0
 21 49  1  0  0  0  0
 22 23  1  0  0  0  0
 22 50  1  0  0  0  0
 22 51  1  0  0  0  0
 23 24  1  0  0  0  0
 23 52  1  0  0  0  0
 23 53  1  0  0  0  0
 24 25  1  0  0  0  0
 24 55  1  0  0  0  0
 24 56  1  0  0  0  0
 25 26  1  0  0  0  0
 25 57  1  0  0  0  0
 25 58  1  0  0  0  0
 26 27  1  0  0  0  0
 26 59  1  0  0  0  0
 26 60  1  0  0  0  0
 27 61  1  0  0  0  0
 27 62  1  0  0  0  0
 27 63  1  0  0  0  0
M  END
> <PUBCHEM_COMPOUND_CID>
10364459

> <PUBCHEM_CONFORMER_RMSD>
1.6

> <PUBCHEM_CONFORMER_DIVERSEORDER>
1
69
4
80
85
58
36
5
3
2
81
18
68
26
40
65
14
10
76
31
54
73
33
44
27
22
46
79
50
52
56
21
82
61
63
13
41
71
8
34
70
67
51
66
28
86
78
37
84
60
30
29
12
57
47
49
83
53
32
35
42
74
6
45
7
72
16
64
62
11
23
9
38
75
43
25
77
55
19
15
24
59
20
17
48
39

> <PUBCHEM_MMFF94_PARTIAL_CHARGES>
20
1 1.24
10 0.28
11 0.28
12 0.28
13 0.34
14 0.28
15 0.28
2 -0.34
3 -0.55
36 0.4
37 0.4
38 0.4
39 0.4
4 -0.68
5 -0.68
54 0.5
6 -0.68
7 -0.68
8 -0.77
9 -0.7

> <PUBCHEM_EFFECTIVE_ROTOR_COUNT>
14.2

> <PUBCHEM_PHARMACOPHORE_FEATURES>
12
1 27 hydrophobe
1 4 acceptor
1 4 donor
1 5 acceptor
1 5 donor
1 6 acceptor
1 6 donor
1 7 acceptor
1 7 donor
1 8 acceptor
1 9 acceptor
6 10 11 12 13 14 15 rings

> <PUBCHEM_HEAVY_ATOM_COUNT>
27

> <PUBCHEM_ATOM_DEF_STEREO_COUNT>
6

> <PUBCHEM_ATOM_UDEF_STEREO_COUNT>
0

> <PUBCHEM_BOND_DEF_STEREO_COUNT>
0

> <PUBCHEM_BOND_UDEF_STEREO_COUNT>
0

> <PUBCHEM_ISOTOPIC_ATOM_COUNT>
0

> <PUBCHEM_COMPONENT_COUNT>
1

> <PUBCHEM_CACTVS_TAUTO_COUNT>
1

> <PUBCHEM_CONFORMER_ID>
009E262B00000001

> <PUBCHEM_MMFF94_ENERGY>
13.7659

> <PUBCHEM_FEATURE_SELFOVERLAP>
60.93

> <PUBCHEM_SHAPE_FINGERPRINT>
11204353 107 18262521524122791075
12838863 1 18188202105795689002
13533116 47 18412262865857714729
1361 2 18409447020646581497
13989917 61 18411138082584489731
15328684 2 17274559676406026155
15483637 11 17977103792860974683
17492 89 18267021648366393432
20028762 73 18270120102646864182
20165401 70 18271520996957531015
21197605 99 18413670197654165606
24893989 43 17845094159023932591
2835820 82 18411418411174041475
439807 62 18409731755915043077
46194498 28 17748545956694079605
5047190 2 18058153085911870783
5309563 4 18340206276166868337

> <PUBCHEM_SHAPE_MULTIPOLES>
511.14
23.85
5.45
0.85
85.94
0.02
-0.1
20.42
-4.39
-8.58
0.57
-0.57
-0.1
-0.33

> <PUBCHEM_SHAPE_SELFOVERLAP>
974.433

> <PUBCHEM_SHAPE_VOLUME>
313.6

> <PUBCHEM_COORDINATE_TYPE>
2
5
10

$$$$
