REMARK  Name = 10367662
REMARK  11 active torsions:
REMARK  status: ('A' for Active; 'I' for Inactive)
REMARK    1  A    between atoms: C_3  and  C_7
REMARK    2  A    between atoms: C_4  and  N_22
REMARK    3  A    between atoms: C_8  and  C_13
REMARK    4  A    between atoms: C_13  and  S_14
REMARK    5  A    between atoms: S_14  and  C_15
REMARK    6  A    between atoms: C_15  and  C_16
REMARK    7  A    between atoms: C_16  and  C_18
REMARK    8  A    between atoms: C_18  and  O_19
REMARK    9  A    between atoms: C_23  and  O_25
REMARK   10  A    between atoms: O_25  and  C_26
REMARK   11  A    between atoms: C_26  and  C_29
REMARK                            x       y       z     vdW  Elec       q    Type
REMARK                         _______ _______ _______ _____ _____    ______ ____
ROOT
ATOM      1  O   UNL     1       4.066  -2.724   0.369  0.00  0.00    -0.352 OA
ATOM      2  N   UNL     1       5.368  -2.248   0.469  0.00  0.00    -0.080 NA
ATOM      3  C   UNL     1       3.214  -1.676   0.235  0.00  0.00    +0.190 A 
ATOM      4  C   UNL     1       3.921  -0.503   0.243  0.00  0.00    +0.107 A 
ATOM      5  C   UNL     1       5.256  -0.919   0.391  0.00  0.00    +0.114 A 
ATOM      6  C   UNL     1       6.466  -0.082   0.461  0.00  0.00    +0.057 C 
ENDROOT
BRANCH   3   7
ATOM      7  C   UNL     1       1.819  -2.026   0.125  0.00  0.00    +0.038 C 
ATOM      8  C   UNL     1      -0.879  -2.702  -0.090  0.00  0.00    -0.011 C 
ATOM      9  C   UNL     1       1.383  -2.830  -0.928  0.00  0.00    +0.003 C 
ATOM     10  C   UNL     1       0.906  -1.560   1.071  0.00  0.00    +0.003 C 
ATOM     11  C   UNL     1       0.034  -3.168  -1.036  0.00  0.00    -0.003 C 
ATOM     12  C   UNL     1      -0.443  -1.898   0.963  0.00  0.00    -0.003 C 
BRANCH   8  13
ATOM     13  C   UNL     1      -2.322  -3.063  -0.205  0.00  0.00    +0.084 C 
BRANCH  13  14
ATOM     14  S   UNL     1      -3.264  -1.863  -1.193  0.00  0.00    -0.135 S 
BRANCH  14  15
ATOM     15  C   UNL     1      -4.887  -2.650  -1.080  0.00  0.00    +0.070 C 
BRANCH  15  16
ATOM     16  C   UNL     1      -5.551  -2.401   0.267  0.00  0.00    +0.121 C 
BRANCH  16  18
ATOM     17  O   UNL     1      -6.476  -0.217  -0.193  0.00  0.00    -0.250 OA
ATOM     18  C   UNL     1      -5.787  -0.931   0.524  0.00  0.00    +0.315 C 
BRANCH  18  19
ATOM     19  O   UNL     1      -5.138  -0.475   1.623  0.00  0.00    -0.480 OA
ATOM     20  H   UNL     1      -4.622  -1.062   2.141  0.00  0.00    +0.295 HD
ENDBRANCH  18  19
ENDBRANCH  16  18
ENDBRANCH  15  16
ENDBRANCH  14  15
ENDBRANCH  13  14
ENDBRANCH   8  13
ENDBRANCH   3   7
BRANCH   4  22
ATOM     21  O   UNL     1       1.490   0.494  -1.181  0.00  0.00    -0.226 OA
ATOM     22  N   UNL     1       3.417   0.769   0.133  0.00  0.00    -0.246 N 
ATOM     23  C   UNL     1       2.271   1.192  -0.546  0.00  0.00    +0.406 C 
ATOM     24  H   UNL     1       3.928   1.475   0.591  0.00  0.00    +0.158 HD
BRANCH  23  25
ATOM     25  O   UNL     1       2.130   2.547  -0.404  0.00  0.00    -0.434 OA
BRANCH  25  26
ATOM     26  C   UNL     1       0.993   3.132  -1.049  0.00  0.00    +0.194 C 
ATOM     27  C   UNL     1       1.336   4.550  -1.494  0.00  0.00    +0.052 C 
BRANCH  26  29
ATOM     28 CL   UNL     1      -1.829   2.769  -2.254  0.00  0.00    -0.082 Cl
ATOM     29  C   UNL     1      -0.185   3.103  -0.106  0.00  0.00    +0.028 C 
ATOM     30  C   UNL     1      -1.491   2.943  -0.570  0.00  0.00    +0.057 C 
ATOM     31  C   UNL     1       0.057   3.240   1.261  0.00  0.00    +0.000 C 
ATOM     32  C   UNL     1      -2.555   2.921   0.332  0.00  0.00    +0.011 C 
ATOM     33  C   UNL     1      -1.007   3.218   2.163  0.00  0.00    -0.000 C 
ATOM     34  C   UNL     1      -2.313   3.059   1.699  0.00  0.00    +0.001 C 
ENDBRANCH  26  29
ENDBRANCH  25  26
ENDBRANCH  23  25
ENDBRANCH   4  22
TORSDOF 11
