10360632
  -OEChem-03292013303D

 38 41  0     0  0  0  0  0  0999 V2000
   -1.2463   -2.6636    0.0003 O   0  0  0  0  0  0  0  0  0  0  0  0
    1.2773    2.7721   -0.0015 O   0  0  0  0  0  0  0  0  0  0  0  0
    1.2462   -2.5687    0.0013 O   0  0  0  0  0  0  0  0  0  0  0  0
   -3.7951   -2.6580   -0.0007 O   0  0  0  0  0  0  0  0  0  0  0  0
    3.7974   -2.6541   -0.0001 O   0  0  0  0  0  0  0  0  0  0  0  0
   -6.0921    1.4722   -0.0001 O   0  0  0  0  0  0  0  0  0  0  0  0
    6.1054    1.4820   -0.0007 O   0  0  0  0  0  0  0  0  0  0  0  0
   -0.0406    0.7979   -0.0006 C   0  0  0  0  0  0  0  0  0  0  0  0
   -0.0397   -0.5957   -0.0005 C   0  0  0  0  0  0  0  0  0  0  0  0
   -1.2550    1.4960   -0.0006 C   0  0  0  0  0  0  0  0  0  0  0  0
   -2.4788    0.8064   -0.0005 C   0  0  0  0  0  0  0  0  0  0  0  0
   -2.4777   -0.6076   -0.0005 C   0  0  0  0  0  0  0  0  0  0  0  0
   -1.2529   -1.2955   -0.0004 C   0  0  0  0  0  0  0  0  0  0  0  0
    2.5060    0.8010    0.0003 C   0  0  0  0  0  0  0  0  0  0  0  0
    2.5069   -0.5953    0.0000 C   0  0  0  0  0  0  0  0  0  0  0  0
    1.2321    1.5486    0.0000 C   0  0  0  0  0  0  0  0  0  0  0  0
    1.2341   -1.3446    0.0001 C   0  0  0  0  0  0  0  0  0  0  0  0
   -1.2886    2.9988    0.0015 C   0  0  0  0  0  0  0  0  0  0  0  0
   -3.7050    1.4918    0.0002 C   0  0  0  0  0  0  0  0  0  0  0  0
   -3.7029   -1.2950   -0.0004 C   0  0  0  0  0  0  0  0  0  0  0  0
    3.7208   -1.2927   -0.0003 C   0  0  0  0  0  0  0  0  0  0  0  0
    3.7189    1.5001    0.0008 C   0  0  0  0  0  0  0  0  0  0  0  0
   -4.9125    0.7930    0.0009 C   0  0  0  0  0  0  0  0  0  0  0  0
   -4.9115   -0.5983    0.0006 C   0  0  0  0  0  0  0  0  0  0  0  0
    4.9263    0.8012    0.0008 C   0  0  0  0  0  0  0  0  0  0  0  0
    4.9274   -0.5922    0.0000 C   0  0  0  0  0  0  0  0  0  0  0  0
   -0.7914    3.3784    0.9018 H   0  0  0  0  0  0  0  0  0  0  0  0
   -0.7969    3.3809   -0.9008 H   0  0  0  0  0  0  0  0  0  0  0  0
   -2.2498    3.5034    0.0063 H   0  0  0  0  0  0  0  0  0  0  0  0
   -3.8028    2.5683   -0.0009 H   0  0  0  0  0  0  0  0  0  0  0  0
    3.7342    2.5873    0.0009 H   0  0  0  0  0  0  0  0  0  0  0  0
   -5.8542   -1.1403    0.0006 H   0  0  0  0  0  0  0  0  0  0  0  0
    5.8765   -1.1231   -0.0005 H   0  0  0  0  0  0  0  0  0  0  0  0
   -0.4083   -3.0020   -0.3497 H   0  0  0  0  0  0  0  0  0  0  0  0
   -2.9178   -3.0670   -0.0123 H   0  0  0  0  0  0  0  0  0  0  0  0
    4.7299   -2.9299   -0.0002 H   0  0  0  0  0  0  0  0  0  0  0  0
   -5.9120    2.4278   -0.0001 H   0  0  0  0  0  0  0  0  0  0  0  0
    5.9194    2.4367   -0.0005 H   0  0  0  0  0  0  0  0  0  0  0  0
  1 13  1  0  0  0  0
  1 34  1  0  0  0  0
  2 16  2  0  0  0  0
  3 17  2  0  0  0  0
  4 20  1  0  0  0  0
  4 35  1  0  0  0  0
  5 21  1  0  0  0  0
  5 36  1  0  0  0  0
  6 23  1  0  0  0  0
  6 37  1  0  0  0  0
  7 25  1  0  0  0  0
  7 38  1  0  0  0  0
  8  9  2  0  0  0  0
  8 10  1  0  0  0  0
  8 16  1  0  0  0  0
  9 13  1  0  0  0  0
  9 17  1  0  0  0  0
 10 11  2  0  0  0  0
 10 18  1  0  0  0  0
 11 12  1  0  0  0  0
 11 19  1  0  0  0  0
 12 13  2  0  0  0  0
 12 20  1  0  0  0  0
 14 15  2  0  0  0  0
 14 16  1  0  0  0  0
 14 22  1  0  0  0  0
 15 17  1  0  0  0  0
 15 21  1  0  0  0  0
 18 27  1  0  0  0  0
 18 28  1  0  0  0  0
 18 29  1  0  0  0  0
 19 23  2  0  0  0  0
 19 30  1  0  0  0  0
 20 24  2  0  0  0  0
 21 26  2  0  0  0  0
 22 25  2  0  0  0  0
 22 31  1  0  0  0  0
 23 24  1  0  0  0  0
 24 32  1  0  0  0  0
 25 26  1  0  0  0  0
 26 33  1  0  0  0  0
M  END
> <PUBCHEM_COMPOUND_CID>
10360632

> <PUBCHEM_CONFORMER_RMSD>
0.6

> <PUBCHEM_CONFORMER_DIVERSEORDER>
1

> <PUBCHEM_MMFF94_PARTIAL_CHARGES>
33
1 -0.53
10 -0.14
13 0.08
14 0.09
15 0.09
16 0.4
17 0.4
18 0.14
19 -0.15
2 -0.57
20 0.08
21 0.08
22 -0.15
23 0.08
24 -0.15
25 0.08
26 -0.15
3 -0.57
30 0.15
31 0.15
32 0.15
33 0.15
34 0.45
35 0.45
36 0.45
37 0.45
38 0.45
4 -0.53
5 -0.53
6 -0.53
7 -0.53
8 0.09
9 0.09

> <PUBCHEM_EFFECTIVE_ROTOR_COUNT>
0

> <PUBCHEM_PHARMACOPHORE_FEATURES>
11
1 1 donor
1 2 acceptor
1 3 acceptor
1 4 donor
1 5 donor
1 6 donor
1 7 donor
6 11 12 19 20 23 24 rings
6 14 15 21 22 25 26 rings
6 8 9 10 11 12 13 rings
6 8 9 14 15 16 17 rings

> <PUBCHEM_HEAVY_ATOM_COUNT>
26

> <PUBCHEM_ATOM_DEF_STEREO_COUNT>
0

> <PUBCHEM_ATOM_UDEF_STEREO_COUNT>
0

> <PUBCHEM_BOND_DEF_STEREO_COUNT>
0

> <PUBCHEM_BOND_UDEF_STEREO_COUNT>
0

> <PUBCHEM_ISOTOPIC_ATOM_COUNT>
0

> <PUBCHEM_COMPONENT_COUNT>
1

> <PUBCHEM_CACTVS_TAUTO_COUNT>
996

> <PUBCHEM_CONFORMER_ID>
009E173800000001

> <PUBCHEM_MMFF94_ENERGY>
101.8006

> <PUBCHEM_FEATURE_SELFOVERLAP>
55.906

> <PUBCHEM_SHAPE_FINGERPRINT>
10411042 1 17617941778144077675
10616163 171 18339363062385748406
10906281 52 18338816557809199941
10967382 1 18410855477360836964
1100329 8 18411139181663366969
11112241 14 16484416668294913128
11135609 12 17823714134241909563
11578080 2 16952518096821746543
12011746 2 18411983541915483244
12107183 9 17763748684927343544
12236239 1 18410572885639829856
12788726 201 17703797967984183801
12838862 33 18338497699421794852
13140716 1 18338797947784601849
13402501 40 18410856563934789348
138480 1 14951810145683798689
14341114 176 18410862040065545051
14790565 3 18410862057235436369
15196674 1 18410856563945455782
15536298 74 18413670205605582306
15927050 60 17477767248568898004
1601671 61 18410292532019023980
17492 89 18338516339949397514
1813 80 17168147827465383940
18681886 176 18338796844748373816
19141452 34 18411138039470714789
19591789 44 18338797939395068583
200 152 18131630093304330761
20642791 178 18115601472666185653
21033648 29 17774145929210143746
21236236 1 18412262874341920359
21267235 1 18410864247652614758
21279426 13 18337953376983532221
21421861 104 17969496009477050954
21792934 111 18266727000725090353
221490 88 18264212576719930787
23402539 116 18342452668790379221
23559900 14 18341607156996729144
3004659 81 18261112933678050398
335352 9 18410575050572444287
338550 245 18334299802760234276
34934 24 18410852165909585135
350125 39 18410292510860899988
3545911 37 18410856559661122452
3633792 109 18267860593957810757
3680242 22 18262515879801683594
4073 2 18114187470510808298
4214541 1 18410575097896198881
5104073 3 18410573985156856747
59755656 215 18410576149904665468
9709674 26 18409736178829778010

> <PUBCHEM_SHAPE_MULTIPOLES>
493.98
11.5
3.02
0.59
0.67
0.33
0
-1.26
0
-0.14
0
-0.01
-0.02
0

> <PUBCHEM_SHAPE_SELFOVERLAP>
1141.538

> <PUBCHEM_SHAPE_VOLUME>
252.3

> <PUBCHEM_COORDINATE_TYPE>
2
5
10

$$$$
