REMARK  Name = 10368235
REMARK  7 active torsions:
REMARK  status: ('A' for Active; 'I' for Inactive)
REMARK    1  A    between atoms: C_2  and  C_35
REMARK    2  A    between atoms: C_6  and  C_28
REMARK    3  A    between atoms: C_12  and  O_31
REMARK    4  A    between atoms: C_18  and  O_25
REMARK    5  A    between atoms: C_28  and  O_29
REMARK    6  A    between atoms: O_31  and  C_33
REMARK    7  A    between atoms: C_35  and  O_36
REMARK                            x       y       z     vdW  Elec       q    Type
REMARK                         _______ _______ _______ _____ _____    ______ ____
ROOT
ATOM      1  O   UNL     1       1.413   0.398   2.369  0.00  0.00    -0.291 OA
ATOM      2  C   UNL     1      -1.541  -0.287  -1.002  0.00  0.00    +0.031 C 
ATOM      3  C   UNL     1       0.950  -1.034  -0.330  0.00  0.00    +0.021 C 
ATOM      4  C   UNL     1      -0.038   0.135  -0.682  0.00  0.00    +0.025 C 
ATOM      5  C   UNL     1      -2.041  -1.165   0.209  0.00  0.00    +0.006 C 
ATOM      6  C   UNL     1       2.302  -0.377   0.194  0.00  0.00    +0.154 C 
ATOM      7  C   UNL     1       0.308  -1.972   0.731  0.00  0.00    +0.001 C 
ATOM      8  C   UNL     1      -3.584  -1.476   0.247  0.00  0.00    +0.037 C 
ATOM      9  C   UNL     1      -1.134  -2.392   0.426  0.00  0.00    +0.000 C 
ATOM     10  C   UNL     1       2.968   0.624  -0.854  0.00  0.00    +0.081 C 
ATOM     11  C   UNL     1      -2.430   0.997  -1.056  0.00  0.00    +0.006 C 
ATOM     12  C   UNL     1      -4.393  -0.151   0.102  0.00  0.00    +0.169 C 
ATOM     13  C   UNL     1       0.604   1.066  -1.688  0.00  0.00    -0.034 C 
ATOM     14  C   UNL     1      -3.938   0.725  -1.062  0.00  0.00    +0.044 C 
ATOM     15  C   UNL     1       1.265  -1.930  -1.570  0.00  0.00    +0.001 C 
ATOM     16  C   UNL     1       1.930   1.278  -1.798  0.00  0.00    -0.041 C 
ATOM     17  C   UNL     1       2.130   0.579   1.395  0.00  0.00    +0.182 C 
ATOM     18  C   UNL     1       3.534   1.698   0.069  0.00  0.00    +0.113 C 
ATOM     19  C   UNL     1      -3.958  -2.120   1.610  0.00  0.00    +0.004 C 
ATOM     20  C   UNL     1      -4.036  -2.475  -0.838  0.00  0.00    +0.004 C 
ATOM     21  C   UNL     1       4.118  -0.019  -1.661  0.00  0.00    +0.013 C 
ATOM     22  C   UNL     1       3.041   1.735   1.310  0.00  0.00    +0.043 C 
ATOM     23  C   UNL     1       2.417   2.213  -2.881  0.00  0.00    +0.026 C 
ATOM     24  C   UNL     1       3.283   2.647   2.451  0.00  0.00    +0.037 C 
ENDROOT
BRANCH  18  25
ATOM     25  O   UNL     1       4.473   2.562  -0.437  0.00  0.00    -0.510 OA
ATOM     26  H   UNL     1       4.767   2.469  -1.322  0.00  0.00    +0.292 HD
ENDBRANCH  18  25
BRANCH   6  28
ATOM     27  O   UNL     1       3.618  -2.422  -0.038  0.00  0.00    -0.250 OA
ATOM     28  C   UNL     1       3.250  -1.477   0.661  0.00  0.00    +0.324 C 
BRANCH  28  29
ATOM     29  O   UNL     1       3.642  -1.283   1.958  0.00  0.00    -0.444 OA
ATOM     30  C   UNL     1       4.537  -2.264   2.493  0.00  0.00    +0.256 C 
ENDBRANCH  28  29
ENDBRANCH   6  28
BRANCH  12  31
ATOM     31  O   UNL     1      -4.336   0.629   1.301  0.00  0.00    -0.452 OA
BRANCH  31  33
ATOM     32  O   UNL     1      -6.078   1.970   0.634  0.00  0.00    -0.250 OA
ATOM     33  C   UNL     1      -5.048   1.797   1.286  0.00  0.00    +0.317 C 
ATOM     34  C   UNL     1      -4.400   2.861   2.185  0.00  0.00    +0.121 C 
ENDBRANCH  31  33
ENDBRANCH  12  31
BRANCH   2  35
ATOM     35  C   UNL     1      -1.643  -0.989  -2.379  0.00  0.00    +0.137 C 
BRANCH  35  36
ATOM     36  O   UNL     1      -1.185  -0.082  -3.355  0.00  0.00    -0.382 OA
ATOM     37  H   UNL     1      -1.238  -0.496  -4.231  0.00  0.00    +0.210 HD
ENDBRANCH  35  36
ENDBRANCH   2  35
TORSDOF 7
