REMARK  Name = 10360006
REMARK  6 active torsions:
REMARK  status: ('A' for Active; 'I' for Inactive)
REMARK    1  A    between atoms: N_2  and  C1*_12
REMARK    2  A    between atoms: N_4  and  C_21
REMARK    3  A    between atoms: C3*_13  and  O3*_16
REMARK    4  A    between atoms: C4*_15  and  C5*_18
REMARK    5  A    between atoms: C5*_18  and  O5*_19
REMARK    6  A    between atoms: C_21  and  C_22
REMARK                            x       y       z     vdW  Elec       q    Type
REMARK                         _______ _______ _______ _____ _____    ______ ____
ROOT
ATOM      1  O   UNL     1       2.164  -2.579   0.021  0.00  0.00    -0.268 OA
ATOM      2  N   UNL     1      -1.787  -0.407   0.176  0.00  0.00    -0.249 N 
ATOM      3  N   UNL     1      -0.712  -2.234  -0.534  0.00  0.00    -0.241 NA
ATOM      4  N   UNL     1       2.082  -0.489   1.104  0.00  0.00    -0.250 N 
ATOM      5  N   UNL     1       0.022   0.771   1.272  0.00  0.00    -0.232 NA
ATOM      6  C   UNL     1      -0.492  -0.269   0.579  0.00  0.00    +0.154 C 
ATOM      7  C   UNL     1      -1.870  -1.605  -0.490  0.00  0.00    +0.223 C 
ATOM      8  C   UNL     1       0.142  -1.402   0.130  0.00  0.00    +0.163 C 
ATOM      9  C   UNL     1       1.548  -1.586   0.389  0.00  0.00    +0.271 C 
ATOM     10  C   UNL     1       1.294   0.610   1.504  0.00  0.00    +0.224 C 
ENDROOT
BRANCH   2  12
ATOM     11  O4* UNL     1      -4.117  -0.196   0.567  0.00  0.00    -0.335 OA
ATOM     12  C1* UNL     1      -2.885   0.526   0.401  0.00  0.00    +0.197 C 
ATOM     13  C3* UNL     1      -4.571   1.853  -0.562  0.00  0.00    +0.144 C 
ATOM     14  C2* UNL     1      -3.107   1.516  -0.734  0.00  0.00    +0.083 C 
ATOM     15  C4* UNL     1      -5.177   0.538  -0.083  0.00  0.00    +0.173 C 
BRANCH  13  16
ATOM     16  O3* UNL     1      -4.689   2.836   0.465  0.00  0.00    -0.382 OA
ATOM     17  H3* UNL     1      -4.304   3.671   0.159  0.00  0.00    +0.210 HD
ENDBRANCH  13  16
BRANCH  15  18
ATOM     18  C5* UNL     1      -5.709  -0.314  -1.227  0.00  0.00    +0.169 C 
BRANCH  18  19
ATOM     19  O5* UNL     1      -6.239  -1.513  -0.691  0.00  0.00    -0.379 OA
ATOM     20  H5* UNL     1      -6.582  -2.065  -1.410  0.00  0.00    +0.211 HD
ENDBRANCH  18  19
ENDBRANCH  15  18
ENDBRANCH   2  12
BRANCH   4  21
ATOM     21  C   UNL     1       3.497  -0.494   1.440  0.00  0.00    +0.122 C 
BRANCH  21  22
ATOM     22  C   UNL     1       4.331   0.147   0.368  0.00  0.00    -0.002 C 
ATOM     23  C   UNL     1       4.587   1.512   0.421  0.00  0.00    -0.003 C 
ATOM     24  C   UNL     1       4.838  -0.631  -0.666  0.00  0.00    -0.003 C 
ATOM     25  C   UNL     1       5.362   2.108  -0.574  0.00  0.00    -0.000 C 
ATOM     26  C   UNL     1       5.613  -0.035  -1.661  0.00  0.00    -0.000 C 
ATOM     27  C   UNL     1       5.875   1.334  -1.615  0.00  0.00    -0.000 C 
ENDBRANCH  21  22
ENDBRANCH   4  21
TORSDOF 6
