REMARK  Name = 10360893
REMARK  9 active torsions:
REMARK  status: ('A' for Active; 'I' for Inactive)
REMARK    1  A    between atoms: C_1  and  C_25
REMARK    2  A    between atoms: C_2  and  O_7
REMARK    3  A    between atoms: C_3  and  C_12
REMARK    4  A    between atoms: C_4  and  O_9
REMARK    5  A    between atoms: C_12  and  C_14
REMARK    6  A    between atoms: C_14  and  C_15
REMARK    7  A    between atoms: C_16  and  O_23
REMARK    8  A    between atoms: C_19  and  O_21
REMARK    9  A    between atoms: C_25  and  C_26
REMARK                            x       y       z     vdW  Elec       q    Type
REMARK                         _______ _______ _______ _____ _____    ______ ____
ROOT
ATOM      1  C   UNL     1      -2.688  -0.830  -0.619  0.00  0.00    +0.050 C 
ATOM      2  C   UNL     1      -1.797  -1.034   0.426  0.00  0.00    +0.136 C 
ATOM      3  C   UNL     1      -0.539  -1.575   0.162  0.00  0.00    +0.076 C 
ATOM      4  C   UNL     1      -2.345  -1.157  -1.923  0.00  0.00    +0.133 C 
ATOM      5  C   UNL     1      -0.184  -1.908  -1.146  0.00  0.00    +0.009 C 
ATOM      6  C   UNL     1      -1.087  -1.699  -2.188  0.00  0.00    +0.037 C 
ENDROOT
BRANCH   2   7
ATOM      7  O   UNL     1      -2.146  -0.708   1.705  0.00  0.00    -0.506 OA
ATOM      8  H   UNL     1      -2.991  -0.344   1.882  0.00  0.00    +0.292 HD
ENDBRANCH   2   7
BRANCH   4   9
ATOM      9  O   UNL     1      -3.213  -0.960  -2.954  0.00  0.00    -0.506 OA
ATOM     10  H   UNL     1      -4.061  -0.597  -2.790  0.00  0.00    +0.292 HD
ENDBRANCH   4   9
BRANCH   3  12
ATOM     11  O   UNL     1       0.106  -2.082   2.396  0.00  0.00    -0.283 OA
ATOM     12  C   UNL     1       0.420  -1.803   1.234  0.00  0.00    +0.237 C 
BRANCH  12  14
ATOM     13  O   UNL     1       2.542  -2.754   1.196  0.00  0.00    -0.283 OA
ATOM     14  C   UNL     1       1.905  -1.733   0.982  0.00  0.00    +0.237 C 
BRANCH  14  15
ATOM     15  C   UNL     1       2.527  -0.477   0.503  0.00  0.00    +0.076 C 
ATOM     16  C   UNL     1       3.658  -0.524  -0.290  0.00  0.00    +0.140 C 
ATOM     17  C   UNL     1       1.946   0.723   0.871  0.00  0.00    +0.009 C 
ATOM     18  C   UNL     1       4.229   0.670  -0.731  0.00  0.00    +0.074 C 
ATOM     19  C   UNL     1       3.658   1.890  -0.371  0.00  0.00    +0.142 C 
ATOM     20  C   UNL     1       2.517   1.917   0.431  0.00  0.00    +0.037 C 
BRANCH  19  21
ATOM     21  O   UNL     1       4.214   3.055  -0.801  0.00  0.00    -0.471 OA
ATOM     22  C   UNL     1       3.579   4.267  -0.396  0.00  0.00    +0.252 C 
ENDBRANCH  19  21
BRANCH  16  23
ATOM     23  O   UNL     1       4.230  -1.707  -0.654  0.00  0.00    -0.505 OA
ATOM     24  H   UNL     1       3.857  -2.516  -0.364  0.00  0.00    +0.292 HD
ENDBRANCH  16  23
ENDBRANCH  14  15
ENDBRANCH  12  14
ENDBRANCH   3  12
BRANCH   1  25
ATOM     25  C   UNL     1      -4.049  -0.244  -0.334  0.00  0.00    +0.058 C 
BRANCH  25  26
ATOM     26  C   UNL     1      -4.053   1.257  -0.413  0.00  0.00    -0.030 C 
ATOM     27  C   UNL     1      -4.349   2.136   0.564  0.00  0.00    -0.048 C 
ATOM     28  C   UNL     1      -4.334   3.631   0.419  0.00  0.00    +0.026 C 
ATOM     29  C   UNL     1      -4.747   1.649   1.932  0.00  0.00    +0.026 C 
ENDBRANCH  25  26
ENDBRANCH   1  25
TORSDOF 9
