10376075
  -OEChem-03292013303D

 29 29  0     1  0  0  0  0  0999 V2000
   -1.2088   -1.2187    1.4484 O   0  0  0  0  0  0  0  0  0  0  0  0
    0.5441   -1.1796   -1.7403 O   0  0  0  0  0  0  0  0  0  0  0  0
   -4.0653   -0.4588   -0.7898 O   0  0  0  0  0  0  0  0  0  0  0  0
   -3.6274    0.7004    1.1234 O   0  0  0  0  0  0  0  0  0  0  0  0
    3.4181   -0.5033    1.4258 O   0  0  0  0  0  0  0  0  0  0  0  0
    0.2578    1.5321   -0.4423 N   0  0  0  0  0  0  0  0  0  0  0  0
    2.3712    0.5108   -0.3895 N   0  0  0  0  0  0  0  0  0  0  0  0
   -1.0908   -1.0469    0.0359 C   0  0  2  0  0  0  0  0  0  0  0  0
    0.3965   -0.9640   -0.3363 C   0  0  2  0  0  0  0  0  0  0  0  0
   -1.8416    0.2109   -0.4316 C   0  0  2  0  0  0  0  0  0  0  0  0
    1.0121    0.3878    0.0720 C   0  0  2  0  0  0  0  0  0  0  0  0
   -1.1359    1.4971    0.0086 C   0  0  0  0  0  0  0  0  0  0  0  0
   -3.2529    0.1962    0.0752 C   0  0  0  0  0  0  0  0  0  0  0  0
    3.4614    0.0521    0.3312 C   0  0  0  0  0  0  0  0  0  0  0  0
    4.7615    0.2841   -0.3909 C   0  0  0  0  0  0  0  0  0  0  0  0
   -1.5397   -1.9315   -0.4329 H   0  0  0  0  0  0  0  0  0  0  0  0
    0.9493   -1.7657    0.1695 H   0  0  0  0  0  0  0  0  0  0  0  0
   -1.8771    0.2205   -1.5304 H   0  0  0  0  0  0  0  0  0  0  0  0
    1.0312    0.4500    1.1677 H   0  0  0  0  0  0  0  0  0  0  0  0
   -1.6594    2.3678   -0.4041 H   0  0  0  0  0  0  0  0  0  0  0  0
   -1.1672    1.6162    1.0993 H   0  0  0  0  0  0  0  0  0  0  0  0
    0.2754    1.5026   -1.4618 H   0  0  0  0  0  0  0  0  0  0  0  0
    2.5215    0.9334   -1.3007 H   0  0  0  0  0  0  0  0  0  0  0  0
   -2.1351   -1.4362    1.6466 H   0  0  0  0  0  0  0  0  0  0  0  0
    0.1815   -2.0590   -1.9418 H   0  0  0  0  0  0  0  0  0  0  0  0
   -4.9940   -0.4809   -0.4748 H   0  0  0  0  0  0  0  0  0  0  0  0
    5.5976    0.1205    0.2947 H   0  0  0  0  0  0  0  0  0  0  0  0
    4.8413   -0.4129   -1.2296 H   0  0  0  0  0  0  0  0  0  0  0  0
    4.8116    1.3110   -0.7641 H   0  0  0  0  0  0  0  0  0  0  0  0
  1  8  1  0  0  0  0
  1 24  1  0  0  0  0
  2  9  1  0  0  0  0
  2 25  1  0  0  0  0
  3 13  1  0  0  0  0
  3 26  1  0  0  0  0
  4 13  2  0  0  0  0
  5 14  2  0  0  0  0
  6 11  1  0  0  0  0
  6 12  1  0  0  0  0
  6 22  1  0  0  0  0
  7 11  1  0  0  0  0
  7 14  1  0  0  0  0
  7 23  1  0  0  0  0
  8  9  1  0  0  0  0
  8 10  1  0  0  0  0
  8 16  1  0  0  0  0
  9 11  1  0  0  0  0
  9 17  1  0  0  0  0
 10 12  1  0  0  0  0
 10 13  1  0  0  0  0
 10 18  1  0  0  0  0
 11 19  1  0  0  0  0
 12 20  1  0  0  0  0
 12 21  1  0  0  0  0
 14 15  1  0  0  0  0
 15 27  1  0  0  0  0
 15 28  1  0  0  0  0
 15 29  1  0  0  0  0
M  END
> <PUBCHEM_COMPOUND_CID>
10376075

> <PUBCHEM_CONFORMER_RMSD>
0.6

> <PUBCHEM_CONFORMER_DIVERSEORDER>
1
8
13
9
11
2
6
14
12
10
3
7
4
5

> <PUBCHEM_MMFF94_PARTIAL_CHARGES>
20
1 -0.68
10 0.06
11 0.57
12 0.27
13 0.66
14 0.57
15 0.06
2 -0.68
22 0.36
23 0.37
24 0.4
25 0.4
26 0.5
3 -0.65
4 -0.57
5 -0.57
6 -0.9
7 -0.73
8 0.28
9 0.28

> <PUBCHEM_EFFECTIVE_ROTOR_COUNT>
4.2

> <PUBCHEM_PHARMACOPHORE_FEATURES>
12
1 1 acceptor
1 1 donor
1 2 acceptor
1 2 donor
1 3 acceptor
1 4 acceptor
1 5 acceptor
1 6 cation
1 6 donor
1 7 donor
3 3 4 13 anion
6 6 8 9 10 11 12 rings

> <PUBCHEM_HEAVY_ATOM_COUNT>
15

> <PUBCHEM_ATOM_DEF_STEREO_COUNT>
4

> <PUBCHEM_ATOM_UDEF_STEREO_COUNT>
0

> <PUBCHEM_BOND_DEF_STEREO_COUNT>
0

> <PUBCHEM_BOND_UDEF_STEREO_COUNT>
0

> <PUBCHEM_ISOTOPIC_ATOM_COUNT>
0

> <PUBCHEM_COMPONENT_COUNT>
1

> <PUBCHEM_CACTVS_TAUTO_COUNT>
2

> <PUBCHEM_CONFORMER_ID>
009E538B00000001

> <PUBCHEM_MMFF94_ENERGY>
22.0661

> <PUBCHEM_FEATURE_SELFOVERLAP>
60.998

> <PUBCHEM_SHAPE_FINGERPRINT>
10130415 120 18261110794256965800
10219947 1 18410292510180112829
11132069 177 18272367551262773165
11401426 45 18411692184656887285
12119455 92 17846776282753809190
12251169 10 17748828535808966388
124424 183 18113054960770206643
13380536 53 18410864234957487516
13581323 91 17095529508361935011
14993402 34 18412821417052000844
15048467 5 16732982037693290860
15207287 21 18410291419480180063
15219456 202 18129103307771702036
15775835 57 17846495933222203150
16945 1 18410290302640788693
17846911 113 18342736303861469345
18186145 218 16343412947563981856
18511873 20 17822008730823234208
19026448 4 15913611665911809381
20511035 2 18121787393666126517
22485316 2 13767921321487436496
23402539 116 18410848859122221741
23557571 272 16415487047451521737
23559900 14 18114180865631536016
3286 77 17417519319513535569
449060 50 17023190452601398524

> <PUBCHEM_SHAPE_MULTIPOLES>
269.38
7.25
1.28
1.13
3.65
0.12
0.08
0.52
0.65
-0.34
-0.06
0.02
-0.34
-0.24

> <PUBCHEM_SHAPE_SELFOVERLAP>
541.68

> <PUBCHEM_SHAPE_VOLUME>
154.9

> <PUBCHEM_COORDINATE_TYPE>
2
5
10

$$$$
