10378172
  -OEChem-03292013303D

 34 34  0     0  0  0  0  0  0999 V2000
   -0.9176    2.6651    0.2470 O   0  0  0  0  0  0  0  0  0  0  0  0
    1.2683   -2.4035    0.1542 O   0  0  0  0  0  0  0  0  0  0  0  0
   -3.3054    0.4783    1.1595 O   0  0  0  0  0  0  0  0  0  0  0  0
   -1.9894   -2.7242    0.9102 O   0  0  0  0  0  0  0  0  0  0  0  0
   -3.2378    0.6205   -1.0979 O   0  0  0  0  0  0  0  0  0  0  0  0
   -1.7705   -2.6042   -1.3694 N   0  0  0  0  0  0  0  0  0  0  0  0
    1.0030    1.2481    0.3388 C   0  0  0  0  0  0  0  0  0  0  0  0
    1.5577   -0.0316    0.3161 C   0  0  0  0  0  0  0  0  0  0  0  0
   -0.3775    1.4119    0.2233 C   0  0  0  0  0  0  0  0  0  0  0  0
   -1.2030    0.2960    0.0851 C   0  0  0  0  0  0  0  0  0  0  0  0
   -0.6483   -0.9836    0.0624 C   0  0  0  0  0  0  0  0  0  0  0  0
    0.7321   -1.1474    0.1779 C   0  0  0  0  0  0  0  0  0  0  0  0
    1.8732    2.4580    0.4863 C   0  0  0  0  0  0  0  0  0  0  0  0
    3.0021   -0.2095    0.4361 C   0  0  0  0  0  0  0  0  0  0  0  0
   -1.5044   -2.1576   -0.0810 C   0  0  0  0  0  0  0  0  0  0  0  0
   -2.6467    0.4780   -0.0328 C   0  0  0  0  0  0  0  0  0  0  0  0
    3.8758   -0.2659   -0.5902 C   0  0  0  0  0  0  0  0  0  0  0  0
   -1.0596    3.3306   -1.0052 C   0  0  0  0  0  0  0  0  0  0  0  0
    5.3478   -0.4589   -0.4202 C   0  0  0  0  0  0  0  0  0  0  0  0
    2.6625    2.2956    1.2283 H   0  0  0  0  0  0  0  0  0  0  0  0
    2.3329    2.7101   -0.4749 H   0  0  0  0  0  0  0  0  0  0  0  0
    1.3218    3.3349    0.8405 H   0  0  0  0  0  0  0  0  0  0  0  0
    3.3661   -0.3060    1.4566 H   0  0  0  0  0  0  0  0  0  0  0  0
    3.5108   -0.1712   -1.6100 H   0  0  0  0  0  0  0  0  0  0  0  0
    2.2245   -2.3853    0.3147 H   0  0  0  0  0  0  0  0  0  0  0  0
   -1.6537    2.7366   -1.7058 H   0  0  0  0  0  0  0  0  0  0  0  0
   -0.0790    3.5440   -1.4414 H   0  0  0  0  0  0  0  0  0  0  0  0
   -1.5749    4.2791   -0.8307 H   0  0  0  0  0  0  0  0  0  0  0  0
   -1.3869   -2.1449   -2.1893 H   0  0  0  0  0  0  0  0  0  0  0  0
   -2.3643   -3.4110   -1.5298 H   0  0  0  0  0  0  0  0  0  0  0  0
    5.6663   -1.3681   -0.9392 H   0  0  0  0  0  0  0  0  0  0  0  0
    5.8865    0.3906   -0.8506 H   0  0  0  0  0  0  0  0  0  0  0  0
    5.6347   -0.5478    0.6323 H   0  0  0  0  0  0  0  0  0  0  0  0
   -4.2714    0.6027    1.0420 H   0  0  0  0  0  0  0  0  0  0  0  0
  1  9  1  0  0  0  0
  1 18  1  0  0  0  0
  2 12  1  0  0  0  0
  2 25  1  0  0  0  0
  3 16  1  0  0  0  0
  3 34  1  0  0  0  0
  4 15  2  0  0  0  0
  5 16  2  0  0  0  0
  6 15  1  0  0  0  0
  6 29  1  0  0  0  0
  6 30  1  0  0  0  0
  7  8  2  0  0  0  0
  7  9  1  0  0  0  0
  7 13  1  0  0  0  0
  8 12  1  0  0  0  0
  8 14  1  0  0  0  0
  9 10  2  0  0  0  0
 10 11  1  0  0  0  0
 10 16  1  0  0  0  0
 11 12  2  0  0  0  0
 11 15  1  0  0  0  0
 13 20  1  0  0  0  0
 13 21  1  0  0  0  0
 13 22  1  0  0  0  0
 14 17  2  0  0  0  0
 14 23  1  0  0  0  0
 17 19  1  0  0  0  0
 17 24  1  0  0  0  0
 18 26  1  0  0  0  0
 18 27  1  0  0  0  0
 18 28  1  0  0  0  0
 19 31  1  0  0  0  0
 19 32  1  0  0  0  0
 19 33  1  0  0  0  0
M  END
> <PUBCHEM_COMPOUND_CID>
10378172

> <PUBCHEM_CONFORMER_RMSD>
0.6

> <PUBCHEM_CONFORMER_DIVERSEORDER>
1
5
10
8
9
7
6
3
2
4

> <PUBCHEM_MMFF94_PARTIAL_CHARGES>
25
1 -0.36
10 0.09
11 0.09
12 0.08
13 0.14
14 -0.18
15 0.54
16 0.63
17 -0.29
18 0.28
19 0.14
2 -0.53
23 0.15
24 0.15
25 0.45
29 0.37
3 -0.65
30 0.37
34 0.5
4 -0.57
5 -0.57
6 -0.8
7 -0.14
8 0.03
9 0.08

> <PUBCHEM_EFFECTIVE_ROTOR_COUNT>
4

> <PUBCHEM_PHARMACOPHORE_FEATURES>
9
1 1 acceptor
1 19 hydrophobe
1 2 donor
1 3 acceptor
1 4 acceptor
1 5 acceptor
1 6 donor
3 3 5 16 anion
6 7 8 9 10 11 12 rings

> <PUBCHEM_HEAVY_ATOM_COUNT>
19

> <PUBCHEM_ATOM_DEF_STEREO_COUNT>
0

> <PUBCHEM_ATOM_UDEF_STEREO_COUNT>
0

> <PUBCHEM_BOND_DEF_STEREO_COUNT>
1

> <PUBCHEM_BOND_UDEF_STEREO_COUNT>
0

> <PUBCHEM_ISOTOPIC_ATOM_COUNT>
0

> <PUBCHEM_COMPONENT_COUNT>
1

> <PUBCHEM_CACTVS_TAUTO_COUNT>
20

> <PUBCHEM_CONFORMER_ID>
009E5BBC00000001

> <PUBCHEM_MMFF94_ENERGY>
78.8606

> <PUBCHEM_FEATURE_SELFOVERLAP>
45.732

> <PUBCHEM_SHAPE_FINGERPRINT>
10411042 1 18193841672126913130
10967382 1 18411134706069664952
11132069 177 18341324561534129472
11206711 2 18338229341412259068
11680986 33 18123465240078498041
12011746 2 18411136896692974477
12553582 1 18410285900478535034
13140716 1 18339079409976449272
13221675 6 18410012113535612098
14115302 16 18261118477995520308
14790565 3 18339377257385251648
14911166 2 18411976944919524052
15042514 8 18409455794917211546
16752209 62 18192694675250554592
16945 1 18410566258584530544
193761 8 18050848020085926201
19591789 44 18337679735779743083
19868273 325 18337109080791765846
20510252 161 18199189477862311584
20588541 1 18412549777571594354
20645476 183 17748828492495491490
21029758 27 18261688012007569248
21160774 45 18409443652986273197
21501502 16 18197219363299080728
22182313 1 18122613113966055592
22802520 49 18270685393077412576
2334 1 18122338253318076176
23402539 116 18342734083410791884
23419403 2 15289339891783652136
23493267 7 17530963545007443865
23559900 14 18343021100029314244
2748010 2 18195236943670657368
335352 9 18412265004128643788
559249 180 17974567997436283970
81228 2 18411128160550075064
8809292 202 18408887360390396762

> <PUBCHEM_SHAPE_MULTIPOLES>
356.68
6.03
3.37
0.94
7.14
0.71
-0.13
-1.05
-0.85
-1.9
-0.44
-0.41
-0.03
0.3

> <PUBCHEM_SHAPE_SELFOVERLAP>
753.565

> <PUBCHEM_SHAPE_VOLUME>
201.9

> <PUBCHEM_COORDINATE_TYPE>
2
5
10

$$$$
