REMARK  Name = 10377006
REMARK  11 active torsions:
REMARK  status: ('A' for Active; 'I' for Inactive)
REMARK    1  A    between atoms: C_1  and  N_2
REMARK    2  A    between atoms: C_1  and  C_14
REMARK    3  A    between atoms: N_2  and  C_5
REMARK    4  A    between atoms: C_5  and  C_6
REMARK    5  A    between atoms: C_6  and  C_9
REMARK    6  A    between atoms: C_14  and  C_15
REMARK    7  A    between atoms: C_15  and  C_16
REMARK    8  A    between atoms: C_16  and  C_17
REMARK    9  A    between atoms: C_17  and  N_18
REMARK   10  A    between atoms: C_17  and  C_23
REMARK   11  A    between atoms: C_23  and  O_24
REMARK                            x       y       z     vdW  Elec       q    Type
REMARK                         _______ _______ _______ _____ _____    ______ ____
ROOT
ATOM      1  C   UNK     1       0.169  -0.293   0.018  0.00  0.00    -0.082 C 
ENDROOT
BRANCH   1   2
ATOM      2  N   UNK     1      -1.038  -0.904  -0.527  0.00  0.00    +0.384 N 
ATOM      3  H   UNK     1      -1.088  -1.876  -0.219  0.00  0.00    -0.085 HD
ATOM      4  H   UNK     1      -0.998  -0.855  -1.545  0.00  0.00    -0.085 HD
BRANCH   2   5
ATOM      5  C   UNK     1      -2.228  -0.199  -0.073  0.00  0.00    -0.076 C 
BRANCH   5   6
ATOM      6  C   UNK     1      -3.496  -0.833  -0.649  0.00  0.00    +0.019 C 
BRANCH   6   9
ATOM      7  N   UNK     1      -5.750  -0.698   0.480  0.00  0.00    -0.319 N 
ATOM      8  N   UNK     1      -6.356   1.425   0.242  0.00  0.00    -0.315 N 
ATOM      9  C   UNK     1      -4.732  -0.093  -0.203  0.00  0.00    +0.035 C 
ATOM     10  C   UNK     1      -5.130   1.217  -0.338  0.00  0.00    +0.069 C 
ATOM     11  C   UNK     1      -6.702   0.252   0.725  0.00  0.00    +0.182 C 
ATOM     12  H   UNK     1      -5.790  -1.645   0.747  0.00  0.00    +0.148 HD
ATOM     13  H   UNK     1      -6.864   2.267   0.286  0.00  0.00    +0.148 HD
ENDBRANCH   6   9
ENDBRANCH   5   6
ENDBRANCH   2   5
ENDBRANCH   1   2
BRANCH   1  14
ATOM     14  C   UNK     1       1.410  -1.037  -0.475  0.00  0.00    -0.023 C 
BRANCH  14  15
ATOM     15  C   UNK     1       2.687  -0.413   0.094  0.00  0.00    -0.004 C 
BRANCH  15  16
ATOM     16  C   UNK     1       3.972  -1.101  -0.384  0.00  0.00    -0.011 C 
BRANCH  16  17
ATOM     17  C   UNK     1       5.264  -0.542   0.226  0.00  0.00    +0.036 C 
BRANCH  17  18
ATOM     18  N   UNK     1       5.262  -0.663   1.684  0.00  0.00    +0.389 N 
ATOM     19  H   UNK     1       5.107  -1.637   1.944  0.00  0.00    -0.088 HD
ATOM     20  H   UNK     1       4.516  -0.085   2.073  0.00  0.00    -0.088 HD
ATOM     21  H   UNK     1       6.160  -0.352   2.053  0.00  0.00    -0.088 HD
ENDBRANCH  17  18
BRANCH  17  23
ATOM     22  O   UNK     1       5.558   1.800   0.734  0.00  0.00    -0.253 OA
ATOM     23  C   UNK     1       5.496   0.916  -0.113  0.00  0.00    +0.293 C 
BRANCH  23  24
ATOM     24  O   UNK     1       5.613   1.165  -1.441  0.00  0.00    -0.482 OA
ATOM     25  H   UNK     1       5.560   0.461  -2.057  0.00  0.00    +0.295 HD
ENDBRANCH  23  24
ENDBRANCH  17  23
ENDBRANCH  16  17
ENDBRANCH  15  16
ENDBRANCH  14  15
ENDBRANCH   1  14
TORSDOF 11
