10377006
  -OEChem-03292013303D

 37 37  0     1  0  0  0  0  0999 V2000
    5.6133    1.1653   -1.4411 O   0  0  0  0  0  0  0  0  0  0  0  0
    5.5583    1.7997    0.7340 O   0  0  0  0  0  0  0  0  0  0  0  0
   -1.0379   -0.9045   -0.5268 N   0  0  0  0  0  0  0  0  0  0  0  0
    5.2618   -0.6633    1.6844 N   0  0  0  0  0  0  0  0  0  0  0  0
   -5.7497   -0.6980    0.4803 N   0  0  0  0  0  0  0  0  0  0  0  0
   -6.3559    1.4251    0.2418 N   0  0  0  0  0  0  0  0  0  0  0  0
    2.6867   -0.4126    0.0942 C   0  0  0  0  0  0  0  0  0  0  0  0
    1.4098   -1.0366   -0.4746 C   0  0  0  0  0  0  0  0  0  0  0  0
    3.9722   -1.1011   -0.3836 C   0  0  0  0  0  0  0  0  0  0  0  0
    0.1685   -0.2927    0.0176 C   0  0  0  0  0  0  0  0  0  0  0  0
    5.2641   -0.5418    0.2259 C   0  0  1  0  0  0  0  0  0  0  0  0
   -2.2281   -0.1987   -0.0734 C   0  0  0  0  0  0  0  0  0  0  0  0
   -3.4957   -0.8327   -0.6494 C   0  0  0  0  0  0  0  0  0  0  0  0
   -4.7325   -0.0930   -0.2026 C   0  0  0  0  0  0  0  0  0  0  0  0
    5.4963    0.9160   -0.1134 C   0  0  0  0  0  0  0  0  0  0  0  0
   -5.1296    1.2166   -0.3382 C   0  0  0  0  0  0  0  0  0  0  0  0
   -6.7016    0.2524    0.7249 C   0  0  0  0  0  0  0  0  0  0  0  0
    2.7197    0.6476   -0.1850 H   0  0  0  0  0  0  0  0  0  0  0  0
    2.6328   -0.4496    1.1889 H   0  0  0  0  0  0  0  0  0  0  0  0
    1.3581   -2.0913   -0.1766 H   0  0  0  0  0  0  0  0  0  0  0  0
    1.4491   -1.0115   -1.5708 H   0  0  0  0  0  0  0  0  0  0  0  0
    3.9063   -2.1730   -0.1551 H   0  0  0  0  0  0  0  0  0  0  0  0
    4.0247   -1.0226   -1.4769 H   0  0  0  0  0  0  0  0  0  0  0  0
    0.2314    0.7562   -0.2965 H   0  0  0  0  0  0  0  0  0  0  0  0
    0.1423   -0.3148    1.1140 H   0  0  0  0  0  0  0  0  0  0  0  0
    6.1212   -1.1062   -0.1600 H   0  0  0  0  0  0  0  0  0  0  0  0
   -1.0873   -1.8828   -0.2440 H   0  0  0  0  0  0  0  0  0  0  0  0
   -2.2826   -0.2117    1.0230 H   0  0  0  0  0  0  0  0  0  0  0  0
   -2.1735    0.8520   -0.3851 H   0  0  0  0  0  0  0  0  0  0  0  0
   -3.4610   -0.8180   -1.7460 H   0  0  0  0  0  0  0  0  0  0  0  0
   -3.5621   -1.8845   -0.3433 H   0  0  0  0  0  0  0  0  0  0  0  0
    5.1222   -1.6387    1.9452 H   0  0  0  0  0  0  0  0  0  0  0  0
    6.1754   -0.3992    2.0516 H   0  0  0  0  0  0  0  0  0  0  0  0
   -5.7935   -1.6701    0.7561 H   0  0  0  0  0  0  0  0  0  0  0  0
   -4.5972    2.0215   -0.8242 H   0  0  0  0  0  0  0  0  0  0  0  0
   -7.6152    0.0267    1.2560 H   0  0  0  0  0  0  0  0  0  0  0  0
    5.7534    2.1188   -1.6238 H   0  0  0  0  0  0  0  0  0  0  0  0
  1 15  1  0  0  0  0
  1 37  1  0  0  0  0
  2 15  2  0  0  0  0
  3 10  1  0  0  0  0
  3 12  1  0  0  0  0
  3 27  1  0  0  0  0
  4 11  1  0  0  0  0
  4 32  1  0  0  0  0
  4 33  1  0  0  0  0
  5 14  1  0  0  0  0
  5 17  1  0  0  0  0
  5 34  1  0  0  0  0
  6 16  1  0  0  0  0
  6 17  2  0  0  0  0
  7  8  1  0  0  0  0
  7  9  1  0  0  0  0
  7 18  1  0  0  0  0
  7 19  1  0  0  0  0
  8 10  1  0  0  0  0
  8 20  1  0  0  0  0
  8 21  1  0  0  0  0
  9 11  1  0  0  0  0
  9 22  1  0  0  0  0
  9 23  1  0  0  0  0
 10 24  1  0  0  0  0
 10 25  1  0  0  0  0
 11 15  1  0  0  0  0
 11 26  1  0  0  0  0
 12 13  1  0  0  0  0
 12 28  1  0  0  0  0
 12 29  1  0  0  0  0
 13 14  1  0  0  0  0
 13 30  1  0  0  0  0
 13 31  1  0  0  0  0
 14 16  2  0  0  0  0
 16 35  1  0  0  0  0
 17 36  1  0  0  0  0
M  END
> <PUBCHEM_COMPOUND_CID>
10377006

> <PUBCHEM_CONFORMER_RMSD>
0.8

> <PUBCHEM_CONFORMER_DIVERSEORDER>
1
300
203
455
35
356
471
385
398
380
3
76
484
95
8
470
119
288
192
113
467
4
314
53
365
180
69
188
264
286
47
335
425
143
91
305
409
371
363
61
427
200
490
319
325
42
395
182
72
28
40
435
262
482
62
304
82
19
17
215
412
359
413
324
149
353
59
117
16
275
33
256
154
341
360
30
96
23
174
404
172
219
443
369
64
278
255
133
285
226
347
333
459
332
317
315
302
475
168
197
32
432
354
405
184
70
107
140
339
202
223
239
147
322
361
422
281
13
251
126
362
144
474
283
6
268
485
196
99
191
103
220
183
39
155
318
452
345
97
303
344
411
272
462
106
177
49
167
169
7
410
43
309
235
56
75
386
87
451
218
93
83
88
206
170
290
121
37
211
142
120
181
166
81
65
486
190
316
229
263
52
431
114
27
406
161
308
489
234
185
352
210
244
20
248
310
428
134
334
48
434
273
90
287
9
150
178
330
488
213
139
323
222
439
433
233
479
131
338
124
336
401
329
271
101
340
312
163
221
94
63
349
277
419
382
165
187
444
457
128
441
22
24
110
232
46
214
176
313
18
480
250
460
159
447
426
137
129
127
449
194
104
164
189
44
331
476
162
437
254
77
216
368
225
282
327
247
160
135
55
138
392
351
260
367
464
240
109
217
296
145
57
100
241
448
284
492
337
376
157
440
298
293
466
105
199
158
231
400
342
74
108
418
414
280
289
472
89
421
186
358
204
156
383
483
407
378
320
477
249
224
374
171
388
132
321
311
465
346
116
481
417
442
58
261
453
227
297
173
357
238
364
31
92
348
80
237
230
430
326
389
276
73
122
207
473
14
384
381
294
292
198
375
424
51
468
469
152
366
71
301
60
209
41
66
201
438
420
390
343
279
245
269
403
307
84
111
112
10
25
15
38
45
461
350
246
328
446
205
291
454
236
491
136
399
416
151
450
125
306
228
463
259
373
54
377
253
153
78
118
458
393
148
355
242
34
274
50
36
12
5
391
379
429
394
423
396
29
436
370
265
193
26
21
299
387
86
179
456
175
98
2
68
130
397
146
141
102
252
270
195
372
115
445
267
415
79
402
295
85
487
258
243
257
208
67
11
478
123
212
266
408

> <PUBCHEM_MMFF94_PARTIAL_CHARGES>
21
1 -0.65
10 0.27
11 0.33
12 0.27
13 0.18
14 -0.33
15 0.66
16 0.08
17 0.04
2 -0.57
27 0.36
3 -0.9
32 0.36
33 0.36
34 0.27
35 0.15
36 0.15
37 0.5
4 -0.99
5 0.03
6 -0.57

> <PUBCHEM_EFFECTIVE_ROTOR_COUNT>
9

> <PUBCHEM_PHARMACOPHORE_FEATURES>
10
1 1 acceptor
1 2 acceptor
1 3 cation
1 3 donor
1 4 cation
1 4 donor
1 5 donor
3 1 2 15 anion
3 5 6 17 cation
5 5 6 14 16 17 rings

> <PUBCHEM_HEAVY_ATOM_COUNT>
17

> <PUBCHEM_ATOM_DEF_STEREO_COUNT>
0

> <PUBCHEM_ATOM_UDEF_STEREO_COUNT>
1

> <PUBCHEM_BOND_DEF_STEREO_COUNT>
0

> <PUBCHEM_BOND_UDEF_STEREO_COUNT>
0

> <PUBCHEM_ISOTOPIC_ATOM_COUNT>
0

> <PUBCHEM_COMPONENT_COUNT>
1

> <PUBCHEM_CACTVS_TAUTO_COUNT>
2

> <PUBCHEM_CONFORMER_ID>
009E572E00000001

> <PUBCHEM_MMFF94_ENERGY>
2.8923

> <PUBCHEM_FEATURE_SELFOVERLAP>
50.805

> <PUBCHEM_SHAPE_FINGERPRINT>
11315181 36 11097861779134056903
117890 112 18412544314536717630
11858739 19 9295292741953547476
125118 31 18261675883151950301
12596602 18 17603865589845365569
12616971 3 18339345419182485510
12670543 26 13398636034778699479
13167372 99 18410010996812667840
13533116 47 17458620061267481394
13862211 1 12973602252914155147
13955234 65 17968647230178425474
1420 363 12468361236892328155
14251732 16 18334016120529139755
14251764 18 18410013256577089991
14251764 75 17026581471385570228
14933364 13 18412829083700466847
15048467 5 18272651246674032047
15183329 4 17704073992836987729
15501527 16 18343021090901575983
15716309 27 16298387951012855707
18222031 100 11959729369702098426
20281389 69 18409446977544193653
20621476 66 18059860528679711945
21130983 4 18343305864128073411
21150785 3 14117505559087040117
220451 1 17530684312183165498
2215653 11 13542466475175938974
22224240 67 17603307051445907883
23081809 10 18341603828381140103
23198884 109 14045742621618155271
23559900 14 9222930557984565711
2767999 5 17561078098965912515
2916195 48 18407758132015651375
29717793 49 12247681582391447218
300161 21 17489862730729690959
3014965 18 13901918777989931460
42788 4 18410573976720038551
4340502 62 17312820468316687586
4463277 17 18342176661365129773
465052 167 11674877780213645186
542803 24 18412542111086742999
57483677 66 8646767794047015093
59682541 52 14476971060193063308
59755656 215 11527955542677721933
6438161 24 13829862266874632236
7062679 6 18201723925173348281

> <PUBCHEM_SHAPE_MULTIPOLES>
318.19
21.01
1.36
0.97
6.79
0.44
-0.11
7.18
-2.99
-0.77
0.07
-1.06
0.04
-0.38

> <PUBCHEM_SHAPE_SELFOVERLAP>
625.483

> <PUBCHEM_SHAPE_VOLUME>
191

> <PUBCHEM_COORDINATE_TYPE>
2
5
10

$$$$
