REMARK  Name = 10378172
REMARK  6 active torsions:
REMARK  status: ('A' for Active; 'I' for Inactive)
REMARK    1  A    between atoms: C_2  and  C_13
REMARK    2  A    between atoms: C_3  and  O_16
REMARK    3  A    between atoms: C_4  and  C_21
REMARK    4  A    between atoms: C_5  and  C_10
REMARK    5  A    between atoms: C_6  and  O_18
REMARK    6  A    between atoms: C_21  and  O_22
REMARK                            x       y       z     vdW  Elec       q    Type
REMARK                         _______ _______ _______ _____ _____    ______ ____
ROOT
ATOM      1  C   UNL     1       1.003   1.248   0.339  0.00  0.00    +0.015 A 
ATOM      2  C   UNL     1       1.558  -0.032   0.316  0.00  0.00    +0.032 A 
ATOM      3  C   UNL     1      -0.378   1.412   0.223  0.00  0.00    +0.141 A 
ATOM      4  C   UNL     1      -1.203   0.296   0.085  0.00  0.00    +0.116 A 
ATOM      5  C   UNL     1      -0.648  -0.984   0.062  0.00  0.00    +0.096 A 
ATOM      6  C   UNL     1       0.732  -1.147   0.178  0.00  0.00    +0.138 A 
ATOM      7  C   UNL     1       1.873   2.458   0.486  0.00  0.00    +0.034 C 
ENDROOT
BRANCH   5  10
ATOM      8  O   UNL     1      -1.989  -2.724   0.910  0.00  0.00    -0.270 OA
ATOM      9  N   UNL     1      -1.770  -2.604  -1.369  0.00  0.00    -0.325 N 
ATOM     10  C   UNL     1      -1.504  -2.158  -0.081  0.00  0.00    +0.246 C 
ATOM     11  H   UNL     1      -2.343  -3.393  -1.509  0.00  0.00    +0.145 HD
ATOM     12  H   UNL     1      -1.386  -2.132  -2.143  0.00  0.00    +0.145 HD
ENDBRANCH   5  10
BRANCH   2  13
ATOM     13  C   UNL     1       3.002  -0.209   0.436  0.00  0.00    -0.002 C 
ATOM     14  C   UNL     1       3.876  -0.266  -0.590  0.00  0.00    -0.026 C 
ATOM     15  C   UNL     1       5.348  -0.459  -0.420  0.00  0.00    +0.031 C 
ENDBRANCH   2  13
BRANCH   3  16
ATOM     16  O   UNL     1      -0.918   2.665   0.247  0.00  0.00    -0.472 OA
ATOM     17  C   UNL     1      -1.060   3.331  -1.005  0.00  0.00    +0.252 C 
ENDBRANCH   3  16
BRANCH   6  18
ATOM     18  O   UNL     1       1.268  -2.404   0.154  0.00  0.00    -0.505 OA
ATOM     19  H   UNL     1       2.195  -2.519   0.231  0.00  0.00    +0.292 HD
ENDBRANCH   6  18
BRANCH   4  21
ATOM     20  O   UNL     1      -3.238   0.621  -1.098  0.00  0.00    -0.245 OA
ATOM     21  C   UNL     1      -2.647   0.478  -0.033  0.00  0.00    +0.341 C 
BRANCH  21  22
ATOM     22  O   UNL     1      -3.305   0.478   1.159  0.00  0.00    -0.477 OA
ATOM     23  H   UNL     1      -2.828   0.367   1.958  0.00  0.00    +0.295 HD
ENDBRANCH  21  22
ENDBRANCH   4  21
TORSDOF 6
