REMARK  Name = 10376075
REMARK  5 active torsions:
REMARK  status: ('A' for Active; 'I' for Inactive)
REMARK    1  A    between atoms: C_2  and  O_14
REMARK    2  A    between atoms: C_3  and  O_16
REMARK    3  A    between atoms: C_4  and  C_19
REMARK    4  A    between atoms: C_5  and  N_10
REMARK    5  A    between atoms: C_19  and  O_20
REMARK                            x       y       z     vdW  Elec       q    Type
REMARK                         _______ _______ _______ _____ _____    ______ ____
ROOT
ATOM      1  N   UNL     1       0.258   1.532  -0.442  0.00  0.00    +0.398 N 
ATOM      2  C   UNL     1      -1.091  -1.047   0.036  0.00  0.00    +0.145 C 
ATOM      3  C   UNL     1       0.397  -0.964  -0.336  0.00  0.00    +0.136 C 
ATOM      4  C   UNL     1      -1.842   0.211  -0.432  0.00  0.00    +0.107 C 
ATOM      5  C   UNL     1       1.012   0.388   0.072  0.00  0.00    +0.043 C 
ATOM      6  C   UNL     1      -1.136   1.497   0.009  0.00  0.00    -0.065 C 
ATOM      7  H   UNL     1       0.278   1.512  -1.462  0.00  0.00    -0.082 HD
ATOM      8  H   UNL     1       0.689   2.387  -0.090  0.00  0.00    -0.082 HD
ENDROOT
BRANCH   5  10
ATOM      9  O   UNL     1       3.418  -0.503   1.426  0.00  0.00    -0.275 OA
ATOM     10  N   UNL     1       2.371   0.511  -0.390  0.00  0.00    -0.323 N 
ATOM     11  C   UNL     1       3.461   0.052   0.331  0.00  0.00    +0.221 C 
ATOM     12  C   UNL     1       4.761   0.284  -0.391  0.00  0.00    +0.095 C 
ATOM     13  H   UNL     1       2.533   0.942  -1.260  0.00  0.00    +0.147 HD
ENDBRANCH   5  10
BRANCH   2  14
ATOM     14  O   UNL     1      -1.209  -1.219   1.448  0.00  0.00    -0.382 OA
ATOM     15  H   UNL     1      -0.728  -2.017   1.718  0.00  0.00    +0.210 HD
ENDBRANCH   2  14
BRANCH   3  16
ATOM     16  O   UNL     1       0.544  -1.180  -1.740  0.00  0.00    -0.382 OA
ATOM     17  H   UNL     1       0.152  -2.034  -1.979  0.00  0.00    +0.210 HD
ENDBRANCH   3  16
BRANCH   4  19
ATOM     18  O   UNL     1      -3.627   0.700   1.123  0.00  0.00    -0.250 OA
ATOM     19  C   UNL     1      -3.253   0.196   0.075  0.00  0.00    +0.314 C 
BRANCH  19  20
ATOM     20  O   UNL     1      -4.065  -0.459  -0.790  0.00  0.00    -0.480 OA
ATOM     21  H   UNL     1      -3.714  -0.823  -1.578  0.00  0.00    +0.295 HD
ENDBRANCH  19  20
ENDBRANCH   4  19
TORSDOF 5
