10386252
  -OEChem-03292013303D

 41 44  0     0  0  0  0  0  0999 V2000
   -2.3763    1.3897   -1.0463 O   0  0  0  0  0  0  0  0  0  0  0  0
    2.3871    0.0628    2.0165 O   0  0  0  0  0  0  0  0  0  0  0  0
   -1.2631    3.6625   -1.5895 O   0  0  0  0  0  0  0  0  0  0  0  0
   -3.3881   -3.6825    0.7040 O   0  0  0  0  0  0  0  0  0  0  0  0
    3.5482   -1.8156   -2.9772 O   0  0  0  0  0  0  0  0  0  0  0  0
   -5.4150   -2.3287   -0.6037 O   0  0  0  0  0  0  0  0  0  0  0  0
    5.5473   -1.8771   -1.0665 O   0  0  0  0  0  0  0  0  0  0  0  0
    1.2028    1.0685    4.1035 O   0  0  0  0  0  0  0  0  0  0  0  0
    0.6972    2.9997   -0.5994 O   0  0  0  0  0  0  0  0  0  0  0  0
   -0.7737    1.3714    3.0228 O   0  0  0  0  0  0  0  0  0  0  0  0
   -0.6376    0.4121   -0.0055 C   0  0  0  0  0  0  0  0  0  0  0  0
    0.6670    0.1714    0.5703 C   0  0  0  0  0  0  0  0  0  0  0  0
   -1.7180   -0.5089   -0.0142 C   0  0  0  0  0  0  0  0  0  0  0  0
    1.7793   -0.3882   -0.1119 C   0  0  0  0  0  0  0  0  0  0  0  0
   -2.7624    0.1394   -0.6653 C   0  0  0  0  0  0  0  0  0  0  0  0
   -1.0885    1.5448   -0.6426 C   0  0  0  0  0  0  0  0  0  0  0  0
    2.8107   -0.4342    0.8203 C   0  0  0  0  0  0  0  0  0  0  0  0
    1.0881    0.4261    1.8549 C   0  0  0  0  0  0  0  0  0  0  0  0
   -1.9289   -1.8170    0.4557 C   0  0  0  0  0  0  0  0  0  0  0  0
    2.0283   -0.8601   -1.4125 C   0  0  0  0  0  0  0  0  0  0  0  0
   -4.0169   -0.4262   -0.8866 C   0  0  0  0  0  0  0  0  0  0  0  0
    4.0878   -0.9224    0.5498 C   0  0  0  0  0  0  0  0  0  0  0  0
   -3.1807   -2.4125    0.2486 C   0  0  0  0  0  0  0  0  0  0  0  0
    3.3036   -1.3569   -1.7150 C   0  0  0  0  0  0  0  0  0  0  0  0
   -4.2041   -1.7276   -0.4114 C   0  0  0  0  0  0  0  0  0  0  0  0
    4.3131   -1.3868   -0.7495 C   0  0  0  0  0  0  0  0  0  0  0  0
   -0.4550    2.7879   -0.9307 C   0  0  0  0  0  0  0  0  0  0  0  0
    0.4160    0.9808    2.9818 C   0  0  0  0  0  0  0  0  0  0  0  0
   -0.6685    4.9275   -1.9003 C   0  0  0  0  0  0  0  0  0  0  0  0
   -1.1403   -2.3591    0.9698 H   0  0  0  0  0  0  0  0  0  0  0  0
    1.2510   -0.8419   -2.1712 H   0  0  0  0  0  0  0  0  0  0  0  0
   -4.8025    0.1161   -1.3999 H   0  0  0  0  0  0  0  0  0  0  0  0
    4.8622   -0.9398    1.3080 H   0  0  0  0  0  0  0  0  0  0  0  0
   -4.3388   -3.8300    0.8347 H   0  0  0  0  0  0  0  0  0  0  0  0
    4.2892   -2.4426   -2.9577 H   0  0  0  0  0  0  0  0  0  0  0  0
   -5.3070   -3.2932   -0.5785 H   0  0  0  0  0  0  0  0  0  0  0  0
    5.6868   -1.8120   -2.0251 H   0  0  0  0  0  0  0  0  0  0  0  0
    0.7111    1.4533    4.8602 H   0  0  0  0  0  0  0  0  0  0  0  0
   -0.3783    5.4462   -0.9816 H   0  0  0  0  0  0  0  0  0  0  0  0
   -1.4133    5.5328   -2.4239 H   0  0  0  0  0  0  0  0  0  0  0  0
    0.1956    4.7894   -2.5572 H   0  0  0  0  0  0  0  0  0  0  0  0
  1 15  1  0  0  0  0
  1 16  1  0  0  0  0
  2 17  1  0  0  0  0
  2 18  1  0  0  0  0
  3 27  1  0  0  0  0
  3 29  1  0  0  0  0
  4 23  1  0  0  0  0
  4 34  1  0  0  0  0
  5 24  1  0  0  0  0
  5 35  1  0  0  0  0
  6 25  1  0  0  0  0
  6 36  1  0  0  0  0
  7 26  1  0  0  0  0
  7 37  1  0  0  0  0
  8 28  1  0  0  0  0
  8 38  1  0  0  0  0
  9 27  2  0  0  0  0
 10 28  2  0  0  0  0
 11 12  1  0  0  0  0
 11 13  1  0  0  0  0
 11 16  2  0  0  0  0
 12 14  1  0  0  0  0
 12 18  2  0  0  0  0
 13 15  1  0  0  0  0
 13 19  2  0  0  0  0
 14 17  1  0  0  0  0
 14 20  2  0  0  0  0
 15 21  2  0  0  0  0
 16 27  1  0  0  0  0
 17 22  2  0  0  0  0
 18 28  1  0  0  0  0
 19 23  1  0  0  0  0
 19 30  1  0  0  0  0
 20 24  1  0  0  0  0
 20 31  1  0  0  0  0
 21 25  1  0  0  0  0
 21 32  1  0  0  0  0
 22 26  1  0  0  0  0
 22 33  1  0  0  0  0
 23 25  2  0  0  0  0
 24 26  2  0  0  0  0
 29 39  1  0  0  0  0
 29 40  1  0  0  0  0
 29 41  1  0  0  0  0
M  END
> <PUBCHEM_COMPOUND_CID>
10386252

> <PUBCHEM_CONFORMER_RMSD>
0.8

> <PUBCHEM_CONFORMER_DIVERSEORDER>
1
3
4
2

> <PUBCHEM_MMFF94_PARTIAL_CHARGES>
34
1 -0.28
10 -0.57
15 0.14
16 0.05
17 0.14
18 0.05
19 -0.15
2 -0.28
20 -0.15
21 -0.15
22 -0.15
23 0.08
24 0.08
25 0.08
26 0.08
27 0.81
28 0.81
29 0.28
3 -0.43
30 0.15
31 0.15
32 0.15
33 0.15
34 0.45
35 0.45
36 0.45
37 0.45
38 0.5
4 -0.53
5 -0.53
6 -0.53
7 -0.53
8 -0.65
9 -0.57

> <PUBCHEM_EFFECTIVE_ROTOR_COUNT>
4

> <PUBCHEM_PHARMACOPHORE_FEATURES>
14
1 1 acceptor
1 10 acceptor
1 2 acceptor
1 4 donor
1 5 donor
1 6 donor
1 7 donor
1 8 acceptor
1 9 acceptor
3 8 10 28 anion
5 1 11 13 15 16 rings
5 2 12 14 17 18 rings
6 13 15 19 21 23 25 rings
6 14 17 20 22 24 26 rings

> <PUBCHEM_HEAVY_ATOM_COUNT>
29

> <PUBCHEM_ATOM_DEF_STEREO_COUNT>
0

> <PUBCHEM_ATOM_UDEF_STEREO_COUNT>
0

> <PUBCHEM_BOND_DEF_STEREO_COUNT>
0

> <PUBCHEM_BOND_UDEF_STEREO_COUNT>
0

> <PUBCHEM_ISOTOPIC_ATOM_COUNT>
0

> <PUBCHEM_COMPONENT_COUNT>
1

> <PUBCHEM_CACTVS_TAUTO_COUNT>
98

> <PUBCHEM_CONFORMER_ID>
009E7B4C00000001

> <PUBCHEM_MMFF94_ENERGY>
61.8921

> <PUBCHEM_FEATURE_SELFOVERLAP>
71.33

> <PUBCHEM_SHAPE_FINGERPRINT>
10165383 225 17837776625594379193
10369192 42 17699827812760890456
11049842 53 17324618017302018962
11488393 25 17612329840592799392
11578080 2 18130495383924582481
11582403 64 15823446133171966337
11640471 11 16808416055846914316
12553582 1 18187075166279750827
12714826 92 18272084951036273062
12788726 201 17895752889988722419
13544653 18 17846784013568718046
13911987 19 17130396118166116184
14022347 108 18187910808012136715
15324884 4 18126259030394650543
15475509 8 18410296879137727831
15664445 248 18261670492661388799
15878777 1 12172193614806297232
16752209 62 17823395181349139167
17980427 26 14807601688271898576
1813 80 18410863187064627303
20567600 347 16670777429371196781
20600515 1 18046033160348007649
21033650 10 17826534179846175022
21756936 100 16664336078361064660
23352939 185 18341344382671388012
23419403 2 17773854489661795328
23557571 272 18338222821841586776
23559900 14 18191860344089719223
484985 159 17198846042000589630
497634 4 17915202160458849044
57527585 21 17245878884823745262
621550 5 18201717353425051176
6823239 73 18262511628074119395
9841814 1 17679561579934792785

> <PUBCHEM_SHAPE_MULTIPOLES>
538.11
8.04
4.11
2.79
1.26
4.95
2.85
-9.28
-3.9
-3.56
-2.58
2.36
1.08
1.82

> <PUBCHEM_SHAPE_SELFOVERLAP>
1222.799

> <PUBCHEM_SHAPE_VOLUME>
285.2

> <PUBCHEM_COORDINATE_TYPE>
2
5
10

$$$$
