10383888
  -OEChem-03292013303D

 45 46  0     1  0  0  0  0  0999 V2000
   -2.1962   -0.6679   -0.7712 O   0  0  0  0  0  0  0  0  0  0  0  0
   -0.2494    0.5925   -1.0275 O   0  0  0  0  0  0  0  0  0  0  0  0
   -4.1537    2.4773    1.0016 O   0  0  0  0  0  0  0  0  0  0  0  0
   -5.2031   -0.2030    1.2673 O   0  0  0  0  0  0  0  0  0  0  0  0
   -1.2096    2.4272    0.9011 O   0  0  0  0  0  0  0  0  0  0  0  0
   -3.1874   -3.2287   -0.8979 O   0  0  0  0  0  0  0  0  0  0  0  0
    0.4338   -2.0170   -0.3988 O   0  0  0  0  0  0  0  0  0  0  0  0
    1.6302    2.6077   -0.7457 O   0  0  0  0  0  0  0  0  0  0  0  0
    5.7067    0.4980    0.8826 O   0  0  0  0  0  0  0  0  0  0  0  0
    5.3202   -1.7299    1.1146 O   0  0  0  0  0  0  0  0  0  0  0  0
   -3.3428    1.3016    0.9767 C   0  0  1  0  0  0  0  0  0  0  0  0
   -4.1679    0.1709    0.3620 C   0  0  1  0  0  0  0  0  0  0  0  0
   -2.0792    1.5720    0.1597 C   0  0  2  0  0  0  0  0  0  0  0  0
   -3.2878   -1.0465    0.0692 C   0  0  1  0  0  0  0  0  0  0  0  0
   -1.3285    0.2765   -0.1484 C   0  0  1  0  0  0  0  0  0  0  0  0
   -4.0639   -2.1442   -0.6515 C   0  0  0  0  0  0  0  0  0  0  0  0
    1.0100    0.3006   -0.5804 C   0  0  0  0  0  0  0  0  0  0  0  0
    1.3460   -1.0139   -0.2664 C   0  0  0  0  0  0  0  0  0  0  0  0
    1.9500    1.3187   -0.4420 C   0  0  0  0  0  0  0  0  0  0  0  0
    2.6303   -1.3123    0.1892 C   0  0  0  0  0  0  0  0  0  0  0  0
    3.2342    1.0205    0.0135 C   0  0  0  0  0  0  0  0  0  0  0  0
    3.5743   -0.2951    0.3290 C   0  0  0  0  0  0  0  0  0  0  0  0
    4.9127   -0.6052    0.8058 C   0  0  0  0  0  0  0  0  0  0  0  0
    0.8630   -3.3329   -0.0548 C   0  0  0  0  0  0  0  0  0  0  0  0
    1.8580    3.0329   -2.0878 C   0  0  0  0  0  0  0  0  0  0  0  0
   -3.0873    1.0798    2.0203 H   0  0  0  0  0  0  0  0  0  0  0  0
   -4.6490    0.5288   -0.5565 H   0  0  0  0  0  0  0  0  0  0  0  0
   -2.3317    2.1024   -0.7661 H   0  0  0  0  0  0  0  0  0  0  0  0
   -2.8821   -1.4726    0.9970 H   0  0  0  0  0  0  0  0  0  0  0  0
   -0.9539   -0.1494    0.7938 H   0  0  0  0  0  0  0  0  0  0  0  0
   -4.4454   -1.7971   -1.6175 H   0  0  0  0  0  0  0  0  0  0  0  0
   -4.9025   -2.5084   -0.0513 H   0  0  0  0  0  0  0  0  0  0  0  0
   -4.9527    2.2690    1.5154 H   0  0  0  0  0  0  0  0  0  0  0  0
   -4.7857   -0.5288    2.0829 H   0  0  0  0  0  0  0  0  0  0  0  0
   -0.9697    1.9720    1.7263 H   0  0  0  0  0  0  0  0  0  0  0  0
   -2.4410   -2.8912   -1.4222 H   0  0  0  0  0  0  0  0  0  0  0  0
    2.9446   -2.3176    0.4479 H   0  0  0  0  0  0  0  0  0  0  0  0
    3.9432    1.8384    0.1117 H   0  0  0  0  0  0  0  0  0  0  0  0
    1.6693   -3.6796   -0.7100 H   0  0  0  0  0  0  0  0  0  0  0  0
    0.0113   -4.0011   -0.2201 H   0  0  0  0  0  0  0  0  0  0  0  0
    1.1230   -3.4088    1.0065 H   0  0  0  0  0  0  0  0  0  0  0  0
    1.5482    4.0780   -2.1732 H   0  0  0  0  0  0  0  0  0  0  0  0
    1.2662    2.4343   -2.7874 H   0  0  0  0  0  0  0  0  0  0  0  0
    2.9214    2.9613   -2.3374 H   0  0  0  0  0  0  0  0  0  0  0  0
    6.6069    0.2780    1.2045 H   0  0  0  0  0  0  0  0  0  0  0  0
  1 14  1  0  0  0  0
  1 15  1  0  0  0  0
  2 15  1  0  0  0  0
  2 17  1  0  0  0  0
  3 11  1  0  0  0  0
  3 33  1  0  0  0  0
  4 12  1  0  0  0  0
  4 34  1  0  0  0  0
  5 13  1  0  0  0  0
  5 35  1  0  0  0  0
  6 16  1  0  0  0  0
  6 36  1  0  0  0  0
  7 18  1  0  0  0  0
  7 24  1  0  0  0  0
  8 19  1  0  0  0  0
  8 25  1  0  0  0  0
  9 23  1  0  0  0  0
  9 45  1  0  0  0  0
 10 23  2  0  0  0  0
 11 12  1  0  0  0  0
 11 13  1  0  0  0  0
 11 26  1  0  0  0  0
 12 14  1  0  0  0  0
 12 27  1  0  0  0  0
 13 15  1  0  0  0  0
 13 28  1  0  0  0  0
 14 16  1  0  0  0  0
 14 29  1  0  0  0  0
 15 30  1  0  0  0  0
 16 31  1  0  0  0  0
 16 32  1  0  0  0  0
 17 18  2  0  0  0  0
 17 19  1  0  0  0  0
 18 20  1  0  0  0  0
 19 21  2  0  0  0  0
 20 22  2  0  0  0  0
 20 37  1  0  0  0  0
 21 22  1  0  0  0  0
 21 38  1  0  0  0  0
 22 23  1  0  0  0  0
 24 39  1  0  0  0  0
 24 40  1  0  0  0  0
 24 41  1  0  0  0  0
 25 42  1  0  0  0  0
 25 43  1  0  0  0  0
 25 44  1  0  0  0  0
M  END
> <PUBCHEM_COMPOUND_CID>
10383888

> <PUBCHEM_CONFORMER_RMSD>
0.8

> <PUBCHEM_CONFORMER_DIVERSEORDER>
2
57
52
18
60
20
29
56
41
53
44
26
31
34
46
59
36
30
58
11
32
4
54
49
28
7
16
8
37
42
27
25
39
15
48
19
9
47
40
38
35
50
12
6
17
5
55
21
1
10
3
61
43
14
22
23
24
33
45
13
51

> <PUBCHEM_MMFF94_PARTIAL_CHARGES>
32
1 -0.56
10 -0.57
11 0.28
12 0.28
13 0.28
14 0.28
15 0.56
16 0.28
17 0.08
18 0.08
19 0.08
2 -0.36
20 -0.15
21 -0.15
22 0.09
23 0.63
24 0.28
25 0.28
3 -0.68
33 0.4
34 0.4
35 0.4
36 0.4
37 0.15
38 0.15
4 -0.68
45 0.5
5 -0.68
6 -0.68
7 -0.36
8 -0.36
9 -0.65

> <PUBCHEM_EFFECTIVE_ROTOR_COUNT>
7.2

> <PUBCHEM_PHARMACOPHORE_FEATURES>
17
1 1 acceptor
1 10 acceptor
1 2 acceptor
1 3 acceptor
1 3 donor
1 4 acceptor
1 4 donor
1 5 acceptor
1 5 donor
1 6 acceptor
1 6 donor
1 7 acceptor
1 8 acceptor
1 9 acceptor
3 9 10 23 anion
6 1 11 12 13 14 15 rings
6 17 18 19 20 21 22 rings

> <PUBCHEM_HEAVY_ATOM_COUNT>
25

> <PUBCHEM_ATOM_DEF_STEREO_COUNT>
5

> <PUBCHEM_ATOM_UDEF_STEREO_COUNT>
0

> <PUBCHEM_BOND_DEF_STEREO_COUNT>
0

> <PUBCHEM_BOND_UDEF_STEREO_COUNT>
0

> <PUBCHEM_ISOTOPIC_ATOM_COUNT>
0

> <PUBCHEM_COMPONENT_COUNT>
1

> <PUBCHEM_CACTVS_TAUTO_COUNT>
1

> <PUBCHEM_CONFORMER_ID>
009E721000000002

> <PUBCHEM_MMFF94_ENERGY>
100.6499

> <PUBCHEM_FEATURE_SELFOVERLAP>
86.411

> <PUBCHEM_SHAPE_FINGERPRINT>
10616163 171 18341900722796864887
1100329 8 18265611168284964042
12403260 363 18338231677800361551
12507557 5 18333445443713288109
12633257 1 17894921706253080992
12788726 201 18054520363094930671
12839892 36 18342170051210449482
13009979 54 18411989065544378848
13140716 1 18339082712885557203
13583140 156 16845561024555445262
13965767 371 17408271086810603921
14117953 113 18337669720453540463
14178342 30 18340208488032392525
14341114 176 18341898459116666578
14341114 328 18272941547877205337
14787075 74 17988634250904382936
14790565 3 18336275617267539836
15209289 33 18260830384331924522
15209294 21 18202278074601350858
16992727 255 18200294560985804781
17349148 13 18333731342337476170
17862501 102 18410006663085047730
1813 80 17677342610676947708
19050596 39 18342180002918140897
20028762 73 18271238434494888198
20715895 44 17978516330664729745
20739085 24 18260835873827740436
21673915 165 18413105056777111706
23402539 116 18412252952434710206
23557571 272 17632308864554824117
23559900 14 18338785810534103305
25147074 1 18265060295694917117
3380486 145 17969214534479202181
350125 39 18410855511757804028
392239 28 18059849588912706640
4409770 3 17463394024527670508
465052 167 17894639149303301258
5104073 3 18341894138078698665
5312544 6 18046353199366681069
67856867 119 18265614458050733637
7064713 232 18272367538330216936
7097593 13 18339084765927260983
7471813 234 17985247815173103847
9981440 41 17325207819660688832

> <PUBCHEM_SHAPE_MULTIPOLES>
455.8
10.33
3.43
1.18
1.96
0.47
0.2
1.96
-4.29
-0.77
0.98
0.04
-0.58
-2.3

> <PUBCHEM_SHAPE_SELFOVERLAP>
958.003

> <PUBCHEM_SHAPE_VOLUME>
254.4

> <PUBCHEM_COORDINATE_TYPE>
2
5
10

$$$$
