REMARK  Name = 10385353
REMARK  13 active torsions:
REMARK  status: ('A' for Active; 'I' for Inactive)
REMARK    1  A    between atoms: C_1  and  C_8
REMARK    2  A    between atoms: C_1  and  C_16
REMARK    3  A    between atoms: C_1  and  C_25
REMARK    4  A    between atoms: C_5  and  C_13
REMARK    5  A    between atoms: C_16  and  C_17
REMARK    6  A    between atoms: C_17  and  C_18
REMARK    7  A    between atoms: C_18  and  C_19
REMARK    8  A    between atoms: C_19  and  C_20
REMARK    9  A    between atoms: C_20  and  C_21
REMARK   10  A    between atoms: C_21  and  C_22
REMARK   11  A    between atoms: C_22  and  C_23
REMARK   12  A    between atoms: C_25  and  C_28
REMARK   13  A    between atoms: N_27  and  O_30
REMARK                            x       y       z     vdW  Elec       q    Type
REMARK                         _______ _______ _______ _____ _____    ______ ____
ROOT
ATOM      1  C   UNL     1      -1.225   1.361   0.474  0.00  0.00    +0.087 C 
ENDROOT
BRANCH   1   8
ATOM      2  O   UNL     1      -1.063  -0.454   1.989  0.00  0.00    -0.274 OA
ATOM      3  N   UNL     1      -2.509  -0.751   0.204  0.00  0.00    -0.217 N 
ATOM      4  N   UNL     1      -2.969  -0.301  -1.052  0.00  0.00    -0.226 NA
ATOM      5  C   UNL     1      -2.923  -2.100   0.599  0.00  0.00    +0.167 C 
ATOM      6  C   UNL     1      -4.419  -2.342   0.400  0.00  0.00    +0.032 C 
ATOM      7  C   UNL     1      -4.923  -1.777  -0.926  0.00  0.00    +0.021 C 
ATOM      8  C   UNL     1      -1.587  -0.024   0.957  0.00  0.00    +0.239 C 
ATOM      9  C   UNL     1      -4.430  -0.347  -1.119  0.00  0.00    +0.088 C 
ATOM     10  H   UNL     1      -2.582  -0.899  -1.783  0.00  0.00    +0.145 HD
BRANCH   5  13
ATOM     11  O   UNL     1      -1.703  -2.820  -1.325  0.00  0.00    -0.273 OA
ATOM     12  N   UNL     1      -1.817  -4.225   0.528  0.00  0.00    -0.301 N 
ATOM     13  C   UNL     1      -2.079  -3.066  -0.181  0.00  0.00    +0.242 C 
ATOM     14  C   UNL     1      -1.045  -5.322  -0.009  0.00  0.00    +0.111 C 
ATOM     15  H   UNL     1      -2.174  -4.306   1.442  0.00  0.00    +0.150 HD
ENDBRANCH   5  13
ENDBRANCH   1   8
BRANCH   1  16
ATOM     16  C   UNL     1       0.222   1.716   0.841  0.00  0.00    +0.010 C 
BRANCH  16  17
ATOM     17  C   UNL     1       1.238   0.769   0.192  0.00  0.00    +0.001 C 
BRANCH  17  18
ATOM     18  C   UNL     1       2.673   1.183   0.523  0.00  0.00    +0.000 C 
BRANCH  18  19
ATOM     19  C   UNL     1       3.687   0.223  -0.099  0.00  0.00    +0.000 C 
BRANCH  19  20
ATOM     20  C   UNL     1       5.121   0.617   0.259  0.00  0.00    +0.000 C 
BRANCH  20  21
ATOM     21  C   UNL     1       6.136  -0.324  -0.392  0.00  0.00    +0.000 C 
BRANCH  21  22
ATOM     22  C   UNL     1       7.571   0.090  -0.061  0.00  0.00    +0.000 C 
BRANCH  22  23
ATOM     23  C   UNL     1       8.585  -0.831  -0.739  0.00  0.00    +0.000 C 
ATOM     24  C   UNL     1      10.012  -0.444  -0.387  0.00  0.00    +0.000 C 
ENDBRANCH  22  23
ENDBRANCH  21  22
ENDBRANCH  20  21
ENDBRANCH  19  20
ENDBRANCH  18  19
ENDBRANCH  17  18
ENDBRANCH  16  17
ENDBRANCH   1  16
BRANCH   1  25
ATOM     25  C   UNL     1      -2.253   2.374   0.995  0.00  0.00    +0.096 C 
BRANCH  25  28
ATOM     26  O   UNL     1      -1.584   4.635   0.532  0.00  0.00    -0.273 OA
ATOM     27  N   UNL     1      -3.171   3.654  -0.832  0.00  0.00    -0.197 N 
ATOM     28  C   UNL     1      -2.288   3.678   0.218  0.00  0.00    +0.245 C 
ATOM     29  H   UNL     1      -3.713   2.859  -1.041  0.00  0.00    +0.182 HD
BRANCH  27  30
ATOM     30  O   UNL     1      -3.255   4.830  -1.588  0.00  0.00    -0.295 OA
ATOM     31  H   UNL     1      -3.902   4.711  -2.301  0.00  0.00    +0.241 HD
ENDBRANCH  27  30
ENDBRANCH  25  28
ENDBRANCH   1  25
TORSDOF 13
