REMARK  Name = 10386252
REMARK  9 active torsions:
REMARK  status: ('A' for Active; 'I' for Inactive)
REMARK    1  A    between atoms: C_2  and  C_11
REMARK    2  A    between atoms: C_5  and  C_32
REMARK    3  A    between atoms: C_8  and  O_27
REMARK    4  A    between atoms: C_9  and  O_29
REMARK    5  A    between atoms: C_14  and  C_24
REMARK    6  A    between atoms: C_17  and  O_19
REMARK    7  A    between atoms: C_18  and  O_21
REMARK    8  A    between atoms: C_24  and  O_25
REMARK    9  A    between atoms: C_32  and  O_33
REMARK                            x       y       z     vdW  Elec       q    Type
REMARK                         _______ _______ _______ _____ _____    ______ ____
ROOT
ATOM      1  O   UNL     1      -2.376   1.390  -1.046  0.00  0.00    -0.447 OA
ATOM      2  C   UNL     1      -0.638   0.412  -0.005  0.00  0.00    +0.047 A 
ATOM      3  C   UNL     1      -1.718  -0.509  -0.014  0.00  0.00    +0.041 A 
ATOM      4  C   UNL     1      -2.762   0.139  -0.665  0.00  0.00    +0.149 A 
ATOM      5  C   UNL     1      -1.089   1.545  -0.643  0.00  0.00    +0.220 A 
ATOM      6  C   UNL     1      -1.929  -1.817   0.456  0.00  0.00    +0.043 C 
ATOM      7  C   UNL     1      -4.017  -0.426  -0.887  0.00  0.00    +0.077 C 
ATOM      8  C   UNL     1      -3.181  -2.413   0.249  0.00  0.00    +0.168 C 
ATOM      9  C   UNL     1      -4.204  -1.728  -0.411  0.00  0.00    +0.171 C 
ENDROOT
BRANCH   2  11
ATOM     10  O   UNL     1       2.387   0.063   2.017  0.00  0.00    -0.447 OA
ATOM     11  C   UNL     1       0.667   0.171   0.570  0.00  0.00    +0.047 A 
ATOM     12  C   UNL     1       1.779  -0.388  -0.112  0.00  0.00    +0.041 A 
ATOM     13  C   UNL     1       2.811  -0.434   0.820  0.00  0.00    +0.149 A 
ATOM     14  C   UNL     1       1.088   0.426   1.855  0.00  0.00    +0.220 A 
ATOM     15  C   UNL     1       2.028  -0.860  -1.413  0.00  0.00    +0.043 C 
ATOM     16  C   UNL     1       4.088  -0.922   0.550  0.00  0.00    +0.077 C 
ATOM     17  C   UNL     1       3.304  -1.357  -1.715  0.00  0.00    +0.168 C 
ATOM     18  C   UNL     1       4.313  -1.387  -0.750  0.00  0.00    +0.171 C 
BRANCH  17  19
ATOM     19  O   UNL     1       3.548  -1.816  -2.977  0.00  0.00    -0.503 OA
ATOM     20  H   UNL     1       2.870  -1.795  -3.623  0.00  0.00    +0.292 HD
ENDBRANCH  17  19
BRANCH  18  21
ATOM     21  O   UNL     1       5.547  -1.877  -1.067  0.00  0.00    -0.503 OA
ATOM     22  H   UNL     1       6.224  -1.897  -0.419  0.00  0.00    +0.292 HD
ENDBRANCH  18  21
BRANCH  14  24
ATOM     23  O   UNL     1      -0.774   1.371   3.023  0.00  0.00    -0.242 OA
ATOM     24  C   UNL     1       0.416   0.981   2.982  0.00  0.00    +0.373 C 
BRANCH  24  25
ATOM     25  O   UNL     1       1.203   1.069   4.104  0.00  0.00    -0.475 OA
ATOM     26  H   UNL     1       2.093   0.777   4.075  0.00  0.00    +0.296 HD
ENDBRANCH  24  25
ENDBRANCH  14  24
ENDBRANCH   2  11
BRANCH   8  27
ATOM     27  O   UNL     1      -3.388  -3.683   0.704  0.00  0.00    -0.503 OA
ATOM     28  H   UNL     1      -2.700  -4.140   1.146  0.00  0.00    +0.292 HD
ENDBRANCH   8  27
BRANCH   9  29
ATOM     29  O   UNL     1      -5.415  -2.329  -0.604  0.00  0.00    -0.503 OA
ATOM     30  H   UNL     1      -6.101  -1.869  -1.046  0.00  0.00    +0.292 HD
ENDBRANCH   9  29
BRANCH   5  32
ATOM     31  O   UNL     1       0.697   3.000  -0.599  0.00  0.00    -0.241 OA
ATOM     32  C   UNL     1      -0.455   2.788  -0.931  0.00  0.00    +0.376 C 
BRANCH  32  33
ATOM     33  O   UNL     1      -1.263   3.663  -1.589  0.00  0.00    -0.439 OA
ATOM     34  C   UNL     1      -0.668   4.928  -1.900  0.00  0.00    +0.256 C 
ENDBRANCH  32  33
ENDBRANCH   5  32
TORSDOF 9
