10387862
  -OEChem-03292013303D

 59 61  0     1  0  0  0  0  0999 V2000
    1.2352   -0.1064   -0.3313 O   0  0  0  0  0  0  0  0  0  0  0  0
    4.2510   -1.8529   -1.1688 O   0  0  0  0  0  0  0  0  0  0  0  0
   -1.8123   -2.0522    1.4532 O   0  0  0  0  0  0  0  0  0  0  0  0
   -5.0989   -2.1591   -1.7450 O   0  0  0  0  0  0  0  0  0  0  0  0
    3.6848   -0.5358    0.6482 N   0  0  0  0  0  0  0  0  0  0  0  0
    0.6187   -2.2945    0.1694 N   0  0  0  0  0  0  0  0  0  0  0  0
    6.6898   -0.8070   -1.2907 N   0  0  0  0  0  0  0  0  0  0  0  0
   -2.7708   -1.3336   -0.5385 N   0  0  0  0  0  0  0  0  0  0  0  0
   -2.0724    2.8291    1.6051 N   0  0  0  0  0  0  0  0  0  0  0  0
   -6.1363   -2.0019    0.2983 N   0  0  0  0  0  0  0  0  0  0  0  0
    2.6098   -1.3864    1.1420 C   0  0  1  0  0  0  0  0  0  0  0  0
    2.3390   -0.8867    2.5562 C   0  0  0  0  0  0  0  0  0  0  0  0
    2.7216    0.5899    2.4901 C   0  0  0  0  0  0  0  0  0  0  0  0
    3.9076    0.6014    1.5375 C   0  0  0  0  0  0  0  0  0  0  0  0
    1.4302   -1.1753    0.2414 C   0  0  0  0  0  0  0  0  0  0  0  0
    4.4704   -0.8843   -0.4395 C   0  0  0  0  0  0  0  0  0  0  0  0
    5.6472    0.0197   -0.7071 C   0  0  2  0  0  0  0  0  0  0  0  0
   -0.5950   -2.3420   -0.6135 C   0  0  0  0  0  0  0  0  0  0  0  0
    5.2410    1.1324   -1.6522 C   0  0  0  0  0  0  0  0  0  0  0  0
   -4.0238   -0.8639    0.0077 C   0  0  1  0  0  0  0  0  0  0  0  0
   -4.2709    0.6192   -0.2964 C   0  0  0  0  0  0  0  0  0  0  0  0
   -3.1994    1.5189    0.2504 C   0  0  0  0  0  0  0  0  0  0  0  0
   -1.7642   -1.8919    0.2362 C   0  0  0  0  0  0  0  0  0  0  0  0
   -2.0280    1.9090   -0.4268 C   0  0  0  0  0  0  0  0  0  0  0  0
   -1.3278    2.7398    0.4506 C   0  0  0  0  0  0  0  0  0  0  0  0
   -3.2160    2.0855    1.4882 C   0  0  0  0  0  0  0  0  0  0  0  0
   -5.1254   -1.7222   -0.5969 C   0  0  0  0  0  0  0  0  0  0  0  0
   -1.4784    1.6481   -1.6977 C   0  0  0  0  0  0  0  0  0  0  0  0
   -0.1005    3.3249    0.1193 C   0  0  0  0  0  0  0  0  0  0  0  0
   -0.2515    2.2265   -2.0428 C   0  0  0  0  0  0  0  0  0  0  0  0
    0.4252    3.0516   -1.1467 C   0  0  0  0  0  0  0  0  0  0  0  0
    2.9284   -2.4344    1.1229 H   0  0  0  0  0  0  0  0  0  0  0  0
    1.3054   -1.0311    2.8853 H   0  0  0  0  0  0  0  0  0  0  0  0
    3.0006   -1.4001    3.2645 H   0  0  0  0  0  0  0  0  0  0  0  0
    2.9656    1.0103    3.4697 H   0  0  0  0  0  0  0  0  0  0  0  0
    1.8934    1.1720    2.0692 H   0  0  0  0  0  0  0  0  0  0  0  0
    3.9841    1.5373    0.9801 H   0  0  0  0  0  0  0  0  0  0  0  0
    4.8406    0.4276    2.0845 H   0  0  0  0  0  0  0  0  0  0  0  0
    6.0465    0.4462    0.2160 H   0  0  0  0  0  0  0  0  0  0  0  0
    0.8591   -3.1195    0.7111 H   0  0  0  0  0  0  0  0  0  0  0  0
   -0.4809   -1.7043   -1.4956 H   0  0  0  0  0  0  0  0  0  0  0  0
   -0.7611   -3.3760   -0.9287 H   0  0  0  0  0  0  0  0  0  0  0  0
    6.0846    1.7998   -1.8601 H   0  0  0  0  0  0  0  0  0  0  0  0
    4.4294    1.7396   -1.2392 H   0  0  0  0  0  0  0  0  0  0  0  0
    4.8837    0.7352   -2.6100 H   0  0  0  0  0  0  0  0  0  0  0  0
   -4.0085   -1.0124    1.0945 H   0  0  0  0  0  0  0  0  0  0  0  0
   -4.3524    0.7711   -1.3812 H   0  0  0  0  0  0  0  0  0  0  0  0
   -5.2429    0.9205    0.1163 H   0  0  0  0  0  0  0  0  0  0  0  0
    7.4995   -0.2319   -1.5199 H   0  0  0  0  0  0  0  0  0  0  0  0
    7.0123   -1.4916   -0.6075 H   0  0  0  0  0  0  0  0  0  0  0  0
   -2.6535   -1.2929   -1.5470 H   0  0  0  0  0  0  0  0  0  0  0  0
   -3.9259    2.0358    2.3019 H   0  0  0  0  0  0  0  0  0  0  0  0
   -1.8115    3.3659    2.4207 H   0  0  0  0  0  0  0  0  0  0  0  0
   -1.9917    1.0090   -2.4102 H   0  0  0  0  0  0  0  0  0  0  0  0
    0.4280    3.9659    0.8169 H   0  0  0  0  0  0  0  0  0  0  0  0
    0.1780    2.0274   -3.0211 H   0  0  0  0  0  0  0  0  0  0  0  0
    1.3780    3.4884   -1.4347 H   0  0  0  0  0  0  0  0  0  0  0  0
   -6.1439   -1.6376    1.2456 H   0  0  0  0  0  0  0  0  0  0  0  0
   -6.9259   -2.5786    0.0274 H   0  0  0  0  0  0  0  0  0  0  0  0
  1 15  2  0  0  0  0
  2 16  2  0  0  0  0
  3 23  2  0  0  0  0
  4 27  2  0  0  0  0
  5 11  1  0  0  0  0
  5 14  1  0  0  0  0
  5 16  1  0  0  0  0
  6 15  1  0  0  0  0
  6 18  1  0  0  0  0
  6 40  1  0  0  0  0
  7 17  1  0  0  0  0
  7 49  1  0  0  0  0
  7 50  1  0  0  0  0
  8 20  1  0  0  0  0
  8 23  1  0  0  0  0
  8 51  1  0  0  0  0
  9 25  1  0  0  0  0
  9 26  1  0  0  0  0
  9 53  1  0  0  0  0
 10 27  1  0  0  0  0
 10 58  1  0  0  0  0
 10 59  1  0  0  0  0
 11 12  1  0  0  0  0
 11 15  1  0  0  0  0
 11 32  1  0  0  0  0
 12 13  1  0  0  0  0
 12 33  1  0  0  0  0
 12 34  1  0  0  0  0
 13 14  1  0  0  0  0
 13 35  1  0  0  0  0
 13 36  1  0  0  0  0
 14 37  1  0  0  0  0
 14 38  1  0  0  0  0
 16 17  1  0  0  0  0
 17 19  1  0  0  0  0
 17 39  1  0  0  0  0
 18 23  1  0  0  0  0
 18 41  1  0  0  0  0
 18 42  1  0  0  0  0
 19 43  1  0  0  0  0
 19 44  1  0  0  0  0
 19 45  1  0  0  0  0
 20 21  1  0  0  0  0
 20 27  1  0  0  0  0
 20 46  1  0  0  0  0
 21 22  1  0  0  0  0
 21 47  1  0  0  0  0
 21 48  1  0  0  0  0
 22 24  1  0  0  0  0
 22 26  2  0  0  0  0
 24 25  1  0  0  0  0
 24 28  2  0  0  0  0
 25 29  2  0  0  0  0
 26 52  1  0  0  0  0
 28 30  1  0  0  0  0
 28 54  1  0  0  0  0
 29 31  1  0  0  0  0
 29 55  1  0  0  0  0
 30 31  2  0  0  0  0
 30 56  1  0  0  0  0
 31 57  1  0  0  0  0
M  END
> <PUBCHEM_COMPOUND_CID>
10387862

> <PUBCHEM_CONFORMER_RMSD>
1.2

> <PUBCHEM_CONFORMER_DIVERSEORDER>
1
82
176
171
23
173
151
26
56
115
142
89
172
161
61
95
113
126
55
146
109
179
28
74
153
99
75
59
19
182
38
69
44
120
43
129
139
100
77
73
131
48
175
157
177
66
96
90
85
86
107
72
148
158
84
143
166
40
169
9
14
11
152
2
123
160
17
94
180
162
33
63
174
29
12
42
68
106
32
130
31
102
140
178
159
183
137
132
22
41
76
114
34
25
52
136
18
37
163
125
51
4
101
10
50
87
39
133
27
181
30
53
167
119
80
64
93
145
5
103
15
141
16
170
111
149
24
121
98
92
62
49
165
36
21
138
164
105
70
154
156
110
122
127
78
83
147
155
7
144
45
97
47
71
35
20
128
81
91
134
65
104
150
46
112
54
67
88
79
8
6
58
57
13
60
108
124
3
118
135
116
168
117

> <PUBCHEM_MMFF94_PARTIAL_CHARGES>
39
1 -0.57
10 -0.8
11 0.36
14 0.3
15 0.57
16 0.57
17 0.33
18 0.36
2 -0.57
20 0.36
21 0.18
22 -0.18
23 0.57
25 -0.15
26 -0.3
27 0.57
28 -0.15
29 -0.15
3 -0.57
30 -0.15
31 -0.15
4 -0.57
40 0.37
49 0.36
5 -0.66
50 0.36
51 0.37
52 0.15
53 0.27
54 0.15
55 0.15
56 0.15
57 0.15
58 0.37
59 0.37
6 -0.73
7 -0.99
8 -0.73
9 0.03

> <PUBCHEM_EFFECTIVE_ROTOR_COUNT>
12

> <PUBCHEM_PHARMACOPHORE_FEATURES>
14
1 1 acceptor
1 10 donor
1 2 acceptor
1 3 acceptor
1 4 acceptor
1 6 donor
1 7 cation
1 7 donor
1 8 donor
1 9 cation
1 9 donor
5 5 11 12 13 14 rings
5 9 22 24 25 26 rings
6 24 25 28 29 30 31 rings

> <PUBCHEM_HEAVY_ATOM_COUNT>
31

> <PUBCHEM_ATOM_DEF_STEREO_COUNT>
3

> <PUBCHEM_ATOM_UDEF_STEREO_COUNT>
0

> <PUBCHEM_BOND_DEF_STEREO_COUNT>
0

> <PUBCHEM_BOND_UDEF_STEREO_COUNT>
0

> <PUBCHEM_ISOTOPIC_ATOM_COUNT>
0

> <PUBCHEM_COMPONENT_COUNT>
1

> <PUBCHEM_CACTVS_TAUTO_COUNT>
8

> <PUBCHEM_CONFORMER_ID>
009E819600000001

> <PUBCHEM_MMFF94_ENERGY>
60.3519

> <PUBCHEM_FEATURE_SELFOVERLAP>
71.141

> <PUBCHEM_SHAPE_FINGERPRINT>
10165383 225 17983588411445350704
10369192 42 17343195718854789048
10498660 4 18335973164963069328
10670039 82 18408323264018375926
11479125 193 14493888318186874638
11513181 2 17698436964425298606
11578080 2 14045479817275913041
12156800 1 16839719306344931368
12166972 35 17968377948270593207
12596602 18 17385444331922065675
12788726 201 18186792565494016730
13782708 43 17489869340958770470
14068700 675 18272652389441495697
14840074 17 18041575641029461205
14955137 171 18199188576235891547
15001296 14 18116995700565135796
15021287 119 17533493431859973378
15297060 5 18199762361995759272
15575132 122 17895479115783327100
17492 54 17822002121306434997
18336668 15 18186806902427283909
21033648 29 17989194971638493843
21623110 236 18334307465114246300
21857420 4 15473050786956637070
221357 26 17989485225496526666
23559900 14 18272927202623626793
392239 28 18201429290453578281
4098825 35 18270972237686695742
46194498 28 17703791461851884948
469060 322 17821726109274989021

> <PUBCHEM_SHAPE_MULTIPOLES>
584.6
12.08
3.74
2.01
6.24
1.72
0.67
-6.03
-3.58
-3.23
-0.34
1.45
0.46
-1.14

> <PUBCHEM_SHAPE_SELFOVERLAP>
1240.336

> <PUBCHEM_SHAPE_VOLUME>
326.2

> <PUBCHEM_COORDINATE_TYPE>
2
5
10

$$$$
