REMARK  Name = 10387188
REMARK  9 active torsions:
REMARK  status: ('A' for Active; 'I' for Inactive)
REMARK    1  A    between atoms: C_1  and  O_2
REMARK    2  A    between atoms: C_1  and  C_5
REMARK    3  A    between atoms: C_1  and  C_21
REMARK    4  A    between atoms: C_5  and  C_10
REMARK    5  A    between atoms: C_21  and  O_22
REMARK    6  A    between atoms: O_22  and  C_28
REMARK    7  A    between atoms: C_24  and  O_30
REMARK    8  A    between atoms: C_25  and  O_32
REMARK    9  A    between atoms: C_26  and  O_34
REMARK                            x       y       z     vdW  Elec       q    Type
REMARK                         _______ _______ _______ _____ _____    ______ ____
ROOT
ATOM      1  C   UNL     1      -1.714  -3.022   0.766  0.00  0.00    +0.204 C 
ENDROOT
BRANCH   1   2
ATOM      2  O   UNL     1      -2.513  -3.325   1.904  0.00  0.00    -0.375 OA
ATOM      3  H   UNL     1      -3.342  -3.739   1.615  0.00  0.00    +0.211 HD
ENDBRANCH   1   2
BRANCH   1   5
ATOM      4  O   UNL     1      -0.225  -2.120   2.434  0.00  0.00    -0.287 OA
ATOM      5  C   UNL     1      -0.417  -2.372   1.245  0.00  0.00    +0.221 C 
BRANCH   5  10
ATOM      6  N   UNL     1       1.604  -0.058   1.469  0.00  0.00    -0.352 N 
ATOM      7  N   UNL     1       0.708  -2.808  -0.821  0.00  0.00    -0.240 NA
ATOM      8  C   UNL     1       1.494  -0.975   0.452  0.00  0.00    +0.077 A 
ATOM      9  C   UNL     1       2.479  -0.675  -0.488  0.00  0.00    +0.016 A 
ATOM     10  C   UNL     1       0.644  -2.026   0.258  0.00  0.00    +0.134 C 
ATOM     11  C   UNL     1       3.196   0.465  -0.004  0.00  0.00    +0.017 A 
ATOM     12  C   UNL     1       2.627   0.827   1.218  0.00  0.00    +0.057 A 
ATOM     13  C   UNL     1       2.574  -1.478  -1.636  0.00  0.00    -0.001 C 
ATOM     14  C   UNL     1       4.279   1.224  -0.495  0.00  0.00    +0.001 C 
ATOM     15  C   UNL     1       1.662  -2.520  -1.735  0.00  0.00    +0.095 C 
ATOM     16  C   UNL     1       3.086   1.910   1.975  0.00  0.00    +0.017 C 
ATOM     17  C   UNL     1       3.575  -1.277  -2.724  0.00  0.00    +0.033 C 
ATOM     18  C   UNL     1       4.750   2.310   0.252  0.00  0.00    +0.000 C 
ATOM     19  C   UNL     1       4.160   2.647   1.468  0.00  0.00    +0.001 C 
ATOM     20  H   UNL     1       1.030  -0.037   2.268  0.00  0.00    +0.166 HD
ENDBRANCH   5  10
ENDBRANCH   1   5
BRANCH   1  21
ATOM     21  C   UNL     1      -2.529  -2.115  -0.150  0.00  0.00    +0.182 C 
BRANCH  21  22
ATOM     22  O   UNL     1      -2.851  -0.892   0.497  0.00  0.00    -0.326 OA
BRANCH  22  28
ATOM     23  O   UNL     1      -2.943   0.233  -1.590  0.00  0.00    -0.329 OA
ATOM     24  C   UNL     1      -2.675   2.115   0.561  0.00  0.00    +0.171 C 
ATOM     25  C   UNL     1      -1.953   2.314  -0.772  0.00  0.00    +0.167 C 
ATOM     26  C   UNL     1      -3.933   1.263   0.381  0.00  0.00    +0.196 C 
ATOM     27  C   UNL     1      -1.717   0.958  -1.451  0.00  0.00    +0.147 C 
ATOM     28  C   UNL     1      -3.609  -0.038  -0.352  0.00  0.00    +0.266 C 
ATOM     29  C   UNL     1      -1.131   1.114  -2.851  0.00  0.00    +0.035 C 
BRANCH  24  30
ATOM     30  O   UNL     1      -3.025   3.388   1.100  0.00  0.00    -0.379 OA
ATOM     31  H   UNL     1      -2.224   3.923   1.212  0.00  0.00    +0.211 HD
ENDBRANCH  24  30
BRANCH  25  32
ATOM     32  O   UNL     1      -0.708   2.958  -0.510  0.00  0.00    -0.379 OA
ATOM     33  H   UNL     1      -0.870   3.812  -0.081  0.00  0.00    +0.211 HD
ENDBRANCH  25  32
BRANCH  26  34
ATOM     34  O   UNL     1      -4.895   1.974  -0.399  0.00  0.00    -0.378 OA
ATOM     35  H   UNL     1      -5.119   2.807   0.045  0.00  0.00    +0.211 HD
ENDBRANCH  26  34
ENDBRANCH  22  28
ENDBRANCH  21  22
ENDBRANCH   1  21
TORSDOF 9
