REMARK  Name = 10389724
REMARK  7 active torsions:
REMARK  status: ('A' for Active; 'I' for Inactive)
REMARK    1  A    between atoms: C_11  and  O_25
REMARK    2  A    between atoms: C_11  and  C_35
REMARK    3  A    between atoms: C_15  and  O_27
REMARK    4  A    between atoms: C_17  and  O_29
REMARK    5  A    between atoms: C_22  and  O_31
REMARK    6  A    between atoms: C_24  and  O_33
REMARK    7  A    between atoms: C_35  and  C_36
REMARK                            x       y       z     vdW  Elec       q    Type
REMARK                         _______ _______ _______ _____ _____    ______ ____
ROOT
ATOM      1  O   UNL     1      -0.986  -1.616  -0.684  0.00  0.00    -0.296 OA
ATOM      2  C   UNL     1      -1.121   1.934  -0.097  0.00  0.00    +0.007 C 
ATOM      3  C   UNL     1      -0.600   0.763  -0.978  0.00  0.00    +0.060 C 
ATOM      4  C   UNL     1      -2.446   1.419   0.542  0.00  0.00    +0.010 C 
ATOM      5  C   UNL     1       0.943   0.690  -0.964  0.00  0.00    +0.036 C 
ATOM      6  C   UNL     1       1.475   0.343   0.454  0.00  0.00    +0.003 C 
ATOM      7  C   UNL     1      -2.339  -0.122   0.626  0.00  0.00    +0.082 C 
ATOM      8  C   UNL     1       3.048   0.359   0.518  0.00  0.00    +0.005 C 
ATOM      9  C   UNL     1      -0.084   2.323   1.001  0.00  0.00    +0.000 C 
ATOM     10  C   UNL     1      -3.791   1.660  -0.175  0.00  0.00    +0.003 C 
ATOM     11  C   UNL     1      -3.732  -0.692   0.292  0.00  0.00    +0.095 C 
ATOM     12  C   UNL     1      -1.269  -0.462  -0.380  0.00  0.00    +0.152 C 
ATOM     13  C   UNL     1       0.755   1.170   1.547  0.00  0.00    +0.000 C 
ATOM     14  C   UNL     1       3.566  -0.632  -0.575  0.00  0.00    +0.032 C 
ATOM     15  C   UNL     1       1.531  -0.238  -2.039  0.00  0.00    +0.137 C 
ATOM     16  C   UNL     1      -4.660   0.518   0.370  0.00  0.00    +0.027 C 
ATOM     17  C   UNL     1       3.066  -0.277  -1.987  0.00  0.00    +0.137 C 
ATOM     18  C   UNL     1      -1.321   3.188  -0.969  0.00  0.00    +0.000 C 
ATOM     19  C   UNL     1       3.535  -0.170   1.906  0.00  0.00    +0.032 C 
ATOM     20  C   UNL     1       5.097  -0.815  -0.520  0.00  0.00    +0.034 C 
ATOM     21  C   UNL     1       3.574   1.800   0.297  0.00  0.00    +0.000 C 
ATOM     22  C   UNL     1       5.038  -0.473   2.006  0.00  0.00    +0.137 C 
ATOM     23  C   UNL     1      -4.441   3.006   0.127  0.00  0.00    +0.000 C 
ATOM     24  C   UNL     1       5.554  -1.328   0.849  0.00  0.00    +0.137 C 
ENDROOT
BRANCH  11  25
ATOM     25  O   UNL     1      -3.801  -1.183  -1.048  0.00  0.00    -0.386 OA
ATOM     26  H   UNL     1      -3.533  -0.482  -1.663  0.00  0.00    +0.210 HD
ENDBRANCH  11  25
BRANCH  15  27
ATOM     27  O   UNL     1       1.125   0.245  -3.321  0.00  0.00    -0.382 OA
ATOM     28  H   UNL     1       0.157   0.274  -3.365  0.00  0.00    +0.210 HD
ENDBRANCH  15  27
BRANCH  17  29
ATOM     29  O   UNL     1       3.518  -1.283  -2.898  0.00  0.00    -0.382 OA
ATOM     30  H   UNL     1       4.487  -1.324  -2.880  0.00  0.00    +0.210 HD
ENDBRANCH  17  29
BRANCH  22  31
ATOM     31  O   UNL     1       5.770   0.746   2.078  0.00  0.00    -0.382 OA
ATOM     32  H   UNL     1       5.435   1.281   2.815  0.00  0.00    +0.210 HD
ENDBRANCH  22  31
BRANCH  24  33
ATOM     33  O   UNL     1       5.082  -2.662   1.037  0.00  0.00    -0.382 OA
ATOM     34  H   UNL     1       5.399  -3.222   0.311  0.00  0.00    +0.210 HD
ENDBRANCH  24  33
BRANCH  11  35
ATOM     35  C   UNL     1      -4.157  -1.811   1.235  0.00  0.00    +0.027 C 
BRANCH  35  36
ATOM     36  C   UNL     1      -5.598  -2.295   1.002  0.00  0.00    +0.002 C 
ATOM     37  C   UNL     1      -6.621  -1.166   1.131  0.00  0.00    +0.000 C 
ATOM     38  C   UNL     1      -5.711  -2.940  -0.381  0.00  0.00    +0.000 C 
ENDBRANCH  35  36
ENDBRANCH  11  35
TORSDOF 7
