REMARK  Name = 10385816
REMARK  7 active torsions:
REMARK  status: ('A' for Active; 'I' for Inactive)
REMARK    1  A    between atoms: C_1  and  C_4
REMARK    2  A    between atoms: C_2  and  N_17
REMARK    3  A    between atoms: C_5  and  O_15
REMARK    4  A    between atoms: C_6  and  O_13
REMARK    5  A    between atoms: C_7  and  C_11
REMARK    6  A    between atoms: N_17  and  C_20
REMARK    7  A    between atoms: C_20  and  N_22
REMARK                            x       y       z     vdW  Elec       q    Type
REMARK                         _______ _______ _______ _____ _____    ______ ____
ROOT
ATOM      1  C   UNL     1      -2.579  -1.537   0.037  0.00  0.00    +0.048 C 
ATOM      2  C   UNL     1      -1.486  -2.557   0.008  0.00  0.00    +0.075 C 
ATOM      3  C   UNL     1      -2.356  -2.349  -1.197  0.00  0.00    +0.026 C 
ENDROOT
BRANCH   1   4
ATOM      4  C   UNL     1      -2.218  -0.086   0.027  0.00  0.00    +0.047 C 
ATOM      5  C   UNL     1      -1.364   0.429   1.002  0.00  0.00    +0.135 C 
ATOM      6  C   UNL     1      -2.738   0.753  -0.959  0.00  0.00    +0.138 C 
ATOM      7  C   UNL     1      -1.029   1.783   0.991  0.00  0.00    +0.068 C 
ATOM      8  C   UNL     1      -2.402   2.107  -0.970  0.00  0.00    +0.037 C 
ATOM      9  C   UNL     1      -1.548   2.622   0.005  0.00  0.00    +0.009 C 
BRANCH   7  11
ATOM     10  O   UNL     1      -0.080   1.869   3.148  0.00  0.00    -0.291 OA
ATOM     11  C   UNL     1      -0.138   2.343   1.998  0.00  0.00    +0.176 C 
ATOM     12  C   UNL     1       0.750   3.534   1.659  0.00  0.00    +0.077 C 
ENDBRANCH   7  11
BRANCH   6  13
ATOM     13  O   UNL     1      -3.574   0.269  -1.920  0.00  0.00    -0.472 OA
ATOM     14  C   UNL     1      -4.971   0.293  -1.635  0.00  0.00    +0.252 C 
ENDBRANCH   6  13
BRANCH   5  15
ATOM     15  O   UNL     1      -0.855  -0.392   1.966  0.00  0.00    -0.506 OA
ATOM     16  H   UNL     1      -1.080  -1.302   1.974  0.00  0.00    +0.292 HD
ENDBRANCH   5  15
ENDBRANCH   1   4
BRANCH   2  17
ATOM     17  N   UNL     1      -0.119  -2.159   0.005  0.00  0.00    -0.317 N 
ATOM     18  H   UNL     1       0.098  -1.326  -0.473  0.00  0.00    +0.148 HD
BRANCH  17  20
ATOM     19  S   UNL     1       0.793  -4.305   1.405  0.00  0.00    -0.019 S 
ATOM     20  C   UNL     1       0.941  -2.827   0.609  0.00  0.00    +0.136 C 
BRANCH  20  22
ATOM     21 CL   UNL     1       4.092   2.561  -2.176  0.00  0.00    -0.081 Cl
ATOM     22  N   UNL     1       2.204  -2.280   0.496  0.00  0.00    -0.281 N 
ATOM     23  N   UNL     1       1.758  -0.372  -0.828  0.00  0.00    -0.228 NA
ATOM     24  C   UNL     1       2.659  -1.106  -0.152  0.00  0.00    +0.133 C 
ATOM     25  C   UNL     1       4.000  -0.810  -0.036  0.00  0.00    +0.035 C 
ATOM     26  C   UNL     1       4.457   0.341  -0.670  0.00  0.00    +0.016 C 
ATOM     27  C   UNL     1       2.238   0.739  -1.430  0.00  0.00    +0.112 C 
ATOM     28  C   UNL     1       3.565   1.135  -1.382  0.00  0.00    +0.077 C 
ATOM     29  H   UNL     1       2.912  -2.798   0.943  0.00  0.00    +0.155 HD
ENDBRANCH  20  22
ENDBRANCH  17  20
ENDBRANCH   2  17
TORSDOF 7
