10388396
  -OEChem-03292013303D

 49 53  0     1  0  0  0  0  0999 V2000
   -1.1367   -2.7260    0.1934 F   0  0  0  0  0  0  0  0  0  0  0  0
   -5.2126   -2.2683    0.1632 O   0  0  0  0  0  0  0  0  0  0  0  0
    3.9225   -2.5768    0.1670 O   0  0  0  0  0  0  0  0  0  0  0  0
    6.2597   -1.6733   -0.6338 O   0  0  0  0  0  0  0  0  0  0  0  0
    6.7589    0.3509    0.3061 O   0  0  0  0  0  0  0  0  0  0  0  0
   -5.6400    2.3971   -0.2296 N   0  0  0  0  0  0  0  0  0  0  0  0
   -1.8916   -0.1174   -0.0368 N   0  0  3  0  0  0  0  0  0  0  0  0
    2.6715    1.2763   -0.1723 N   0  0  0  0  0  0  0  0  0  0  0  0
   -5.3717   -0.8812    0.0425 N   0  0  0  0  0  0  0  0  0  0  0  0
    0.3568    0.5728   -0.1062 N   0  0  0  0  0  0  0  0  0  0  0  0
   -3.9161    1.1823   -0.1417 C   0  0  0  0  0  0  0  0  0  0  0  0
   -4.6544    1.9816   -1.2471 C   0  0  0  0  0  0  0  0  0  0  0  0
   -4.6358    2.1581    0.8258 C   0  0  0  0  0  0  0  0  0  0  0  0
   -2.3837    1.2641   -0.1623 C   0  0  0  0  0  0  0  0  0  0  0  0
   -4.2028   -0.3399   -0.0081 C   0  0  0  0  0  0  0  0  0  0  0  0
   -2.9361   -1.1358    0.0579 C   0  0  0  0  0  0  0  0  0  0  0  0
    2.2661    2.6866   -0.3331 C   0  0  0  0  0  0  0  0  0  0  0  0
    2.7554    3.7377    0.6093 C   0  0  0  0  0  0  0  0  0  0  0  0
    1.3126    3.3255    0.6236 C   0  0  0  0  0  0  0  0  0  0  0  0
   -0.5426   -0.4334   -0.0132 C   0  0  0  0  0  0  0  0  0  0  0  0
    1.6784    0.2569   -0.0818 C   0  0  0  0  0  0  0  0  0  0  0  0
    2.0959   -1.0790    0.0341 C   0  0  0  0  0  0  0  0  0  0  0  0
   -0.2051   -1.7683    0.1051 C   0  0  0  0  0  0  0  0  0  0  0  0
    4.0102    0.9458   -0.1823 C   0  0  0  0  0  0  0  0  0  0  0  0
    1.1428   -2.0947    0.1285 C   0  0  0  0  0  0  0  0  0  0  0  0
    4.5037   -0.2944   -0.0786 C   0  0  0  0  0  0  0  0  0  0  0  0
    3.5415   -1.4186    0.0521 C   0  0  0  0  0  0  0  0  0  0  0  0
    5.9563   -0.4712   -0.0999 C   0  0  0  0  0  0  0  0  0  0  0  0
   -6.5031   -2.8575    0.2183 C   0  0  0  0  0  0  0  0  0  0  0  0
   -4.0861    2.8179   -1.6718 H   0  0  0  0  0  0  0  0  0  0  0  0
   -5.0732    1.3914   -2.0673 H   0  0  0  0  0  0  0  0  0  0  0  0
   -5.0391    1.7157    1.7413 H   0  0  0  0  0  0  0  0  0  0  0  0
   -4.0615    3.0534    1.0928 H   0  0  0  0  0  0  0  0  0  0  0  0
   -2.0238    1.7004   -1.1012 H   0  0  0  0  0  0  0  0  0  0  0  0
   -2.0084    1.8683    0.6716 H   0  0  0  0  0  0  0  0  0  0  0  0
   -5.9588    3.3611   -0.3089 H   0  0  0  0  0  0  0  0  0  0  0  0
   -2.9060   -1.6562    1.0213 H   0  0  0  0  0  0  0  0  0  0  0  0
   -2.9127   -1.8184   -0.7985 H   0  0  0  0  0  0  0  0  0  0  0  0
    2.1744    2.9645   -1.3784 H   0  0  0  0  0  0  0  0  0  0  0  0
    2.9979    4.7105    0.1994 H   0  0  0  0  0  0  0  0  0  0  0  0
    3.3653    3.4445    1.4548 H   0  0  0  0  0  0  0  0  0  0  0  0
    0.9710    2.7741    1.4910 H   0  0  0  0  0  0  0  0  0  0  0  0
    0.5845    4.0200    0.2224 H   0  0  0  0  0  0  0  0  0  0  0  0
    4.6618    1.8075   -0.2912 H   0  0  0  0  0  0  0  0  0  0  0  0
    1.4325   -3.1375    0.2187 H   0  0  0  0  0  0  0  0  0  0  0  0
   -7.0589   -2.6428   -0.6998 H   0  0  0  0  0  0  0  0  0  0  0  0
   -7.0539   -2.4865    1.0883 H   0  0  0  0  0  0  0  0  0  0  0  0
   -6.3857   -3.9402    0.3126 H   0  0  0  0  0  0  0  0  0  0  0  0
    7.2278   -1.8290   -0.6650 H   0  0  0  0  0  0  0  0  0  0  0  0
  1 23  1  0  0  0  0
  2  9  1  0  0  0  0
  2 29  1  0  0  0  0
  3 27  2  0  0  0  0
  4 28  1  0  0  0  0
  4 49  1  0  0  0  0
  5 28  2  0  0  0  0
  6 12  1  0  0  0  0
  6 13  1  0  0  0  0
  6 36  1  0  0  0  0
  7 14  1  0  0  0  0
  7 16  1  0  0  0  0
  7 20  1  0  0  0  0
  8 17  1  0  0  0  0
  8 21  1  0  0  0  0
  8 24  1  0  0  0  0
  9 15  2  0  0  0  0
 10 20  1  0  0  0  0
 10 21  2  0  0  0  0
 11 12  1  0  0  0  0
 11 13  1  0  0  0  0
 11 14  1  0  0  0  0
 11 15  1  0  0  0  0
 12 30  1  0  0  0  0
 12 31  1  0  0  0  0
 13 32  1  0  0  0  0
 13 33  1  0  0  0  0
 14 34  1  0  0  0  0
 14 35  1  0  0  0  0
 15 16  1  0  0  0  0
 16 37  1  0  0  0  0
 16 38  1  0  0  0  0
 17 18  1  0  0  0  0
 17 19  1  0  0  0  0
 17 39  1  0  0  0  0
 18 19  1  0  0  0  0
 18 40  1  0  0  0  0
 18 41  1  0  0  0  0
 19 42  1  0  0  0  0
 19 43  1  0  0  0  0
 20 23  2  0  0  0  0
 21 22  1  0  0  0  0
 22 25  2  0  0  0  0
 22 27  1  0  0  0  0
 23 25  1  0  0  0  0
 24 26  2  0  0  0  0
 24 44  1  0  0  0  0
 25 45  1  0  0  0  0
 26 27  1  0  0  0  0
 26 28  1  0  0  0  0
 29 46  1  0  0  0  0
 29 47  1  0  0  0  0
 29 48  1  0  0  0  0
M  END
> <PUBCHEM_COMPOUND_CID>
10388396

> <PUBCHEM_CONFORMER_RMSD>
0.8

> <PUBCHEM_CONFORMER_DIVERSEORDER>
1
7
2
6
3
8
5
4

> <PUBCHEM_MMFF94_PARTIAL_CHARGES>
38
1 -0.19
10 -0.62
11 0.05
12 0.21
13 0.21
14 0.37
15 0.34
16 0.43
17 0.07
18 -0.2
19 -0.2
2 -0.22
20 0.41
21 0.41
22 0.09
23 0.19
24 -0.05
25 -0.15
26 0.03
27 0.47
28 0.71
29 0.28
3 -0.57
36 0.36
39 0.1
4 -0.65
40 0.1
41 0.1
42 0.1
43 0.1
44 0.15
45 0.15
49 0.5
5 -0.57
6 -0.78
7 -0.84
8 -0.37
9 -0.51

> <PUBCHEM_EFFECTIVE_ROTOR_COUNT>
5.8

> <PUBCHEM_PHARMACOPHORE_FEATURES>
14
1 26 anion
1 3 acceptor
1 4 acceptor
1 5 acceptor
1 6 cation
1 6 donor
1 7 cation
1 9 acceptor
3 4 5 28 anion
3 8 10 21 cation
4 6 11 12 13 rings
5 7 11 14 15 16 rings
6 10 20 21 22 23 25 rings
6 8 21 22 24 26 27 rings

> <PUBCHEM_HEAVY_ATOM_COUNT>
29

> <PUBCHEM_ATOM_DEF_STEREO_COUNT>
0

> <PUBCHEM_ATOM_UDEF_STEREO_COUNT>
0

> <PUBCHEM_BOND_DEF_STEREO_COUNT>
1

> <PUBCHEM_BOND_UDEF_STEREO_COUNT>
0

> <PUBCHEM_ISOTOPIC_ATOM_COUNT>
0

> <PUBCHEM_COMPONENT_COUNT>
1

> <PUBCHEM_CACTVS_TAUTO_COUNT>
1

> <PUBCHEM_CONFORMER_ID>
009E83AC00000001

> <PUBCHEM_MMFF94_ENERGY>
97.341

> <PUBCHEM_FEATURE_SELFOVERLAP>
71.5

> <PUBCHEM_SHAPE_FINGERPRINT>
10366900 7 17385722508389877017
10675989 125 16967725266685509077
10906281 52 18269855159130910700
1100329 8 18411138048103113792
11578080 2 16843027896084335370
11646440 116 18272093773126147784
12107698 1 18340485664158666863
12166972 35 18335144223501205524
12236239 1 17989203707770232620
12403259 226 18335697226357790181
12838862 33 18265877117582699056
12925494 130 18340202995714330833
13402501 40 18335700503365193484
13533116 47 18267868465740768509
13631057 29 18410290342203290827
14466204 15 18337105675025229160
14790565 3 18409173186459459860
14849402 71 18338242690424121264
15081414 286 18269562650156330716
15196674 1 18409449154849993639
15238133 3 18335147479698066668
1601671 61 18409728422561569796
16087824 20 18194685865181798924
17492 89 18410854386972303035
17844677 252 18412269466894894315
18681886 176 18343014506421396754
21033648 144 18263353699625885237
21033648 29 17703209768202625602
21130935 74 18410570653022539514
21133410 127 17754163499372455909
21236236 1 18409449176894678707
21267235 1 18410581716140556951
21279426 13 18338518534761257166
21315763 129 18411138056360368631
21709351 56 18412820283476053517
21792934 111 18339077203333780955
22393880 68 18260256448289782325
23558518 356 17972035009780436298
23559900 14 18341041948080186817
24771293 8 18129362952506203392
24771750 20 18120666987861615900
335352 9 18410293584549704100
34934 24 18410851045783100330
350125 39 18410295843623269619
3680242 22 18188768341235288474
4073 2 18113344110785391171
4214541 1 18409730651728607333
5104073 3 18409727331481654387
59755656 215 18267024951760539014
6086070 43 17823674461238833309
6328613 192 18335708265009576316
9996256 80 18410294735195062423

> <PUBCHEM_SHAPE_MULTIPOLES>
541.15
15.28
3.9
0.73
2.75
1.71
0.04
-3.76
0.55
1.22
-0.51
0.26
0.27
0.87

> <PUBCHEM_SHAPE_SELFOVERLAP>
1183.799

> <PUBCHEM_SHAPE_VOLUME>
295.5

> <PUBCHEM_COORDINATE_TYPE>
2
5
10

$$$$
