REMARK  Name = 10383888
REMARK  11 active torsions:
REMARK  status: ('A' for Active; 'I' for Inactive)
REMARK    1  A    between atoms: O_1  and  C_7
REMARK    2  A    between atoms: O_1  and  C_17
REMARK    3  A    between atoms: C_3  and  O_8
REMARK    4  A    between atoms: C_4  and  O_10
REMARK    5  A    between atoms: C_5  and  O_12
REMARK    6  A    between atoms: C_6  and  C_14
REMARK    7  A    between atoms: C_14  and  O_15
REMARK    8  A    between atoms: C_18  and  O_23
REMARK    9  A    between atoms: C_19  and  O_25
REMARK   10  A    between atoms: C_22  and  C_28
REMARK   11  A    between atoms: C_28  and  O_29
REMARK                            x       y       z     vdW  Elec       q    Type
REMARK                         _______ _______ _______ _____ _____    ______ ____
ROOT
ATOM      1  O   UNL     1      -0.249   0.593  -1.028  0.00  0.00    -0.444 OA
ENDROOT
BRANCH   1   7
ATOM      2  O   UNL     1      -2.196  -0.668  -0.771  0.00  0.00    -0.316 OA
ATOM      3  C   UNL     1      -3.343   1.302   0.977  0.00  0.00    +0.173 C 
ATOM      4  C   UNL     1      -4.168   0.171   0.362  0.00  0.00    +0.169 C 
ATOM      5  C   UNL     1      -2.079   1.572   0.160  0.00  0.00    +0.210 C 
ATOM      6  C   UNL     1      -3.288  -1.046   0.069  0.00  0.00    +0.177 C 
ATOM      7  C   UNL     1      -1.329   0.277  -0.148  0.00  0.00    +0.318 C 
BRANCH   3   8
ATOM      8  O   UNL     1      -4.154   2.477   1.002  0.00  0.00    -0.379 OA
ATOM      9  H   UNL     1      -4.956   2.306   1.520  0.00  0.00    +0.211 HD
ENDBRANCH   3   8
BRANCH   4  10
ATOM     10  O   UNL     1      -5.203  -0.203   1.267  0.00  0.00    -0.379 OA
ATOM     11  H   UNL     1      -5.763   0.567   1.455  0.00  0.00    +0.211 HD
ENDBRANCH   4  10
BRANCH   5  12
ATOM     12  O   UNL     1      -1.210   2.427   0.901  0.00  0.00    -0.377 OA
ATOM     13  H   UNL     1      -1.669   3.256   1.106  0.00  0.00    +0.211 HD
ENDBRANCH   5  12
BRANCH   6  14
ATOM     14  C   UNL     1      -4.064  -2.144  -0.651  0.00  0.00    +0.169 C 
BRANCH  14  15
ATOM     15  O   UNL     1      -3.187  -3.229  -0.898  0.00  0.00    -0.379 OA
ATOM     16  H   UNL     1      -3.668  -3.935  -1.357  0.00  0.00    +0.211 HD
ENDBRANCH  14  15
ENDBRANCH   6  14
ENDBRANCH   1   7
BRANCH   1  17
ATOM     17  C   UNL     1       1.010   0.301  -0.580  0.00  0.00    +0.209 C 
ATOM     18  C   UNL     1       1.346  -1.014  -0.266  0.00  0.00    +0.176 C 
ATOM     19  C   UNL     1       1.950   1.319  -0.442  0.00  0.00    +0.176 C 
ATOM     20  C   UNL     1       2.630  -1.312   0.189  0.00  0.00    +0.047 C 
ATOM     21  C   UNL     1       3.234   1.020   0.013  0.00  0.00    +0.047 C 
ATOM     22  C   UNL     1       3.574  -0.295   0.329  0.00  0.00    +0.082 C 
BRANCH  18  23
ATOM     23  O   UNL     1       0.434  -2.017  -0.399  0.00  0.00    -0.468 OA
ATOM     24  C   UNL     1       0.863  -3.333  -0.055  0.00  0.00    +0.253 C 
ENDBRANCH  18  23
BRANCH  19  25
ATOM     25  O   UNL     1       1.630   2.608  -0.746  0.00  0.00    -0.468 OA
ATOM     26  C   UNL     1       1.858   3.033  -2.088  0.00  0.00    +0.253 C 
ENDBRANCH  19  25
BRANCH  22  28
ATOM     27  O   UNL     1       5.320  -1.730   1.115  0.00  0.00    -0.245 OA
ATOM     28  C   UNL     1       4.913  -0.605   0.806  0.00  0.00    +0.338 C 
BRANCH  28  29
ATOM     29  O   UNL     1       5.707   0.498   0.883  0.00  0.00    -0.477 OA
ATOM     30  H   UNL     1       5.367   1.337   0.641  0.00  0.00    +0.295 HD
ENDBRANCH  28  29
ENDBRANCH  22  28
ENDBRANCH   1  17
TORSDOF 11
