10383691
  -OEChem-03292013303D

 43 44  0     1  0  0  0  0  0999 V2000
   -1.0224    0.0939   -2.5012 S   0  0  0  0  0  0  0  0  0  0  0  0
   -0.9100    1.7960    1.8235 O   0  0  0  0  0  0  0  0  0  0  0  0
    1.7180    3.2021    0.8238 O   0  0  0  0  0  0  0  0  0  0  0  0
   -3.7349    0.3635    2.0259 O   0  0  0  0  0  0  0  0  0  0  0  0
   -2.6725   -1.6610    2.0808 O   0  0  0  0  0  0  0  0  0  0  0  0
    1.0920   -2.0263    0.3711 O   0  0  0  0  0  0  0  0  0  0  0  0
    2.6428   -3.1065   -0.8812 O   0  0  0  0  0  0  0  0  0  0  0  0
   -1.8634    0.7770   -0.0774 N   0  0  0  0  0  0  0  0  0  0  0  0
    0.8678    1.9237   -0.9147 N   0  0  0  0  0  0  0  0  0  0  0  0
    4.7141   -2.1348    0.5790 N   0  0  0  0  0  0  0  0  0  0  0  0
   -1.6264    1.3750   -1.3787 C   0  0  1  0  0  0  0  0  0  0  0  0
   -0.5526    2.2374   -0.6799 C   0  0  1  0  0  0  0  0  0  0  0  0
   -1.1115    1.6381    0.6421 C   0  0  0  0  0  0  0  0  0  0  0  0
   -2.6417   -0.3181    0.1196 C   0  0  0  0  0  0  0  0  0  0  0  0
   -2.5365   -0.9130   -2.3455 C   0  0  0  0  0  0  0  0  0  0  0  0
   -3.0210   -1.1108   -0.9109 C   0  0  0  0  0  0  0  0  0  0  0  0
    1.8876    2.4441   -0.1275 C   0  0  0  0  0  0  0  0  0  0  0  0
    3.2567    1.9850   -0.6004 C   0  0  0  0  0  0  0  0  0  0  0  0
   -3.9491   -2.2950   -0.7848 C   0  0  0  0  0  0  0  0  0  0  0  0
    3.4371    0.4664   -0.5751 C   0  0  0  0  0  0  0  0  0  0  0  0
   -2.9998   -0.6407    1.5089 C   0  0  0  0  0  0  0  0  0  0  0  0
    3.2731   -0.1119    0.8393 C   0  0  0  0  0  0  0  0  0  0  0  0
    3.3816   -1.6423    0.9275 C   0  0  1  0  0  0  0  0  0  0  0  0
    2.3711   -2.3420    0.0357 C   0  0  0  0  0  0  0  0  0  0  0  0
   -2.4854    1.9481   -1.7476 H   0  0  0  0  0  0  0  0  0  0  0  0
   -0.7387    3.3140   -0.7727 H   0  0  0  0  0  0  0  0  0  0  0  0
    1.1178    1.3401   -1.7088 H   0  0  0  0  0  0  0  0  0  0  0  0
   -3.3337   -0.4522   -2.9389 H   0  0  0  0  0  0  0  0  0  0  0  0
   -2.3049   -1.8850   -2.7938 H   0  0  0  0  0  0  0  0  0  0  0  0
    3.4081    2.3586   -1.6200 H   0  0  0  0  0  0  0  0  0  0  0  0
    4.0131    2.4615    0.0342 H   0  0  0  0  0  0  0  0  0  0  0  0
    4.4400    0.2317   -0.9510 H   0  0  0  0  0  0  0  0  0  0  0  0
    2.7283   -0.0094   -1.2608 H   0  0  0  0  0  0  0  0  0  0  0  0
   -4.7586   -2.2169   -1.5187 H   0  0  0  0  0  0  0  0  0  0  0  0
   -4.4207   -2.3699    0.1987 H   0  0  0  0  0  0  0  0  0  0  0  0
   -3.4019   -3.2251   -0.9693 H   0  0  0  0  0  0  0  0  0  0  0  0
    4.0219    0.3418    1.5016 H   0  0  0  0  0  0  0  0  0  0  0  0
    2.2949    0.1826    1.2392 H   0  0  0  0  0  0  0  0  0  0  0  0
    3.1749   -1.9550    1.9582 H   0  0  0  0  0  0  0  0  0  0  0  0
   -3.9965    0.1891    2.9551 H   0  0  0  0  0  0  0  0  0  0  0  0
    5.4094   -1.6882    1.1756 H   0  0  0  0  0  0  0  0  0  0  0  0
    4.7720   -3.1339    0.7728 H   0  0  0  0  0  0  0  0  0  0  0  0
    0.4399   -2.4761   -0.2076 H   0  0  0  0  0  0  0  0  0  0  0  0
  1 11  1  0  0  0  0
  1 15  1  0  0  0  0
  2 13  2  0  0  0  0
  3 17  2  0  0  0  0
  4 21  1  0  0  0  0
  4 40  1  0  0  0  0
  5 21  2  0  0  0  0
  6 24  1  0  0  0  0
  6 43  1  0  0  0  0
  7 24  2  0  0  0  0
  8 11  1  0  0  0  0
  8 13  1  0  0  0  0
  8 14  1  0  0  0  0
  9 12  1  0  0  0  0
  9 17  1  0  0  0  0
  9 27  1  0  0  0  0
 10 23  1  0  0  0  0
 10 41  1  0  0  0  0
 10 42  1  0  0  0  0
 11 12  1  0  0  0  0
 11 25  1  0  0  0  0
 12 13  1  0  0  0  0
 12 26  1  0  0  0  0
 14 16  2  0  0  0  0
 14 21  1  0  0  0  0
 15 16  1  0  0  0  0
 15 28  1  0  0  0  0
 15 29  1  0  0  0  0
 16 19  1  0  0  0  0
 17 18  1  0  0  0  0
 18 20  1  0  0  0  0
 18 30  1  0  0  0  0
 18 31  1  0  0  0  0
 19 34  1  0  0  0  0
 19 35  1  0  0  0  0
 19 36  1  0  0  0  0
 20 22  1  0  0  0  0
 20 32  1  0  0  0  0
 20 33  1  0  0  0  0
 22 23  1  0  0  0  0
 22 37  1  0  0  0  0
 22 38  1  0  0  0  0
 23 24  1  0  0  0  0
 23 39  1  0  0  0  0
M  END
> <PUBCHEM_COMPOUND_CID>
10383691

> <PUBCHEM_CONFORMER_RMSD>
0.8

> <PUBCHEM_CONFORMER_DIVERSEORDER>
1
33
72
128
13
81
28
32
18
62
86
115
133
37
48
110
42
34
136
27
97
118
67
106
14
60
50
36
39
90
21
17
108
44
137
53
103
93
7
73
131
12
57
30
41
24
20
76
84
102
15
116
58
11
56
9
119
112
8
100
31
94
22
125
6
10
88
101
68
40
75
19
2
120
129
132
130
135
85
3
4
127
104
59
25
126
29
64
117
38
114
92
65
55
16
83
47
5
78
54
49
134
43
111
121
96
26
71
89
122
46
82
51
123
87
45
70
80
35
61
99
95
105
52
23
138
113
66
74
77
124
91
69
98
107
63
79
109

> <PUBCHEM_MMFF94_PARTIAL_CHARGES>
27
1 -0.45
10 -0.99
11 0.44
12 0.28
13 0.58
14 0.12
15 0.37
16 -0.28
17 0.57
18 0.06
19 0.14
2 -0.57
21 0.71
23 0.33
24 0.66
27 0.37
3 -0.57
4 -0.65
40 0.5
41 0.36
42 0.36
43 0.5
5 -0.57
6 -0.65
7 -0.57
8 -0.39
9 -0.65

> <PUBCHEM_EFFECTIVE_ROTOR_COUNT>
8.6

> <PUBCHEM_PHARMACOPHORE_FEATURES>
13
1 10 cation
1 10 donor
1 2 acceptor
1 3 acceptor
1 4 acceptor
1 5 acceptor
1 6 acceptor
1 7 acceptor
1 9 donor
3 4 5 21 anion
3 6 7 24 anion
4 8 11 12 13 rings
6 1 8 11 14 15 16 rings

> <PUBCHEM_HEAVY_ATOM_COUNT>
24

> <PUBCHEM_ATOM_DEF_STEREO_COUNT>
2

> <PUBCHEM_ATOM_UDEF_STEREO_COUNT>
1

> <PUBCHEM_BOND_DEF_STEREO_COUNT>
0

> <PUBCHEM_BOND_UDEF_STEREO_COUNT>
0

> <PUBCHEM_ISOTOPIC_ATOM_COUNT>
0

> <PUBCHEM_COMPONENT_COUNT>
1

> <PUBCHEM_CACTVS_TAUTO_COUNT>
2

> <PUBCHEM_CONFORMER_ID>
009E714B00000001

> <PUBCHEM_MMFF94_ENERGY>
50.818

> <PUBCHEM_FEATURE_SELFOVERLAP>
66.347

> <PUBCHEM_SHAPE_FINGERPRINT>
10764073 3 17611486142246019545
11578080 2 17772438357572553961
12156800 1 11665087535290582750
12553582 1 18410577279744957516
12596599 1 17988648522791005550
12633257 1 18339088102832266851
128993 33 10375001134711119738
13583140 156 18196952173800835161
15635459 17 17968931010776645579
17138139 8 16762245805664644423
19930381 70 18408594864491220343
20645477 70 18188195623851106412
21285901 2 17532910900712520527
21421861 104 18269579215665915105
21427221 339 17916324795483560745
23419403 2 18040437694255791735
23598288 3 18060422369735609404
238 59 18187637068081589476
2818148 4 18200049343194611238
3493558 16 15184599941880835569
5262128 65 16515405191989535012
6287921 2 18059023795546059502
7097593 13 18272099261688163160

> <PUBCHEM_SHAPE_MULTIPOLES>
447.6
7.49
3.52
2.05
2.51
0.23
0.13
4.57
-1.02
2.94
-0.09
-2.22
0.06
-0.46

> <PUBCHEM_SHAPE_SELFOVERLAP>
912.677

> <PUBCHEM_SHAPE_VOLUME>
259.6

> <PUBCHEM_COORDINATE_TYPE>
2
5
10

$$$$
