REMARK  Name = 10389431
REMARK  16 active torsions:
REMARK  status: ('A' for Active; 'I' for Inactive)
REMARK    1  A    between atoms: C_1  and  C_4
REMARK    2  A    between atoms: C_1  and  N_18
REMARK    3  A    between atoms: C_1  and  C_34
REMARK    4  A    between atoms: N_3  and  C_6
REMARK    5  A    between atoms: C_6  and  C_8
REMARK    6  A    between atoms: C_6  and  C_11
REMARK    7  A    between atoms: C_8  and  O_9
REMARK    8  A    between atoms: C_11  and  C_12
REMARK    9  A    between atoms: N_18  and  C_21
REMARK   10  A    between atoms: C_21  and  C_22
REMARK   11  A    between atoms: C_22  and  C_23
REMARK   12  A    between atoms: C_23  and  C_24
REMARK   13  A    between atoms: C_27  and  O_32
REMARK   14  A    between atoms: C_29  and  O_30
REMARK   15  A    between atoms: C_34  and  C_36
REMARK   16  A    between atoms: C_36  and  O_37
REMARK                            x       y       z     vdW  Elec       q    Type
REMARK                         _______ _______ _______ _____ _____    ______ ____
ROOT
ATOM      1  C   UNL     1       1.076   2.223  -0.324  0.00  0.00    +0.028 C 
ENDROOT
BRANCH   1   4
ATOM      2  O   UNL     1       1.251   1.434   1.962  0.00  0.00    -0.277 OA
ATOM      3  N   UNL     1       2.832   0.728   0.420  0.00  0.00    -0.298 N 
ATOM      4  C   UNL     1       1.711   1.440   0.823  0.00  0.00    +0.203 C 
ATOM      5  H   UNL     1       3.127   0.795  -0.517  0.00  0.00    +0.150 HD
BRANCH   3   6
ATOM      6  C   UNL     1       3.581  -0.107   1.329  0.00  0.00    +0.176 C 
BRANCH   6   8
ATOM      7  O   UNL     1       5.550   0.483   0.059  0.00  0.00    -0.248 OA
ATOM      8  C   UNL     1       5.074  -0.096   1.031  0.00  0.00    +0.335 C 
BRANCH   8   9
ATOM      9  O   UNL     1       5.787  -0.807   1.948  0.00  0.00    -0.443 OA
ATOM     10  C   UNL     1       7.201  -0.863   1.729  0.00  0.00    +0.256 C 
ENDBRANCH   8   9
ENDBRANCH   6   8
BRANCH   6  11
ATOM     11  C   UNL     1       3.014  -1.534   1.373  0.00  0.00    +0.057 C 
BRANCH  11  12
ATOM     12  C   UNL     1       3.112  -2.292   0.069  0.00  0.00    -0.020 C 
ATOM     13  C   UNL     1       4.241  -3.064  -0.206  0.00  0.00    -0.004 C 
ATOM     14  C   UNL     1       2.073  -2.221  -0.860  0.00  0.00    -0.004 C 
ATOM     15  C   UNL     1       4.332  -3.764  -1.409  0.00  0.00    -0.000 C 
ATOM     16  C   UNL     1       2.163  -2.921  -2.063  0.00  0.00    -0.000 C 
ATOM     17  C   UNL     1       3.293  -3.692  -2.338  0.00  0.00    -0.000 C 
ENDBRANCH  11  12
ENDBRANCH   6  11
ENDBRANCH   3   6
ENDBRANCH   1   4
BRANCH   1  18
ATOM     18  N   UNL     1      -0.364   2.228  -0.065  0.00  0.00    +0.391 N 
ATOM     19  H   UNL     1      -0.796   2.987  -0.591  0.00  0.00    -0.084 HD
ATOM     20  H   UNL     1      -0.517   2.357   0.935  0.00  0.00    -0.084 HD
BRANCH  18  21
ATOM     21  C   UNL     1      -0.963   0.966  -0.470  0.00  0.00    -0.081 C 
BRANCH  21  22
ATOM     22  C   UNL     1      -2.466   0.980  -0.196  0.00  0.00    -0.019 C 
BRANCH  22  23
ATOM     23  C   UNL     1      -3.118  -0.334  -0.636  0.00  0.00    +0.024 C 
BRANCH  23  24
ATOM     24  C   UNL     1      -4.596  -0.350  -0.338  0.00  0.00    -0.019 C 
ATOM     25  C   UNL     1      -5.054  -0.833   0.888  0.00  0.00    +0.036 C 
ATOM     26  C   UNL     1      -5.504   0.118  -1.287  0.00  0.00    -0.001 C 
ATOM     27  C   UNL     1      -6.421  -0.849   1.164  0.00  0.00    +0.167 C 
ATOM     28  C   UNL     1      -6.871   0.103  -1.011  0.00  0.00    +0.040 C 
ATOM     29  C   UNL     1      -7.330  -0.381   0.215  0.00  0.00    +0.172 C 
BRANCH  29  30
ATOM     30  O   UNL     1      -8.667  -0.389   0.474  0.00  0.00    -0.468 OA
ATOM     31  C   UNL     1      -9.529   0.106  -0.549  0.00  0.00    +0.253 C 
ENDBRANCH  29  30
BRANCH  27  32
ATOM     32  O   UNL     1      -6.857  -1.322   2.365  0.00  0.00    -0.503 OA
ATOM     33  H   UNL     1      -6.240  -1.635   2.997  0.00  0.00    +0.292 HD
ENDBRANCH  27  32
ENDBRANCH  23  24
ENDBRANCH  22  23
ENDBRANCH  21  22
ENDBRANCH  18  21
ENDBRANCH   1  18
BRANCH   1  34
ATOM     34  C   UNL     1       1.579   3.666  -0.387  0.00  0.00    +0.097 C 
BRANCH  34  36
ATOM     35  O   UNL     1       3.066   3.391  -2.272  0.00  0.00    -0.250 OA
ATOM     36  C   UNL     1       2.902   3.741  -1.110  0.00  0.00    +0.312 C 
BRANCH  36  37
ATOM     37  O   UNL     1       3.903   4.213  -0.326  0.00  0.00    -0.480 OA
ATOM     38  H   UNL     1       3.725   4.468   0.558  0.00  0.00    +0.295 HD
ENDBRANCH  36  37
ENDBRANCH  34  36
ENDBRANCH   1  34
TORSDOF 16
