REMARK  Name = 10387862
REMARK  9 active torsions:
REMARK  status: ('A' for Active; 'I' for Inactive)
REMARK    1  A    between atoms: N_2  and  C_23
REMARK    2  A    between atoms: C_3  and  C_5
REMARK    3  A    between atoms: C_5  and  N_7
REMARK    4  A    between atoms: C_8  and  C_12
REMARK    5  A    between atoms: C_16  and  C_17
REMARK    6  A    between atoms: C_17  and  N_19
REMARK    7  A    between atoms: C_23  and  C_26
REMARK    8  A    between atoms: C_23  and  C_29
REMARK    9  A    between atoms: C_29  and  C_31
REMARK                            x       y       z     vdW  Elec       q    Type
REMARK                         _______ _______ _______ _____ _____    ______ ____
ROOT
ATOM      1  O   UNL     1      -1.812  -2.052   1.453  0.00  0.00    -0.273 OA
ATOM      2  N   UNL     1      -2.771  -1.334  -0.538  0.00  0.00    -0.297 N 
ATOM      3  C   UNL     1      -1.764  -1.892   0.236  0.00  0.00    +0.243 C 
ATOM      4  H   UNL     1      -2.624  -1.253  -1.509  0.00  0.00    +0.150 HD
ENDROOT
BRANCH   3   5
ATOM      5  C   UNL     1      -0.595  -2.342  -0.614  0.00  0.00    +0.176 C 
BRANCH   5   7
ATOM      6  O   UNL     1       1.235  -0.106  -0.331  0.00  0.00    -0.273 OA
ATOM      7  N   UNL     1       0.619  -2.295   0.169  0.00  0.00    -0.295 N 
ATOM      8  C   UNL     1       1.430  -1.175   0.241  0.00  0.00    +0.241 C 
ATOM      9  H   UNL     1       0.881  -3.097   0.676  0.00  0.00    +0.150 HD
BRANCH   8  12
ATOM     10  O   UNL     1       4.251  -1.853  -1.169  0.00  0.00    -0.277 OA
ATOM     11  N   UNL     1       3.685  -0.536   0.648  0.00  0.00    -0.275 N 
ATOM     12  C   UNL     1       2.610  -1.386   1.142  0.00  0.00    +0.152 C 
ATOM     13  C   UNL     1       2.339  -0.887   2.556  0.00  0.00    +0.031 C 
ATOM     14  C   UNL     1       2.722   0.590   2.490  0.00  0.00    +0.024 C 
ATOM     15  C   UNL     1       3.908   0.601   1.538  0.00  0.00    +0.094 C 
ATOM     16  C   UNL     1       4.470  -0.884  -0.440  0.00  0.00    +0.205 C 
BRANCH  16  17
ATOM     17  C   UNL     1       5.647   0.020  -0.707  0.00  0.00    +0.013 C 
ATOM     18  C   UNL     1       5.241   1.132  -1.652  0.00  0.00    -0.015 C 
BRANCH  17  19
ATOM     19  N   UNL     1       6.690  -0.807  -1.291  0.00  0.00    +0.387 N 
ATOM     20  H   UNL     1       6.944  -1.546  -0.636  0.00  0.00    -0.089 HD
ATOM     21  H   UNL     1       7.509  -0.232  -1.489  0.00  0.00    -0.089 HD
ATOM     22  H   UNL     1       6.349  -1.223  -2.157  0.00  0.00    -0.089 HD
ENDBRANCH  17  19
ENDBRANCH  16  17
ENDBRANCH   8  12
ENDBRANCH   5   7
ENDBRANCH   3   5
BRANCH   2  23
ATOM     23  C   UNL     1      -4.024  -0.864   0.008  0.00  0.00    +0.153 C 
BRANCH  23  26
ATOM     24  O   UNL     1      -5.099  -2.159  -1.745  0.00  0.00    -0.274 OA
ATOM     25  N   UNL     1      -6.136  -2.002   0.298  0.00  0.00    -0.327 N 
ATOM     26  C   UNL     1      -5.125  -1.722  -0.597  0.00  0.00    +0.238 C 
ATOM     27  H   UNL     1      -6.904  -2.551   0.018  0.00  0.00    +0.145 HD
ATOM     28  H   UNL     1      -6.090  -1.653   1.218  0.00  0.00    +0.145 HD
ENDBRANCH  23  26
BRANCH  23  29
ATOM     29  C   UNL     1      -4.271   0.619  -0.296  0.00  0.00    +0.057 C 
BRANCH  29  31
ATOM     30  N   UNL     1      -2.072   2.829   1.605  0.00  0.00    -0.312 N 
ATOM     31  C   UNL     1      -3.199   1.519   0.250  0.00  0.00    -0.004 C 
ATOM     32  C   UNL     1      -2.028   1.909  -0.427  0.00  0.00    +0.011 C 
ATOM     33  C   UNL     1      -1.328   2.740   0.451  0.00  0.00    +0.048 C 
ATOM     34  C   UNL     1      -3.216   2.086   1.488  0.00  0.00    +0.058 C 
ATOM     35  C   UNL     1      -1.478   1.648  -1.698  0.00  0.00    +0.001 C 
ATOM     36  C   UNL     1      -0.101   3.325   0.119  0.00  0.00    +0.015 C 
ATOM     37  C   UNL     1      -0.252   2.227  -2.043  0.00  0.00    +0.000 C 
ATOM     38  C   UNL     1       0.425   3.052  -1.147  0.00  0.00    +0.001 C 
ATOM     39  H   UNL     1      -1.819   3.352   2.400  0.00  0.00    +0.152 HD
ENDBRANCH  29  31
ENDBRANCH  23  29
ENDBRANCH   2  23
TORSDOF 9
