REMARK  Name = 10380064
REMARK  10 active torsions:
REMARK  status: ('A' for Active; 'I' for Inactive)
REMARK    1  A    between atoms: S_1  and  C_2
REMARK    2  A    between atoms: S_1  and  C_13
REMARK    3  A    between atoms: C_2  and  C_4
REMARK    4  A    between atoms: C_5  and  C_8
REMARK    5  A    between atoms: C_8  and  N_9
REMARK    6  A    between atoms: C_13  and  C_14
REMARK    7  A    between atoms: C_14  and  N_15
REMARK    8  A    between atoms: N_15  and  C_17
REMARK    9  A    between atoms: C_17  and  N_22
REMARK   10  A    between atoms: C_18  and  N_21
REMARK                            x       y       z     vdW  Elec       q    Type
REMARK                         _______ _______ _______ _____ _____    ______ ____
ROOT
ATOM      1  S   UNL     1       0.615  -2.211   1.028  0.00  0.00    -0.130 S 
ENDROOT
BRANCH   1   2
ATOM      2  C   UNL     1       1.431  -2.104  -0.581  0.00  0.00    +0.122 C 
BRANCH   2   4
ATOM      3  O   UNL     1       2.764  -0.072  -0.625  0.00  0.00    -0.463 OA
ATOM      4  C   UNL     1       2.764  -1.422  -0.470  0.00  0.00    +0.133 C 
ATOM      5  C   UNL     1       4.053   0.335  -0.489  0.00  0.00    +0.101 C 
ATOM      6  C   UNL     1       4.040  -1.881  -0.237  0.00  0.00    +0.037 C 
ATOM      7  C   UNL     1       4.877  -0.740  -0.249  0.00  0.00    +0.034 C 
BRANCH   5   8
ATOM      8  C   UNL     1       4.297   1.778  -0.619  0.00  0.00    -0.015 C 
BRANCH   8   9
ATOM      9  N   UNL     1       4.200   2.482   0.671  0.00  0.00    +0.387 N 
ATOM     10  C   UNL     1       4.457   3.899   0.494  0.00  0.00    -0.105 C 
ATOM     11  H   UNL     1       4.886   2.094   1.318  0.00  0.00    -0.084 HD
ATOM     12  H   UNL     1       3.259   2.360   1.045  0.00  0.00    -0.084 HD
ENDBRANCH   8   9
ENDBRANCH   5   8
ENDBRANCH   2   4
ENDBRANCH   1   2
BRANCH   1  13
ATOM     13  C   UNL     1      -0.902  -3.062   0.494  0.00  0.00    +0.079 C 
BRANCH  13  14
ATOM     14  C   UNL     1      -1.879  -2.122  -0.200  0.00  0.00    +0.100 C 
BRANCH  14  15
ATOM     15  N   UNL     1      -2.314  -1.067   0.685  0.00  0.00    -0.319 N 
ATOM     16  H   UNL     1      -1.941  -1.071   1.596  0.00  0.00    +0.148 HD
BRANCH  15  17
ATOM     17  C   UNL     1      -3.212  -0.041   0.380  0.00  0.00    +0.118 C 
ATOM     18  C   UNL     1      -3.795   0.071  -0.833  0.00  0.00    +0.194 C 
BRANCH  18  21
ATOM     19  O   UNL     1      -4.273   2.289  -0.992  0.00  0.00    -0.126 OA
ATOM     20  O   UNL     1      -5.859   0.822  -1.422  0.00  0.00    -0.126 OA
ATOM     21  N   UNL     1      -4.702   1.130  -1.100  0.00  0.00    +0.062 N 
ENDBRANCH  18  21
BRANCH  17  22
ATOM     22  N   UNL     1      -3.527   0.910   1.357  0.00  0.00    -0.319 N 
ATOM     23  C   UNL     1      -3.036   1.004   2.711  0.00  0.00    +0.109 C 
ATOM     24  H   UNL     1      -4.167   1.607   1.084  0.00  0.00    +0.148 HD
ENDBRANCH  17  22
ENDBRANCH  15  17
ENDBRANCH  14  15
ENDBRANCH  13  14
ENDBRANCH   1  13
TORSDOF 10
