REMARK  Name = 10382483
REMARK  5 active torsions:
REMARK  status: ('A' for Active; 'I' for Inactive)
REMARK    1  A    between atoms: C_6  and  C_22
REMARK    2  A    between atoms: C_10  and  O_18
REMARK    3  A    between atoms: C_13  and  O_20
REMARK    4  A    between atoms: C_22  and  O_23
REMARK    5  A    between atoms: O_23  and  C_25
REMARK                            x       y       z     vdW  Elec       q    Type
REMARK                         _______ _______ _______ _____ _____    ______ ____
ROOT
ATOM      1  O   UNL     1       2.995   1.293  -1.726  0.00  0.00    -0.351 OA
ATOM      2  O   UNL     1       2.009  -1.429   0.485  0.00  0.00    -0.349 OA
ATOM      3  O   UNL     1      -2.509  -2.245  -1.436  0.00  0.00    -0.289 OA
ATOM      4  C   UNL     1       0.977   1.126  -0.250  0.00  0.00    +0.039 C 
ATOM      5  C   UNL     1       2.138   0.445  -0.946  0.00  0.00    +0.147 C 
ATOM      6  C   UNL     1      -0.064  -0.038   0.114  0.00  0.00    +0.103 C 
ATOM      7  C   UNL     1       2.836  -0.316   0.127  0.00  0.00    +0.169 C 
ATOM      8  C   UNL     1       1.704   1.643   1.053  0.00  0.00    +0.035 C 
ATOM      9  C   UNL     1       2.334   0.229  -2.426  0.00  0.00    +0.172 C 
ATOM     10  C   UNL     1       2.950   0.745   1.232  0.00  0.00    +0.140 C 
ATOM     11  C   UNL     1       0.689  -1.118   0.972  0.00  0.00    +0.143 C 
ATOM     12  C   UNL     1       0.392   2.316  -1.016  0.00  0.00    +0.003 C 
ATOM     13  C   UNL     1      -0.633  -0.754  -1.149  0.00  0.00    +0.177 C 
ATOM     14  C   UNL     1      -0.027  -2.436   1.083  0.00  0.00    +0.002 C 
ATOM     15  C   UNL     1      -1.494  -1.964  -0.800  0.00  0.00    +0.196 C 
ATOM     16  C   UNL     1      -1.042  -2.848   0.311  0.00  0.00    +0.013 C 
ATOM     17  C   UNL     1      -1.748  -4.152   0.501  0.00  0.00    +0.034 C 
ENDROOT
BRANCH  10  18
ATOM     18  O   UNL     1       3.046   0.179   2.522  0.00  0.00    -0.382 OA
ATOM     19  H   UNL     1       3.843  -0.371   2.575  0.00  0.00    +0.210 HD
ENDBRANCH  10  18
BRANCH  13  20
ATOM     20  O   UNL     1      -1.436   0.118  -1.928  0.00  0.00    -0.377 OA
ATOM     21  H   UNL     1      -0.920   0.902  -2.170  0.00  0.00    +0.211 HD
ENDBRANCH  13  20
BRANCH   6  22
ATOM     22  C   UNL     1      -1.256   0.533   0.933  0.00  0.00    +0.214 C 
BRANCH  22  23
ATOM     23  O   UNL     1      -1.891   1.500   0.133  0.00  0.00    -0.448 OA
BRANCH  23  25
ATOM     24  O   UNL     1      -3.435   1.915   1.801  0.00  0.00    -0.250 OA
ATOM     25  C   UNL     1      -2.982   2.129   0.685  0.00  0.00    +0.318 C 
ATOM     26  C   UNL     1      -3.552   3.128  -0.276  0.00  0.00    +0.121 C 
ENDBRANCH  23  25
ENDBRANCH  22  23
ENDBRANCH   6  22
TORSDOF 5
