10389431
  -OEChem-03292013303D

 63 64  0     1  0  0  0  0  0999 V2000
    1.2507    1.4343    1.9624 O   0  0  0  0  0  0  0  0  0  0  0  0
    5.7874   -0.8075    1.9477 O   0  0  0  0  0  0  0  0  0  0  0  0
    3.9028    4.2127   -0.3261 O   0  0  0  0  0  0  0  0  0  0  0  0
    5.5503    0.4829    0.0591 O   0  0  0  0  0  0  0  0  0  0  0  0
    3.0661    3.3906   -2.2718 O   0  0  0  0  0  0  0  0  0  0  0  0
   -8.6674   -0.3894    0.4736 O   0  0  0  0  0  0  0  0  0  0  0  0
   -6.8572   -1.3224    2.3646 O   0  0  0  0  0  0  0  0  0  0  0  0
   -0.3639    2.2275   -0.0654 N   0  0  0  0  0  0  0  0  0  0  0  0
    2.8324    0.7282    0.4203 N   0  0  0  0  0  0  0  0  0  0  0  0
    1.0764    2.2230   -0.3244 C   0  0  1  0  0  0  0  0  0  0  0  0
   -0.9628    0.9658   -0.4705 C   0  0  0  0  0  0  0  0  0  0  0  0
   -2.4659    0.9795   -0.1961 C   0  0  0  0  0  0  0  0  0  0  0  0
    3.5810   -0.1070    1.3293 C   0  0  1  0  0  0  0  0  0  0  0  0
    1.5787    3.6657   -0.3871 C   0  0  0  0  0  0  0  0  0  0  0  0
    1.7111    1.4400    0.8225 C   0  0  0  0  0  0  0  0  0  0  0  0
   -3.1183   -0.3336   -0.6360 C   0  0  0  0  0  0  0  0  0  0  0  0
    3.0136   -1.5335    1.3730 C   0  0  0  0  0  0  0  0  0  0  0  0
   -4.5957   -0.3497   -0.3375 C   0  0  0  0  0  0  0  0  0  0  0  0
    3.1117   -2.2925    0.0688 C   0  0  0  0  0  0  0  0  0  0  0  0
    5.0744   -0.0957    1.0306 C   0  0  0  0  0  0  0  0  0  0  0  0
    2.9022    3.7407   -1.1100 C   0  0  0  0  0  0  0  0  0  0  0  0
   -5.0542   -0.8333    0.8879 C   0  0  0  0  0  0  0  0  0  0  0  0
   -5.5043    0.1183   -1.2868 C   0  0  0  0  0  0  0  0  0  0  0  0
    4.2411   -3.0639   -0.2062 C   0  0  0  0  0  0  0  0  0  0  0  0
    2.0730   -2.2210   -0.8596 C   0  0  0  0  0  0  0  0  0  0  0  0
   -6.4214   -0.8487    1.1641 C   0  0  0  0  0  0  0  0  0  0  0  0
   -6.8713    0.1029   -1.0106 C   0  0  0  0  0  0  0  0  0  0  0  0
   -7.3300   -0.3805    0.2147 C   0  0  0  0  0  0  0  0  0  0  0  0
    4.3315   -3.7636   -1.4095 C   0  0  0  0  0  0  0  0  0  0  0  0
    2.1635   -2.9208   -2.0628 C   0  0  0  0  0  0  0  0  0  0  0  0
    3.2926   -3.6921   -2.3377 C   0  0  0  0  0  0  0  0  0  0  0  0
    7.2007   -0.8632    1.7287 C   0  0  0  0  0  0  0  0  0  0  0  0
   -9.5288    0.1063   -0.5493 C   0  0  0  0  0  0  0  0  0  0  0  0
    1.2847    1.7243   -1.2799 H   0  0  0  0  0  0  0  0  0  0  0  0
   -0.7975    0.7911   -1.5410 H   0  0  0  0  0  0  0  0  0  0  0  0
   -0.5162    0.1282    0.0775 H   0  0  0  0  0  0  0  0  0  0  0  0
   -2.9351    1.8191   -0.7256 H   0  0  0  0  0  0  0  0  0  0  0  0
   -2.6436    1.1432    0.8750 H   0  0  0  0  0  0  0  0  0  0  0  0
   -0.8093    2.9813   -0.5887 H   0  0  0  0  0  0  0  0  0  0  0  0
    3.4766    0.3336    2.3297 H   0  0  0  0  0  0  0  0  0  0  0  0
    0.8941    4.3193   -0.9420 H   0  0  0  0  0  0  0  0  0  0  0  0
    1.6851    4.0928    0.6176 H   0  0  0  0  0  0  0  0  0  0  0  0
   -2.6360   -1.1822   -0.1340 H   0  0  0  0  0  0  0  0  0  0  0  0
   -2.9598   -0.4927   -1.7104 H   0  0  0  0  0  0  0  0  0  0  0  0
    1.9595   -1.5012    1.6809 H   0  0  0  0  0  0  0  0  0  0  0  0
    3.5206   -2.1150    2.1545 H   0  0  0  0  0  0  0  0  0  0  0  0
    3.1394    0.7803   -0.5467 H   0  0  0  0  0  0  0  0  0  0  0  0
   -4.3443   -1.1960    1.6276 H   0  0  0  0  0  0  0  0  0  0  0  0
   -5.1576    0.4988   -2.2441 H   0  0  0  0  0  0  0  0  0  0  0  0
    5.0553   -3.1361    0.5093 H   0  0  0  0  0  0  0  0  0  0  0  0
    1.1869   -1.6259   -0.6580 H   0  0  0  0  0  0  0  0  0  0  0  0
   -7.5180    0.4823   -1.7941 H   0  0  0  0  0  0  0  0  0  0  0  0
    5.2099   -4.3654   -1.6230 H   0  0  0  0  0  0  0  0  0  0  0  0
    1.3545   -2.8653   -2.7853 H   0  0  0  0  0  0  0  0  0  0  0  0
    3.3629   -4.2373   -3.2745 H   0  0  0  0  0  0  0  0  0  0  0  0
    4.7591    4.2426   -0.8037 H   0  0  0  0  0  0  0  0  0  0  0  0
    7.4165   -1.3426    0.7692 H   0  0  0  0  0  0  0  0  0  0  0  0
    7.6293    0.1429    1.7642 H   0  0  0  0  0  0  0  0  0  0  0  0
    7.6449   -1.4625    2.5278 H   0  0  0  0  0  0  0  0  0  0  0  0
   -6.0898   -1.6021    2.8926 H   0  0  0  0  0  0  0  0  0  0  0  0
   -9.3477    1.1677   -0.7502 H   0  0  0  0  0  0  0  0  0  0  0  0
   -9.4723   -0.5054   -1.4562 H   0  0  0  0  0  0  0  0  0  0  0  0
  -10.5545    0.0245   -0.1744 H   0  0  0  0  0  0  0  0  0  0  0  0
  1 15  2  0  0  0  0
  2 20  1  0  0  0  0
  2 32  1  0  0  0  0
  3 21  1  0  0  0  0
  3 56  1  0  0  0  0
  4 20  2  0  0  0  0
  5 21  2  0  0  0  0
  6 28  1  0  0  0  0
  6 33  1  0  0  0  0
  7 26  1  0  0  0  0
  7 60  1  0  0  0  0
  8 10  1  0  0  0  0
  8 11  1  0  0  0  0
  8 39  1  0  0  0  0
  9 13  1  0  0  0  0
  9 15  1  0  0  0  0
  9 47  1  0  0  0  0
 10 14  1  0  0  0  0
 10 15  1  0  0  0  0
 10 34  1  0  0  0  0
 11 12  1  0  0  0  0
 11 35  1  0  0  0  0
 11 36  1  0  0  0  0
 12 16  1  0  0  0  0
 12 37  1  0  0  0  0
 12 38  1  0  0  0  0
 13 17  1  0  0  0  0
 13 20  1  0  0  0  0
 13 40  1  0  0  0  0
 14 21  1  0  0  0  0
 14 41  1  0  0  0  0
 14 42  1  0  0  0  0
 16 18  1  0  0  0  0
 16 43  1  0  0  0  0
 16 44  1  0  0  0  0
 17 19  1  0  0  0  0
 17 45  1  0  0  0  0
 17 46  1  0  0  0  0
 18 22  2  0  0  0  0
 18 23  1  0  0  0  0
 19 24  2  0  0  0  0
 19 25  1  0  0  0  0
 22 26  1  0  0  0  0
 22 48  1  0  0  0  0
 23 27  2  0  0  0  0
 23 49  1  0  0  0  0
 24 29  1  0  0  0  0
 24 50  1  0  0  0  0
 25 30  2  0  0  0  0
 25 51  1  0  0  0  0
 26 28  2  0  0  0  0
 27 28  1  0  0  0  0
 27 52  1  0  0  0  0
 29 31  2  0  0  0  0
 29 53  1  0  0  0  0
 30 31  1  0  0  0  0
 30 54  1  0  0  0  0
 31 55  1  0  0  0  0
 32 57  1  0  0  0  0
 32 58  1  0  0  0  0
 32 59  1  0  0  0  0
 33 61  1  0  0  0  0
 33 62  1  0  0  0  0
 33 63  1  0  0  0  0
M  END
> <PUBCHEM_COMPOUND_CID>
10389431

> <PUBCHEM_CONFORMER_RMSD>
1.2

> <PUBCHEM_CONFORMER_DIVERSEORDER>
1
80
49
64
5
18
36
53
29
20
9
39
56
69
34
8
35
10
84
87
52
4
50
14
65
21
67
89
16
75
42
95
70
93
86
57
62
32
90
51
85
91
22
92
48
81
11
79
72
17
68
23
30
33
37
45
28
96
6
94
46
63
47
13
25
58
54
38
76
59
7
78
55
77
83
24
2
12
31
19
15
3
71
61
44
41
73
66
74
88
40
60
82
26
43
27

> <PUBCHEM_MMFF94_PARTIAL_CHARGES>
44
1 -0.57
10 0.33
11 0.27
13 0.36
14 0.06
15 0.57
16 0.14
17 0.14
18 -0.14
19 -0.14
2 -0.43
20 0.66
21 0.66
22 -0.15
23 -0.15
24 -0.15
25 -0.15
26 0.08
27 -0.15
28 0.08
29 -0.15
3 -0.65
30 -0.15
31 -0.15
32 0.28
33 0.28
39 0.36
4 -0.57
47 0.37
48 0.15
49 0.15
5 -0.57
50 0.15
51 0.15
52 0.15
53 0.15
54 0.15
55 0.15
56 0.5
6 -0.36
60 0.45
7 -0.53
8 -0.9
9 -0.73

> <PUBCHEM_EFFECTIVE_ROTOR_COUNT>
15

> <PUBCHEM_PHARMACOPHORE_FEATURES>
12
1 1 acceptor
1 3 acceptor
1 4 acceptor
1 5 acceptor
1 6 acceptor
1 7 donor
1 8 cation
1 8 donor
1 9 donor
3 3 5 21 anion
6 18 22 23 26 27 28 rings
6 19 24 25 29 30 31 rings

> <PUBCHEM_HEAVY_ATOM_COUNT>
33

> <PUBCHEM_ATOM_DEF_STEREO_COUNT>
2

> <PUBCHEM_ATOM_UDEF_STEREO_COUNT>
0

> <PUBCHEM_BOND_DEF_STEREO_COUNT>
0

> <PUBCHEM_BOND_UDEF_STEREO_COUNT>
0

> <PUBCHEM_ISOTOPIC_ATOM_COUNT>
0

> <PUBCHEM_COMPONENT_COUNT>
1

> <PUBCHEM_CACTVS_TAUTO_COUNT>
18

> <PUBCHEM_CONFORMER_ID>
009E87B700000001

> <PUBCHEM_MMFF94_ENERGY>
75.5877

> <PUBCHEM_FEATURE_SELFOVERLAP>
60.955

> <PUBCHEM_SHAPE_FINGERPRINT>
10554248 39 18411408528543815725
10864689 126 18189056400629797243
11181472 205 18340497699348587905
13533116 47 18202282507540317811
13751561 76 18336550430022519986
14918310 93 18261111894433440628
19301679 30 18270961237478741777
1979834 28 18201711847683113914
20771845 140 18060415824943344182
21585482 310 18260555506314476947
2260408 40 18130232566395808880
239999 70 17968088763426854377
25222932 49 18114167645084539106
3178227 256 18130212827575293282
394071 54 18343021090674930523
4144715 1 18113623409221348249
439807 62 17530959159977287915
4461854 278 18272646866288302262
46194498 28 18114177544820411676
9831232 110 18335420154403228359
9962374 69 18338504340105476655

> <PUBCHEM_SHAPE_MULTIPOLES>
628.08
22.41
4.7
1.96
54.21
2.03
-0.05
-8.96
-6.08
-10.69
3.46
-1.54
-0.72
1.36

> <PUBCHEM_SHAPE_SELFOVERLAP>
1298.782

> <PUBCHEM_SHAPE_VOLUME>
357.7

> <PUBCHEM_COORDINATE_TYPE>
2
5
10

$$$$
