REMARK  Name = 10383974
REMARK  12 active torsions:
REMARK  status: ('A' for Active; 'I' for Inactive)
REMARK    1  A    between atoms: N_2  and  CA_19
REMARK    2  A    between atoms: C_3  and  CA_5
REMARK    3  A    between atoms: CA_5  and  N_7
REMARK    4  A    between atoms: CA_5  and  CB_12
REMARK    5  A    between atoms: C_8  and  C_10
REMARK    6  A    between atoms: CB_12  and  CG_13
REMARK    7  A    between atoms: CA_19  and  C_21
REMARK    8  A    between atoms: CA_19  and  CB_22
REMARK    9  A    between atoms: CB_22  and  CG_23
REMARK   10  A    between atoms: CG_23  and  CD_24
REMARK   11  A    between atoms: CD_24  and  NE_25
REMARK   12  A    between atoms: NE_25  and  CZ_28
REMARK                            x       y       z     vdW  Elec       q    Type
REMARK                         _______ _______ _______ _____ _____    ______ ____
ROOT
ATOM      1  O   ARG A   1       0.079  -0.446  -2.482  0.00  0.00    -0.273 OA
ATOM      2  N   ARG A   1       0.373  -1.672  -0.531  0.00  0.00    -0.298 N 
ATOM      3  C   ARG A   1      -0.277  -0.749  -1.346  0.00  0.00    +0.241 C 
ATOM      4  H   ARG A   1       0.004  -1.842   0.366  0.00  0.00    +0.150 HD
ENDROOT
BRANCH   3   5
ATOM      5  CA  ARG A   1      -1.466  -0.099  -0.647  0.00  0.00    +0.153 C 
BRANCH   5   7
ATOM      6  O   UNK A   0      -0.053   2.129   0.543  0.00  0.00    -0.275 OA
ATOM      7  N   ARG A   1      -1.504   1.280  -1.063  0.00  0.00    -0.298 N 
ATOM      8  C   UNK A   0      -0.788   2.287  -0.428  0.00  0.00    +0.223 C 
ATOM      9  H   ARG A   1      -2.064   1.520  -1.836  0.00  0.00    +0.150 HD
BRANCH   8  10
ATOM     10  C   UNK A   0      -1.017   3.637  -1.084  0.00  0.00    +0.085 C 
ATOM     11  C   UNK A   0      -0.272   4.759  -0.385  0.00  0.00    +0.010 C 
ENDBRANCH   8  10
ENDBRANCH   5   7
BRANCH   5  12
ATOM     12  CB  ARG A   1      -2.760  -0.845  -0.995  0.00  0.00    +0.055 C 
BRANCH  12  13
ATOM     13  CG  ARG A   1      -3.876  -0.561  -0.020  0.00  0.00    -0.020 C 
ATOM     14  CD1 ARG A   1      -4.037  -1.363   1.110  0.00  0.00    -0.004 C 
ATOM     15  CD2 ARG A   1      -4.748   0.504  -0.248  0.00  0.00    -0.004 C 
ATOM     16  CE1 ARG A   1      -5.069  -1.101   2.011  0.00  0.00    -0.000 C 
ATOM     17  CE2 ARG A   1      -5.780   0.767   0.653  0.00  0.00    -0.000 C 
ATOM     18  CZ  ARG A   1      -5.940  -0.036   1.783  0.00  0.00    -0.000 C 
ENDBRANCH  12  13
ENDBRANCH   5  12
ENDBRANCH   3   5
BRANCH   2  19
ATOM     19  CA  ARG A   1       1.553  -2.391  -0.928  0.00  0.00    +0.137 C 
BRANCH  19  21
ATOM     20  O   ARG A   1       2.433  -4.496  -0.132  0.00  0.00    -0.286 OA
ATOM     21  C   ARG A   1       1.456  -3.780  -0.338  0.00  0.00    +0.227 C 
ENDBRANCH  19  21
BRANCH  19  22
ATOM     22  CB  ARG A   1       2.852  -1.665  -0.570  0.00  0.00    +0.030 C 
BRANCH  22  23
ATOM     23  CG  ARG A   1       3.050  -1.420   0.934  0.00  0.00    +0.029 C 
BRANCH  23  24
ATOM     24  CD  ARG A   1       4.334  -0.651   1.230  0.00  0.00    +0.129 C 
BRANCH  24  25
ATOM     25  NE  ARG A   1       4.294   0.657   0.575  0.00  0.00    -0.240 NA
BRANCH  25  28
ATOM     26  NH1 ARG A   1       6.469   1.160   1.461  0.00  0.00    -0.370 N 
ATOM     27  NH2 ARG A   1       5.366   2.669   0.157  0.00  0.00    -0.370 N 
ATOM     28  CZ  ARG A   1       5.326   1.424   0.740  0.00  0.00    +0.189 C 
ATOM     29 HH11 ARG A   1       6.568   0.300   1.930  0.00  0.00    +0.159 HD
ATOM     30 HH12 ARG A   1       7.187   1.832   1.509  0.00  0.00    +0.159 HD
ATOM     31 HH21 ARG A   1       4.608   2.982  -0.388  0.00  0.00    +0.159 HD
ATOM     32 HH22 ARG A   1       6.152   3.248   0.285  0.00  0.00    +0.159 HD
ENDBRANCH  25  28
ENDBRANCH  24  25
ENDBRANCH  23  24
ENDBRANCH  22  23
ENDBRANCH  19  22
ENDBRANCH   2  19
TORSDOF 12
