10383616
  -OEChem-03292013303D

 42 45  0     1  0  0  0  0  0999 V2000
   -0.7431   -1.6572    0.0525 O   0  0  0  0  0  0  0  0  0  0  0  0
   -1.0240    2.4287    0.3234 O   0  0  0  0  0  0  0  0  0  0  0  0
    5.6484   -1.4281    0.8930 O   0  0  0  0  0  0  0  0  0  0  0  0
   -3.5832    2.2733    0.1430 O   0  0  0  0  0  0  0  0  0  0  0  0
    6.5964   -0.2323   -0.9721 O   0  0  0  0  0  0  0  0  0  0  0  0
   -5.4439   -2.0770   -0.4120 O   0  0  0  0  0  0  0  0  0  0  0  0
   -6.0501    1.8996   -0.0901 O   0  0  0  0  0  0  0  0  0  0  0  0
    0.4139    0.4921    0.1284 C   0  0  1  0  0  0  0  0  0  0  0  0
    1.5167    1.2743    0.8305 C   0  0  0  0  0  0  0  0  0  0  0  0
    0.2472   -0.8920    0.7464 C   0  0  0  0  0  0  0  0  0  0  0  0
   -0.9186    1.2124    0.2182 C   0  0  0  0  0  0  0  0  0  0  0  0
   -2.1182    0.3562    0.0990 C   0  0  0  0  0  0  0  0  0  0  0  0
   -1.9604   -1.0295    0.0028 C   0  0  0  0  0  0  0  0  0  0  0  0
    2.8809    0.8955    0.3192 C   0  0  0  0  0  0  0  0  0  0  0  0
   -3.0786   -1.8437   -0.1829 C   0  0  0  0  0  0  0  0  0  0  0  0
   -3.3931    0.9259    0.0452 C   0  0  0  0  0  0  0  0  0  0  0  0
    3.5739   -0.1419    0.9333 C   0  0  0  0  0  0  0  0  0  0  0  0
   -4.5089    0.1047   -0.1209 C   0  0  0  0  0  0  0  0  0  0  0  0
   -4.3519   -1.2764   -0.2398 C   0  0  0  0  0  0  0  0  0  0  0  0
    3.4223    1.5964   -0.7645 C   0  0  0  0  0  0  0  0  0  0  0  0
    4.8204   -0.4525    0.4296 C   0  0  0  0  0  0  0  0  0  0  0  0
    5.3618    0.2303   -0.6354 C   0  0  0  0  0  0  0  0  0  0  0  0
   -2.9208   -3.3263   -0.3103 C   0  0  0  0  0  0  0  0  0  0  0  0
    4.6867    1.2616   -1.2554 C   0  0  0  0  0  0  0  0  0  0  0  0
    6.7715   -1.2831   -0.0001 C   0  0  0  0  0  0  0  0  0  0  0  0
   -5.8452    0.6889   -0.1809 C   0  0  0  0  0  0  0  0  0  0  0  0
    0.6229    0.3970   -0.9462 H   0  0  0  0  0  0  0  0  0  0  0  0
    1.4687    1.1343    1.9188 H   0  0  0  0  0  0  0  0  0  0  0  0
    1.3924    2.3554    0.6848 H   0  0  0  0  0  0  0  0  0  0  0  0
    1.1723   -1.4697    0.6722 H   0  0  0  0  0  0  0  0  0  0  0  0
   -0.0205   -0.8426    1.8106 H   0  0  0  0  0  0  0  0  0  0  0  0
    3.1673   -0.6833    1.7801 H   0  0  0  0  0  0  0  0  0  0  0  0
    2.8674    2.4034   -1.2361 H   0  0  0  0  0  0  0  0  0  0  0  0
   -3.4288   -3.8353    0.5161 H   0  0  0  0  0  0  0  0  0  0  0  0
   -3.3338   -3.6739   -1.2638 H   0  0  0  0  0  0  0  0  0  0  0  0
   -1.8789   -3.6592   -0.2892 H   0  0  0  0  0  0  0  0  0  0  0  0
    5.1165    1.7968   -2.0944 H   0  0  0  0  0  0  0  0  0  0  0  0
    6.9225   -2.2303   -0.5306 H   0  0  0  0  0  0  0  0  0  0  0  0
    7.6666   -1.0660    0.5940 H   0  0  0  0  0  0  0  0  0  0  0  0
   -6.6970    0.0020   -0.3133 H   0  0  0  0  0  0  0  0  0  0  0  0
   -4.4090    2.5376   -0.2909 H   0  0  0  0  0  0  0  0  0  0  0  0
   -5.2027   -3.0151   -0.4363 H   0  0  0  0  0  0  0  0  0  0  0  0
  1 10  1  0  0  0  0
  1 13  1  0  0  0  0
  2 11  2  0  0  0  0
  3 21  1  0  0  0  0
  3 25  1  0  0  0  0
  4 16  1  0  0  0  0
  4 41  1  0  0  0  0
  5 22  1  0  0  0  0
  5 25  1  0  0  0  0
  6 19  1  0  0  0  0
  6 42  1  0  0  0  0
  7 26  2  0  0  0  0
  8  9  1  0  0  0  0
  8 10  1  0  0  0  0
  8 11  1  0  0  0  0
  8 27  1  0  0  0  0
  9 14  1  0  0  0  0
  9 28  1  0  0  0  0
  9 29  1  0  0  0  0
 10 30  1  0  0  0  0
 10 31  1  0  0  0  0
 11 12  1  0  0  0  0
 12 13  2  0  0  0  0
 12 16  1  0  0  0  0
 13 15  1  0  0  0  0
 14 17  2  0  0  0  0
 14 20  1  0  0  0  0
 15 19  2  0  0  0  0
 15 23  1  0  0  0  0
 16 18  2  0  0  0  0
 17 21  1  0  0  0  0
 17 32  1  0  0  0  0
 18 19  1  0  0  0  0
 18 26  1  0  0  0  0
 20 24  2  0  0  0  0
 20 33  1  0  0  0  0
 21 22  2  0  0  0  0
 22 24  1  0  0  0  0
 23 34  1  0  0  0  0
 23 35  1  0  0  0  0
 23 36  1  0  0  0  0
 24 37  1  0  0  0  0
 25 38  1  0  0  0  0
 25 39  1  0  0  0  0
 26 40  1  0  0  0  0
M  END
> <PUBCHEM_COMPOUND_CID>
10383616

> <PUBCHEM_CONFORMER_RMSD>
0.8

> <PUBCHEM_CONFORMER_DIVERSEORDER>
5
26
12
21
15
2
25
28
11
17
20
18
27
22
9
8
13
16
19
10
24
23
7
14
6
3
1
4

> <PUBCHEM_MMFF94_PARTIAL_CHARGES>
32
1 -0.36
10 0.28
11 0.42
12 0.09
13 0.08
14 -0.14
15 -0.14
16 0.08
17 -0.15
18 0.09
19 0.08
2 -0.57
20 -0.15
21 0.08
22 0.08
23 0.14
24 -0.15
25 0.56
26 0.42
3 -0.36
32 0.15
33 0.15
37 0.15
4 -0.53
40 0.06
41 0.45
42 0.45
5 -0.36
6 -0.53
7 -0.57
8 0.06
9 0.14

> <PUBCHEM_EFFECTIVE_ROTOR_COUNT>
4.2

> <PUBCHEM_PHARMACOPHORE_FEATURES>
11
1 1 acceptor
1 2 acceptor
1 3 acceptor
1 4 donor
1 5 acceptor
1 6 donor
1 7 acceptor
5 3 5 21 22 25 rings
6 1 8 10 11 12 13 rings
6 12 13 15 16 18 19 rings
6 14 17 20 21 22 24 rings

> <PUBCHEM_HEAVY_ATOM_COUNT>
26

> <PUBCHEM_ATOM_DEF_STEREO_COUNT>
0

> <PUBCHEM_ATOM_UDEF_STEREO_COUNT>
1

> <PUBCHEM_BOND_DEF_STEREO_COUNT>
0

> <PUBCHEM_BOND_UDEF_STEREO_COUNT>
0

> <PUBCHEM_ISOTOPIC_ATOM_COUNT>
0

> <PUBCHEM_COMPONENT_COUNT>
1

> <PUBCHEM_CACTVS_TAUTO_COUNT>
30

> <PUBCHEM_CONFORMER_ID>
009E710000000005

> <PUBCHEM_MMFF94_ENERGY>
83.5112

> <PUBCHEM_FEATURE_SELFOVERLAP>
56.01

> <PUBCHEM_SHAPE_FINGERPRINT>
10411042 1 18050848016851970047
10595046 47 18263367048278843300
10835480 77 18200869677790634960
11315181 36 17703793630209197560
11524674 6 17132112450878542495
11796584 16 18343025506180840326
12107183 9 17830447281098565616
12166972 35 18040437727998618388
12236239 1 18113338621758819876
12730499 353 13984660335495328992
12788726 201 18337389331787505856
12969540 114 15068615028598989922
13167823 11 18334294296949731570
13288520 33 18342458144699705449
13782708 43 17345468370259876911
14251752 14 18408321068704499124
14347332 77 18411132562849478662
14790565 3 18339364046571887585
15042514 8 18338797944270466635
15183329 4 18409731746713107270
15196674 1 18410853308355009792
15250474 111 18334564763952370746
15788980 27 18334860527999639264
17492 89 18051690250493926827
17844677 252 18341898540600024784
17857418 61 18410572886262354610
18681886 176 18411697721370800840
19489759 90 17132117922677147217
19958102 18 18334846229958877615
21236236 1 18412544332170163451
21267235 1 18337955696957247563
21279426 13 18341607131448198385
23402539 116 18342453746827326341
23522609 53 18123502528774448825
23559900 14 18271517706068486128
29717793 49 18409735050075805596
3004659 81 18335421271057243144
3298306 158 18060702783982038078
335352 9 18412259533005083349
338550 245 18410575098197444830
350125 39 18335699403737326080
4073 2 17969507181446272514
4214541 1 18411136943721401697
44062 13 18272369831758824631
5104073 3 18201721811680031448
559249 180 18411979152612069151
59755656 215 18343021047498326478
59755656 520 16950285104854531723
6138700 20 18411699859309913798
633830 44 17313382365786421088
6437827 68 18413108342632847638
86090 222 16271112404759443646

> <PUBCHEM_SHAPE_MULTIPOLES>
493.98
16.37
2.53
0.87
11.29
0.84
0.04
2.36
2.72
-2.87
0.14
0.95
-0.06
-1

> <PUBCHEM_SHAPE_SELFOVERLAP>
1108.299

> <PUBCHEM_SHAPE_VOLUME>
259.1

> <PUBCHEM_COORDINATE_TYPE>
2
5
10

$$$$
