REMARK  Name = 10383616
REMARK  5 active torsions:
REMARK  status: ('A' for Active; 'I' for Inactive)
REMARK    1  A    between atoms: C_3  and  C_19
REMARK    2  A    between atoms: C_9  and  O_13
REMARK    3  A    between atoms: C_10  and  C_18
REMARK    4  A    between atoms: C_11  and  O_15
REMARK    5  A    between atoms: C_19  and  C_22
REMARK                            x       y       z     vdW  Elec       q    Type
REMARK                         _______ _______ _______ _____ _____    ______ ____
ROOT
ATOM      1  O   UNL     1      -0.743  -1.657   0.052  0.00  0.00    -0.475 OA
ATOM      2  O   UNL     1      -1.024   2.429   0.323  0.00  0.00    -0.291 OA
ATOM      3  C   UNL     1       0.414   0.492   0.128  0.00  0.00    +0.110 C 
ATOM      4  C   UNL     1       0.247  -0.892   0.746  0.00  0.00    +0.213 C 
ATOM      5  C   UNL     1      -0.919   1.212   0.218  0.00  0.00    +0.182 C 
ATOM      6  C   UNL     1      -2.118   0.356   0.099  0.00  0.00    +0.102 A 
ATOM      7  C   UNL     1      -1.960  -1.030   0.003  0.00  0.00    +0.143 A 
ATOM      8  C   UNL     1      -3.079  -1.844  -0.183  0.00  0.00    +0.046 A 
ATOM      9  C   UNL     1      -3.393   0.926   0.045  0.00  0.00    +0.145 A 
ATOM     10  C   UNL     1      -4.509   0.105  -0.121  0.00  0.00    +0.109 A 
ATOM     11  C   UNL     1      -4.352  -1.276  -0.240  0.00  0.00    +0.139 A 
ATOM     12  C   UNL     1      -2.921  -3.326  -0.310  0.00  0.00    +0.037 C 
ENDROOT
BRANCH   9  13
ATOM     13  O   UNL     1      -3.583   2.273   0.143  0.00  0.00    -0.505 OA
ATOM     14  H   UNL     1      -2.848   2.843   0.255  0.00  0.00    +0.292 HD
ENDBRANCH   9  13
BRANCH  11  15
ATOM     15  O   UNL     1      -5.444  -2.077  -0.412  0.00  0.00    -0.506 OA
ATOM     16  H   UNL     1      -5.337  -3.004  -0.492  0.00  0.00    +0.292 HD
ENDBRANCH  11  15
BRANCH  10  18
ATOM     17  O   UNL     1      -6.050   1.900  -0.090  0.00  0.00    -0.283 OA
ATOM     18  C   UNL     1      -5.845   0.689  -0.181  0.00  0.00    +0.240 C 
ENDBRANCH  10  18
BRANCH   3  19
ATOM     19  C   UNL     1       1.517   1.274   0.831  0.00  0.00    +0.038 C 
BRANCH  19  22
ATOM     20  O   UNL     1       5.648  -1.428   0.893  0.00  0.00    -0.435 OA
ATOM     21  O   UNL     1       6.596  -0.232  -0.972  0.00  0.00    -0.435 OA
ATOM     22  C   UNL     1       2.881   0.895   0.319  0.00  0.00    -0.018 C 
ATOM     23  C   UNL     1       3.574  -0.142   0.933  0.00  0.00    +0.036 C 
ATOM     24  C   UNL     1       3.422   1.596  -0.764  0.00  0.00    -0.001 C 
ATOM     25  C   UNL     1       4.820  -0.453   0.430  0.00  0.00    +0.176 C 
ATOM     26  C   UNL     1       5.362   0.230  -0.635  0.00  0.00    +0.176 C 
ATOM     27  C   UNL     1       4.687   1.262  -1.255  0.00  0.00    +0.040 C 
ATOM     28  C   UNL     1       6.771  -1.283   0.000  0.00  0.00    +0.429 C 
ENDBRANCH  19  22
ENDBRANCH   3  19
TORSDOF 5
