REMARK  Name = 10388396
REMARK  5 active torsions:
REMARK  status: ('A' for Active; 'I' for Inactive)
REMARK    1  A    between atoms: N_3  and  C_26
REMARK    2  A    between atoms: C_11  and  C_30
REMARK    3  A    between atoms: N_15  and  C_20
REMARK    4  A    between atoms: N_15  and  O_24
REMARK    5  A    between atoms: C_30  and  O_31
REMARK                            x       y       z     vdW  Elec       q    Type
REMARK                         _______ _______ _______ _____ _____    ______ ____
ROOT
ATOM      1  F   UNL     1      -1.137  -2.726   0.193  0.00  0.00    -0.200 F 
ATOM      2  O   UNL     1       3.922  -2.577   0.167  0.00  0.00    -0.290 OA
ATOM      3  N   UNL     1       2.671   1.276  -0.172  0.00  0.00    -0.266 N 
ATOM      4  N   UNL     1       0.357   0.573  -0.106  0.00  0.00    -0.373 NA
ATOM      5  C   UNL     1      -0.543  -0.433  -0.013  0.00  0.00    +0.216 C 
ATOM      6  C   UNL     1       1.678   0.257  -0.082  0.00  0.00    +0.177 C 
ATOM      7  C   UNL     1       2.096  -1.079   0.034  0.00  0.00    +0.153 C 
ATOM      8  C   UNL     1      -0.205  -1.768   0.105  0.00  0.00    +0.181 C 
ATOM      9  C   UNL     1       4.010   0.946  -0.182  0.00  0.00    +0.076 C 
ATOM     10  C   UNL     1       1.143  -2.095   0.129  0.00  0.00    +0.023 C 
ATOM     11  C   UNL     1       4.504  -0.294  -0.079  0.00  0.00    +0.126 C 
ATOM     12  C   UNL     1       3.542  -1.419   0.052  0.00  0.00    +0.192 C 
ATOM     13  N   UNL     1      -5.640   2.397  -0.230  0.00  0.00    +0.384 N 
ATOM     14  N   UNL     1      -1.892  -0.117  -0.037  0.00  0.00    -0.258 N 
ATOM     15  C   UNL     1      -3.916   1.182  -0.142  0.00  0.00    +0.019 C 
ATOM     16  C   UNL     1      -4.654   1.982  -1.247  0.00  0.00    -0.076 C 
ATOM     17  C   UNL     1      -4.636   2.158   0.826  0.00  0.00    -0.076 C 
ATOM     18  C   UNL     1      -2.384   1.264  -0.162  0.00  0.00    +0.100 C 
ATOM     19  C   UNL     1      -4.203  -0.340  -0.008  0.00  0.00    +0.097 C 
ATOM     20  C   UNL     1      -2.936  -1.136   0.058  0.00  0.00    +0.084 C 
ATOM     21  H   UNL     1      -6.460   1.793  -0.171  0.00  0.00    -0.084 HD
ATOM     22  H   UNL     1      -6.113   3.298  -0.302  0.00  0.00    -0.084 HD
ENDROOT
BRANCH   3  23
ATOM     23  C   UNL     1       2.266   2.687  -0.333  0.00  0.00    +0.079 C 
ATOM     24  C   UNL     1       2.755   3.738   0.609  0.00  0.00    +0.022 C 
ATOM     25  C   UNL     1       1.313   3.325   0.624  0.00  0.00    +0.022 C 
ENDBRANCH   3  23
BRANCH  11  27
ATOM     26  O   UNL     1       6.759   0.351   0.306  0.00  0.00    -0.245 OA
ATOM     27  C   UNL     1       5.956  -0.471  -0.100  0.00  0.00    +0.342 C 
BRANCH  27  28
ATOM     28  O   UNL     1       6.260  -1.673  -0.634  0.00  0.00    -0.477 OA
ATOM     29  H   UNL     1       5.575  -2.245  -0.921  0.00  0.00    +0.295 HD
ENDBRANCH  27  28
ENDBRANCH  11  27
BRANCH  19  30
ATOM     30  N   UNL     1      -5.372  -0.881   0.043  0.00  0.00    -0.134 NA
BRANCH  30  31
ATOM     31  O   UNL     1      -5.213  -2.268   0.163  0.00  0.00    -0.234 OA
ATOM     32  C   UNL     1      -6.503  -2.857   0.218  0.00  0.00    +0.211 C 
ENDBRANCH  30  31
ENDBRANCH  19  30
TORSDOF 5
