REMARK  Name = 10383691
REMARK  10 active torsions:
REMARK  status: ('A' for Active; 'I' for Inactive)
REMARK    1  A    between atoms: N_1  and  C_19
REMARK    2  A    between atoms: CA_10  and  C_15
REMARK    3  A    between atoms: C_15  and  O_16
REMARK    4  A    between atoms: C_19  and  C_20
REMARK    5  A    between atoms: C_20  and  C_21
REMARK    6  A    between atoms: C_21  and  C_22
REMARK    7  A    between atoms: C_22  and  CA_23
REMARK    8  A    between atoms: CA_23  and  N_24
REMARK    9  A    between atoms: CA_23  and  C_29
REMARK   10  A    between atoms: C_29  and  O_30
REMARK                            x       y       z     vdW  Elec       q    Type
REMARK                         _______ _______ _______ _____ _____    ______ ____
ROOT
ATOM      1  CA  UNL     1       3.382  -1.642   0.927  0.00  0.00    +0.036 C 
ENDROOT
BRANCH   1   2
ATOM      2  N   UNL     1       4.714  -2.135   0.579  0.00  0.00    +0.389 N 
ATOM      3  H1  UNL     1       5.410  -1.677   1.167  0.00  0.00    -0.088 HD
ATOM      4  H2  UNL     1       4.908  -1.928  -0.401  0.00  0.00    -0.088 HD
ATOM      5  H3  UNL     1       4.753  -3.143   0.728  0.00  0.00    -0.088 HD
ENDBRANCH   1   2
BRANCH   1   7
ATOM      6  OXT UNL     1       2.643  -3.107  -0.881  0.00  0.00    -0.253 OA
ATOM      7  C   UNL     1       2.371  -2.342   0.036  0.00  0.00    +0.293 C 
BRANCH   7   8
ATOM      8  O   UNL     1       1.092  -2.026   0.371  0.00  0.00    -0.482 OA
ATOM      9  H   UNL     1       0.925  -1.437   1.080  0.00  0.00    +0.295 HD
ENDBRANCH   7   8
ENDBRANCH   1   7
BRANCH   1  10
ATOM     10  C   UNL     1       3.273  -0.112   0.839  0.00  0.00    -0.011 C 
BRANCH  10  11
ATOM     11  C   UNL     1       3.437   0.466  -0.575  0.00  0.00    +0.008 C 
BRANCH  11  12
ATOM     12  C   UNL     1       3.257   1.985  -0.600  0.00  0.00    +0.087 C 
BRANCH  12  14
ATOM     13  O   UNL     1       1.718   3.202   0.824  0.00  0.00    -0.274 OA
ATOM     14  C   UNL     1       1.888   2.444  -0.128  0.00  0.00    +0.238 C 
BRANCH  14  15
ATOM     15  N   UNL     1       0.868   1.924  -0.915  0.00  0.00    -0.234 NA
ATOM     16  H1  UNL     1       1.103   1.322  -1.658  0.00  0.00    +0.173 HD
ENDBRANCH  14  15
ENDBRANCH  12  14
ENDBRANCH  11  12
ENDBRANCH  10  11
ENDBRANCH   1  10
TORSDOF 8
REMARK  Name = 10383691
REMARK  10 active torsions:
REMARK  status: ('A' for Active; 'I' for Inactive)
REMARK    1  A    between atoms: N_1  and  C_19
REMARK    2  A    between atoms: CA_10  and  C_15
REMARK    3  A    between atoms: C_15  and  O_16
REMARK    4  A    between atoms: C_19  and  C_20
REMARK    5  A    between atoms: C_20  and  C_21
REMARK    6  A    between atoms: C_21  and  C_22
REMARK    7  A    between atoms: C_22  and  CA_23
REMARK    8  A    between atoms: CA_23  and  N_24
REMARK    9  A    between atoms: CA_23  and  C_29
REMARK   10  A    between atoms: C_29  and  O_30
REMARK                            x       y       z     vdW  Elec       q    Type
REMARK                         _______ _______ _______ _____ _____    ______ ____
ROOT
ATOM      1  S   UNL     1      -1.022   0.094  -2.501  0.00  0.00    -0.116 S 
ATOM      2  O   UNL     1      -0.910   1.796   1.823  0.00  0.00    -0.275 OA
ATOM      3  N   UNL     1      -1.863   0.777  -0.077  0.00  0.00    -0.246 N 
ATOM      4  C   UNL     1      -1.626   1.375  -1.379  0.00  0.00    +0.133 C 
ATOM      5  CA  UNL     1      -0.553   2.237  -0.680  0.00  0.00    +0.127 C 
ATOM      6  C   UNL     1      -1.111   1.638   0.642  0.00  0.00    +0.228 C 
ATOM      7  CA  UNL     1      -2.642  -0.318   0.120  0.00  0.00    +0.123 C 
ATOM      8  C   UNL     1      -2.537  -0.913  -2.345  0.00  0.00    +0.083 C 
ATOM      9  C   UNL     1      -3.021  -1.111  -0.911  0.00  0.00    -0.013 C 
ATOM     10  C   UNL     1      -3.949  -2.295  -0.785  0.00  0.00    +0.029 C 
ENDROOT
BRANCH   7  12
ATOM     11  OXT UNL     1      -2.672  -1.661   2.081  0.00  0.00    -0.244 OA
ATOM     12  C   UNL     1      -3.000  -0.641   1.509  0.00  0.00    +0.351 C 
BRANCH  12  13
ATOM     13  O   UNL     1      -3.735   0.363   2.026  0.00  0.00    -0.476 OA
ATOM     14  H   UNL     1      -3.936   1.114   1.503  0.00  0.00    +0.295 HD
ENDBRANCH  12  13
ENDBRANCH   7  12
TORSDOF 2
