REMARK  Name = 10385446
REMARK  9 active torsions:
REMARK  status: ('A' for Active; 'I' for Inactive)
REMARK    1  A    between atoms: C_2  and  C_23
REMARK    2  A    between atoms: C_3  and  C_10
REMARK    3  A    between atoms: C_7  and  O_20
REMARK    4  A    between atoms: C_8  and  C_26
REMARK    5  A    between atoms: C_13  and  O_16
REMARK    6  A    between atoms: C_15  and  O_18
REMARK    7  A    between atoms: C_23  and  O_24
REMARK    8  A    between atoms: C_27  and  C_29
REMARK    9  A    between atoms: C_29  and  O_30
REMARK                            x       y       z     vdW  Elec       q    Type
REMARK                         _______ _______ _______ _____ _____    ______ ____
ROOT
ATOM      1  O   UNL     1      -0.894  -0.666   1.563  0.00  0.00    -0.471 OA
ATOM      2  C   UNL     1      -0.298   1.337   0.276  0.00  0.00    +0.168 C 
ATOM      3  C   UNL     1      -1.345   0.669   1.197  0.00  0.00    +0.203 C 
ATOM      4  C   UNL     1       0.812   0.360   0.392  0.00  0.00    +0.029 C 
ATOM      5  C   UNL     1       0.399  -0.742   1.122  0.00  0.00    +0.169 C 
ATOM      6  C   UNL     1       2.091   0.415  -0.138  0.00  0.00    -0.000 C 
ATOM      7  C   UNL     1       1.233  -1.820   1.356  0.00  0.00    +0.172 C 
ATOM      8  C   UNL     1       2.953  -0.660   0.091  0.00  0.00    +0.003 C 
ATOM      9  C   UNL     1       2.526  -1.772   0.834  0.00  0.00    +0.040 C 
ENDROOT
BRANCH   3  10
ATOM     10  C   UNL     1      -2.669   0.531   0.522  0.00  0.00    +0.021 C 
ATOM     11  C   UNL     1      -2.762  -0.143  -0.695  0.00  0.00    +0.039 C 
ATOM     12  C   UNL     1      -3.809   1.077   1.109  0.00  0.00    +0.003 C 
ATOM     13  C   UNL     1      -3.999  -0.272  -1.326  0.00  0.00    +0.172 C 
ATOM     14  C   UNL     1      -5.046   0.949   0.477  0.00  0.00    +0.040 C 
ATOM     15  C   UNL     1      -5.141   0.274  -0.740  0.00  0.00    +0.168 C 
BRANCH  13  16
ATOM     16  O   UNL     1      -4.080  -0.933  -2.514  0.00  0.00    -0.468 OA
ATOM     17  C   UNL     1      -4.320  -2.338  -2.459  0.00  0.00    +0.253 C 
ENDBRANCH  13  16
BRANCH  15  18
ATOM     18  O   UNL     1      -6.355   0.154  -1.347  0.00  0.00    -0.503 OA
ATOM     19  H   UNL     1      -6.428  -0.298  -2.164  0.00  0.00    +0.292 HD
ENDBRANCH  15  18
ENDBRANCH   3  10
BRANCH   7  20
ATOM     20  O   UNL     1       0.815  -2.896   2.069  0.00  0.00    -0.468 OA
ATOM     21  C   UNL     1       0.203  -3.963   1.343  0.00  0.00    +0.253 C 
ENDBRANCH   7  20
BRANCH   2  23
ATOM     22  O   UNL     1       1.195   2.999   1.190  0.00  0.00    -0.250 OA
ATOM     23  C   UNL     1       0.085   2.691   0.781  0.00  0.00    +0.321 C 
BRANCH  23  24
ATOM     24  O   UNL     1      -0.971   3.538   0.729  0.00  0.00    -0.480 OA
ATOM     25  H   UNL     1      -1.797   3.238   0.404  0.00  0.00    +0.295 HD
ENDBRANCH  23  24
ENDBRANCH   2  23
BRANCH   8  26
ATOM     26  C   UNL     1       4.304  -0.630  -0.450  0.00  0.00    +0.007 C 
ATOM     27  C   UNL     1       4.964   0.482  -0.840  0.00  0.00    +0.082 C 
BRANCH  27  29
ATOM     28  O   UNL     1       6.987  -0.644  -1.507  0.00  0.00    -0.245 OA
ATOM     29  C   UNL     1       6.340   0.380  -1.365  0.00  0.00    +0.338 C 
BRANCH  29  30
ATOM     30  O   UNL     1       6.782   1.622  -1.671  0.00  0.00    -0.477 OA
ATOM     31  H   UNL     1       6.226   2.364  -1.534  0.00  0.00    +0.295 HD
ENDBRANCH  29  30
ENDBRANCH  27  29
ENDBRANCH   8  26
TORSDOF 9
