REMARK  Name = 10389765
REMARK  12 active torsions:
REMARK  status: ('A' for Active; 'I' for Inactive)
REMARK    1  A    between atoms: S_1  and  C_4
REMARK    2  A    between atoms: S_1  and  C_18
REMARK    3  A    between atoms: C_5  and  C_6
REMARK    4  A    between atoms: C_7  and  O_12
REMARK    5  A    between atoms: C_8  and  O_14
REMARK    6  A    between atoms: C_11  and  O_16
REMARK    7  A    between atoms: C_18  and  C_19
REMARK    8  A    between atoms: C_20  and  N_27
REMARK    9  A    between atoms: C_23  and  O_25
REMARK   10  A    between atoms: N_27  and  CA_29
REMARK   11  A    between atoms: CA_29  and  C_32
REMARK   12  A    between atoms: C_32  and  O_33
REMARK                            x       y       z     vdW  Elec       q    Type
REMARK                         _______ _______ _______ _____ _____    ______ ____
ROOT
ATOM      1  S   UNK A   0      -0.114  -0.759  -0.298  0.00  0.00    +0.014 S 
ATOM      2  O   UNK A   0      -0.565   0.543  -0.764  0.00  0.00    -0.168 OA
ATOM      3  O   UNK A   0      -0.181  -1.914  -1.178  0.00  0.00    -0.168 OA
ENDROOT
BRANCH   1   4
ATOM      4  C   UNK A   0       1.506  -0.605   0.291  0.00  0.00    +0.123 C 
ATOM      5  C   UNK A   0       2.455  -0.306  -0.605  0.00  0.00    +0.026 C 
BRANCH   5   6
ATOM      6  C   UNK A   0       3.883  -0.128  -0.288  0.00  0.00    +0.069 C 
ATOM      7  C   UNK A   0       4.504   1.097  -0.533  0.00  0.00    +0.145 C 
ATOM      8  C   UNK A   0       4.614  -1.183   0.257  0.00  0.00    +0.145 C 
ATOM      9  C   UNK A   0       5.856   1.266  -0.233  0.00  0.00    +0.074 C 
ATOM     10  C   UNK A   0       5.966  -1.014   0.557  0.00  0.00    +0.074 C 
ATOM     11  C   UNK A   0       6.587   0.210   0.311  0.00  0.00    +0.145 C 
BRANCH   7  12
ATOM     12  O   UNK A   0       3.815   2.147  -1.065  0.00  0.00    -0.471 OA
ATOM     13  C   UNK A   0       3.180   3.035  -0.148  0.00  0.00    +0.252 C 
ENDBRANCH   7  12
BRANCH   8  14
ATOM     14  O   UNK A   0       4.034  -2.392   0.507  0.00  0.00    -0.471 OA
ATOM     15  C   UNK A   0       4.067  -3.355  -0.544  0.00  0.00    +0.252 C 
ENDBRANCH   8  14
BRANCH  11  16
ATOM     16  O   UNK A   0       7.906   0.375   0.604  0.00  0.00    -0.471 OA
ATOM     17  C   UNK A   0       8.477   1.653   0.328  0.00  0.00    +0.252 C 
ENDBRANCH  11  16
ENDBRANCH   5   6
ENDBRANCH   1   4
BRANCH   1  18
ATOM     18  C   UNK A   0      -1.021  -1.147   1.164  0.00  0.00    +0.182 C 
BRANCH  18  19
ATOM     19  C   UNK A   0      -2.455  -1.307   0.786  0.00  0.00    +0.003 C 
ATOM     20  C   UNK A   0      -4.650  -0.354   0.453  0.00  0.00    +0.079 C 
ATOM     21  C   UNK A   0      -3.309  -0.204   0.807  0.00  0.00    +0.015 C 
ATOM     22  C   UNK A   0      -2.941  -2.559   0.410  0.00  0.00    +0.001 C 
ATOM     23  C   UNK A   0      -5.136  -1.607   0.078  0.00  0.00    +0.152 C 
ATOM     24  C   UNK A   0      -4.282  -2.709   0.057  0.00  0.00    +0.038 C 
BRANCH  23  25
ATOM     25  O   UNK A   0      -6.443  -1.774  -0.272  0.00  0.00    -0.470 OA
ATOM     26  C   UNK A   0      -6.772  -1.604  -1.649  0.00  0.00    +0.253 C 
ENDBRANCH  23  25
BRANCH  20  27
ATOM     27  N   ALA A   1      -5.487   0.748   0.479  0.00  0.00    -0.323 N 
ATOM     28  H   ALA A   1      -6.430   0.622   0.225  0.00  0.00    +0.147 HD
BRANCH  27  29
ATOM     29  CA  ALA A   1      -5.054   2.075   0.856  0.00  0.00    +0.169 C 
ATOM     30  CB  ALA A   1      -6.248   2.929   1.246  0.00  0.00    +0.033 C 
BRANCH  29  32
ATOM     31  OXT ALA A   1      -4.543   2.509  -1.459  0.00  0.00    -0.248 OA
ATOM     32  C   ALA A   1      -4.295   2.724  -0.278  0.00  0.00    +0.332 C 
BRANCH  32  33
ATOM     33  O   ALA A   1      -3.353   3.612   0.123  0.00  0.00    -0.479 OA
ATOM     34  H   ALA A   1      -3.194   3.746   1.037  0.00  0.00    +0.295 HD
ENDBRANCH  32  33
ENDBRANCH  29  32
ENDBRANCH  27  29
ENDBRANCH  20  27
ENDBRANCH  18  19
ENDBRANCH   1  18
TORSDOF 12
