REMARK  Name = 10388920
REMARK  9 active torsions:
REMARK  status: ('A' for Active; 'I' for Inactive)
REMARK    1  A    between atoms: N_1  and  C1*_12
REMARK    2  A    between atoms: C2*_11  and  O2*_15
REMARK    3  A    between atoms: C3*_13  and  O3*_17
REMARK    4  A    between atoms: C4*_14  and  C5*_19
REMARK    5  A    between atoms: C5*_19  and  O5*_20
REMARK    6  A    between atoms: N_22  and  C_24
REMARK    7  A    between atoms: C_24  and  C_25
REMARK    8  A    between atoms: C_25  and  C_26
REMARK    9  A    between atoms: C_25  and  C_32
REMARK                            x       y       z     vdW  Elec       q    Type
REMARK                         _______ _______ _______ _____ _____    ______ ____
ROOT
ATOM      1  N   UNL     1       3.111   0.503  -0.355  0.00  0.00    -0.247 N 
ATOM      2  N   UNL     1       1.512  -0.775  -1.242  0.00  0.00    -0.242 NA
ATOM      3  N   UNL     1       1.780   2.415   0.334  0.00  0.00    -0.228 NA
ATOM      4  N   UNL     1      -0.576   2.102  -0.220  0.00  0.00    -0.228 NA
ATOM      5  C   UNL     1       1.946   1.204  -0.219  0.00  0.00    +0.152 C 
ATOM      6  C   UNL     1       2.798  -0.678  -0.976  0.00  0.00    +0.223 C 
ATOM      7  C   UNL     1       0.967   0.395  -0.774  0.00  0.00    +0.140 C 
ATOM      8  C   UNL     1      -0.335   0.884  -0.763  0.00  0.00    +0.146 C 
ATOM      9  C   UNL     1       0.481   2.782   0.286  0.00  0.00    +0.253 C 
ATOM     10  N   UNL     1      -1.390   0.130  -1.304  0.00  0.00    -0.316 N 
ATOM     11  H   UNL     1      -1.187  -0.752  -1.690  0.00  0.00    +0.148 HD
ENDROOT
BRANCH   1  14
ATOM     12  O4* UNL     1       5.431   0.417  -0.849  0.00  0.00    -0.333 OA
ATOM     13  C2* UNL     1       4.824   0.426   1.473  0.00  0.00    +0.187 C 
ATOM     14  C1* UNL     1       4.446   0.923   0.076  0.00  0.00    +0.225 C 
ATOM     15  C3* UNL     1       5.770  -0.722   1.177  0.00  0.00    +0.171 C 
ATOM     16  C4* UNL     1       6.454  -0.257  -0.097  0.00  0.00    +0.175 C 
BRANCH  13  17
ATOM     17  O2* UNL     1       5.487   1.472   2.180  0.00  0.00    -0.378 OA
ATOM     18  H2* UNL     1       4.860   2.192   2.356  0.00  0.00    +0.211 HD
ENDBRANCH  13  17
BRANCH  15  19
ATOM     19  O3* UNL     1       6.693  -0.972   2.215  0.00  0.00    -0.379 OA
ATOM     20  H3* UNL     1       6.217  -1.266   3.007  0.00  0.00    +0.211 HD
ENDBRANCH  15  19
BRANCH  16  21
ATOM     21  C5* UNL     1       7.034  -1.392  -0.921  0.00  0.00    +0.169 C 
BRANCH  21  22
ATOM     22  O5* UNL     1       7.634  -0.848  -2.084  0.00  0.00    -0.379 OA
ATOM     23  H5* UNL     1       8.009  -1.564  -2.620  0.00  0.00    +0.211 HD
ENDBRANCH  21  22
ENDBRANCH  16  21
ENDBRANCH   1  14
BRANCH  10  24
ATOM     24  C   UNL     1      -2.749   0.585  -1.318  0.00  0.00    +0.097 C 
BRANCH  24  25
ATOM     25  C   UNL     1      -3.477   0.145  -0.028  0.00  0.00    +0.064 C 
BRANCH  25  26
ATOM     26  C   UNL     1      -3.495  -1.368   0.160  0.00  0.00    -0.017 C 
ATOM     27  C   UNL     1      -4.544  -2.091  -0.367  0.00  0.00    -0.004 C 
ATOM     28  C   UNL     1      -2.462  -1.964   0.852  0.00  0.00    -0.004 C 
ATOM     29  C   UNL     1      -4.561  -3.475  -0.195  0.00  0.00    -0.000 C 
ATOM     30  C   UNL     1      -2.479  -3.348   1.024  0.00  0.00    -0.000 C 
ATOM     31  C   UNL     1      -3.528  -4.103   0.500  0.00  0.00    -0.000 C 
ENDBRANCH  25  26
BRANCH  25  32
ATOM     32  C   UNL     1      -4.875   0.737   0.113  0.00  0.00    -0.017 C 
ATOM     33  C   UNL     1      -5.374   0.970   1.377  0.00  0.00    -0.004 C 
ATOM     34  C   UNL     1      -5.595   1.021  -1.028  0.00  0.00    -0.004 C 
ATOM     35  C   UNL     1      -6.652   1.512   1.506  0.00  0.00    -0.000 C 
ATOM     36  C   UNL     1      -6.873   1.563  -0.899  0.00  0.00    -0.000 C 
ATOM     37  C   UNL     1      -7.402   1.808   0.368  0.00  0.00    -0.000 C 
ENDBRANCH  25  32
ENDBRANCH  24  25
ENDBRANCH  10  24
TORSDOF 9
