REMARK  Name = 103924
REMARK  3 active torsions:
REMARK  status: ('A' for Active; 'I' for Inactive)
REMARK    1  A    between atoms: C_16  and  N_24
REMARK    2  A    between atoms: C_22  and  O_27
REMARK    3  A    between atoms: C_23  and  O_29
REMARK                            x       y       z     vdW  Elec       q    Type
REMARK                         _______ _______ _______ _____ _____    ______ ____
ROOT
ATOM      1  O   UNL     1      -0.603  -0.005   1.955  0.00  0.00    -0.440 OA
ATOM      2  O   UNL     1       2.475   0.018  -0.716  0.00  0.00    -0.454 OA
ATOM      3  O   UNL     1      -2.608  -0.020   3.113  0.00  0.00    -0.245 OA
ATOM      4  C   UNL     1      -0.151  -0.002   0.564  0.00  0.00    +0.198 C 
ATOM      5  C   UNL     1      -1.451  -0.011  -0.175  0.00  0.00    +0.029 C 
ATOM      6  C   UNL     1       0.652   1.263   0.331  0.00  0.00    +0.056 C 
ATOM      7  C   UNL     1       0.670  -1.254   0.330  0.00  0.00    +0.056 C 
ATOM      8  C   UNL     1      -2.501  -0.019   0.725  0.00  0.00    +0.076 C 
ATOM      9  C   UNL     1       1.896   1.195  -0.305  0.00  0.00    +0.148 C 
ATOM     10  C   UNL     1       1.914  -1.167  -0.306  0.00  0.00    +0.148 C 
ATOM     11  C   UNL     1      -1.969  -0.015   2.080  0.00  0.00    +0.342 C 
ATOM     12  C   UNL     1      -1.702  -0.012  -1.538  0.00  0.00    +0.014 C 
ATOM     13  C   UNL     1       0.166   2.527   0.711  0.00  0.00    +0.006 C 
ATOM     14  C   UNL     1       0.203  -2.525   0.709  0.00  0.00    +0.006 C 
ATOM     15  C   UNL     1      -3.826  -0.028   0.329  0.00  0.00    +0.008 C 
ATOM     16  C   UNL     1      -3.031  -0.021  -1.969  0.00  0.00    +0.041 C 
ATOM     17  C   UNL     1       2.633   2.355  -0.565  0.00  0.00    +0.074 C 
ATOM     18  C   UNL     1       2.667  -2.317  -0.566  0.00  0.00    +0.074 C 
ATOM     19  C   UNL     1      -4.086  -0.029  -1.041  0.00  0.00    +0.014 C 
ATOM     20  C   UNL     1       0.904   3.685   0.458  0.00  0.00    +0.037 C 
ATOM     21  C   UNL     1       0.958  -3.672   0.456  0.00  0.00    +0.037 C 
ATOM     22  C   UNL     1       2.137   3.599  -0.182  0.00  0.00    +0.137 C 
ATOM     23  C   UNL     1       2.190  -3.567  -0.183  0.00  0.00    +0.137 C 
ENDROOT
BRANCH  16  24
ATOM     24  N   UNL     1      -3.318  -0.022  -3.352  0.00  0.00    -0.357 N 
ATOM     25  H   UNL     1      -2.584  -0.017  -4.007  0.00  0.00    +0.142 HD
ATOM     26  H   UNL     1      -4.253  -0.028  -3.661  0.00  0.00    +0.142 HD
ENDBRANCH  16  24
BRANCH  22  27
ATOM     27  O   UNL     1       2.855   4.727  -0.432  0.00  0.00    -0.505 OA
ATOM     28  H   UNL     1       3.685   4.668  -0.863  0.00  0.00    +0.292 HD
ENDBRANCH  22  27
BRANCH  23  29
ATOM     29  O   UNL     1       2.926  -4.684  -0.432  0.00  0.00    -0.505 OA
ATOM     30  H   UNL     1       3.755  -4.613  -0.863  0.00  0.00    +0.292 HD
ENDBRANCH  23  29
TORSDOF 3
