REMARK  Name = 10390702
REMARK  13 active torsions:
REMARK  status: ('A' for Active; 'I' for Inactive)
REMARK    1  A    between atoms: C_1  and  C_4
REMARK    2  A    between atoms: C_1  and  C_19
REMARK    3  A    between atoms: C_1  and  C_35
REMARK    4  A    between atoms: C_3  and  C_9
REMARK    5  A    between atoms: C_11  and  C_14
REMARK    6  A    between atoms: C_14  and  C_15
REMARK    7  A    between atoms: C_15  and  C_17
REMARK    8  A    between atoms: C_20  and  O_25
REMARK    9  A    between atoms: C_21  and  O_27
REMARK   10  A    between atoms: C_22  and  C_34
REMARK   11  A    between atoms: C_23  and  C_32
REMARK   12  A    between atoms: C_24  and  O_29
REMARK   13  A    between atoms: C_35  and  C_36
REMARK                            x       y       z     vdW  Elec       q    Type
REMARK                         _______ _______ _______ _____ _____    ______ ____
ROOT
ATOM      1  C   UNL     1       0.639  -0.124   0.558  0.00  0.00    +0.029 C 
ENDROOT
BRANCH   1   4
ATOM      2  O   UNL     1      -3.328  -2.089  -1.451  0.00  0.00    -0.296 OA
ATOM      3  C   UNL     1      -1.608  -0.644  -0.526  0.00  0.00    +0.058 C 
ATOM      4  C   UNL     1      -0.088  -0.953  -0.508  0.00  0.00    +0.011 C 
ATOM      5  C   UNL     1      -0.062  -2.451  -0.135  0.00  0.00    +0.008 C 
ATOM      6  C   UNL     1      -2.189  -1.955  -1.020  0.00  0.00    +0.150 C 
ATOM      7  C   UNL     1      -1.201  -3.088  -0.923  0.00  0.00    +0.065 C 
ATOM      8  C   UNL     1       0.607  -0.735  -1.866  0.00  0.00    +0.001 C 
BRANCH   3   9
ATOM      9  C   UNL     1      -2.026   0.543  -1.335  0.00  0.00    +0.007 C 
ATOM     10  C   UNL     1      -2.495   1.800  -0.662  0.00  0.00    +0.000 C 
ATOM     11  C   UNL     1      -3.478   0.919  -1.375  0.00  0.00    +0.001 C 
ATOM     12  C   UNL     1      -2.173   3.116  -1.284  0.00  0.00    +0.000 C 
ATOM     13  C   UNL     1      -2.490   1.822   0.829  0.00  0.00    +0.000 C 
BRANCH  11  14
ATOM     14  C   UNL     1      -4.451   0.099  -0.610  0.00  0.00    +0.008 C 
BRANCH  14  15
ATOM     15  C   UNL     1      -5.775   0.834  -0.383  0.00  0.00    +0.065 C 
BRANCH  15  17
ATOM     16  O   UNL     1      -6.569  -1.147   0.754  0.00  0.00    -0.296 OA
ATOM     17  C   UNL     1      -6.801  -0.006   0.357  0.00  0.00    +0.151 C 
ATOM     18  C   UNL     1      -8.144   0.638   0.585  0.00  0.00    +0.072 C 
ENDBRANCH  15  17
ENDBRANCH  14  15
ENDBRANCH  11  14
ENDBRANCH   3   9
ENDBRANCH   1   4
BRANCH   1  19
ATOM     19  C   UNL     1       2.100   0.054   0.182  0.00  0.00    +0.045 A 
ATOM     20  C   UNL     1       2.941  -1.057   0.105  0.00  0.00    +0.139 A 
ATOM     21  C   UNL     1       2.602   1.328  -0.086  0.00  0.00    +0.139 A 
ATOM     22  C   UNL     1       4.282  -0.894  -0.241  0.00  0.00    +0.109 A 
ATOM     23  C   UNL     1       3.943   1.491  -0.431  0.00  0.00    +0.109 A 
ATOM     24  C   UNL     1       4.783   0.380  -0.509  0.00  0.00    +0.146 A 
BRANCH  20  25
ATOM     25  O   UNL     1       2.446  -2.301   0.367  0.00  0.00    -0.506 OA
ATOM     26  H   UNL     1       1.545  -2.408   0.599  0.00  0.00    +0.292 HD
ENDBRANCH  20  25
BRANCH  21  27
ATOM     27  O   UNL     1       1.777   2.412  -0.009  0.00  0.00    -0.506 OA
ATOM     28  H   UNL     1       0.876   2.300   0.223  0.00  0.00    +0.292 HD
ENDBRANCH  21  27
BRANCH  24  29
ATOM     29  O   UNL     1       6.096   0.540  -0.847  0.00  0.00    -0.505 OA
ATOM     30  H   UNL     1       6.661  -0.206  -0.899  0.00  0.00    +0.292 HD
ENDBRANCH  24  29
BRANCH  23  32
ATOM     31  O   UNL     1       3.773   3.840  -0.659  0.00  0.00    -0.283 OA
ATOM     32  C   UNL     1       4.467   2.823  -0.711  0.00  0.00    +0.240 C 
ENDBRANCH  23  32
BRANCH  22  34
ATOM     33  O   UNL     1       4.759  -3.178  -0.630  0.00  0.00    -0.283 OA
ATOM     34  C   UNL     1       5.161  -2.055  -0.322  0.00  0.00    +0.240 C 
ENDBRANCH  22  34
ENDBRANCH   1  19
BRANCH   1  35
ATOM     35  C   UNL     1       0.441  -0.760   1.954  0.00  0.00    +0.005 C 
BRANCH  35  36
ATOM     36  C   UNL     1       0.980   0.066   3.142  0.00  0.00    +0.000 C 
ATOM     37  C   UNL     1       0.764  -0.708   4.446  0.00  0.00    +0.000 C 
ATOM     38  C   UNL     1       0.317   1.440   3.246  0.00  0.00    +0.000 C 
ENDBRANCH  35  36
ENDBRANCH   1  35
TORSDOF 13
