REMARK  Name = 10398471
REMARK  11 active torsions:
REMARK  status: ('A' for Active; 'I' for Inactive)
REMARK    1  A    between atoms: N_2  and  O_4
REMARK    2  A    between atoms: N_2  and  C_6
REMARK    3  A    between atoms: C_3  and  C_15
REMARK    4  A    between atoms: C_6  and  C_7
REMARK    5  A    between atoms: C_7  and  C_8
REMARK    6  A    between atoms: C_8  and  C_9
REMARK    7  A    between atoms: C_9  and  C_10
REMARK    8  A    between atoms: C_10  and  N_11
REMARK    9  A    between atoms: C_15  and  C_16
REMARK   10  A    between atoms: C_16  and  C_18
REMARK   11  A    between atoms: C_18  and  O_19
REMARK                            x       y       z     vdW  Elec       q    Type
REMARK                         _______ _______ _______ _____ _____    ______ ____
ROOT
ATOM      1  O   UNL     1       0.873  -0.831   1.289  0.00  0.00    -0.273 OA
ATOM      2  N   UNL     1       0.163   1.104   0.283  0.00  0.00    -0.172 N 
ATOM      3  C   UNL     1       1.103   0.140   0.567  0.00  0.00    +0.248 C 
ENDROOT
BRANCH   2   4
ATOM      4  O   UNL     1       0.414   2.214  -0.538  0.00  0.00    -0.292 OA
ATOM      5  H   UNL     1      -0.387   2.759  -0.599  0.00  0.00    +0.242 HD
ENDBRANCH   2   4
BRANCH   2   6
ATOM      6  C   UNL     1      -1.180   1.079   0.796  0.00  0.00    +0.124 C 
BRANCH   6   7
ATOM      7  C   UNL     1      -2.122   0.328  -0.137  0.00  0.00    +0.024 C 
BRANCH   7   8
ATOM      8  C   UNL     1      -3.546   0.297   0.418  0.00  0.00    -0.000 C 
BRANCH   8   9
ATOM      9  C   UNL     1      -4.484  -0.491  -0.499  0.00  0.00    -0.024 C 
BRANCH   9  10
ATOM     10  C   UNL     1      -5.914  -0.488   0.039  0.00  0.00    -0.086 C 
BRANCH  10  11
ATOM     11  N   UNL     1      -6.789  -1.252  -0.843  0.00  0.00    +0.380 N 
ATOM     12  H   UNL     1      -7.739  -1.241  -0.471  0.00  0.00    -0.089 HD
ATOM     13  H   UNL     1      -6.457  -2.214  -0.901  0.00  0.00    -0.089 HD
ATOM     14  H   UNL     1      -6.783  -0.833  -1.773  0.00  0.00    -0.089 HD
ENDBRANCH  10  11
ENDBRANCH   9  10
ENDBRANCH   8   9
ENDBRANCH   7   8
ENDBRANCH   6   7
ENDBRANCH   2   6
BRANCH   3  15
ATOM     15  C   UNL     1       2.464   0.346  -0.083  0.00  0.00    +0.099 C 
BRANCH  15  16
ATOM     16  C   UNL     1       3.457  -0.757   0.274  0.00  0.00    +0.119 C 
BRANCH  16  18
ATOM     17  O   UNL     1       5.095   0.400  -1.104  0.00  0.00    -0.250 OA
ATOM     18  C   UNL     1       4.800  -0.544  -0.384  0.00  0.00    +0.314 C 
BRANCH  18  19
ATOM     19  O   UNL     1       5.667  -1.544  -0.079  0.00  0.00    -0.480 OA
ATOM     20  H   UNL     1       5.394  -2.247   0.478  0.00  0.00    +0.295 HD
ENDBRANCH  18  19
ENDBRANCH  16  18
ENDBRANCH  15  16
ENDBRANCH   3  15
TORSDOF 11
