103924
  -OEChem-03292013323D

 39 43  0     0  0  0  0  0  0999 V2000
   -0.6032   -0.0053    1.9550 O   0  0  0  0  0  0  0  0  0  0  0  0
    2.4753    0.0182   -0.7159 O   0  0  0  0  0  0  0  0  0  0  0  0
   -2.6079   -0.0198    3.1127 O   0  0  0  0  0  0  0  0  0  0  0  0
    2.8552    4.7268   -0.4317 O   0  0  0  0  0  0  0  0  0  0  0  0
    2.9256   -4.6843   -0.4321 O   0  0  0  0  0  0  0  0  0  0  0  0
   -3.3185   -0.0221   -3.3520 N   0  0  0  0  0  0  0  0  0  0  0  0
   -0.1510   -0.0015    0.5635 C   0  0  0  0  0  0  0  0  0  0  0  0
   -1.4507   -0.0106   -0.1748 C   0  0  0  0  0  0  0  0  0  0  0  0
    0.6517    1.2633    0.3308 C   0  0  0  0  0  0  0  0  0  0  0  0
    0.6700   -1.2542    0.3299 C   0  0  0  0  0  0  0  0  0  0  0  0
   -2.5010   -0.0186    0.7254 C   0  0  0  0  0  0  0  0  0  0  0  0
    1.8964    1.1946   -0.3054 C   0  0  0  0  0  0  0  0  0  0  0  0
    1.9138   -1.1667   -0.3057 C   0  0  0  0  0  0  0  0  0  0  0  0
   -1.9691   -0.0155    2.0796 C   0  0  0  0  0  0  0  0  0  0  0  0
   -1.7015   -0.0118   -1.5380 C   0  0  0  0  0  0  0  0  0  0  0  0
    0.1662    2.5269    0.7112 C   0  0  0  0  0  0  0  0  0  0  0  0
    0.2030   -2.5251    0.7093 C   0  0  0  0  0  0  0  0  0  0  0  0
   -3.8257   -0.0277    0.3293 C   0  0  0  0  0  0  0  0  0  0  0  0
   -3.0312   -0.0210   -1.9693 C   0  0  0  0  0  0  0  0  0  0  0  0
    2.6326    2.3553   -0.5652 C   0  0  0  0  0  0  0  0  0  0  0  0
    2.6675   -2.3165   -0.5655 C   0  0  0  0  0  0  0  0  0  0  0  0
   -4.0862   -0.0288   -1.0413 C   0  0  0  0  0  0  0  0  0  0  0  0
    0.9041    3.6846    0.4583 C   0  0  0  0  0  0  0  0  0  0  0  0
    0.9582   -3.6717    0.4563 C   0  0  0  0  0  0  0  0  0  0  0  0
    2.1366    3.5988   -0.1818 C   0  0  0  0  0  0  0  0  0  0  0  0
    2.1897   -3.5674   -0.1829 C   0  0  0  0  0  0  0  0  0  0  0  0
   -0.8819   -0.0056   -2.2502 H   0  0  0  0  0  0  0  0  0  0  0  0
   -0.7975    2.6246    1.2048 H   0  0  0  0  0  0  0  0  0  0  0  0
   -0.7594   -2.6371    1.2022 H   0  0  0  0  0  0  0  0  0  0  0  0
   -4.6369   -0.0338    1.0483 H   0  0  0  0  0  0  0  0  0  0  0  0
    3.5962    2.2811   -1.0642 H   0  0  0  0  0  0  0  0  0  0  0  0
    3.6309   -2.2349   -1.0634 H   0  0  0  0  0  0  0  0  0  0  0  0
   -5.1185   -0.0358   -1.3836 H   0  0  0  0  0  0  0  0  0  0  0  0
    0.5080    4.6503    0.7606 H   0  0  0  0  0  0  0  0  0  0  0  0
    0.5703   -4.6401    0.7607 H   0  0  0  0  0  0  0  0  0  0  0  0
   -4.2788   -0.0295   -3.6691 H   0  0  0  0  0  0  0  0  0  0  0  0
   -2.5639   -0.0173   -4.0252 H   0  0  0  0  0  0  0  0  0  0  0  0
    3.6822    4.4810   -0.8808 H   0  0  0  0  0  0  0  0  0  0  0  0
    2.4429   -5.4606   -0.0996 H   0  0  0  0  0  0  0  0  0  0  0  0
  1  7  1  0  0  0  0
  1 14  1  0  0  0  0
  2 12  1  0  0  0  0
  2 13  1  0  0  0  0
  3 14  2  0  0  0  0
  4 25  1  0  0  0  0
  4 38  1  0  0  0  0
  5 26  1  0  0  0  0
  5 39  1  0  0  0  0
  6 19  1  0  0  0  0
  6 36  1  0  0  0  0
  6 37  1  0  0  0  0
  7  8  1  0  0  0  0
  7  9  1  0  0  0  0
  7 10  1  0  0  0  0
  8 11  2  0  0  0  0
  8 15  1  0  0  0  0
  9 12  2  0  0  0  0
  9 16  1  0  0  0  0
 10 13  2  0  0  0  0
 10 17  1  0  0  0  0
 11 14  1  0  0  0  0
 11 18  1  0  0  0  0
 12 20  1  0  0  0  0
 13 21  1  0  0  0  0
 15 19  2  0  0  0  0
 15 27  1  0  0  0  0
 16 23  2  0  0  0  0
 16 28  1  0  0  0  0
 17 24  2  0  0  0  0
 17 29  1  0  0  0  0
 18 22  2  0  0  0  0
 18 30  1  0  0  0  0
 19 22  1  0  0  0  0
 20 25  2  0  0  0  0
 20 31  1  0  0  0  0
 21 26  2  0  0  0  0
 21 32  1  0  0  0  0
 22 33  1  0  0  0  0
 23 25  1  0  0  0  0
 23 34  1  0  0  0  0
 24 26  1  0  0  0  0
 24 35  1  0  0  0  0
M  END
> <PUBCHEM_COMPOUND_CID>
103924

> <PUBCHEM_CONFORMER_RMSD>
0.6

> <PUBCHEM_CONFORMER_DIVERSEORDER>
1

> <PUBCHEM_MMFF94_PARTIAL_CHARGES>
39
1 -0.43
10 -0.14
11 0.09
12 0.08
13 0.08
14 0.63
15 -0.15
16 -0.15
17 -0.15
18 -0.15
19 0.1
2 -0.17
20 -0.15
21 -0.15
22 -0.15
23 -0.15
24 -0.15
25 0.08
26 0.08
27 0.15
28 0.15
29 0.15
3 -0.57
30 0.15
31 0.15
32 0.15
33 0.15
34 0.15
35 0.15
36 0.4
37 0.4
38 0.45
39 0.45
4 -0.53
5 -0.53
6 -0.9
7 0.71
8 -0.14
9 -0.14

> <PUBCHEM_EFFECTIVE_ROTOR_COUNT>
0.4

> <PUBCHEM_PHARMACOPHORE_FEATURES>
11
1 2 acceptor
1 3 acceptor
1 4 donor
1 5 donor
1 6 cation
1 6 donor
5 1 7 8 11 14 rings
6 10 13 17 21 24 26 rings
6 2 7 9 10 12 13 rings
6 8 11 15 18 19 22 rings
6 9 12 16 20 23 25 rings

> <PUBCHEM_HEAVY_ATOM_COUNT>
26

> <PUBCHEM_ATOM_DEF_STEREO_COUNT>
0

> <PUBCHEM_ATOM_UDEF_STEREO_COUNT>
0

> <PUBCHEM_BOND_DEF_STEREO_COUNT>
0

> <PUBCHEM_BOND_UDEF_STEREO_COUNT>
0

> <PUBCHEM_ISOTOPIC_ATOM_COUNT>
0

> <PUBCHEM_COMPONENT_COUNT>
1

> <PUBCHEM_CACTVS_TAUTO_COUNT>
15

> <PUBCHEM_CONFORMER_ID>
000195F400000001

> <PUBCHEM_MMFF94_ENERGY>
88.932

> <PUBCHEM_FEATURE_SELFOVERLAP>
55.968

> <PUBCHEM_SHAPE_FINGERPRINT>
10165383 225 17540580036775547420
105312 117 17831298668182214812
10930396 42 17759752171711197352
11101153 10 18121500151603976238
11578080 2 17098376070967829093
11582403 64 17173447585438908789
11725454 13 17533191280198224277
12553582 1 18123211012274593066
12730499 353 18263082283536187377
12788726 201 17181934350373597891
13004483 165 17764568946324410759
13009979 54 17489582325463691607
13140716 1 18051722076591292168
13583140 156 18122098392991790137
13681431 1 18193535818677732400
13911987 19 18261976076049649118
14790565 3 17906499598787328720
14817 1 9959926969567787273
16087824 20 17256815490795011177
16945 1 18338816562151445456
17980427 26 18053697834235166689
1813 80 17914898634397783071
18219364 16 18119541082736444433
18915476 22 18336266850980188851
19930381 70 18337112375422072041
20101258 96 17835249943667972642
20602899 9 17836921579008929865
21304303 282 16540674361286759316
21756936 100 17196612143531576848
22112679 90 17631175190736024827
22907989 373 16895390088193666900
23419403 2 17896062995291443675
23598288 3 17112444124819431230
23728640 28 16754091238991109618
238 59 18263625407398376927
266924 78 18339932609798923717
350125 39 17833005106011754130
376196 1 17463088592244598717
4409770 3 17114930648953710958
497634 4 16395245360048757692
57359948 33 16826918852773566167
57527295 17 17753595859424425119
59025328 239 17695022709863919295
59755656 520 17694533702252373880
6438718 38 17116355061719469274
70251023 43 17908133287680795295
81228 2 17396972466926710752

> <PUBCHEM_SHAPE_MULTIPOLES>
500.74
5.48
5.28
1.99
4.05
0.12
0.03
-0.1
2.22
-8.78
0.21
2.95
-0.01
-0.01

> <PUBCHEM_SHAPE_SELFOVERLAP>
1155.785

> <PUBCHEM_SHAPE_VOLUME>
256.2

> <PUBCHEM_COORDINATE_TYPE>
2
5
10

$$$$
