10391133
  -OEChem-03292013303D

 69 72  0     1  0  0  0  0  0999 V2000
   -0.0221    0.5807    2.7357 O   0  0  0  0  0  0  0  0  0  0  0  0
   -0.0858   -0.5444   -1.0662 O   0  0  0  0  0  0  0  0  0  0  0  0
   -1.7310   -3.1908    1.4246 O   0  0  0  0  0  0  0  0  0  0  0  0
    1.3724   -0.6775    0.7346 N   0  0  0  0  0  0  0  0  0  0  0  0
    5.5202    1.6238   -1.0336 N   0  0  0  0  0  0  0  0  0  0  0  0
    0.0655    2.5433    1.4973 N   0  0  0  0  0  0  0  0  0  0  0  0
   -0.7348   -3.1871   -0.6730 N   0  0  0  0  0  0  0  0  0  0  0  0
    1.5638    0.7408    0.9092 C   0  0  2  0  0  0  0  0  0  0  0  0
    2.9339    1.0648    1.5183 C   0  0  0  0  0  0  0  0  0  0  0  0
    4.0510    1.0155    0.5152 C   0  0  0  0  0  0  0  0  0  0  0  0
    4.8401   -0.1203    0.1802 C   0  0  0  0  0  0  0  0  0  0  0  0
    5.7540    0.2884   -0.7935 C   0  0  0  0  0  0  0  0  0  0  0  0
    0.4448    1.2463    1.8138 C   0  0  0  0  0  0  0  0  0  0  0  0
    4.4928    2.0721   -0.2474 C   0  0  0  0  0  0  0  0  0  0  0  0
    0.5635   -2.7323   -0.2504 C   0  0  2  0  0  0  0  0  0  0  0  0
    0.5521   -1.2093   -0.2524 C   0  0  0  0  0  0  0  0  0  0  0  0
    4.8647   -1.4608    0.6132 C   0  0  0  0  0  0  0  0  0  0  0  0
   -0.9424    3.2746    2.2305 C   0  0  0  0  0  0  0  0  0  0  0  0
    6.6950   -0.5799   -1.3580 C   0  0  0  0  0  0  0  0  0  0  0  0
   -2.3445    3.0696    1.6625 C   0  0  0  0  0  0  0  0  0  0  0  0
    5.8005   -2.3408    0.0574 C   0  0  0  0  0  0  0  0  0  0  0  0
    1.6600   -3.2688   -1.1574 C   0  0  0  0  0  0  0  0  0  0  0  0
    6.7006   -1.9050   -0.9129 C   0  0  0  0  0  0  0  0  0  0  0  0
   -2.4620    3.4909    0.2183 C   0  0  0  0  0  0  0  0  0  0  0  0
   -1.7891   -3.3812    0.2125 C   0  0  0  0  0  0  0  0  0  0  0  0
   -3.0398   -3.8573   -0.5012 C   0  0  0  0  0  0  0  0  0  0  0  0
   -2.8208    4.8010   -0.0990 C   0  0  0  0  0  0  0  0  0  0  0  0
   -2.2112    2.5705   -0.7996 C   0  0  0  0  0  0  0  0  0  0  0  0
   -4.2101   -2.9234   -0.3414 C   0  0  0  0  0  0  0  0  0  0  0  0
   -2.9293    5.1907   -1.4340 C   0  0  0  0  0  0  0  0  0  0  0  0
   -2.3196    2.9604   -2.1345 C   0  0  0  0  0  0  0  0  0  0  0  0
   -2.6786    4.2704   -2.4516 C   0  0  0  0  0  0  0  0  0  0  0  0
   -4.4121   -1.8944   -1.2614 C   0  0  0  0  0  0  0  0  0  0  0  0
   -5.0920   -3.0868    0.7269 C   0  0  0  0  0  0  0  0  0  0  0  0
   -5.4961   -1.0292   -1.1130 C   0  0  0  0  0  0  0  0  0  0  0  0
   -6.1760   -2.2216    0.8752 C   0  0  0  0  0  0  0  0  0  0  0  0
   -6.3779   -1.1928   -0.0447 C   0  0  0  0  0  0  0  0  0  0  0  0
    1.4616    1.2192   -0.0736 H   0  0  0  0  0  0  0  0  0  0  0  0
    3.1550    0.3878    2.3539 H   0  0  0  0  0  0  0  0  0  0  0  0
    2.9154    2.0733    1.9535 H   0  0  0  0  0  0  0  0  0  0  0  0
    1.8112   -1.3044    1.4025 H   0  0  0  0  0  0  0  0  0  0  0  0
    4.1689    3.1020   -0.3030 H   0  0  0  0  0  0  0  0  0  0  0  0
    6.0330    2.1903   -1.6951 H   0  0  0  0  0  0  0  0  0  0  0  0
    0.7349   -3.0921    0.7713 H   0  0  0  0  0  0  0  0  0  0  0  0
    4.1740   -1.8185    1.3711 H   0  0  0  0  0  0  0  0  0  0  0  0
    0.5195    3.0195    0.7234 H   0  0  0  0  0  0  0  0  0  0  0  0
   -0.9198    2.9594    3.2794 H   0  0  0  0  0  0  0  0  0  0  0  0
   -0.6604    4.3325    2.1902 H   0  0  0  0  0  0  0  0  0  0  0  0
    7.3961   -0.2416   -2.1135 H   0  0  0  0  0  0  0  0  0  0  0  0
   -3.0688    3.6297    2.2671 H   0  0  0  0  0  0  0  0  0  0  0  0
   -2.6340    2.0143    1.7524 H   0  0  0  0  0  0  0  0  0  0  0  0
    5.8242   -3.3759    0.3879 H   0  0  0  0  0  0  0  0  0  0  0  0
    1.6544   -4.3638   -1.1708 H   0  0  0  0  0  0  0  0  0  0  0  0
    2.6462   -2.9352   -0.8223 H   0  0  0  0  0  0  0  0  0  0  0  0
    1.5277   -2.9221   -2.1887 H   0  0  0  0  0  0  0  0  0  0  0  0
    7.4191   -2.6055   -1.3311 H   0  0  0  0  0  0  0  0  0  0  0  0
   -0.8949   -3.2968   -1.6702 H   0  0  0  0  0  0  0  0  0  0  0  0
   -2.8529   -4.0260   -1.5686 H   0  0  0  0  0  0  0  0  0  0  0  0
   -3.2903   -4.8454   -0.0940 H   0  0  0  0  0  0  0  0  0  0  0  0
   -3.0166    5.5275    0.6851 H   0  0  0  0  0  0  0  0  0  0  0  0
   -1.9370    1.5455   -0.5664 H   0  0  0  0  0  0  0  0  0  0  0  0
   -3.2082    6.2108   -1.6810 H   0  0  0  0  0  0  0  0  0  0  0  0
   -2.1257    2.2432   -2.9267 H   0  0  0  0  0  0  0  0  0  0  0  0
   -2.7632    4.5737   -3.4910 H   0  0  0  0  0  0  0  0  0  0  0  0
   -3.7298   -1.7551   -2.0958 H   0  0  0  0  0  0  0  0  0  0  0  0
   -4.9444   -3.8833    1.4514 H   0  0  0  0  0  0  0  0  0  0  0  0
   -5.6525   -0.2271   -1.8284 H   0  0  0  0  0  0  0  0  0  0  0  0
   -6.8623   -2.3483    1.7073 H   0  0  0  0  0  0  0  0  0  0  0  0
   -7.2214   -0.5186    0.0712 H   0  0  0  0  0  0  0  0  0  0  0  0
  1 13  2  0  0  0  0
  2 16  2  0  0  0  0
  3 25  2  0  0  0  0
  4  8  1  0  0  0  0
  4 16  1  0  0  0  0
  4 41  1  0  0  0  0
  5 12  1  0  0  0  0
  5 14  1  0  0  0  0
  5 43  1  0  0  0  0
  6 13  1  0  0  0  0
  6 18  1  0  0  0  0
  6 46  1  0  0  0  0
  7 15  1  0  0  0  0
  7 25  1  0  0  0  0
  7 57  1  0  0  0  0
  8  9  1  0  0  0  0
  8 13  1  0  0  0  0
  8 38  1  0  0  0  0
  9 10  1  0  0  0  0
  9 39  1  0  0  0  0
  9 40  1  0  0  0  0
 10 11  1  0  0  0  0
 10 14  2  0  0  0  0
 11 12  1  0  0  0  0
 11 17  2  0  0  0  0
 12 19  2  0  0  0  0
 14 42  1  0  0  0  0
 15 16  1  0  0  0  0
 15 22  1  0  0  0  0
 15 44  1  0  0  0  0
 17 21  1  0  0  0  0
 17 45  1  0  0  0  0
 18 20  1  0  0  0  0
 18 47  1  0  0  0  0
 18 48  1  0  0  0  0
 19 23  1  0  0  0  0
 19 49  1  0  0  0  0
 20 24  1  0  0  0  0
 20 50  1  0  0  0  0
 20 51  1  0  0  0  0
 21 23  2  0  0  0  0
 21 52  1  0  0  0  0
 22 53  1  0  0  0  0
 22 54  1  0  0  0  0
 22 55  1  0  0  0  0
 23 56  1  0  0  0  0
 24 27  2  0  0  0  0
 24 28  1  0  0  0  0
 25 26  1  0  0  0  0
 26 29  1  0  0  0  0
 26 58  1  0  0  0  0
 26 59  1  0  0  0  0
 27 30  1  0  0  0  0
 27 60  1  0  0  0  0
 28 31  2  0  0  0  0
 28 61  1  0  0  0  0
 29 33  2  0  0  0  0
 29 34  1  0  0  0  0
 30 32  2  0  0  0  0
 30 62  1  0  0  0  0
 31 32  1  0  0  0  0
 31 63  1  0  0  0  0
 32 64  1  0  0  0  0
 33 35  1  0  0  0  0
 33 65  1  0  0  0  0
 34 36  2  0  0  0  0
 34 66  1  0  0  0  0
 35 37  2  0  0  0  0
 35 67  1  0  0  0  0
 36 37  1  0  0  0  0
 36 68  1  0  0  0  0
 37 69  1  0  0  0  0
M  END
> <PUBCHEM_COMPOUND_CID>
10391133

> <PUBCHEM_CONFORMER_RMSD>
1.6

> <PUBCHEM_CONFORMER_DIVERSEORDER>
1
132
43
105
66
136
128
4
98
64
107
56
114
112
55
58
138
24
144
127
102
68
125
42
121
45
90
115
7
54
31
62
101
100
67
46
130
73
95
50
11
82
89
142
99
126
70
51
83
97
88
137
29
65
124
118
39
52
140
111
113
63
49
79
85
92
143
129
119
78
61
86
84
16
104
93
141
12
116
38
110
123
37
18
135
77
87
76
27
30
80
106
75
103
139
134
120
72
9
22
74
57
94
108
21
36
17
10
28
5
53
145
48
44
47
35
109
8
91
19
40
71
117
69
20
33
60
15
96
34
26
23
59
133
122
32
13
6
41
2
131
25
14
81
3

> <PUBCHEM_MMFF94_PARTIAL_CHARGES>
54
1 -0.57
10 -0.18
12 -0.15
13 0.57
14 -0.3
15 0.36
16 0.57
17 -0.15
18 0.3
19 -0.15
2 -0.57
20 0.14
21 -0.15
23 -0.15
24 -0.14
25 0.57
26 0.2
27 -0.15
28 -0.15
29 -0.14
3 -0.57
30 -0.15
31 -0.15
32 -0.15
33 -0.15
34 -0.15
35 -0.15
36 -0.15
37 -0.15
4 -0.73
41 0.37
42 0.15
43 0.27
45 0.15
46 0.37
49 0.15
5 0.03
52 0.15
56 0.15
57 0.37
6 -0.73
60 0.15
61 0.15
62 0.15
63 0.15
64 0.15
65 0.15
66 0.15
67 0.15
68 0.15
69 0.15
7 -0.73
8 0.36
9 0.18

> <PUBCHEM_EFFECTIVE_ROTOR_COUNT>
14

> <PUBCHEM_PHARMACOPHORE_FEATURES>
12
1 1 acceptor
1 2 acceptor
1 3 acceptor
1 4 donor
1 5 cation
1 5 donor
1 6 donor
1 7 donor
5 5 10 11 12 14 rings
6 11 12 17 19 21 23 rings
6 24 27 28 30 31 32 rings
6 29 33 34 35 36 37 rings

> <PUBCHEM_HEAVY_ATOM_COUNT>
37

> <PUBCHEM_ATOM_DEF_STEREO_COUNT>
2

> <PUBCHEM_ATOM_UDEF_STEREO_COUNT>
0

> <PUBCHEM_BOND_DEF_STEREO_COUNT>
0

> <PUBCHEM_BOND_UDEF_STEREO_COUNT>
0

> <PUBCHEM_ISOTOPIC_ATOM_COUNT>
0

> <PUBCHEM_COMPONENT_COUNT>
1

> <PUBCHEM_CACTVS_TAUTO_COUNT>
8

> <PUBCHEM_CONFORMER_ID>
009E8E5D00000001

> <PUBCHEM_MMFF94_ENERGY>
75.4618

> <PUBCHEM_FEATURE_SELFOVERLAP>
60.989

> <PUBCHEM_SHAPE_FINGERPRINT>
10675989 125 18122905589103104280
11991303 11 18263372395148811424
12788726 201 18188477068762903411
15183329 4 18059299867158752786
15276724 80 18339927116435759468
15444296 9 18201451246237029727
15781502 461 18343587351742546598
16067689 391 17845365549016459910
16628084 112 18409453561344710154
21792965 326 17532666835344602916
25223398 141 18337666430208358972
3493558 16 18114464564694366622
4058900 60 17621314641936996261
46939830 39 18193282008313810817
550186 83 17973699644662571929

> <PUBCHEM_SHAPE_MULTIPOLES>
723.91
15.18
7.25
1.97
13.66
4.99
0.34
-9.1
-4.35
-11.2
-1.74
-0.79
1.92
1.92

> <PUBCHEM_SHAPE_SELFOVERLAP>
1547.527

> <PUBCHEM_SHAPE_VOLUME>
399.2

> <PUBCHEM_COORDINATE_TYPE>
2
5
10

$$$$
