REMARK  Name = 10391133
REMARK  11 active torsions:
REMARK  status: ('A' for Active; 'I' for Inactive)
REMARK    1  A    between atoms: C_1  and  C_4
REMARK    2  A    between atoms: C_1  and  N_15
REMARK    3  A    between atoms: C_1  and  C_31
REMARK    4  A    between atoms: N_3  and  C_6
REMARK    5  A    between atoms: C_6  and  C_7
REMARK    6  A    between atoms: C_7  and  C_8
REMARK    7  A    between atoms: C_16  and  C_18
REMARK    8  A    between atoms: C_18  and  N_21
REMARK    9  A    between atoms: C_22  and  C_24
REMARK   10  A    between atoms: C_24  and  C_25
REMARK   11  A    between atoms: C_31  and  C_33
REMARK                            x       y       z     vdW  Elec       q    Type
REMARK                         _______ _______ _______ _____ _____    ______ ____
ROOT
ATOM      1  C   UNL     1       1.564   0.741   0.909  0.00  0.00    +0.153 C 
ENDROOT
BRANCH   1   4
ATOM      2  O   UNL     1      -0.022   0.581   2.736  0.00  0.00    -0.273 OA
ATOM      3  N   UNL     1       0.066   2.543   1.497  0.00  0.00    -0.303 N 
ATOM      4  C   UNL     1       0.445   1.246   1.814  0.00  0.00    +0.241 C 
ATOM      5  H   UNL     1       0.505   2.987   0.736  0.00  0.00    +0.149 HD
BRANCH   3   6
ATOM      6  C   UNL     1      -0.942   3.275   2.231  0.00  0.00    +0.094 C 
BRANCH   6   7
ATOM      7  C   UNL     1      -2.345   3.070   1.663  0.00  0.00    +0.048 C 
BRANCH   7   8
ATOM      8  C   UNL     1      -2.462   3.491   0.218  0.00  0.00    -0.020 C 
ATOM      9  C   UNL     1      -2.821   4.801  -0.099  0.00  0.00    -0.004 C 
ATOM     10  C   UNL     1      -2.211   2.571  -0.800  0.00  0.00    -0.004 C 
ATOM     11  C   UNL     1      -2.929   5.191  -1.434  0.00  0.00    -0.000 C 
ATOM     12  C   UNL     1      -2.320   2.960  -2.135  0.00  0.00    -0.000 C 
ATOM     13  C   UNL     1      -2.679   4.270  -2.452  0.00  0.00    -0.000 C 
ENDBRANCH   7   8
ENDBRANCH   6   7
ENDBRANCH   3   6
ENDBRANCH   1   4
BRANCH   1  15
ATOM     14  O   UNL     1      -0.086  -0.544  -1.066  0.00  0.00    -0.273 OA
ATOM     15  N   UNL     1       1.372  -0.677   0.735  0.00  0.00    -0.297 N 
ATOM     16  C   UNL     1       0.552  -1.209  -0.252  0.00  0.00    +0.241 C 
ATOM     17  H   UNL     1       1.843  -1.295   1.340  0.00  0.00    +0.150 HD
BRANCH  16  18
ATOM     18  C   UNL     1       0.564  -2.732  -0.250  0.00  0.00    +0.149 C 
ATOM     19  C   UNL     1       1.660  -3.269  -1.157  0.00  0.00    +0.031 C 
BRANCH  18  21
ATOM     20  O   UNL     1      -1.731  -3.191   1.425  0.00  0.00    -0.275 OA
ATOM     21  N   UNL     1      -0.735  -3.187  -0.673  0.00  0.00    -0.298 N 
ATOM     22  C   UNL     1      -1.789  -3.381   0.212  0.00  0.00    +0.227 C 
ATOM     23  H   UNL     1      -0.883  -3.368  -1.629  0.00  0.00    +0.150 HD
BRANCH  22  24
ATOM     24  C   UNL     1      -3.040  -3.857  -0.501  0.00  0.00    +0.111 C 
BRANCH  24  25
ATOM     25  C   UNL     1      -4.210  -2.923  -0.341  0.00  0.00    -0.013 C 
ATOM     26  C   UNL     1      -4.412  -1.894  -1.261  0.00  0.00    -0.004 C 
ATOM     27  C   UNL     1      -5.092  -3.087   0.727  0.00  0.00    -0.004 C 
ATOM     28  C   UNL     1      -5.496  -1.029  -1.113  0.00  0.00    -0.000 C 
ATOM     29  C   UNL     1      -6.176  -2.222   0.875  0.00  0.00    -0.000 C 
ATOM     30  C   UNL     1      -6.378  -1.193  -0.045  0.00  0.00    -0.000 C 
ENDBRANCH  24  25
ENDBRANCH  22  24
ENDBRANCH  18  21
ENDBRANCH  16  18
ENDBRANCH   1  15
BRANCH   1  31
ATOM     31  C   UNL     1       2.934   1.065   1.518  0.00  0.00    +0.057 C 
BRANCH  31  33
ATOM     32  N   UNL     1       5.520   1.624  -1.034  0.00  0.00    -0.312 N 
ATOM     33  C   UNL     1       4.051   1.016   0.515  0.00  0.00    -0.004 C 
ATOM     34  C   UNL     1       4.840  -0.120   0.180  0.00  0.00    +0.011 C 
ATOM     35  C   UNL     1       5.754   0.288  -0.793  0.00  0.00    +0.048 C 
ATOM     36  C   UNL     1       4.493   2.072  -0.247  0.00  0.00    +0.058 C 
ATOM     37  C   UNL     1       4.865  -1.461   0.613  0.00  0.00    +0.001 C 
ATOM     38  C   UNL     1       6.695  -0.580  -1.358  0.00  0.00    +0.015 C 
ATOM     39  C   UNL     1       5.801  -2.341   0.057  0.00  0.00    +0.000 C 
ATOM     40  C   UNL     1       6.701  -1.905  -0.913  0.00  0.00    +0.001 C 
ATOM     41  H   UNL     1       6.020   2.176  -1.677  0.00  0.00    +0.152 HD
ENDBRANCH  31  33
ENDBRANCH   1  31
TORSDOF 11
