10398471
  -OEChem-03292013303D

 33 32  0     0  0  0  0  0  0999 V2000
    0.4138    2.2142   -0.5379 O   0  0  0  0  0  0  0  0  0  0  0  0
    0.8730   -0.8313    1.2893 O   0  0  0  0  0  0  0  0  0  0  0  0
    5.6671   -1.5442   -0.0785 O   0  0  0  0  0  0  0  0  0  0  0  0
    5.0953    0.3999   -1.1039 O   0  0  0  0  0  0  0  0  0  0  0  0
    0.1628    1.1038    0.2832 N   0  0  0  0  0  0  0  0  0  0  0  0
   -6.7891   -1.2515   -0.8426 N   0  0  0  0  0  0  0  0  0  0  0  0
   -3.5463    0.2971    0.4176 C   0  0  0  0  0  0  0  0  0  0  0  0
   -2.1220    0.3276   -0.1369 C   0  0  0  0  0  0  0  0  0  0  0  0
   -4.4843   -0.4912   -0.4992 C   0  0  0  0  0  0  0  0  0  0  0  0
   -1.1799    1.0795    0.7956 C   0  0  0  0  0  0  0  0  0  0  0  0
   -5.9141   -0.4884    0.0394 C   0  0  0  0  0  0  0  0  0  0  0  0
    1.1030    0.1399    0.5674 C   0  0  0  0  0  0  0  0  0  0  0  0
    2.4642    0.3458   -0.0833 C   0  0  0  0  0  0  0  0  0  0  0  0
    3.4566   -0.7575    0.2738 C   0  0  0  0  0  0  0  0  0  0  0  0
    4.7998   -0.5438   -0.3840 C   0  0  0  0  0  0  0  0  0  0  0  0
   -2.1211    0.8017   -1.1264 H   0  0  0  0  0  0  0  0  0  0  0  0
   -1.7593   -0.6978   -0.2810 H   0  0  0  0  0  0  0  0  0  0  0  0
   -3.5443   -0.1576    1.4157 H   0  0  0  0  0  0  0  0  0  0  0  0
   -3.9170    1.3232    0.5300 H   0  0  0  0  0  0  0  0  0  0  0  0
   -4.1212   -1.5227   -0.5909 H   0  0  0  0  0  0  0  0  0  0  0  0
   -4.4656   -0.0520   -1.5047 H   0  0  0  0  0  0  0  0  0  0  0  0
   -1.1733    0.5844    1.7737 H   0  0  0  0  0  0  0  0  0  0  0  0
   -1.5192    2.1106    0.9472 H   0  0  0  0  0  0  0  0  0  0  0  0
   -6.2909    0.5369    0.1180 H   0  0  0  0  0  0  0  0  0  0  0  0
   -5.9454   -0.9281    1.0420 H   0  0  0  0  0  0  0  0  0  0  0  0
    2.3240    0.3848   -1.1704 H   0  0  0  0  0  0  0  0  0  0  0  0
    2.8558    1.3189    0.2369 H   0  0  0  0  0  0  0  0  0  0  0  0
    3.6078   -0.7871    1.3588 H   0  0  0  0  0  0  0  0  0  0  0  0
    3.0668   -1.7285   -0.0523 H   0  0  0  0  0  0  0  0  0  0  0  0
   -6.4401   -2.2054   -0.9296 H   0  0  0  0  0  0  0  0  0  0  0  0
   -6.7580   -0.8559   -1.7816 H   0  0  0  0  0  0  0  0  0  0  0  0
    0.1165    1.8692   -1.3970 H   0  0  0  0  0  0  0  0  0  0  0  0
    6.5417   -1.4116   -0.5026 H   0  0  0  0  0  0  0  0  0  0  0  0
  1  5  1  0  0  0  0
  1 32  1  0  0  0  0
  2 12  2  0  0  0  0
  3 15  1  0  0  0  0
  3 33  1  0  0  0  0
  4 15  2  0  0  0  0
  5 10  1  0  0  0  0
  5 12  1  0  0  0  0
  6 11  1  0  0  0  0
  6 30  1  0  0  0  0
  6 31  1  0  0  0  0
  7  8  1  0  0  0  0
  7  9  1  0  0  0  0
  7 18  1  0  0  0  0
  7 19  1  0  0  0  0
  8 10  1  0  0  0  0
  8 16  1  0  0  0  0
  8 17  1  0  0  0  0
  9 11  1  0  0  0  0
  9 20  1  0  0  0  0
  9 21  1  0  0  0  0
 10 22  1  0  0  0  0
 10 23  1  0  0  0  0
 11 24  1  0  0  0  0
 11 25  1  0  0  0  0
 12 13  1  0  0  0  0
 13 14  1  0  0  0  0
 13 26  1  0  0  0  0
 13 27  1  0  0  0  0
 14 15  1  0  0  0  0
 14 28  1  0  0  0  0
 14 29  1  0  0  0  0
M  END
> <PUBCHEM_COMPOUND_CID>
10398471

> <PUBCHEM_CONFORMER_RMSD>
0.8

> <PUBCHEM_CONFORMER_DIVERSEORDER>
1
175
225
33
411
106
340
460
353
2
180
374
351
398
94
357
140
111
419
410
296
48
406
62
54
370
258
31
239
116
469
458
482
128
440
446
443
386
390
457
10
350
86
468
240
420
233
462
67
403
154
328
288
194
197
431
333
445
125
295
189
60
44
413
113
265
313
324
384
435
18
268
286
190
212
136
102
476
204
144
119
159
280
157
434
208
304
218
249
23
298
425
99
35
452
243
25
195
279
137
294
244
475
110
205
438
346
459
361
151
399
276
293
455
356
9
72
138
207
63
191
216
267
28
426
200
311
227
306
64
262
173
224
269
283
203
479
95
433
193
366
382
478
291
124
255
297
442
319
409
367
88
418
120
202
436
43
230
393
78
430
348
34
229
234
389
237
81
96
153
310
167
378
470
251
355
210
76
454
158
74
27
4
377
145
305
142
352
321
365
363
146
79
441
201
341
246
90
199
147
185
316
402
129
338
56
415
15
187
300
84
301
277
395
260
11
12
177
19
127
327
112
317
160
170
272
264
257
97
21
178
198
53
179
412
85
133
449
155
32
82
236
247
22
162
315
404
211
281
309
369
121
339
344
256
30
166
266
429
322
417
52
270
47
58
318
285
3
69
359
480
176
292
36
221
37
186
117
45
259
372
388
241
375
424
466
302
289
423
373
152
245
408
59
473
331
427
164
371
143
39
100
29
184
471
275
394
109
131
89
42
51
57
326
174
98
422
397
405
392
68
416
396
163
165
437
20
150
271
65
123
330
6
91
414
132
325
181
421
278
182
92
7
217
253
407
75
196
287
40
114
312
329
364
169
5
448
70
387
49
220
118
228
215
465
87
401
273
354
337
26
41
192
8
93
235
13
238
24
77
385
451
432
55
248
439
16
345
66
134
477
101
231
38
122
161
481
376
461
14
342
242
107
284
379
222
105
130
17
168
80
347
232
472
428
139
172
453
226
368
290
263
104
254
135
206
307
71
61
400
209
213
126
314
444
450
156
50
464
261
223
349
252
343
250
46
73
214
115
391
474
463
456
332
323
303
299
383
362
274
83
336
148
320
141
149
358
103
308
171
183
381
335
360
334
282
188
219
108
467
380
447

> <PUBCHEM_MMFF94_PARTIAL_CHARGES>
16
1 -0.44
10 0.3
11 0.27
12 0.57
13 0.06
14 0.06
15 0.66
2 -0.57
3 -0.65
30 0.36
31 0.36
32 0.4
33 0.5
4 -0.57
5 -0.32
6 -0.99

> <PUBCHEM_EFFECTIVE_ROTOR_COUNT>
9

> <PUBCHEM_PHARMACOPHORE_FEATURES>
6
1 2 acceptor
1 3 acceptor
1 4 acceptor
1 6 cation
1 6 donor
3 3 4 15 anion

> <PUBCHEM_HEAVY_ATOM_COUNT>
15

> <PUBCHEM_ATOM_DEF_STEREO_COUNT>
0

> <PUBCHEM_ATOM_UDEF_STEREO_COUNT>
0

> <PUBCHEM_BOND_DEF_STEREO_COUNT>
0

> <PUBCHEM_BOND_UDEF_STEREO_COUNT>
0

> <PUBCHEM_ISOTOPIC_ATOM_COUNT>
0

> <PUBCHEM_COMPONENT_COUNT>
1

> <PUBCHEM_CACTVS_TAUTO_COUNT>
1

> <PUBCHEM_CONFORMER_ID>
009EAB0700000001

> <PUBCHEM_MMFF94_ENERGY>
9.2811

> <PUBCHEM_FEATURE_SELFOVERLAP>
30.505

> <PUBCHEM_SHAPE_FINGERPRINT>
100836 57 8070024475871652395
117890 112 11746941992611657142
12596602 18 11815890167407688559
12670543 26 17748824081796024599
12714333 28 14996281427125152607
13288520 33 18273496763195900097
13862211 1 18408602531149891898
13968360 50 16732975410548691410
14123256 34 18341897441821678199
14251752 14 18114455653096299077
14251764 18 10591753273590247380
14576447 43 18335135379983961299
14911166 2 17967253108972486233
15048467 5 8430305836718767678
15501527 24 18186242831065092738
17834072 33 18413390947022179829
17834076 25 11963390747769826619
18222031 100 18410288120728980129
187816 3 17676211255744985424
19784866 240 18343868831635923273
20281389 69 9007060153772807359
20526848 3 11602814680186302191
20871999 31 17822286847695032997
212847 35 7853571301492763902
21637258 2 17988634190695829655
22224240 67 12175617374235765357
23035841 295 18341895186557477635
23402539 116 18338235968504247720
23402655 69 14851599977786847161
2767999 5 11602537641509712567
2916195 48 11674887705555999071
293599 30 10953459626416687193
33382 64 17203335455614549974
351380 3 18272929423432708391
465052 167 17703793634519898158

> <PUBCHEM_SHAPE_MULTIPOLES>
275.25
14.99
1.39
0.91
8.89
0.34
-0.05
-8.6
4.16
-0.21
0.14
-0.15
0
-0.72

> <PUBCHEM_SHAPE_SELFOVERLAP>
516.838

> <PUBCHEM_SHAPE_VOLUME>
170.5

> <PUBCHEM_COORDINATE_TYPE>
2
5
10

$$$$
