10405960
  -OEChem-03292013303D

 46 48  0     1  0  0  0  0  0999 V2000
    2.3408    1.6269   -1.3043 O   0  0  0  0  0  0  0  0  0  0  0  0
    1.4911   -1.4152    1.3221 O   0  0  0  0  0  0  0  0  0  0  0  0
   -1.8315    1.0521    1.0492 O   0  0  0  0  0  0  0  0  0  0  0  0
   -4.1293   -2.6857   -0.8673 O   0  0  0  0  0  0  0  0  0  0  0  0
    4.0154   -1.6979    1.8191 O   0  0  0  0  0  0  0  0  0  0  0  0
    6.9729    1.3201   -0.3411 O   0  0  0  0  0  0  0  0  0  0  0  0
    0.6381    0.2956   -0.1661 C   0  0  2  0  0  0  0  0  0  0  0  0
   -0.6461   -0.4871   -0.3410 C   0  0  0  0  0  0  0  0  0  0  0  0
    1.1924    0.7949   -1.5007 C   0  0  0  0  0  0  0  0  0  0  0  0
    1.7214   -0.5027    0.5367 C   0  0  0  0  0  0  0  0  0  0  0  0
    3.1100   -0.0627    0.2777 C   0  0  0  0  0  0  0  0  0  0  0  0
   -1.8262   -0.0720    0.2763 C   0  0  0  0  0  0  0  0  0  0  0  0
    3.3390    0.9907   -0.6128 C   0  0  0  0  0  0  0  0  0  0  0  0
   -2.9996   -0.8063    0.1034 C   0  0  0  0  0  0  0  0  0  0  0  0
   -0.6396   -1.6366   -1.1314 C   0  0  0  0  0  0  0  0  0  0  0  0
   -4.2652   -0.3627    0.7649 C   0  0  0  0  0  0  0  0  0  0  0  0
   -2.9928   -1.9556   -0.6870 C   0  0  0  0  0  0  0  0  0  0  0  0
    4.1796   -0.6651    0.9458 C   0  0  0  0  0  0  0  0  0  0  0  0
   -1.8129   -2.3708   -1.3043 C   0  0  0  0  0  0  0  0  0  0  0  0
    4.6371    1.4646   -0.8086 C   0  0  0  0  0  0  0  0  0  0  0  0
    5.4775   -0.2001    0.7304 C   0  0  0  0  0  0  0  0  0  0  0  0
    5.7054    0.8653   -0.1408 C   0  0  0  0  0  0  0  0  0  0  0  0
   -5.0751    0.5764   -0.0928 C   0  0  0  0  0  0  0  0  0  0  0  0
   -5.8790    1.5803    0.3066 C   0  0  0  0  0  0  0  0  0  0  0  0
   -6.6606    2.4818   -0.6065 C   0  0  0  0  0  0  0  0  0  0  0  0
   -6.0630    1.8716    1.7725 C   0  0  0  0  0  0  0  0  0  0  0  0
    0.4733    1.1681    0.4798 H   0  0  0  0  0  0  0  0  0  0  0  0
    1.4641   -0.0195   -2.1855 H   0  0  0  0  0  0  0  0  0  0  0  0
    0.4412    1.4048   -2.0163 H   0  0  0  0  0  0  0  0  0  0  0  0
    0.2698   -1.9829   -1.6146 H   0  0  0  0  0  0  0  0  0  0  0  0
   -4.8879   -1.2285    1.0225 H   0  0  0  0  0  0  0  0  0  0  0  0
   -4.0284    0.0714    1.7422 H   0  0  0  0  0  0  0  0  0  0  0  0
   -1.8006   -3.2663   -1.9197 H   0  0  0  0  0  0  0  0  0  0  0  0
    4.8194    2.2933   -1.4884 H   0  0  0  0  0  0  0  0  0  0  0  0
    6.3096   -0.6684    1.2511 H   0  0  0  0  0  0  0  0  0  0  0  0
   -5.0102    0.4029   -1.1671 H   0  0  0  0  0  0  0  0  0  0  0  0
   -2.7183    1.4447    1.0734 H   0  0  0  0  0  0  0  0  0  0  0  0
   -4.9138   -2.1264   -0.7542 H   0  0  0  0  0  0  0  0  0  0  0  0
    3.0909   -1.9885    1.8325 H   0  0  0  0  0  0  0  0  0  0  0  0
   -6.4805    2.2423   -1.6597 H   0  0  0  0  0  0  0  0  0  0  0  0
   -7.7343    2.3798   -0.4190 H   0  0  0  0  0  0  0  0  0  0  0  0
   -6.3738    3.5262   -0.4474 H   0  0  0  0  0  0  0  0  0  0  0  0
   -5.7515    1.0595    2.4332 H   0  0  0  0  0  0  0  0  0  0  0  0
   -5.5084    2.7746    2.0476 H   0  0  0  0  0  0  0  0  0  0  0  0
   -7.1233    2.0456    1.9886 H   0  0  0  0  0  0  0  0  0  0  0  0
    7.5864    0.7921    0.1982 H   0  0  0  0  0  0  0  0  0  0  0  0
  1  9  1  0  0  0  0
  1 13  1  0  0  0  0
  2 10  2  0  0  0  0
  3 12  1  0  0  0  0
  3 37  1  0  0  0  0
  4 17  1  0  0  0  0
  4 38  1  0  0  0  0
  5 18  1  0  0  0  0
  5 39  1  0  0  0  0
  6 22  1  0  0  0  0
  6 46  1  0  0  0  0
  7  8  1  0  0  0  0
  7  9  1  0  0  0  0
  7 10  1  0  0  0  0
  7 27  1  0  0  0  0
  8 12  2  0  0  0  0
  8 15  1  0  0  0  0
  9 28  1  0  0  0  0
  9 29  1  0  0  0  0
 10 11  1  0  0  0  0
 11 13  1  0  0  0  0
 11 18  2  0  0  0  0
 12 14  1  0  0  0  0
 13 20  2  0  0  0  0
 14 16  1  0  0  0  0
 14 17  2  0  0  0  0
 15 19  2  0  0  0  0
 15 30  1  0  0  0  0
 16 23  1  0  0  0  0
 16 31  1  0  0  0  0
 16 32  1  0  0  0  0
 17 19  1  0  0  0  0
 18 21  1  0  0  0  0
 19 33  1  0  0  0  0
 20 22  1  0  0  0  0
 20 34  1  0  0  0  0
 21 22  2  0  0  0  0
 21 35  1  0  0  0  0
 23 24  2  0  0  0  0
 23 36  1  0  0  0  0
 24 25  1  0  0  0  0
 24 26  1  0  0  0  0
 25 40  1  0  0  0  0
 25 41  1  0  0  0  0
 25 42  1  0  0  0  0
 26 43  1  0  0  0  0
 26 44  1  0  0  0  0
 26 45  1  0  0  0  0
M  END
> <PUBCHEM_COMPOUND_CID>
10405960

> <PUBCHEM_CONFORMER_RMSD>
0.8

> <PUBCHEM_CONFORMER_DIVERSEORDER>
4
34
63
21
26
43
62
59
60
52
57
44
51
49
36
40
50
56
41
14
55
47
58
28
27
30
39
19
46
35
18
10
13
11
45
32
24
38
25
54
22
37
48
53
16
29
9
3
20
31
6
17
61
33
42
1
7
5
23
12
2
8
15

> <PUBCHEM_MMFF94_PARTIAL_CHARGES>
35
1 -0.36
10 0.42
11 0.09
12 0.08
13 0.08
14 -0.14
15 -0.15
16 0.28
17 0.08
18 0.08
19 -0.15
2 -0.57
20 -0.15
21 -0.15
22 0.08
23 -0.29
24 -0.28
25 0.14
26 0.14
3 -0.53
30 0.15
33 0.15
34 0.15
35 0.15
36 0.15
37 0.45
38 0.45
39 0.45
4 -0.53
46 0.45
5 -0.53
6 -0.53
7 0.2
8 -0.14
9 0.28

> <PUBCHEM_EFFECTIVE_ROTOR_COUNT>
3.6

> <PUBCHEM_PHARMACOPHORE_FEATURES>
10
1 1 acceptor
1 2 acceptor
1 3 donor
1 4 donor
1 5 donor
1 6 donor
3 24 25 26 hydrophobe
6 1 7 9 10 11 13 rings
6 11 13 18 20 21 22 rings
6 8 12 14 15 17 19 rings

> <PUBCHEM_HEAVY_ATOM_COUNT>
26

> <PUBCHEM_ATOM_DEF_STEREO_COUNT>
0

> <PUBCHEM_ATOM_UDEF_STEREO_COUNT>
1

> <PUBCHEM_BOND_DEF_STEREO_COUNT>
0

> <PUBCHEM_BOND_UDEF_STEREO_COUNT>
0

> <PUBCHEM_ISOTOPIC_ATOM_COUNT>
0

> <PUBCHEM_COMPONENT_COUNT>
1

> <PUBCHEM_CACTVS_TAUTO_COUNT>
249

> <PUBCHEM_CONFORMER_ID>
009EC84800000004

> <PUBCHEM_MMFF94_ENERGY>
76.3224

> <PUBCHEM_FEATURE_SELFOVERLAP>
50.777

> <PUBCHEM_SHAPE_FINGERPRINT>
10 15 18335430050149900657
10411042 1 17697312181875585127
105312 117 18059860554470550143
10554248 39 18270108016128560167
10693767 8 11167402586846259460
10906281 52 17822864194821571862
11089746 13 18272927241383626021
11578080 2 17978191101969659172
11796584 16 17632302289677637662
12107183 9 18264480685500414843
12236239 1 18409166636459850770
12422481 6 18114179675603985045
12616971 3 18040710372801882970
13533116 47 17131273433227846182
13540713 4 17987261983627794399
13583140 156 18113910394303048417
14251764 18 18333452054131978813
14294032 229 18060423517778475327
14341114 176 17676773088901395088
15142383 8 17458620077703532205
20511986 3 18336536179346612880
20554085 129 17489017163886696075
20715895 44 18268430140601028125
21033648 29 15554446297611204554
21065198 48 18335977648898812034
21792961 116 15841006516212286316
22122407 14 18114477720301350865
23402539 116 18060137682149254748
23522609 53 17968958481862634556
23559900 14 17489042512720107534
23569914 2 17055787660735449632
24771293 8 18116429440189306100
300161 21 18342173384310240802
312425 54 16225772887473909209
34934 24 18409448076981838539
5104073 3 18187921832676149912
5385378 56 18057898952596517979
57724786 102 16806177686395964244
59755656 215 17987807306475497030
6327066 14 18339358562246680525
6328613 192 18412826914705682776
7226269 152 17917714591477740241

> <PUBCHEM_SHAPE_MULTIPOLES>
499.85
16.17
2.39
1.38
1.95
0.65
0.19
-10.57
2.34
3.24
-0.57
-0.11
0.07
-2.26

> <PUBCHEM_SHAPE_SELFOVERLAP>
1089.743

> <PUBCHEM_SHAPE_VOLUME>
270

> <PUBCHEM_COORDINATE_TYPE>
2
5
10

$$$$
