REMARK  Name = 10403711
REMARK  5 active torsions:
REMARK  status: ('A' for Active; 'I' for Inactive)
REMARK    1  A    between atoms: C_2  and  C_20
REMARK    2  A    between atoms: C_3  and  O_25
REMARK    3  A    between atoms: C_4  and  O_27
REMARK    4  A    between atoms: C_5  and  N_6
REMARK    5  A    between atoms: N_19  and  C_22
REMARK                            x       y       z     vdW  Elec       q    Type
REMARK                         _______ _______ _______ _____ _____    ______ ____
ROOT
ATOM      1  O   UNL     1       0.755   0.616  -1.349  0.00  0.00    -0.326 OA
ATOM      2  C   UNL     1       1.977   0.946  -0.677  0.00  0.00    +0.222 C 
ATOM      3  C   UNL     1       1.602   1.213   0.767  0.00  0.00    +0.178 C 
ATOM      4  C   UNL     1       0.243   1.869   0.625  0.00  0.00    +0.187 C 
ATOM      5  C   UNL     1      -0.346   1.165  -0.594  0.00  0.00    +0.225 C 
ENDROOT
BRANCH   5   6
ATOM      6  N   UNL     1      -1.300   0.105  -0.262  0.00  0.00    -0.247 N 
ATOM      7  N   UNL     1      -2.063  -1.921   0.277  0.00  0.00    -0.242 NA
ATOM      8  N   UNL     1      -3.399   1.325  -0.359  0.00  0.00    -0.228 NA
ATOM      9  N   UNL     1      -5.294  -0.125   0.148  0.00  0.00    -0.229 NA
ATOM     10  C   UNL     1      -2.659   0.223  -0.168  0.00  0.00    +0.152 C 
ATOM     11  C   UNL     1      -0.992  -1.202   0.014  0.00  0.00    +0.223 C 
ATOM     12  C   UNL     1      -3.112  -1.043   0.167  0.00  0.00    +0.140 C 
ATOM     13  C   UNL     1      -4.486  -1.198   0.326  0.00  0.00    +0.143 C 
ATOM     14  C   UNL     1      -4.709   1.052  -0.179  0.00  0.00    +0.253 C 
ATOM     15  N   UNL     1      -5.033  -2.447   0.668  0.00  0.00    -0.342 N 
ATOM     16  H   UNL     1      -6.006  -2.544   0.778  0.00  0.00    +0.144 HD
ATOM     17  H   UNL     1      -4.442  -3.224   0.797  0.00  0.00    +0.144 HD
ENDBRANCH   5   6
BRANCH   2  20
ATOM     18  O   UNL     1       2.495  -1.261  -1.409  0.00  0.00    -0.272 OA
ATOM     19  N   UNL     1       4.106  -0.058  -0.243  0.00  0.00    -0.304 N 
ATOM     20  C   UNL     1       2.868  -0.242  -0.834  0.00  0.00    +0.252 C 
ATOM     21  H   UNL     1       4.300   0.803   0.193  0.00  0.00    +0.149 HD
BRANCH  19  22
ATOM     22  C   UNL     1       5.119  -1.076  -0.242  0.00  0.00    +0.072 C 
ATOM     23  C   UNL     1       5.122  -2.150   0.796  0.00  0.00    +0.021 C 
ATOM     24  C   UNL     1       6.185  -1.091   0.804  0.00  0.00    +0.021 C 
ENDBRANCH  19  22
ENDBRANCH   2  20
BRANCH   3  25
ATOM     25  O   UNL     1       2.533   2.048   1.424  0.00  0.00    -0.379 OA
ATOM     26  H   UNL     1       3.386   1.591   1.493  0.00  0.00    +0.211 HD
ENDBRANCH   3  25
BRANCH   4  27
ATOM     27  O   UNL     1       0.387   3.252   0.301  0.00  0.00    -0.378 OA
ATOM     28  H   UNL     1       0.761   3.725   1.061  0.00  0.00    +0.211 HD
ENDBRANCH   4  27
TORSDOF 5
