REMARK  Name = 10407389
REMARK  2 active torsions:
REMARK  status: ('A' for Active; 'I' for Inactive)
REMARK    1  A    between atoms: C_15  and  O_27
REMARK    2  A    between atoms: C_20  and  O_29
REMARK                            x       y       z     vdW  Elec       q    Type
REMARK                         _______ _______ _______ _____ _____    ______ ____
ROOT
ATOM      1  O   UNL     1      -2.668  -1.267  -2.163  0.00  0.00    -0.339 OA
ATOM      2  O   UNL     1       0.249  -0.488  -1.543  0.00  0.00    -0.284 OA
ATOM      3  O   UNL     1      -0.218  -1.663   0.523  0.00  0.00    -0.452 OA
ATOM      4  O   UNL     1       0.604   1.596  -0.370  0.00  0.00    -0.452 OA
ATOM      5  O   UNL     1      -4.707  -1.053   0.598  0.00  0.00    -0.289 OA
ATOM      6  O   UNL     1       5.046   1.222   0.430  0.00  0.00    -0.291 OA
ATOM      7  C   UNL     1      -1.676  -1.850  -1.313  0.00  0.00    +0.218 C 
ATOM      8  C   UNL     1      -0.740  -0.917  -0.602  0.00  0.00    +0.282 C 
ATOM      9  C   UNL     1      -3.126  -1.858  -0.928  0.00  0.00    +0.210 C 
ATOM     10  C   UNL     1       1.184   0.377  -0.886  0.00  0.00    +0.280 C 
ATOM     11  C   UNL     1      -1.443   0.318  -0.082  0.00  0.00    +0.083 C 
ATOM     12  C   UNL     1      -3.631  -0.868   0.048  0.00  0.00    +0.205 C 
ATOM     13  C   UNL     1      -2.791   0.322   0.308  0.00  0.00    +0.076 C 
ATOM     14  C   UNL     1       1.820  -0.378   0.250  0.00  0.00    +0.080 C 
ATOM     15  C   UNL     1       2.255   0.781  -1.909  0.00  0.00    +0.187 C 
ATOM     16  C   UNL     1      -0.699   1.497   0.046  0.00  0.00    +0.143 C 
ATOM     17  C   UNL     1       1.061  -1.353   0.903  0.00  0.00    +0.143 C 
ATOM     18  C   UNL     1       3.384   1.577  -1.256  0.00  0.00    +0.105 C 
ATOM     19  C   UNL     1       3.126  -0.117   0.679  0.00  0.00    +0.039 C 
ATOM     20  C   UNL     1      -3.367   1.465   0.869  0.00  0.00    +0.137 C 
ATOM     21  C   UNL     1       3.947   0.906  -0.017  0.00  0.00    +0.176 C 
ATOM     22  C   UNL     1      -1.273   2.644   0.595  0.00  0.00    +0.040 C 
ATOM     23  C   UNL     1       1.595  -2.061   1.979  0.00  0.00    +0.037 C 
ATOM     24  C   UNL     1      -2.602   2.622   1.017  0.00  0.00    +0.040 C 
ATOM     25  C   UNL     1       3.663  -0.824   1.760  0.00  0.00    +0.003 C 
ATOM     26  C   UNL     1       2.895  -1.794   2.406  0.00  0.00    +0.003 C 
ENDROOT
BRANCH  15  27
ATOM     27  O   UNL     1       2.785  -0.351  -2.597  0.00  0.00    -0.378 OA
ATOM     28  H   UNL     1       2.061  -0.849  -3.008  0.00  0.00    +0.211 HD
ENDBRANCH  15  27
BRANCH  20  29
ATOM     29  O   UNL     1      -4.672   1.514   1.257  0.00  0.00    -0.505 OA
ATOM     30  H   UNL     1      -5.215   0.754   1.171  0.00  0.00    +0.292 HD
ENDBRANCH  20  29
TORSDOF 2
