10402166
  -OEChem-03292013303D

 31 32  0     1  0  0  0  0  0999 V2000
    2.4223    0.5451    0.6404 O   0  0  0  0  0  0  0  0  0  0  0  0
   -0.0502    1.0461    1.3579 O   0  0  0  0  0  0  0  0  0  0  0  0
   -1.1352   -0.0676   -1.7735 O   0  0  0  0  0  0  0  0  0  0  0  0
    2.4981   -1.9455    1.0216 O   0  0  0  0  0  0  0  0  0  0  0  0
    4.6314    1.0771    0.3262 O   0  0  0  0  0  0  0  0  0  0  0  0
    0.3249   -2.2598    0.4095 O   0  0  0  0  0  0  0  0  0  0  0  0
   -4.4483    0.2360   -1.1760 O   0  0  0  0  0  0  0  0  0  0  0  0
    0.1470    0.4268    0.1086 N   0  0  0  0  0  0  0  0  0  0  0  0
   -2.9313    0.2168    0.5915 N   0  0  0  0  0  0  0  0  0  0  0  0
    1.4352   -0.1708   -0.0942 C   0  0  1  0  0  0  0  0  0  0  0  0
    1.8950   -0.1378   -1.5339 C   0  0  0  0  0  0  0  0  0  0  0  0
   -2.0189    1.2018    0.0861 C   0  0  2  0  0  0  0  0  0  0  0  0
    3.4009   -0.0963   -1.3985 C   0  0  0  0  0  0  0  0  0  0  0  0
   -0.9702    0.4627   -0.6851 C   0  0  0  0  0  0  0  0  0  0  0  0
   -1.1979    1.8797    1.1653 C   0  0  0  0  0  0  0  0  0  0  0  0
    3.5882    0.5854   -0.0755 C   0  0  0  0  0  0  0  0  0  0  0  0
    1.3271   -1.5620    0.4568 C   0  0  0  0  0  0  0  0  0  0  0  0
   -4.0767   -0.1871   -0.0844 C   0  0  0  0  0  0  0  0  0  0  0  0
   -4.8414   -1.2505    0.6573 C   0  0  0  0  0  0  0  0  0  0  0  0
    1.5634    0.7816   -2.0338 H   0  0  0  0  0  0  0  0  0  0  0  0
    1.5541   -0.9873   -2.1342 H   0  0  0  0  0  0  0  0  0  0  0  0
   -2.5458    1.9233   -0.5446 H   0  0  0  0  0  0  0  0  0  0  0  0
    3.8583    0.4814   -2.2051 H   0  0  0  0  0  0  0  0  0  0  0  0
    3.8345   -1.0991   -1.3516 H   0  0  0  0  0  0  0  0  0  0  0  0
   -0.8448    2.8645    0.8385 H   0  0  0  0  0  0  0  0  0  0  0  0
   -1.7340    1.9906    2.1125 H   0  0  0  0  0  0  0  0  0  0  0  0
   -2.6874   -0.2562    1.4574 H   0  0  0  0  0  0  0  0  0  0  0  0
    2.4480   -2.8539    1.3884 H   0  0  0  0  0  0  0  0  0  0  0  0
   -5.8538   -1.3260    0.2510 H   0  0  0  0  0  0  0  0  0  0  0  0
   -4.3320   -2.2107    0.5407 H   0  0  0  0  0  0  0  0  0  0  0  0
   -4.9102   -1.0015    1.7201 H   0  0  0  0  0  0  0  0  0  0  0  0
  1 10  1  0  0  0  0
  1 16  1  0  0  0  0
  2  8  1  0  0  0  0
  2 15  1  0  0  0  0
  3 14  2  0  0  0  0
  4 17  1  0  0  0  0
  4 28  1  0  0  0  0
  5 16  2  0  0  0  0
  6 17  2  0  0  0  0
  7 18  2  0  0  0  0
  8 10  1  0  0  0  0
  8 14  1  0  0  0  0
  9 12  1  0  0  0  0
  9 18  1  0  0  0  0
  9 27  1  0  0  0  0
 10 11  1  0  0  0  0
 10 17  1  0  0  0  0
 11 13  1  0  0  0  0
 11 20  1  0  0  0  0
 11 21  1  0  0  0  0
 12 14  1  0  0  0  0
 12 15  1  0  0  0  0
 12 22  1  0  0  0  0
 13 16  1  0  0  0  0
 13 23  1  0  0  0  0
 13 24  1  0  0  0  0
 15 25  1  0  0  0  0
 15 26  1  0  0  0  0
 18 19  1  0  0  0  0
 19 29  1  0  0  0  0
 19 30  1  0  0  0  0
 19 31  1  0  0  0  0
M  END
> <PUBCHEM_COMPOUND_CID>
10402166

> <PUBCHEM_CONFORMER_RMSD>
0.8

> <PUBCHEM_CONFORMER_DIVERSEORDER>
1
34
12
29
6
28
36
24
30
25
17
9
35
4
32
3
18
7
31
13
26
27
5
22
16
20
23
11
14
10
33
15
21
19
8
2

> <PUBCHEM_MMFF94_PARTIAL_CHARGES>
20
1 -0.43
10 0.64
12 0.36
13 0.06
14 0.57
15 0.28
16 0.66
17 0.66
18 0.57
19 0.06
2 -0.32
27 0.37
28 0.5
3 -0.57
4 -0.65
5 -0.57
6 -0.57
7 -0.57
8 -0.32
9 -0.73

> <PUBCHEM_EFFECTIVE_ROTOR_COUNT>
5.6

> <PUBCHEM_PHARMACOPHORE_FEATURES>
9
1 3 acceptor
1 4 acceptor
1 5 acceptor
1 6 acceptor
1 7 acceptor
1 9 donor
3 4 6 17 anion
5 1 10 11 13 16 rings
5 2 8 12 14 15 rings

> <PUBCHEM_HEAVY_ATOM_COUNT>
19

> <PUBCHEM_ATOM_DEF_STEREO_COUNT>
1

> <PUBCHEM_ATOM_UDEF_STEREO_COUNT>
1

> <PUBCHEM_BOND_DEF_STEREO_COUNT>
0

> <PUBCHEM_BOND_UDEF_STEREO_COUNT>
0

> <PUBCHEM_ISOTOPIC_ATOM_COUNT>
0

> <PUBCHEM_COMPONENT_COUNT>
1

> <PUBCHEM_CACTVS_TAUTO_COUNT>
8

> <PUBCHEM_CONFORMER_ID>
009EB97600000001

> <PUBCHEM_MMFF94_ENERGY>
37.4602

> <PUBCHEM_FEATURE_SELFOVERLAP>
45.729

> <PUBCHEM_SHAPE_FINGERPRINT>
11543360 7 17603309275811367757
12119455 92 17385721413373637260
12553582 1 18059851766841036895
128620 24 18413111662404813765
13221675 6 17846495941474553589
13464513 79 18059014011805289459
13675066 3 8142078750031885501
13760787 19 18338521833422825065
14004511 7 11963389648316279565
14252887 29 17703800231721481215
14787075 74 18199751529803453977
15207287 21 16588027921955336800
15375462 189 18343577460764626707
15852999 172 17458356225193733218
16945 1 17895496772377822225
17834072 14 15502380027730312297
18222031 100 16844994785226722797
18511873 20 9007054651829789913
19422 9 17702955729218245824
200 152 16950280723776918501
21503847 285 12175620676680701915
22079108 93 18339636875641898072
22094290 62 9583511014935054419
22892500 29 14273741810507769190
23402539 116 18271236218549134676
23419403 2 17113787131112067598
23493267 7 17630056953225002545
23557571 272 17168135733307099965
23559900 14 18188763946818943531
2871803 45 18342458123425316001
296302 2 16805327703698535477
3286 77 18261670368592711874
4340502 62 18334579061797615995
474 4 18269834380063730584
5104073 3 17560809762510542626
57426455 19 18341617052569139377
6333272 397 18336269041398036360

> <PUBCHEM_SHAPE_MULTIPOLES>
339.96
8.08
1.66
1.34
4.42
0.46
-0.38
0.53
-0.49
-0.09
0.77
-0.14
0.01
-0.03

> <PUBCHEM_SHAPE_SELFOVERLAP>
721.332

> <PUBCHEM_SHAPE_VOLUME>
190.4

> <PUBCHEM_COORDINATE_TYPE>
2
5
10

$$$$
