REMARK  Name = 10402220
REMARK  5 active torsions:
REMARK  status: ('A' for Active; 'I' for Inactive)
REMARK    1  A    between atoms: N_3  and  C1*_12
REMARK    2  A    between atoms: C_7  and  C_20
REMARK    3  A    between atoms: C3*_11  and  O3*_15
REMARK    4  A    between atoms: C4*_14  and  C5*_17
REMARK    5  A    between atoms: C5*_17  and  O5*_18
REMARK                            x       y       z     vdW  Elec       q    Type
REMARK                         _______ _______ _______ _____ _____    ______ ____
ROOT
ATOM      1  O   UNL     1       0.634  -3.536  -0.167  0.00  0.00    -0.252 OA
ATOM      2  O   UNL     1      -3.621  -1.809  -0.038  0.00  0.00    -0.270 OA
ATOM      3  N   UNL     1       0.399  -1.234   0.143  0.00  0.00    -0.219 N 
ATOM      4  N   UNL     1      -1.482  -2.655  -0.100  0.00  0.00    -0.236 N 
ATOM      5  C   UNL     1      -0.483  -0.168   0.268  0.00  0.00    +0.076 C 
ATOM      6  C   UNL     1      -0.089  -2.544  -0.049  0.00  0.00    +0.315 C 
ATOM      7  C   UNL     1      -1.818  -0.274   0.220  0.00  0.00    +0.069 C 
ATOM      8  C   UNL     1      -2.407  -1.629   0.019  0.00  0.00    +0.254 C 
ATOM      9  H   UNL     1      -1.845  -3.560  -0.234  0.00  0.00    +0.159 HD
ENDROOT
BRANCH   3  12
ATOM     10  O4* UNL     1       2.072   0.086   1.108  0.00  0.00    -0.335 OA
ATOM     11  C3* UNL     1       3.530   0.308  -0.748  0.00  0.00    +0.144 C 
ATOM     12  C1* UNL     1       1.812  -1.002   0.210  0.00  0.00    +0.202 C 
ATOM     13  C2* UNL     1       2.413  -0.632  -1.137  0.00  0.00    +0.083 C 
ATOM     14  C4* UNL     1       2.974   1.017   0.479  0.00  0.00    +0.173 C 
BRANCH  11  15
ATOM     15  O3* UNL     1       4.688  -0.444  -0.392  0.00  0.00    -0.382 OA
ATOM     16  H3* UNL     1       5.037  -0.892  -1.178  0.00  0.00    +0.210 HD
ENDBRANCH  11  15
BRANCH  14  17
ATOM     17  C5* UNL     1       2.185   2.272   0.132  0.00  0.00    +0.169 C 
BRANCH  17  18
ATOM     18  O5* UNL     1       1.700   2.854   1.331  0.00  0.00    -0.379 OA
ATOM     19  H5* UNL     1       1.195   3.656   1.120  0.00  0.00    +0.211 HD
ENDBRANCH  17  18
ENDBRANCH  14  17
ENDBRANCH   3  12
BRANCH   7  20
ATOM     20  C   UNL     1      -2.678   0.873   0.356  0.00  0.00    +0.006 C 
ATOM     21  C   UNL     1      -3.126   1.277   1.553  0.00  0.00    +0.000 C 
ENDBRANCH   7  20
TORSDOF 5
REMARK  Name = 10402220
REMARK  5 active torsions:
REMARK  status: ('A' for Active; 'I' for Inactive)
REMARK    1  A    between atoms: N_3  and  C1*_12
REMARK    2  A    between atoms: C_7  and  C_20
REMARK    3  A    between atoms: C3*_11  and  O3*_15
REMARK    4  A    between atoms: C4*_14  and  C5*_17
REMARK    5  A    between atoms: C5*_17  and  O5*_18
REMARK                            x       y       z     vdW  Elec       q    Type
REMARK                         _______ _______ _______ _____ _____    ______ ____
ROOT
ATOM      1  N   UNL     1      -2.208   2.436  -1.064  0.00  0.00    +0.000 NA
ATOM      2  N   UNL     1      -1.476   3.270  -1.332  0.00  0.00    +0.000 NA
ENDROOT
TORSDOF 0
