REMARK  Name = 10403222
REMARK  7 active torsions:
REMARK  status: ('A' for Active; 'I' for Inactive)
REMARK    1  A    between atoms: C_4  and  C_10
REMARK    2  A    between atoms: C_6  and  C_22
REMARK    3  A    between atoms: C_7  and  O_20
REMARK    4  A    between atoms: C_13  and  O_16
REMARK    5  A    between atoms: C_15  and  O_18
REMARK    6  A    between atoms: C_23  and  C_25
REMARK    7  A    between atoms: C_25  and  O_26
REMARK                            x       y       z     vdW  Elec       q    Type
REMARK                         _______ _______ _______ _____ _____    ______ ____
ROOT
ATOM      1  O   UNL     1      -0.793  -1.671  -0.027  0.00  0.00    -0.450 OA
ATOM      2  C   UNL     1       1.175  -0.570   0.113  0.00  0.00    +0.041 C 
ATOM      3  C   UNL     1       0.561  -1.815   0.022  0.00  0.00    +0.179 C 
ATOM      4  C   UNL     1      -1.050  -0.339   0.031  0.00  0.00    +0.146 C 
ATOM      5  C   UNL     1       0.120   0.380   0.117  0.00  0.00    +0.041 C 
ATOM      6  C   UNL     1       2.578  -0.515   0.175  0.00  0.00    +0.003 C 
ATOM      7  C   UNL     1       1.251  -3.026  -0.011  0.00  0.00    +0.168 C 
ATOM      8  C   UNL     1       3.300  -1.717   0.143  0.00  0.00    +0.003 C 
ATOM      9  C   UNL     1       2.646  -2.948   0.051  0.00  0.00    +0.040 C 
ENDROOT
BRANCH   4  10
ATOM     10  C   UNL     1      -2.440   0.020  -0.005  0.00  0.00    +0.038 C 
ATOM     11  C   UNL     1      -2.822   1.364   0.053  0.00  0.00    +0.043 C 
ATOM     12  C   UNL     1      -3.421  -0.972  -0.099  0.00  0.00    +0.006 C 
ATOM     13  C   UNL     1      -4.173   1.712   0.018  0.00  0.00    +0.168 C 
ATOM     14  C   UNL     1      -4.771  -0.624  -0.133  0.00  0.00    +0.040 C 
ATOM     15  C   UNL     1      -5.147   0.718  -0.075  0.00  0.00    +0.167 C 
BRANCH  13  16
ATOM     16  O   UNL     1      -4.527   3.026   0.076  0.00  0.00    -0.503 OA
ATOM     17  H   UNL     1      -3.867   3.688   0.139  0.00  0.00    +0.292 HD
ENDBRANCH  13  16
BRANCH  15  18
ATOM     18  O   UNL     1      -6.469   1.046  -0.110  0.00  0.00    -0.503 OA
ATOM     19  H   UNL     1      -6.730   1.945  -0.071  0.00  0.00    +0.292 HD
ENDBRANCH  15  18
ENDBRANCH   4  10
BRANCH   7  20
ATOM     20  O   UNL     1       0.617  -4.229  -0.100  0.00  0.00    -0.503 OA
ATOM     21  H   UNL     1      -0.319  -4.263  -0.141  0.00  0.00    +0.292 HD
ENDBRANCH   7  20
BRANCH   6  22
ATOM     22  C   UNL     1       3.230   0.776   0.269  0.00  0.00    +0.007 C 
ATOM     23  C   UNL     1       4.450   1.079  -0.236  0.00  0.00    +0.082 C 
BRANCH  23  25
ATOM     24  O   UNL     1       4.468   3.378   0.486  0.00  0.00    -0.245 OA
ATOM     25  C   UNL     1       5.002   2.440  -0.082  0.00  0.00    +0.338 C 
BRANCH  25  26
ATOM     26  O   UNL     1       6.215   2.487  -0.679  0.00  0.00    -0.477 OA
ATOM     27  H   UNL     1       6.561   1.723  -1.097  0.00  0.00    +0.295 HD
ENDBRANCH  25  26
ENDBRANCH  23  25
ENDBRANCH   6  22
TORSDOF 7
