REMARK  Name = 10402166
REMARK  4 active torsions:
REMARK  status: ('A' for Active; 'I' for Inactive)
REMARK    1  A    between atoms: N_3  and  C_9
REMARK    2  A    between atoms: C_4  and  N_18
REMARK    3  A    between atoms: C_9  and  C_14
REMARK    4  A    between atoms: C_14  and  O_15
REMARK                            x       y       z     vdW  Elec       q    Type
REMARK                         _______ _______ _______ _____ _____    ______ ____
ROOT
ATOM      1  O   UNL     1      -0.050   1.046   1.358  0.00  0.00    -0.257 OA
ATOM      2  O   UNL     1      -1.135  -0.068  -1.774  0.00  0.00    -0.271 OA
ATOM      3  N   UNL     1       0.147   0.427   0.109  0.00  0.00    -0.124 N 
ATOM      4  C   UNL     1      -2.019   1.202   0.086  0.00  0.00    +0.183 C 
ATOM      5  C   UNL     1      -0.970   0.463  -0.685  0.00  0.00    +0.271 C 
ATOM      6  C   UNL     1      -1.198   1.880   1.165  0.00  0.00    +0.200 C 
ENDROOT
BRANCH   3   9
ATOM      7  O   UNL     1       2.422   0.545   0.640  0.00  0.00    -0.425 OA
ATOM      8  O   UNL     1       4.631   1.077   0.326  0.00  0.00    -0.250 OA
ATOM      9  C   UNL     1       1.435  -0.171  -0.094  0.00  0.00    +0.310 C 
ATOM     10  C   UNL     1       1.895  -0.138  -1.534  0.00  0.00    +0.086 C 
ATOM     11  C   UNL     1       3.401  -0.096  -1.399  0.00  0.00    +0.116 C 
ATOM     12  C   UNL     1       3.588   0.585  -0.075  0.00  0.00    +0.319 C 
BRANCH   9  14
ATOM     13  O   UNL     1       0.325  -2.260   0.409  0.00  0.00    -0.244 OA
ATOM     14  C   UNL     1       1.327  -1.562   0.457  0.00  0.00    +0.372 C 
BRANCH  14  15
ATOM     15  O   UNL     1       2.498  -1.946   1.022  0.00  0.00    -0.477 OA
ATOM     16  H   UNL     1       3.230  -1.361   1.024  0.00  0.00    +0.295 HD
ENDBRANCH  14  15
ENDBRANCH   9  14
ENDBRANCH   3   9
BRANCH   4  18
ATOM     17  O   UNL     1      -4.448   0.236  -1.176  0.00  0.00    -0.275 OA
ATOM     18  N   UNL     1      -2.931   0.217   0.592  0.00  0.00    -0.296 N 
ATOM     19  C   UNL     1      -4.077  -0.187  -0.084  0.00  0.00    +0.223 C 
ATOM     20  C   UNL     1      -4.841  -1.250   0.657  0.00  0.00    +0.095 C 
ATOM     21  H   UNL     1      -2.736  -0.195   1.464  0.00  0.00    +0.150 HD
ENDBRANCH   4  18
TORSDOF 4
