REMARK  Name = 10400331
REMARK  10 active torsions:
REMARK  status: ('A' for Active; 'I' for Inactive)
REMARK    1  A    between atoms: C_1  and  O_2
REMARK    2  A    between atoms: C_1  and  C_4
REMARK    3  A    between atoms: C_1  and  C_13
REMARK    4  A    between atoms: C_4  and  O_5
REMARK    5  A    between atoms: C_4  and  C_7
REMARK    6  A    between atoms: C_7  and  O_8
REMARK    7  A    between atoms: O_8  and  P_9
REMARK    8  A    between atoms: C_13  and  C_16
REMARK    9  A    between atoms: C_13  and  O_20
REMARK   10  A    between atoms: N_15  and  O_18
REMARK                            x       y       z     vdW  Elec       q    Type
REMARK                         _______ _______ _______ _____ _____    ______ ____
ROOT
ATOM      1  C   UNL     1      -1.336  -1.499  -0.117  0.00  0.00    +0.176 C 
ENDROOT
BRANCH   1   2
ATOM      2  O   UNL     1      -1.018  -2.614   0.712  0.00  0.00    -0.379 OA
ATOM      3  H   UNL     1      -0.545  -3.280   0.190  0.00  0.00    +0.211 HD
ENDBRANCH   1   2
BRANCH   1   4
ATOM      4  C   UNL     1      -0.066  -1.011  -0.840  0.00  0.00    +0.170 C 
BRANCH   4   5
ATOM      5  O   UNL     1       0.534  -2.076  -1.576  0.00  0.00    -0.379 OA
ATOM      6  H   UNL     1      -0.110  -2.438  -2.205  0.00  0.00    +0.211 HD
ENDBRANCH   4   5
BRANCH   4   7
ATOM      7  C   UNL     1       0.978  -0.469   0.137  0.00  0.00    +0.185 C 
BRANCH   7   8
ATOM      8  O   UNL     1       2.130  -0.065  -0.596  0.00  0.00    -0.268 OA
BRANCH   8   9
ATOM      9  P   UNL     1       3.413   0.561   0.230  0.00  0.00    +0.533 P 
ATOM     10  O   UNL     1       4.426   0.868  -0.869  0.00  0.00    -0.222 OA
ATOM     11  O   UNL     1       3.845  -0.553   1.179  0.00  0.00    -0.115 OA
ATOM     12  O   UNL     1       2.859   1.800   0.927  0.00  0.00    -0.115 OA
ENDBRANCH   8   9
ENDBRANCH   7   8
ENDBRANCH   4   7
ENDBRANCH   1   4
BRANCH   1  13
ATOM     13  C   UNL     1      -2.088  -0.426   0.690  0.00  0.00    +0.218 C 
BRANCH  13  16
ATOM     14  O   UNL     1      -3.337   0.662  -1.071  0.00  0.00    -0.270 OA
ATOM     15  N   UNL     1      -2.066   1.965   0.346  0.00  0.00    -0.195 N 
ATOM     16  C   UNL     1      -2.564   0.775  -0.121  0.00  0.00    +0.274 C 
ATOM     17  H   UNL     1      -1.448   2.008   1.111  0.00  0.00    +0.182 HD
BRANCH  15  18
ATOM     18  O   UNL     1      -2.490   3.114  -0.334  0.00  0.00    -0.295 OA
ATOM     19  H   UNL     1      -2.084   3.897   0.070  0.00  0.00    +0.241 HD
ENDBRANCH  15  18
ENDBRANCH  13  16
BRANCH  13  20
ATOM     20  O   UNL     1      -3.218  -1.031   1.304  0.00  0.00    -0.374 OA
ATOM     21  H   UNL     1      -2.931  -1.798   1.824  0.00  0.00    +0.211 HD
ENDBRANCH  13  20
ENDBRANCH   1  13
TORSDOF 10
