REMARK  Name = 10409343
REMARK  5 active torsions:
REMARK  status: ('A' for Active; 'I' for Inactive)
REMARK    1  A    between atoms: C_2  and  N_10
REMARK    2  A    between atoms: C_5  and  C_21
REMARK    3  A    between atoms: C_11  and  C_14
REMARK    4  A    between atoms: C_14  and  N_16
REMARK    5  A    between atoms: C_24  and  C_30
REMARK                            x       y       z     vdW  Elec       q    Type
REMARK                         _______ _______ _______ _____ _____    ______ ____
ROOT
ATOM      1  F   UNL     1      -1.041   2.308   0.521  0.00  0.00    -0.204 F 
ATOM      2  C   UNL     1       1.846   0.317  -0.450  0.00  0.00    +0.059 C 
ATOM      3  C   UNL     1       1.073   1.380   0.027  0.00  0.00    +0.045 C 
ATOM      4  C   UNL     1       1.215  -0.849  -0.895  0.00  0.00    +0.015 C 
ATOM      5  C   UNL     1      -0.942   0.112  -0.385  0.00  0.00    +0.029 C 
ATOM      6  C   UNL     1      -0.318   1.277   0.059  0.00  0.00    +0.141 C 
ATOM      7  C   UNL     1      -0.175  -0.952  -0.862  0.00  0.00    +0.004 C 
ENDROOT
BRANCH   2  10
ATOM      8  O   UNL     1       5.374   1.202  -0.283  0.00  0.00    -0.434 OA
ATOM      9  O   UNL     1       3.698   2.589   0.360  0.00  0.00    -0.226 OA
ATOM     10  N   UNL     1       3.266   0.421  -0.484  0.00  0.00    -0.221 N 
ATOM     11  C   UNL     1       5.494  -0.189  -0.608  0.00  0.00    +0.210 C 
ATOM     12  C   UNL     1       4.108  -0.589  -1.065  0.00  0.00    +0.147 C 
ATOM     13  C   UNL     1       4.045   1.503  -0.082  0.00  0.00    +0.409 C 
BRANCH  11  14
ATOM     14  C   UNL     1       5.960  -0.945   0.629  0.00  0.00    +0.135 C 
BRANCH  14  16
ATOM     15  O   UNL     1       8.489  -2.082  -0.231  0.00  0.00    -0.275 OA
ATOM     16  N   UNL     1       7.276  -0.536   1.022  0.00  0.00    -0.301 N 
ATOM     17  C   UNL     1       8.439  -1.141   0.558  0.00  0.00    +0.223 C 
ATOM     18  C   UNL     1       9.685  -0.500   1.109  0.00  0.00    +0.095 C 
ATOM     19  H   UNL     1       7.361   0.213   1.655  0.00  0.00    +0.150 HD
ENDBRANCH  14  16
ENDBRANCH  11  14
ENDBRANCH   2  10
BRANCH   5  21
ATOM     20  N   UNL     1      -4.378  -0.634   0.851  0.00  0.00    -0.241 NA
ATOM     21  C   UNL     1      -2.385   0.001  -0.354  0.00  0.00    +0.021 C 
ATOM     22  C   UNL     1      -3.154   0.398  -1.440  0.00  0.00    +0.003 C 
ATOM     23  C   UNL     1      -3.036  -0.504   0.757  0.00  0.00    +0.099 C 
ATOM     24  C   UNL     1      -5.096  -0.238  -0.224  0.00  0.00    +0.119 C 
ATOM     25  C   UNL     1      -4.538   0.279  -1.381  0.00  0.00    +0.022 C 
BRANCH  24  30
ATOM     26  N   UNL     1      -7.192  -0.321   1.095  0.00  0.00    -0.210 N 
ATOM     27  N   UNL     1      -7.388  -0.625  -1.043  0.00  0.00    -0.107 NA
ATOM     28  N   UNL     1      -8.502  -0.509   0.885  0.00  0.00    -0.043 NA
ATOM     29  N   UNL     1      -8.617  -0.693  -0.425  0.00  0.00    -0.023 NA
ATOM     30  C   UNL     1      -6.520  -0.393  -0.084  0.00  0.00    +0.202 A 
ATOM     31  C   UNL     1      -6.685  -0.087   2.423  0.00  0.00    +0.157 C 
ENDBRANCH  24  30
ENDBRANCH   5  21
TORSDOF 5
