10409068
  -OEChem-03292013303D

 56 59  0     0  0  0  0  0  0999 V2000
   -5.6924   -0.8756    1.5595 O   0  0  0  0  0  0  0  0  0  0  0  0
    5.2392    1.4382    0.6413 O   0  0  0  0  0  0  0  0  0  0  0  0
   -4.2683   -1.8097   -0.0118 N   0  0  0  0  0  0  0  0  0  0  0  0
   -0.6934    1.7794   -0.2247 N   0  0  0  0  0  0  0  0  0  0  0  0
    1.8697   -0.3957   -1.7741 N   0  0  0  0  0  0  0  0  0  0  0  0
   -0.7376    0.2472   -1.9704 N   0  0  0  0  0  0  0  0  0  0  0  0
    1.1585   -1.0264   -2.7395 N   0  0  0  0  0  0  0  0  0  0  0  0
    5.6521   -0.7773    0.1030 N   0  0  0  0  0  0  0  0  0  0  0  0
   -4.8420   -3.1265    0.0177 C   0  0  0  0  0  0  0  0  0  0  0  0
   -4.4266   -4.1320    1.0512 C   0  0  0  0  0  0  0  0  0  0  0  0
   -4.0415   -4.3301   -0.3856 C   0  0  0  0  0  0  0  0  0  0  0  0
   -4.7366   -0.7490    0.7735 C   0  0  0  0  0  0  0  0  0  0  0  0
   -4.0413    0.5225    0.6514 C   0  0  0  0  0  0  0  0  0  0  0  0
   -2.6993    0.5504    0.2720 C   0  0  0  0  0  0  0  0  0  0  0  0
   -4.7166    1.7142    0.9143 C   0  0  0  0  0  0  0  0  0  0  0  0
   -2.0327    1.7701    0.1552 C   0  0  0  0  0  0  0  0  0  0  0  0
    1.3374    0.5310   -0.9154 C   0  0  0  0  0  0  0  0  0  0  0  0
   -2.7081    2.9619    0.4182 C   0  0  0  0  0  0  0  0  0  0  0  0
    2.3403    0.9603   -0.0737 C   0  0  0  0  0  0  0  0  0  0  0  0
   -4.0500    2.9339    0.7978 C   0  0  0  0  0  0  0  0  0  0  0  0
   -0.0618    0.8648   -1.0334 C   0  0  0  0  0  0  0  0  0  0  0  0
    3.5198    0.2651   -0.4417 C   0  0  0  0  0  0  0  0  0  0  0  0
    3.2005   -0.5660   -1.4943 C   0  0  0  0  0  0  0  0  0  0  0  0
    2.2387    1.9545    1.0153 C   0  0  0  0  0  0  0  0  0  0  0  0
   -2.0189    4.2826    0.3013 C   0  0  0  0  0  0  0  0  0  0  0  0
    4.8295    0.3661    0.1371 C   0  0  0  0  0  0  0  0  0  0  0  0
    6.9901   -0.8202    0.6243 C   0  0  0  0  0  0  0  0  0  0  0  0
   -0.0946   -0.6706   -2.7808 C   0  0  0  0  0  0  0  0  0  0  0  0
    7.0291   -1.2360    2.0900 C   0  0  0  0  0  0  0  0  0  0  0  0
    6.4568   -2.6271    2.3222 C   0  0  0  0  0  0  0  0  0  0  0  0
   -5.8867   -3.1261   -0.2775 H   0  0  0  0  0  0  0  0  0  0  0  0
   -3.6434   -3.8622    1.7491 H   0  0  0  0  0  0  0  0  0  0  0  0
   -5.1924   -4.7777    1.4628 H   0  0  0  0  0  0  0  0  0  0  0  0
   -4.5475   -5.1104   -0.9406 H   0  0  0  0  0  0  0  0  0  0  0  0
   -3.0000   -4.1939   -0.6501 H   0  0  0  0  0  0  0  0  0  0  0  0
   -3.5258   -1.6594   -0.6884 H   0  0  0  0  0  0  0  0  0  0  0  0
   -2.1507   -0.3763    0.1290 H   0  0  0  0  0  0  0  0  0  0  0  0
   -5.7634    1.7137    1.2072 H   0  0  0  0  0  0  0  0  0  0  0  0
   -4.5911    3.8530    1.0064 H   0  0  0  0  0  0  0  0  0  0  0  0
   -0.1394    2.5160    0.1982 H   0  0  0  0  0  0  0  0  0  0  0  0
    3.7981   -1.2580   -2.0732 H   0  0  0  0  0  0  0  0  0  0  0  0
    3.0863    1.9162    1.7042 H   0  0  0  0  0  0  0  0  0  0  0  0
    1.3496    1.7732    1.6279 H   0  0  0  0  0  0  0  0  0  0  0  0
    2.1812    2.9679    0.6056 H   0  0  0  0  0  0  0  0  0  0  0  0
   -1.2479    4.3801    1.0727 H   0  0  0  0  0  0  0  0  0  0  0  0
   -1.5606    4.3944   -0.6870 H   0  0  0  0  0  0  0  0  0  0  0  0
   -2.7172    5.1176    0.4261 H   0  0  0  0  0  0  0  0  0  0  0  0
    5.2852   -1.6355   -0.2973 H   0  0  0  0  0  0  0  0  0  0  0  0
    7.5571   -1.5284    0.0107 H   0  0  0  0  0  0  0  0  0  0  0  0
    7.4513    0.1665    0.5094 H   0  0  0  0  0  0  0  0  0  0  0  0
   -0.7298   -1.1483   -3.5448 H   0  0  0  0  0  0  0  0  0  0  0  0
    6.4699   -0.5155    2.6986 H   0  0  0  0  0  0  0  0  0  0  0  0
    8.0680   -1.2152    2.4385 H   0  0  0  0  0  0  0  0  0  0  0  0
    6.5601   -2.9046    3.3761 H   0  0  0  0  0  0  0  0  0  0  0  0
    6.9861   -3.3741    1.7220 H   0  0  0  0  0  0  0  0  0  0  0  0
    5.3931   -2.6709    2.0688 H   0  0  0  0  0  0  0  0  0  0  0  0
  1 12  2  0  0  0  0
  2 26  2  0  0  0  0
  3  9  1  0  0  0  0
  3 12  1  0  0  0  0
  3 36  1  0  0  0  0
  4 16  1  0  0  0  0
  4 21  1  0  0  0  0
  4 40  1  0  0  0  0
  5  7  1  0  0  0  0
  5 17  1  0  0  0  0
  5 23  1  0  0  0  0
  6 21  2  0  0  0  0
  6 28  1  0  0  0  0
  7 28  2  0  0  0  0
  8 26  1  0  0  0  0
  8 27  1  0  0  0  0
  8 48  1  0  0  0  0
  9 10  1  0  0  0  0
  9 11  1  0  0  0  0
  9 31  1  0  0  0  0
 10 11  1  0  0  0  0
 10 32  1  0  0  0  0
 10 33  1  0  0  0  0
 11 34  1  0  0  0  0
 11 35  1  0  0  0  0
 12 13  1  0  0  0  0
 13 14  2  0  0  0  0
 13 15  1  0  0  0  0
 14 16  1  0  0  0  0
 14 37  1  0  0  0  0
 15 20  2  0  0  0  0
 15 38  1  0  0  0  0
 16 18  2  0  0  0  0
 17 19  2  0  0  0  0
 17 21  1  0  0  0  0
 18 20  1  0  0  0  0
 18 25  1  0  0  0  0
 19 22  1  0  0  0  0
 19 24  1  0  0  0  0
 20 39  1  0  0  0  0
 22 23  2  0  0  0  0
 22 26  1  0  0  0  0
 23 41  1  0  0  0  0
 24 42  1  0  0  0  0
 24 43  1  0  0  0  0
 24 44  1  0  0  0  0
 25 45  1  0  0  0  0
 25 46  1  0  0  0  0
 25 47  1  0  0  0  0
 27 29  1  0  0  0  0
 27 49  1  0  0  0  0
 27 50  1  0  0  0  0
 28 51  1  0  0  0  0
 29 30  1  0  0  0  0
 29 52  1  0  0  0  0
 29 53  1  0  0  0  0
 30 54  1  0  0  0  0
 30 55  1  0  0  0  0
 30 56  1  0  0  0  0
M  END
> <PUBCHEM_COMPOUND_CID>
10409068

> <PUBCHEM_CONFORMER_RMSD>
1

> <PUBCHEM_CONFORMER_DIVERSEORDER>
1
59
11
61
51
66
28
65
24
45
67
29
16
8
21
48
49
54
73
10
58
22
79
81
56
17
41
76
69
32
12
57
27
25
46
3
78
2
64
33
23
20
31
35
80
75
14
37
70
19
50
52
34
5
55
26
40
77
9
13
4
43
30
39
6
36
63
68
53
74
72
7
62
38
18
47
15
71
60
44
42

> <PUBCHEM_MMFF94_PARTIAL_CHARGES>
41
1 -0.57
10 -0.2
11 -0.2
12 0.54
13 0.09
14 -0.15
15 -0.15
16 0.1
17 -0.24
18 -0.14
19 -0.18
2 -0.57
20 -0.15
21 0.58
22 -0.09
23 -0.3
24 0.18
25 0.14
26 0.72
27 0.3
28 0.6
3 -0.58
31 0.1
32 0.1
33 0.1
34 0.1
35 0.1
36 0.37
37 0.15
38 0.15
39 0.15
4 -0.55
40 0.4
41 0.15
48 0.37
5 0.51
51 0.06
6 -0.66
7 -0.65
8 -0.73
9 0.05

> <PUBCHEM_EFFECTIVE_ROTOR_COUNT>
9.6

> <PUBCHEM_PHARMACOPHORE_FEATURES>
11
1 1 acceptor
1 2 acceptor
1 3 donor
1 30 hydrophobe
1 4 donor
1 8 donor
3 4 6 21 cation
3 6 7 28 cation
5 5 17 19 22 23 rings
6 13 14 15 16 18 20 rings
6 5 6 7 17 21 28 rings

> <PUBCHEM_HEAVY_ATOM_COUNT>
30

> <PUBCHEM_ATOM_DEF_STEREO_COUNT>
0

> <PUBCHEM_ATOM_UDEF_STEREO_COUNT>
0

> <PUBCHEM_BOND_DEF_STEREO_COUNT>
0

> <PUBCHEM_BOND_UDEF_STEREO_COUNT>
0

> <PUBCHEM_ISOTOPIC_ATOM_COUNT>
0

> <PUBCHEM_COMPONENT_COUNT>
1

> <PUBCHEM_CACTVS_TAUTO_COUNT>
12

> <PUBCHEM_CONFORMER_ID>
009ED46C00000001

> <PUBCHEM_MMFF94_ENERGY>
78.9792

> <PUBCHEM_FEATURE_SELFOVERLAP>
56.055

> <PUBCHEM_SHAPE_FINGERPRINT>
10 15 17988916761411706792
10319926 262 18270404876115831518
11136131 41 17261583492887318065
11828532 37 17685782715800213075
11963148 33 17691123060111384999
12202916 173 18201717380292361271
12422481 6 17489314138915088046
13583140 156 18191010228006407332
14844126 61 18408611353466054681
14950920 106 18409158939714926142
15320294 125 18186806859762797751
17913733 40 16630528410351265718
17980427 26 17188121298700061029
18603816 31 17749383754468353971
19611394 137 18273219711845776088
21033648 29 17202759281214348072
21133410 52 16907776039503975678
22122407 14 15410627964884697657
22956985 138 17906732858307804073
23522609 53 17752233637996681404
23559900 14 17910422522719181053
23569914 152 13337779118817642418
255183 313 16917062304126892367
2838139 119 11527942392237116666
3504750 166 18262227812319237362
3882209 13 17340954974144842927
392239 28 18340777038950403963
397830 11 18272362101661425256
484985 159 18261381244385086735
5080951 261 18261101942698673165
5104073 3 18201440311081638640
563151 74 15984563126141884347
57527293 21 18269290104395835017
66674814 147 17095241457659043442

> <PUBCHEM_SHAPE_MULTIPOLES>
575.76
16.43
4.62
2.04
21.67
2.37
1.01
11.38
-11.53
-9.05
-1.69
2.06
1.05
-1.76

> <PUBCHEM_SHAPE_SELFOVERLAP>
1236.368

> <PUBCHEM_SHAPE_VOLUME>
317.3

> <PUBCHEM_COORDINATE_TYPE>
2
5
10

$$$$
