REMARK  Name = 10405960
REMARK  7 active torsions:
REMARK  status: ('A' for Active; 'I' for Inactive)
REMARK    1  A    between atoms: C_3  and  C_12
REMARK    2  A    between atoms: C_8  and  O_27
REMARK    3  A    between atoms: C_11  and  O_29
REMARK    4  A    between atoms: C_13  and  O_18
REMARK    5  A    between atoms: C_14  and  C_22
REMARK    6  A    between atoms: C_16  and  O_20
REMARK    7  A    between atoms: C_22  and  C_23
REMARK                            x       y       z     vdW  Elec       q    Type
REMARK                         _______ _______ _______ _____ _____    ______ ____
ROOT
ATOM      1  O   UNL     1       2.341   1.627  -1.304  0.00  0.00    -0.474 OA
ATOM      2  O   UNL     1       1.491  -1.415   1.322  0.00  0.00    -0.291 OA
ATOM      3  C   UNL     1       0.638   0.296  -0.166  0.00  0.00    +0.131 C 
ATOM      4  C   UNL     1       1.192   0.795  -1.501  0.00  0.00    +0.217 C 
ATOM      5  C   UNL     1       1.721  -0.503   0.537  0.00  0.00    +0.186 C 
ATOM      6  C   UNL     1       3.110  -0.063   0.278  0.00  0.00    +0.103 C 
ATOM      7  C   UNL     1       3.339   0.991  -0.613  0.00  0.00    +0.147 C 
ATOM      8  C   UNL     1       4.180  -0.665   0.946  0.00  0.00    +0.142 C 
ATOM      9  C   UNL     1       4.637   1.465  -0.809  0.00  0.00    +0.074 C 
ATOM     10  C   UNL     1       5.478  -0.200   0.730  0.00  0.00    +0.073 C 
ATOM     11  C   UNL     1       5.705   0.865  -0.141  0.00  0.00    +0.140 C 
ENDROOT
BRANCH   3  12
ATOM     12  C   UNL     1      -0.646  -0.487  -0.341  0.00  0.00    +0.022 C 
ATOM     13  C   UNL     1      -1.826  -0.072   0.276  0.00  0.00    +0.129 C 
ATOM     14  C   UNL     1      -3.000  -0.806   0.103  0.00  0.00    +0.049 C 
ATOM     15  C   UNL     1      -0.640  -1.637  -1.131  0.00  0.00    +0.002 C 
ATOM     16  C   UNL     1      -2.993  -1.956  -0.687  0.00  0.00    +0.133 C 
ATOM     17  C   UNL     1      -1.813  -2.371  -1.304  0.00  0.00    +0.036 C 
BRANCH  13  18
ATOM     18  O   UNL     1      -1.831   1.052   1.049  0.00  0.00    -0.506 OA
ATOM     19  H   UNL     1      -1.043   1.545   1.165  0.00  0.00    +0.292 HD
ENDBRANCH  13  18
BRANCH  16  20
ATOM     20  O   UNL     1      -4.129  -2.686  -0.867  0.00  0.00    -0.506 OA
ATOM     21  H   UNL     1      -4.928  -2.417  -0.458  0.00  0.00    +0.292 HD
ENDBRANCH  16  20
BRANCH  14  22
ATOM     22  C   UNL     1      -4.265  -0.363   0.765  0.00  0.00    +0.058 C 
BRANCH  22  23
ATOM     23  C   UNL     1      -5.075   0.576  -0.093  0.00  0.00    -0.030 C 
ATOM     24  C   UNL     1      -5.879   1.580   0.307  0.00  0.00    -0.048 C 
ATOM     25  C   UNL     1      -6.661   2.482  -0.607  0.00  0.00    +0.026 C 
ATOM     26  C   UNL     1      -6.063   1.872   1.772  0.00  0.00    +0.026 C 
ENDBRANCH  22  23
ENDBRANCH  14  22
ENDBRANCH   3  12
BRANCH   8  27
ATOM     27  O   UNL     1       4.015  -1.698   1.819  0.00  0.00    -0.505 OA
ATOM     28  H   UNL     1       3.158  -2.036   1.989  0.00  0.00    +0.292 HD
ENDBRANCH   8  27
BRANCH  11  29
ATOM     29  O   UNL     1       6.973   1.320  -0.341  0.00  0.00    -0.505 OA
ATOM     30  H   UNL     1       7.127   2.036  -0.926  0.00  0.00    +0.292 HD
ENDBRANCH  11  29
TORSDOF 7
