REMARK  Name = 10408305
REMARK  2 active torsions:
REMARK  status: ('A' for Active; 'I' for Inactive)
REMARK    1  A    between atoms: C_15  and  O_27
REMARK    2  A    between atoms: C_20  and  O_29
REMARK                            x       y       z     vdW  Elec       q    Type
REMARK                         _______ _______ _______ _____ _____    ______ ____
ROOT
ATOM      1  O   UNL     1      -2.637  -0.858   2.425  0.00  0.00    -0.339 OA
ATOM      2  O   UNL     1       0.226  -0.739   1.292  0.00  0.00    -0.284 OA
ATOM      3  O   UNL     1      -0.394   1.560   0.848  0.00  0.00    -0.452 OA
ATOM      4  O   UNL     1       0.495  -1.204  -1.064  0.00  0.00    -0.452 OA
ATOM      5  O   UNL     1      -4.876   0.962   0.555  0.00  0.00    -0.289 OA
ATOM      6  O   UNL     1       4.865  -0.106  -1.520  0.00  0.00    -0.291 OA
ATOM      7  C   UNL     1      -1.712   0.219   2.261  0.00  0.00    +0.218 C 
ATOM      8  C   UNL     1      -0.831   0.195   1.047  0.00  0.00    +0.282 C 
ATOM      9  C   UNL     1      -3.187   0.432   2.085  0.00  0.00    +0.210 C 
ATOM     10  C   UNL     1       1.111  -0.760   0.165  0.00  0.00    +0.280 C 
ATOM     11  C   UNL     1      -1.569  -0.265  -0.191  0.00  0.00    +0.083 C 
ATOM     12  C   UNL     1      -3.762   0.487   0.723  0.00  0.00    +0.205 C 
ATOM     13  C   UNL     1       1.660   0.626  -0.041  0.00  0.00    +0.080 C 
ATOM     14  C   UNL     1      -2.942  -0.050  -0.385  0.00  0.00    +0.076 C 
ATOM     15  C   UNL     1       2.255  -1.734   0.478  0.00  0.00    +0.191 C 
ATOM     16  C   UNL     1      -0.836  -0.901  -1.200  0.00  0.00    +0.143 C 
ATOM     17  C   UNL     1       0.854   1.715   0.304  0.00  0.00    +0.143 C 
ATOM     18  C   UNL     1       3.333  -1.701  -0.603  0.00  0.00    +0.105 C 
ATOM     19  C   UNL     1       2.931   0.852  -0.581  0.00  0.00    +0.039 C 
ATOM     20  C   UNL     1      -3.557  -0.411  -1.587  0.00  0.00    +0.137 C 
ATOM     21  C   UNL     1       3.802  -0.297  -0.936  0.00  0.00    +0.176 C 
ATOM     22  C   UNL     1      -1.448  -1.274  -2.397  0.00  0.00    +0.040 C 
ATOM     23  C   UNL     1       1.305   3.019   0.107  0.00  0.00    +0.037 C 
ATOM     24  C   UNL     1      -2.804  -1.017  -2.593  0.00  0.00    +0.040 C 
ATOM     25  C   UNL     1       3.385   2.159  -0.781  0.00  0.00    +0.003 C 
ATOM     26  C   UNL     1       2.570   3.239  -0.436  0.00  0.00    +0.003 C 
ENDROOT
BRANCH  15  27
ATOM     27  O   UNL     1       2.834  -1.478   1.758  0.00  0.00    -0.347 OA
ATOM     28  C   UNL     1       3.816  -2.449   2.082  0.00  0.00    +0.174 C 
ENDBRANCH  15  27
BRANCH  20  29
ATOM     29  O   UNL     1      -4.888  -0.226  -1.814  0.00  0.00    -0.505 OA
ATOM     30  H   UNL     1      -5.423   0.178  -1.160  0.00  0.00    +0.292 HD
ENDBRANCH  20  29
TORSDOF 2
