10403222
  -OEChem-03292013303D

 35 37  0     0  0  0  0  0  0999 V2000
   -0.7929   -1.6713   -0.0272 O   0  0  0  0  0  0  0  0  0  0  0  0
    0.6165   -4.2291   -0.1000 O   0  0  0  0  0  0  0  0  0  0  0  0
   -4.5273    3.0262    0.0764 O   0  0  0  0  0  0  0  0  0  0  0  0
   -6.4688    1.0457   -0.1095 O   0  0  0  0  0  0  0  0  0  0  0  0
    6.2152    2.4866   -0.6790 O   0  0  0  0  0  0  0  0  0  0  0  0
    4.4681    3.3777    0.4865 O   0  0  0  0  0  0  0  0  0  0  0  0
    1.1747   -0.5701    0.1127 C   0  0  0  0  0  0  0  0  0  0  0  0
    0.5613   -1.8154    0.0223 C   0  0  0  0  0  0  0  0  0  0  0  0
   -1.0501   -0.3385    0.0310 C   0  0  0  0  0  0  0  0  0  0  0  0
    0.1198    0.3802    0.1173 C   0  0  0  0  0  0  0  0  0  0  0  0
    2.5781   -0.5155    0.1748 C   0  0  0  0  0  0  0  0  0  0  0  0
   -2.4398    0.0203   -0.0050 C   0  0  0  0  0  0  0  0  0  0  0  0
    1.2513   -3.0258   -0.0114 C   0  0  0  0  0  0  0  0  0  0  0  0
    3.2998   -1.7168    0.1433 C   0  0  0  0  0  0  0  0  0  0  0  0
    2.6459   -2.9481    0.0515 C   0  0  0  0  0  0  0  0  0  0  0  0
   -2.8223    1.3639    0.0535 C   0  0  0  0  0  0  0  0  0  0  0  0
   -3.4207   -0.9718   -0.0986 C   0  0  0  0  0  0  0  0  0  0  0  0
    3.2304    0.7756    0.2690 C   0  0  0  0  0  0  0  0  0  0  0  0
   -4.1725    1.7122    0.0185 C   0  0  0  0  0  0  0  0  0  0  0  0
   -4.7710   -0.6236   -0.1333 C   0  0  0  0  0  0  0  0  0  0  0  0
   -5.1469    0.7184   -0.0748 C   0  0  0  0  0  0  0  0  0  0  0  0
    4.4499    1.0789   -0.2362 C   0  0  0  0  0  0  0  0  0  0  0  0
    5.0015    2.4399   -0.0817 C   0  0  0  0  0  0  0  0  0  0  0  0
    0.2121    1.4559    0.1765 H   0  0  0  0  0  0  0  0  0  0  0  0
    4.3861   -1.7193    0.2016 H   0  0  0  0  0  0  0  0  0  0  0  0
    3.2424   -3.8576    0.0323 H   0  0  0  0  0  0  0  0  0  0  0  0
   -2.0763    2.1520    0.1267 H   0  0  0  0  0  0  0  0  0  0  0  0
   -3.1689   -2.0284   -0.1466 H   0  0  0  0  0  0  0  0  0  0  0  0
    2.6677    1.5518    0.7830 H   0  0  0  0  0  0  0  0  0  0  0  0
   -5.5255   -1.4022   -0.2062 H   0  0  0  0  0  0  0  0  0  0  0  0
    1.2872   -4.9336   -0.1083 H   0  0  0  0  0  0  0  0  0  0  0  0
    5.0464    0.3494   -0.7739 H   0  0  0  0  0  0  0  0  0  0  0  0
   -3.7237    3.5703    0.1383 H   0  0  0  0  0  0  0  0  0  0  0  0
   -6.5454    2.0145   -0.0595 H   0  0  0  0  0  0  0  0  0  0  0  0
    6.6275    3.3737   -0.6044 H   0  0  0  0  0  0  0  0  0  0  0  0
  1  8  1  0  0  0  0
  1  9  1  0  0  0  0
  2 13  1  0  0  0  0
  2 31  1  0  0  0  0
  3 19  1  0  0  0  0
  3 33  1  0  0  0  0
  4 21  1  0  0  0  0
  4 34  1  0  0  0  0
  5 23  1  0  0  0  0
  5 35  1  0  0  0  0
  6 23  2  0  0  0  0
  7  8  1  0  0  0  0
  7 10  1  0  0  0  0
  7 11  2  0  0  0  0
  8 13  2  0  0  0  0
  9 10  2  0  0  0  0
  9 12  1  0  0  0  0
 10 24  1  0  0  0  0
 11 14  1  0  0  0  0
 11 18  1  0  0  0  0
 12 16  2  0  0  0  0
 12 17  1  0  0  0  0
 13 15  1  0  0  0  0
 14 15  2  0  0  0  0
 14 25  1  0  0  0  0
 15 26  1  0  0  0  0
 16 19  1  0  0  0  0
 16 27  1  0  0  0  0
 17 20  2  0  0  0  0
 17 28  1  0  0  0  0
 18 22  2  0  0  0  0
 18 29  1  0  0  0  0
 19 21  2  0  0  0  0
 20 21  1  0  0  0  0
 20 30  1  0  0  0  0
 22 23  1  0  0  0  0
 22 32  1  0  0  0  0
M  END
> <PUBCHEM_COMPOUND_CID>
10403222

> <PUBCHEM_CONFORMER_RMSD>
0.6

> <PUBCHEM_CONFORMER_DIVERSEORDER>
1
12
10
6
5
3
9
4
7
8
2
11

> <PUBCHEM_MMFF94_PARTIAL_CHARGES>
34
1 -0.28
10 -0.15
11 0.03
12 0.05
13 0.08
14 -0.15
15 -0.15
16 -0.15
17 -0.15
18 -0.18
19 0.08
2 -0.53
20 -0.15
21 0.08
22 -0.14
23 0.71
24 0.15
25 0.15
26 0.15
27 0.15
28 0.15
29 0.15
3 -0.53
30 0.15
31 0.45
32 0.15
33 0.45
34 0.45
35 0.5
4 -0.53
5 -0.65
6 -0.57
8 0.14
9 0.09

> <PUBCHEM_EFFECTIVE_ROTOR_COUNT>
3

> <PUBCHEM_PHARMACOPHORE_FEATURES>
10
1 1 acceptor
1 2 donor
1 3 donor
1 4 donor
1 5 acceptor
1 6 acceptor
3 5 6 23 anion
5 1 7 8 9 10 rings
6 12 16 17 19 20 21 rings
6 7 8 11 13 14 15 rings

> <PUBCHEM_HEAVY_ATOM_COUNT>
23

> <PUBCHEM_ATOM_DEF_STEREO_COUNT>
0

> <PUBCHEM_ATOM_UDEF_STEREO_COUNT>
0

> <PUBCHEM_BOND_DEF_STEREO_COUNT>
1

> <PUBCHEM_BOND_UDEF_STEREO_COUNT>
0

> <PUBCHEM_ISOTOPIC_ATOM_COUNT>
0

> <PUBCHEM_COMPONENT_COUNT>
1

> <PUBCHEM_CACTVS_TAUTO_COUNT>
56

> <PUBCHEM_CONFORMER_ID>
009EBD9600000001

> <PUBCHEM_MMFF94_ENERGY>
54.086

> <PUBCHEM_FEATURE_SELFOVERLAP>
50.908

> <PUBCHEM_SHAPE_FINGERPRINT>
10050765 1 18337954597293255994
10411042 1 17762055441912653946
10595046 47 18412822474294411559
10835480 77 18334851681174689941
12107183 9 17188975623528816251
12293681 160 17917436457922172352
12390115 104 18269008629249812488
12730499 353 18409738360672813898
12769317 202 18342448253675353248
12788726 201 17203052864051753497
13140716 1 18334293150130783930
13540713 5 18266157596122138114
138480 1 18050848819456453194
13955234 65 18263647272966773722
14257110 125 18336828684173788364
14528608 73 18412545418095321597
14790565 3 18338519745784337348
15196674 1 18339078169237198473
15342168 16 18335982047198089316
15475509 35 16226599668588601978
15961568 22 18113337513647397260
17844677 252 18268154150091598697
17980427 23 17313951968433440959
18681886 176 18198335170381658706
19427546 62 18409448072597720155
20554085 129 17917417775362801024
20645477 70 18129097814825606743
21033648 144 18113891671923439695
21033648 29 18269268144254587144
21065198 57 18194962933869547883
21267235 1 18268717095908620015
21709351 56 18268138764986176790
21756936 100 18198053875845457982
23559900 14 18195522584802984211
239999 70 18200878348955091734
245318 6 17606135110647272020
24893989 43 13659238548642772228
2838139 119 18341889757887731028
34797466 226 18059863835540792629
350125 39 18336544916058834596
394222 165 18333723611881939658
4073 2 18333454240713808395
4214541 1 18195525883980925931
474 4 18410009918722927890
5104073 3 18260834744155993809
621550 34 18114739339516839895
6327066 14 18264207079515687652
633830 44 18342172237343405486
67856867 119 18337666421554965034
7288768 16 18041275581839848762
77188 2 17689433789756250446
77779 3 18339360739430816451
7808743 9 18193835084132059592
8272917 22 18341050705439472918
9709674 26 18267026047035909891
9981440 41 18335140946282760827
9999458 23 18336547110529322926

> <PUBCHEM_SHAPE_MULTIPOLES>
438.11
12.98
4.06
0.63
5.37
1.18
0
-12.97
-0.96
-4.75
-0.02
-0.16
-0.05
-0.31

> <PUBCHEM_SHAPE_SELFOVERLAP>
975.73

> <PUBCHEM_SHAPE_VOLUME>
234.4

> <PUBCHEM_COORDINATE_TYPE>
2
5
10

$$$$
