REMARK  Name = 10406529
REMARK  11 active torsions:
REMARK  status: ('A' for Active; 'I' for Inactive)
REMARK    1  A    between atoms: C_1  and  C_2
REMARK    2  A    between atoms: C_1  and  C_16
REMARK    3  A    between atoms: C_1  and  C_24
REMARK    4  A    between atoms: C_2  and  C_3
REMARK    5  A    between atoms: C_3  and  N_4
REMARK    6  A    between atoms: C_16  and  O_17
REMARK    7  A    between atoms: O_17  and  C_19
REMARK    8  A    between atoms: C_19  and  O_20
REMARK    9  A    between atoms: O_20  and  C_21
REMARK   10  A    between atoms: C_24  and  O_25
REMARK   11  A    between atoms: O_25  and  C_27
REMARK                            x       y       z     vdW  Elec       q    Type
REMARK                         _______ _______ _______ _____ _____    ______ ____
ROOT
ATOM      1  C   UNL     1      -2.015  -1.001   1.158  0.00  0.00    +0.089 C 
ENDROOT
BRANCH   1   2
ATOM      2  C   UNL     1      -0.678  -1.503   0.560  0.00  0.00    +0.029 C 
BRANCH   2   3
ATOM      3  C   UNL     1       0.530  -1.425   1.501  0.00  0.00    +0.095 C 
BRANCH   3   4
ATOM      4  N   UNL     1       1.788  -1.827   0.883  0.00  0.00    -0.261 N 
ATOM      5  N   UNL     1       3.456  -3.151   0.222  0.00  0.00    -0.246 NA
ATOM      6  N   UNL     1       2.569   0.298   0.003  0.00  0.00    -0.322 NA
ATOM      7  N   UNL     1       4.708   0.050  -1.145  0.00  0.00    -0.191 NA
ATOM      8  N   UNL     1       3.643   2.130  -0.980  0.00  0.00    -0.293 N 
ATOM      9  C   UNL     1       2.670  -1.022   0.221  0.00  0.00    +0.213 C 
ATOM     10  C   UNL     1       2.304  -3.096   0.857  0.00  0.00    +0.222 C 
ATOM     11  C   UNL     1       3.697  -1.861  -0.181  0.00  0.00    +0.126 C 
ATOM     12  C   UNL     1       4.744  -1.280  -0.889  0.00  0.00    +0.187 C 
ATOM     13  C   UNL     1       3.638   0.746  -0.690  0.00  0.00    +0.139 C 
ATOM     14  H   UNL     1       2.897   2.698  -0.680  0.00  0.00    +0.155 HD
ATOM     15  H   UNL     1       4.391   2.525  -1.482  0.00  0.00    +0.155 HD
ENDBRANCH   3   4
ENDBRANCH   2   3
ENDBRANCH   1   2
BRANCH   1  16
ATOM     16  C   UNL     1      -1.962   0.470   1.593  0.00  0.00    +0.216 C 
BRANCH  16  17
ATOM     17  O   UNL     1      -1.676   1.314   0.487  0.00  0.00    -0.418 OA
BRANCH  17  19
ATOM     18  O   UNL     1      -1.763   3.167   1.857  0.00  0.00    -0.203 OA
ATOM     19  C   UNL     1      -1.603   2.652   0.757  0.00  0.00    +0.512 C 
BRANCH  19  20
ATOM     20  O   UNL     1      -1.326   3.312  -0.402  0.00  0.00    -0.422 OA
BRANCH  20  21
ATOM     21  C   UNL     1      -1.216   4.734  -0.293  0.00  0.00    +0.173 C 
ATOM     22  C   UNL     1       0.221   5.102   0.042  0.00  0.00    +0.047 C 
ATOM     23  C   UNL     1      -1.676   5.373  -1.595  0.00  0.00    +0.047 C 
ENDBRANCH  20  21
ENDBRANCH  19  20
ENDBRANCH  17  19
ENDBRANCH  16  17
ENDBRANCH   1  16
BRANCH   1  24
ATOM     24  C   UNL     1      -3.151  -1.203   0.141  0.00  0.00    +0.212 C 
BRANCH  24  25
ATOM     25  O   UNL     1      -3.293  -2.586  -0.161  0.00  0.00    -0.448 OA
BRANCH  25  27
ATOM     26  O   UNL     1      -5.027  -2.110  -1.612  0.00  0.00    -0.250 OA
ATOM     27  C   UNL     1      -4.276  -2.901  -1.058  0.00  0.00    +0.318 C 
ATOM     28  C   UNL     1      -4.308  -4.384  -1.277  0.00  0.00    +0.121 C 
ENDBRANCH  25  27
ENDBRANCH  24  25
ENDBRANCH   1  24
TORSDOF 11
