REMARK  Name = 10407714
REMARK  5 active torsions:
REMARK  status: ('A' for Active; 'I' for Inactive)
REMARK    1  A    between atoms: C_2  and  O_19
REMARK    2  A    between atoms: C_3  and  O_17
REMARK    3  A    between atoms: C_4  and  O_21
REMARK    4  A    between atoms: C_5  and  N_9
REMARK    5  A    between atoms: C_6  and  C_16
REMARK                            x       y       z     vdW  Elec       q    Type
REMARK                         _______ _______ _______ _____ _____    ______ ____
ROOT
ATOM      1  O   UNL     1       0.867  -0.924   0.294  0.00  0.00    -0.334 OA
ATOM      2  C   UNL     1       2.148   1.449  -0.708  0.00  0.00    +0.171 C 
ATOM      3  C   UNL     1       0.778   1.516  -0.026  0.00  0.00    +0.187 C 
ATOM      4  C   UNL     1       2.938   0.227  -0.237  0.00  0.00    +0.168 C 
ATOM      5  C   UNL     1       0.056   0.165  -0.153  0.00  0.00    +0.228 C 
ATOM      6  C   UNL     1       2.099  -1.041  -0.426  0.00  0.00    +0.157 C 
ENDROOT
BRANCH   5   9
ATOM      7  O   UNL     1      -3.027   0.678  -1.948  0.00  0.00    -0.123 OA
ATOM      8  O   UNL     1      -2.786  -1.483  -1.646  0.00  0.00    -0.123 OA
ATOM      9  N   UNL     1      -1.188   0.130   0.629  0.00  0.00    -0.226 N 
ATOM     10  N   UNL     1      -3.345  -0.043   1.115  0.00  0.00    -0.207 NA
ATOM     11  N   UNL     1      -2.765  -0.302  -1.193  0.00  0.00    +0.091 N 
ATOM     12  C   UNL     1      -2.450  -0.079   0.152  0.00  0.00    +0.286 C 
ATOM     13  C   UNL     1      -1.279   0.311   1.978  0.00  0.00    +0.091 C 
ATOM     14  C   UNL     1      -2.622   0.200   2.255  0.00  0.00    +0.118 C 
ENDBRANCH   5   9
BRANCH   6  16
ATOM     15  I   UNL     1       1.619  -4.023  -0.239  0.00  0.00    -0.072 I 
ATOM     16  C   UNL     1       2.809  -2.287   0.089  0.00  0.00    +0.095 C 
ENDBRANCH   6  16
BRANCH   3  17
ATOM     17  O   UNL     1      -0.014   2.516  -0.664  0.00  0.00    -0.378 OA
ATOM     18  H   UNL     1       0.430   3.376  -0.592  0.00  0.00    +0.211 HD
ENDBRANCH   3  17
BRANCH   2  19
ATOM     19  O   UNL     1       2.902   2.623  -0.420  0.00  0.00    -0.379 OA
ATOM     20  H   UNL     1       2.409   3.405  -0.715  0.00  0.00    +0.211 HD
ENDBRANCH   2  19
BRANCH   4  21
ATOM     21  O   UNL     1       3.261   0.368   1.148  0.00  0.00    -0.379 OA
ATOM     22  H   UNL     1       3.792   1.169   1.277  0.00  0.00    +0.211 HD
ENDBRANCH   4  21
TORSDOF 5
