REMARK  Name = 10407286
REMARK  5 active torsions:
REMARK  status: ('A' for Active; 'I' for Inactive)
REMARK    1  A    between atoms: C_4  and  C_19
REMARK    2  A    between atoms: C_12  and  O_27
REMARK    3  A    between atoms: C_17  and  O_29
REMARK    4  A    between atoms: C_18  and  O_31
REMARK    5  A    between atoms: C_24  and  O_25
REMARK                            x       y       z     vdW  Elec       q    Type
REMARK                         _______ _______ _______ _____ _____    ______ ____
ROOT
ATOM      1  O   UNL     1      -0.792   0.288  -0.171  0.00  0.00    -0.474 OA
ATOM      2  O   UNL     1       3.812   0.910   0.129  0.00  0.00    -0.453 OA
ATOM      3  O   UNL     1      -1.508   4.319  -0.202  0.00  0.00    -0.291 OA
ATOM      4  C   UNL     1      -2.012   0.810   0.374  0.00  0.00    +0.196 C 
ATOM      5  C   UNL     1       0.254   1.173  -0.073  0.00  0.00    +0.147 C 
ATOM      6  C   UNL     1       1.568   0.666  -0.018  0.00  0.00    +0.072 A 
ATOM      7  C   UNL     1      -2.406   2.102  -0.337  0.00  0.00    +0.117 C 
ATOM      8  C   UNL     1       0.072   2.568  -0.051  0.00  0.00    +0.103 C 
ATOM      9  C   UNL     1      -1.299   3.112  -0.176  0.00  0.00    +0.183 C 
ATOM     10  C   UNL     1       2.622   1.569   0.081  0.00  0.00    +0.151 A 
ATOM     11  C   UNL     1       2.166  -0.631  -0.031  0.00  0.00    +0.044 A 
ATOM     12  C   UNL     1       1.160   3.442   0.051  0.00  0.00    +0.142 C 
ATOM     13  C   UNL     1       3.539  -0.422   0.060  0.00  0.00    +0.149 A 
ATOM     14  C   UNL     1       2.467   2.953   0.125  0.00  0.00    +0.074 C 
ATOM     15  C   UNL     1       1.698  -1.957  -0.109  0.00  0.00    +0.043 C 
ATOM     16  C   UNL     1       4.487  -1.443   0.078  0.00  0.00    +0.077 C 
ATOM     17  C   UNL     1       2.628  -3.005  -0.093  0.00  0.00    +0.168 C 
ATOM     18  C   UNL     1       3.998  -2.750  -0.002  0.00  0.00    +0.171 C 
ENDROOT
BRANCH   4  19
ATOM     19  C   UNL     1      -3.089  -0.245   0.232  0.00  0.00    +0.018 C 
ATOM     20  C   UNL     1      -3.685  -0.789   1.368  0.00  0.00    +0.002 C 
ATOM     21  C   UNL     1      -3.483  -0.670  -1.036  0.00  0.00    +0.002 C 
ATOM     22  C   UNL     1      -4.677  -1.761   1.236  0.00  0.00    +0.036 C 
ATOM     23  C   UNL     1      -4.476  -1.642  -1.168  0.00  0.00    +0.036 C 
ATOM     24  C   UNL     1      -5.073  -2.187  -0.032  0.00  0.00    +0.134 C 
BRANCH  24  25
ATOM     25  O   UNL     1      -6.041  -3.135  -0.159  0.00  0.00    -0.506 OA
ATOM     26  H   UNL     1      -6.441  -3.502   0.604  0.00  0.00    +0.292 HD
ENDBRANCH  24  25
ENDBRANCH   4  19
BRANCH  12  27
ATOM     27  O   UNL     1       1.007   4.799   0.081  0.00  0.00    -0.505 OA
ATOM     28  H   UNL     1       0.150   5.175   0.034  0.00  0.00    +0.292 HD
ENDBRANCH  12  27
BRANCH  17  29
ATOM     29  O   UNL     1       2.174  -4.289  -0.169  0.00  0.00    -0.503 OA
ATOM     30  H   UNL     1       1.254  -4.458  -0.231  0.00  0.00    +0.292 HD
ENDBRANCH  17  29
BRANCH  18  31
ATOM     31  O   UNL     1       4.887  -3.785   0.012  0.00  0.00    -0.503 OA
ATOM     32  H   UNL     1       5.806  -3.613   0.074  0.00  0.00    +0.292 HD
ENDBRANCH  18  31
TORSDOF 5
