REMARK  Name = 10409280
REMARK  5 active torsions:
REMARK  status: ('A' for Active; 'I' for Inactive)
REMARK    1  A    between atoms: C_7  and  O_25
REMARK    2  A    between atoms: C_11  and  O_27
REMARK    3  A    between atoms: C_14  and  O_29
REMARK    4  A    between atoms: C_16  and  O_31
REMARK    5  A    between atoms: C_17  and  O_33
REMARK                            x       y       z     vdW  Elec       q    Type
REMARK                         _______ _______ _______ _____ _____    ______ ____
ROOT
ATOM      1  O   UNL     1       2.338   1.496   1.723  0.00  0.00    -0.353 OA
ATOM      2  O   UNL     1       0.563  -2.475  -0.086  0.00  0.00    -0.450 OA
ATOM      3  O   UNL     1       1.916  -3.353  -1.658  0.00  0.00    -0.247 OA
ATOM      4  O   UNL     1      -4.818   1.651  -1.203  0.00  0.00    -0.289 OA
ATOM      5  C   UNL     1       0.883  -0.187   0.848  0.00  0.00    +0.094 C 
ATOM      6  C   UNL     1      -0.078   0.645  -0.099  0.00  0.00    +0.040 C 
ATOM      7  C   UNL     1       2.299  -0.311   0.249  0.00  0.00    +0.153 C 
ATOM      8  C   UNL     1      -1.630   0.541   0.255  0.00  0.00    +0.038 C 
ATOM      9  C   UNL     1       2.750   1.152   0.366  0.00  0.00    +0.145 C 
ATOM     10  C   UNL     1       0.356  -1.606   1.080  0.00  0.00    +0.174 C 
ATOM     11  C   UNL     1       0.463   2.078  -0.384  0.00  0.00    +0.140 C 
ATOM     12  C   UNL     1       1.259   0.605   2.112  0.00  0.00    +0.148 C 
ATOM     13  C   UNL     1      -1.991  -0.986   0.316  0.00  0.00    +0.025 C 
ATOM     14  C   UNL     1       1.991   2.112  -0.587  0.00  0.00    +0.164 C 
ATOM     15  C   UNL     1      -1.140  -1.689   1.397  0.00  0.00    +0.048 C 
ATOM     16  C   UNL     1       2.281  -1.046  -1.080  0.00  0.00    +0.237 C 
ATOM     17  C   UNL     1      -2.486   1.194  -0.871  0.00  0.00    +0.172 C 
ATOM     18  C   UNL     1      -2.028   1.238   1.587  0.00  0.00    +0.003 C 
ATOM     19  C   UNL     1       4.259   1.373   0.264  0.00  0.00    +0.035 C 
ATOM     20  C   UNL     1      -3.494  -1.234   0.413  0.00  0.00    -0.041 C 
ATOM     21  C   UNL     1       1.603  -2.397  -0.953  0.00  0.00    +0.347 C 
ATOM     22  C   UNL     1      -3.966   0.897  -0.734  0.00  0.00    +0.199 C 
ATOM     23  C   UNL     1      -4.392  -0.360  -0.072  0.00  0.00    +0.031 C 
ATOM     24  C   UNL     1      -3.973  -2.532   1.001  0.00  0.00    +0.026 C 
ENDROOT
BRANCH   7  25
ATOM     25  O   UNL     1       3.125  -1.104   1.134  0.00  0.00    -0.381 OA
ATOM     26  H   UNL     1       3.170  -0.676   2.004  0.00  0.00    +0.210 HD
ENDBRANCH   7  25
BRANCH  11  27
ATOM     27  O   UNL     1       0.111   3.017   0.626  0.00  0.00    -0.382 OA
ATOM     28  H   UNL     1      -0.849   3.002   0.761  0.00  0.00    +0.210 HD
ENDBRANCH  11  27
BRANCH  14  29
ATOM     29  O   UNL     1       2.320   1.821  -1.941  0.00  0.00    -0.380 OA
ATOM     30  H   UNL     1       3.283   1.846  -2.052  0.00  0.00    +0.211 HD
ENDBRANCH  14  29
BRANCH  16  31
ATOM     31  O   UNL     1       3.607  -1.242  -1.548  0.00  0.00    -0.373 OA
ATOM     32  H   UNL     1       4.050  -0.384  -1.633  0.00  0.00    +0.211 HD
ENDBRANCH  16  31
BRANCH  17  33
ATOM     33  O   UNL     1      -2.129   0.700  -2.156  0.00  0.00    -0.377 OA
ATOM     34  H   UNL     1      -1.185   0.858  -2.312  0.00  0.00    +0.211 HD
ENDBRANCH  17  33
TORSDOF 5
