REMARK  Name = 104070
REMARK  1 active torsions:
REMARK  status: ('A' for Active; 'I' for Inactive)
REMARK    1  A    between atoms: C_6  and  S_16
REMARK                            x       y       z     vdW  Elec       q    Type
REMARK                         _______ _______ _______ _____ _____    ______ ____
ROOT
ATOM      1  O   UNL     1       3.322  -0.657  -0.022  0.00  0.00    -0.386 OA
ATOM      2  O   UNL     1       2.700  -2.824  -0.017  0.00  0.00    -0.244 OA
ATOM      3  O   UNL     1       3.935   1.511  -0.032  0.00  0.00    -0.244 OA
ATOM      4  C   UNL     1       0.634   0.109   0.013  0.00  0.00    +0.014 C 
ATOM      5  C   UNL     1      -0.727   0.497   0.030  0.00  0.00    +0.018 C 
ATOM      6  C   UNL     1      -1.721  -0.493   0.045  0.00  0.00    +0.112 C 
ATOM      7  C   UNL     1       0.969  -1.240   0.010  0.00  0.00    +0.076 C 
ATOM      8  C   UNL     1       1.629   1.078  -0.002  0.00  0.00    +0.076 C 
ATOM      9  C   UNL     1      -1.373  -1.843   0.043  0.00  0.00    +0.019 C 
ATOM     10  C   UNL     1      -0.031  -2.219   0.025  0.00  0.00    +0.008 C 
ATOM     11  C   UNL     1      -1.050   1.862   0.031  0.00  0.00    +0.001 C 
ATOM     12  C   UNL     1       1.296   2.438   0.000  0.00  0.00    +0.006 C 
ATOM     13  C   UNL     1      -0.042   2.826   0.016  0.00  0.00    +0.000 C 
ATOM     14  C   UNL     1       2.384  -1.639  -0.010  0.00  0.00    +0.348 C 
ATOM     15  C   UNL     1       3.042   0.671  -0.019  0.00  0.00    +0.348 C 
ENDROOT
BRANCH   6  16
ATOM     16  S   UNL     1      -3.438  -0.121   0.070  0.00  0.00    +0.042 S 
ATOM     17  O   UNL     1      -3.755   0.491  -1.409  0.00  0.00    -0.065 OA
ATOM     18  O   UNL     1      -4.158  -1.378   0.179  0.00  0.00    -0.065 OA
ATOM     19  O   UNL     1      -3.618   0.933   1.050  0.00  0.00    -0.065 OA
ENDBRANCH   6  16
TORSDOF 1
