10411193
  -OEChem-03292013303D

 60 62  0     1  0  0  0  0  0999 V2000
   -3.4727    0.3319    0.2897 O   0  0  0  0  0  0  0  0  0  0  0  0
   -2.8440   -1.9138    0.3534 O   0  0  0  0  0  0  0  0  0  0  0  0
   -7.4431   -0.6502   -0.0885 O   0  0  0  0  0  0  0  0  0  0  0  0
   -6.5295    2.0133   -0.8090 O   0  0  0  0  0  0  0  0  0  0  0  0
   -5.3565   -2.6289   -0.7240 O   0  0  0  0  0  0  0  0  0  0  0  0
   -4.5095    3.6615   -0.1171 O   0  0  0  0  0  0  0  0  0  0  0  0
   -3.0437    2.6386    1.2974 O   0  0  0  0  0  0  0  0  0  0  0  0
    8.7493    1.0170   -0.4996 O   0  0  0  0  0  0  0  0  0  0  0  0
   -6.1303   -0.3490   -0.5638 C   0  0  1  0  0  0  0  0  0  0  0  0
   -5.7632    1.0548   -0.0814 C   0  0  1  0  0  0  0  0  0  0  0  0
   -5.1453   -1.3942   -0.0395 C   0  0  2  0  0  0  0  0  0  0  0  0
   -4.2834    1.3351   -0.3114 C   0  0  1  0  0  0  0  0  0  0  0  0
   -3.6986   -0.9579   -0.2731 C   0  0  1  0  0  0  0  0  0  0  0  0
   -3.8601    2.5851    0.3897 C   0  0  0  0  0  0  0  0  0  0  0  0
   -1.4981   -1.6870    0.2591 C   0  0  0  0  0  0  0  0  0  0  0  0
    2.6696   -0.9830   -0.0336 C   0  0  0  0  0  0  0  0  0  0  0  0
    1.2389   -1.2252    0.0666 C   0  0  0  0  0  0  0  0  0  0  0  0
   -0.7432   -1.5213    1.4158 C   0  0  0  0  0  0  0  0  0  0  0  0
   -0.8953   -1.6236   -0.9931 C   0  0  0  0  0  0  0  0  0  0  0  0
    3.2064    0.2764   -0.1205 C   0  0  0  0  0  0  0  0  0  0  0  0
    0.6289   -1.2896    1.3194 C   0  0  0  0  0  0  0  0  0  0  0  0
    0.4769   -1.3921   -1.0896 C   0  0  0  0  0  0  0  0  0  0  0  0
    3.5315   -2.2434   -0.0877 C   0  0  0  0  0  0  0  0  0  0  0  0
    2.4086    1.5647   -0.1785 C   0  0  0  0  0  0  0  0  0  0  0  0
    4.6721    0.4728   -0.2210 C   0  0  0  0  0  0  0  0  0  0  0  0
    3.9979   -2.6819    1.2945 C   0  0  0  0  0  0  0  0  0  0  0  0
    2.1370    2.1389    1.2061 C   0  0  0  0  0  0  0  0  0  0  0  0
    5.2587    0.5107   -1.4707 C   0  0  0  0  0  0  0  0  0  0  0  0
    5.4098    0.6117    0.9384 C   0  0  0  0  0  0  0  0  0  0  0  0
    6.6382    0.6950   -1.5648 C   0  0  0  0  0  0  0  0  0  0  0  0
    6.7893    0.7961    0.8441 C   0  0  0  0  0  0  0  0  0  0  0  0
    7.4034    0.8376   -0.4074 C   0  0  0  0  0  0  0  0  0  0  0  0
   -6.1879   -0.3788   -1.6583 H   0  0  0  0  0  0  0  0  0  0  0  0
   -6.0178    1.1697    0.9801 H   0  0  0  0  0  0  0  0  0  0  0  0
   -5.3209   -1.5881    1.0252 H   0  0  0  0  0  0  0  0  0  0  0  0
   -4.0258    1.4345   -1.3731 H   0  0  0  0  0  0  0  0  0  0  0  0
   -3.4912   -0.9360   -1.3511 H   0  0  0  0  0  0  0  0  0  0  0  0
   -7.4208   -0.6464    0.8837 H   0  0  0  0  0  0  0  0  0  0  0  0
   -7.4683    1.8017   -0.6685 H   0  0  0  0  0  0  0  0  0  0  0  0
   -5.2036   -2.4780   -1.6724 H   0  0  0  0  0  0  0  0  0  0  0  0
   -1.2145   -1.5698    2.3934 H   0  0  0  0  0  0  0  0  0  0  0  0
   -1.4688   -1.7691   -1.9037 H   0  0  0  0  0  0  0  0  0  0  0  0
    1.2077   -1.1609    2.2308 H   0  0  0  0  0  0  0  0  0  0  0  0
    0.9384   -1.3482   -2.0733 H   0  0  0  0  0  0  0  0  0  0  0  0
    2.9667   -3.0633   -0.5503 H   0  0  0  0  0  0  0  0  0  0  0  0
    4.4028   -2.1049   -0.7366 H   0  0  0  0  0  0  0  0  0  0  0  0
   -4.2463    4.4931    0.3318 H   0  0  0  0  0  0  0  0  0  0  0  0
    2.9305    2.3148   -0.7860 H   0  0  0  0  0  0  0  0  0  0  0  0
    1.4519    1.4001   -0.6877 H   0  0  0  0  0  0  0  0  0  0  0  0
    3.1496   -2.9422    1.9357 H   0  0  0  0  0  0  0  0  0  0  0  0
    4.6297   -3.5722    1.2078 H   0  0  0  0  0  0  0  0  0  0  0  0
    4.5804   -1.9106    1.8031 H   0  0  0  0  0  0  0  0  0  0  0  0
    1.5264    3.0439    1.1208 H   0  0  0  0  0  0  0  0  0  0  0  0
    3.0668    2.4141    1.7138 H   0  0  0  0  0  0  0  0  0  0  0  0
    1.5981    1.4324    1.8435 H   0  0  0  0  0  0  0  0  0  0  0  0
    4.6722    0.4006   -2.3786 H   0  0  0  0  0  0  0  0  0  0  0  0
    4.9432    0.5839    1.9192 H   0  0  0  0  0  0  0  0  0  0  0  0
    7.1046    0.7254   -2.5459 H   0  0  0  0  0  0  0  0  0  0  0  0
    7.3800    0.9070    1.7494 H   0  0  0  0  0  0  0  0  0  0  0  0
    9.0032    1.0199   -1.4384 H   0  0  0  0  0  0  0  0  0  0  0  0
  1 12  1  0  0  0  0
  1 13  1  0  0  0  0
  2 13  1  0  0  0  0
  2 15  1  0  0  0  0
  3  9  1  0  0  0  0
  3 38  1  0  0  0  0
  4 10  1  0  0  0  0
  4 39  1  0  0  0  0
  5 11  1  0  0  0  0
  5 40  1  0  0  0  0
  6 14  1  0  0  0  0
  6 47  1  0  0  0  0
  7 14  2  0  0  0  0
  8 32  1  0  0  0  0
  8 60  1  0  0  0  0
  9 10  1  0  0  0  0
  9 11  1  0  0  0  0
  9 33  1  0  0  0  0
 10 12  1  0  0  0  0
 10 34  1  0  0  0  0
 11 13  1  0  0  0  0
 11 35  1  0  0  0  0
 12 14  1  0  0  0  0
 12 36  1  0  0  0  0
 13 37  1  0  0  0  0
 15 18  2  0  0  0  0
 15 19  1  0  0  0  0
 16 17  1  0  0  0  0
 16 20  2  0  0  0  0
 16 23  1  0  0  0  0
 17 21  2  0  0  0  0
 17 22  1  0  0  0  0
 18 21  1  0  0  0  0
 18 41  1  0  0  0  0
 19 22  2  0  0  0  0
 19 42  1  0  0  0  0
 20 24  1  0  0  0  0
 20 25  1  0  0  0  0
 21 43  1  0  0  0  0
 22 44  1  0  0  0  0
 23 26  1  0  0  0  0
 23 45  1  0  0  0  0
 23 46  1  0  0  0  0
 24 27  1  0  0  0  0
 24 48  1  0  0  0  0
 24 49  1  0  0  0  0
 25 28  2  0  0  0  0
 25 29  1  0  0  0  0
 26 50  1  0  0  0  0
 26 51  1  0  0  0  0
 26 52  1  0  0  0  0
 27 53  1  0  0  0  0
 27 54  1  0  0  0  0
 27 55  1  0  0  0  0
 28 30  1  0  0  0  0
 28 56  1  0  0  0  0
 29 31  2  0  0  0  0
 29 57  1  0  0  0  0
 30 32  2  0  0  0  0
 30 58  1  0  0  0  0
 31 32  1  0  0  0  0
 31 59  1  0  0  0  0
M  END
> <PUBCHEM_COMPOUND_CID>
10411193

> <PUBCHEM_CONFORMER_RMSD>
1

> <PUBCHEM_CONFORMER_DIVERSEORDER>
1
25
5
40
21
28
35
23
26
38
27
31
41
46
15
42
14
47
3
45
9
22
44
4
13
36
19
39
6
34
37
8
12
10
7
20
17
32
43
33
11
18
24
2
16
29
30

> <PUBCHEM_MMFF94_PARTIAL_CHARGES>
43
1 -0.56
10 0.28
11 0.28
12 0.34
13 0.56
14 0.66
15 0.08
16 -0.17
17 0.03
18 -0.15
19 -0.15
2 -0.36
20 -0.17
21 -0.15
22 -0.15
23 0.14
24 0.14
25 0.03
28 -0.15
29 -0.15
3 -0.68
30 -0.15
31 -0.15
32 0.08
38 0.4
39 0.4
4 -0.68
40 0.4
41 0.15
42 0.15
43 0.15
44 0.15
47 0.5
5 -0.68
56 0.15
57 0.15
58 0.15
59 0.15
6 -0.65
60 0.45
7 -0.57
8 -0.53
9 0.28

> <PUBCHEM_EFFECTIVE_ROTOR_COUNT>
8.2

> <PUBCHEM_PHARMACOPHORE_FEATURES>
17
1 1 acceptor
1 2 acceptor
1 26 hydrophobe
1 27 hydrophobe
1 3 acceptor
1 3 donor
1 4 acceptor
1 4 donor
1 5 acceptor
1 5 donor
1 6 acceptor
1 7 acceptor
1 8 donor
3 6 7 14 anion
6 1 9 10 11 12 13 rings
6 15 17 18 19 21 22 rings
6 25 28 29 30 31 32 rings

> <PUBCHEM_HEAVY_ATOM_COUNT>
32

> <PUBCHEM_ATOM_DEF_STEREO_COUNT>
5

> <PUBCHEM_ATOM_UDEF_STEREO_COUNT>
0

> <PUBCHEM_BOND_DEF_STEREO_COUNT>
1

> <PUBCHEM_BOND_UDEF_STEREO_COUNT>
0

> <PUBCHEM_ISOTOPIC_ATOM_COUNT>
0

> <PUBCHEM_COMPONENT_COUNT>
1

> <PUBCHEM_CACTVS_TAUTO_COUNT>
2

> <PUBCHEM_CONFORMER_ID>
009EDCB900000001

> <PUBCHEM_MMFF94_ENERGY>
100.6097

> <PUBCHEM_FEATURE_SELFOVERLAP>
86.406

> <PUBCHEM_SHAPE_FINGERPRINT>
10 15 16588025727401349007
100830 39 18411138038938192205
10190206 1 17988095426315662952
10595046 47 18409164390092254403
10670039 82 18411133645624491681
10730089 173 18413389847758173069
10906281 52 17676500462475302822
11477941 20 18201992266324840509
11578080 2 17387672939803617069
12107183 9 17903349316920168115
12107698 1 18340766039459946629
13560911 43 18411136956965305761
13726171 33 18199192785409376513
13911987 19 16917068858790707159
14118638 360 18411138017589982291
14251764 18 18040711494004676894
14394314 77 18340773637595833945
14739800 52 18337655469377648946
14931854 50 18271240522006813885
15183329 4 18341896290179066792
15238133 3 18259987106838276116
15289351 153 18411131408547612186
15419008 47 17632294600974073576
15604295 49 18199183074794658072
1577012 14 18410852127861339535
15961568 22 18409450267494658061
16728433 281 18200611202617333120
18608769 82 18339082695985068139
19611394 137 17971203762316722139
21033648 144 18114174203900175839
21033648 29 18199173170477838488
21859007 373 18201429303549827152
22122407 14 18041574649445702180
23559900 14 18271796939652568889
23569914 152 16980979943666197340
23576562 1 17058914732402844509
2838139 119 18411133670935216877
3009799 131 17917433159666622746
4058900 60 18113908152256845002
4073 2 17967536791331207803
4144715 1 18337117773901226859
44249763 50 17703210932370721122
445580 204 18335422369714322153
445580 37 18410019848787426188
44802255 64 17917715742281322678
5104073 3 18040436542614109531
54039377 194 11312052175599483893
6201320 215 18271799078546250008
9953998 17 7853576781691575182
999808 66 11599720723221861597

> <PUBCHEM_SHAPE_MULTIPOLES>
611.59
21.09
3.1
1.22
5.96
0.92
0.06
8.43
-4.49
-3.35
0.56
1.15
-0.06
-0.93

> <PUBCHEM_SHAPE_SELFOVERLAP>
1304.509

> <PUBCHEM_SHAPE_VOLUME>
337

> <PUBCHEM_COORDINATE_TYPE>
2
5
10

$$$$
