REMARK  Name = 10411087
REMARK  12 active torsions:
REMARK  status: ('A' for Active; 'I' for Inactive)
REMARK    1  A    between atoms: C_1  and  C_9
REMARK    2  A    between atoms: C_2  and  C_26
REMARK    3  A    between atoms: C_4  and  O_22
REMARK    4  A    between atoms: C_5  and  O_24
REMARK    5  A    between atoms: C_14  and  O_18
REMARK    6  A    between atoms: C_16  and  O_20
REMARK    7  A    between atoms: C_26  and  C_28
REMARK    8  A    between atoms: C_27  and  C_30
REMARK    9  A    between atoms: C_30  and  C_31
REMARK   10  A    between atoms: C_31  and  C_32
REMARK   11  A    between atoms: C_32  and  C_33
REMARK   12  A    between atoms: C_33  and  O_36
REMARK                            x       y       z     vdW  Elec       q    Type
REMARK                         _______ _______ _______ _____ _____    ______ ____
ROOT
ATOM      1  C   UNL     1      -2.599   0.697   0.232  0.00  0.00    +0.017 C 
ATOM      2  C   UNL     1      -3.177  -0.564   0.296  0.00  0.00    +0.018 C 
ATOM      3  C   UNL     1      -3.412   1.820   0.085  0.00  0.00    +0.002 C 
ATOM      4  C   UNL     1      -4.555  -0.721   0.216  0.00  0.00    +0.163 C 
ATOM      5  C   UNL     1      -5.368   0.402   0.069  0.00  0.00    +0.167 C 
ATOM      6  C   UNL     1      -4.797   1.673   0.004  0.00  0.00    +0.040 C 
ENDROOT
BRANCH   1   9
ATOM      7  O   UNL     1      -0.734   2.005  -0.503  0.00  0.00    -0.474 OA
ATOM      8  O   UNL     1       1.527   0.971   2.761  0.00  0.00    -0.291 OA
ATOM      9  C   UNL     1      -1.099   0.884   0.317  0.00  0.00    +0.196 C 
ATOM     10  C   UNL     1      -0.651   1.094   1.762  0.00  0.00    +0.117 C 
ATOM     11  C   UNL     1       0.844   1.282   1.792  0.00  0.00    +0.183 C 
ATOM     12  C   UNL     1       1.437   1.933   0.607  0.00  0.00    +0.103 C 
ATOM     13  C   UNL     1       0.609   2.279  -0.466  0.00  0.00    +0.148 C 
ATOM     14  C   UNL     1       2.800   2.240   0.574  0.00  0.00    +0.142 C 
ATOM     15  C   UNL     1       1.141   2.963  -1.560  0.00  0.00    +0.074 C 
ATOM     16  C   UNL     1       2.501   3.272  -1.594  0.00  0.00    +0.140 C 
ATOM     17  C   UNL     1       3.329   2.907  -0.532  0.00  0.00    +0.073 C 
BRANCH  14  18
ATOM     18  O   UNL     1       3.650   1.923   1.590  0.00  0.00    -0.505 OA
ATOM     19  H   UNL     1       3.328   1.475   2.347  0.00  0.00    +0.292 HD
ENDBRANCH  14  18
BRANCH  16  20
ATOM     20  O   UNL     1       3.022   3.930  -2.666  0.00  0.00    -0.505 OA
ATOM     21  H   UNL     1       2.466   4.176  -3.380  0.00  0.00    +0.292 HD
ENDBRANCH  16  20
ENDBRANCH   1   9
BRANCH   4  22
ATOM     22  O   UNL     1      -5.119  -1.961   0.280  0.00  0.00    -0.503 OA
ATOM     23  H   UNL     1      -4.576  -2.719   0.379  0.00  0.00    +0.292 HD
ENDBRANCH   4  22
BRANCH   5  24
ATOM     24  O   UNL     1      -6.722   0.273  -0.010  0.00  0.00    -0.503 OA
ATOM     25  H   UNL     1      -7.115  -0.577   0.032  0.00  0.00    +0.292 HD
ENDBRANCH   5  24
BRANCH   2  26
ATOM     26  C   UNL     1      -2.302  -1.782   0.454  0.00  0.00    +0.055 C 
BRANCH  26  28
ATOM     27  C   UNL     1      -0.739  -3.044  -1.136  0.00  0.00    -0.048 C 
ATOM     28  C   UNL     1      -1.871  -2.364  -0.863  0.00  0.00    -0.030 C 
ATOM     29  C   UNL     1      -0.469  -3.529  -2.537  0.00  0.00    +0.026 C 
BRANCH  27  30
ATOM     30  C   UNL     1       0.332  -3.373  -0.120  0.00  0.00    +0.022 C 
BRANCH  30  31
ATOM     31  C   UNL     1       1.675  -2.717  -0.465  0.00  0.00    +0.007 C 
BRANCH  31  32
ATOM     32  C   UNL     1       2.753  -3.094   0.560  0.00  0.00    +0.027 C 
BRANCH  32  33
ATOM     33  C   UNL     1       4.145  -2.496   0.272  0.00  0.00    +0.088 C 
ATOM     34  C   UNL     1       5.132  -2.950   1.353  0.00  0.00    +0.029 C 
ATOM     35  C   UNL     1       4.672  -2.884  -1.111  0.00  0.00    +0.029 C 
BRANCH  33  36
ATOM     36  O   UNL     1       4.046  -1.072   0.338  0.00  0.00    -0.387 OA
ATOM     37  H   UNL     1       3.713  -0.810   1.210  0.00  0.00    +0.210 HD
ENDBRANCH  33  36
ENDBRANCH  32  33
ENDBRANCH  31  32
ENDBRANCH  30  31
ENDBRANCH  27  30
ENDBRANCH  26  28
ENDBRANCH   2  26
TORSDOF 12
