REMARK  Name = 10412869
REMARK  14 active torsions:
REMARK  status: ('A' for Active; 'I' for Inactive)
REMARK    1  A    between atoms: N_2  and  C_19
REMARK    2  A    between atoms: C_3  and  C_6
REMARK    3  A    between atoms: N_5  and  O_7
REMARK    4  A    between atoms: C_6  and  C_9
REMARK    5  A    between atoms: C_9  and  C_11
REMARK    6  A    between atoms: C_16  and  O_17
REMARK    7  A    between atoms: C_19  and  C_20
REMARK    8  A    between atoms: C_20  and  S_21
REMARK    9  A    between atoms: S_21  and  S_22
REMARK   10  A    between atoms: S_22  and  C_23
REMARK   11  A    between atoms: C_23  and  C_24
REMARK   12  A    between atoms: C_24  and  N_26
REMARK   13  A    between atoms: C_27  and  C_30
REMARK   14  A    between atoms: C_30  and  O_31
REMARK                            x       y       z     vdW  Elec       q    Type
REMARK                         _______ _______ _______ _____ _____    ______ ____
ROOT
ATOM      1  O   UNL     1      -4.590  -1.424  -1.421  0.00  0.00    -0.269 OA
ATOM      2  N   UNL     1      -2.954  -2.000   0.163  0.00  0.00    -0.299 N 
ATOM      3  C   UNL     1      -3.913  -1.210  -0.428  0.00  0.00    +0.263 C 
ATOM      4  H   UNL     1      -2.501  -1.665   0.970  0.00  0.00    +0.150 HD
ENDROOT
BRANCH   3   6
ATOM      5  N   UNL     1      -4.473   0.002   1.532  0.00  0.00    -0.086 NA
ATOM      6  C   UNL     1      -4.110   0.093   0.292  0.00  0.00    +0.154 C 
BRANCH   5   7
ATOM      7  O   UNL     1      -4.618   1.264   2.109  0.00  0.00    -0.409 OA
ATOM      8  H   UNL     1      -4.878   1.342   3.005  0.00  0.00    +0.328 HD
ENDBRANCH   5   7
BRANCH   6   9
ATOM      9  C   UNL     1      -3.849   1.349  -0.504  0.00  0.00    +0.080 C 
BRANCH   9  11
ATOM     10 BR   UNL     1       1.163   1.164  -2.361  0.00  0.00    -0.046 Br
ATOM     11  C   UNL     1      -2.425   1.818  -0.368  0.00  0.00    -0.015 C 
ATOM     12  C   UNL     1      -1.452   1.365  -1.259  0.00  0.00    +0.006 C 
ATOM     13  C   UNL     1      -2.078   2.705   0.651  0.00  0.00    -0.001 C 
ATOM     14  C   UNL     1      -0.132   1.800  -1.132  0.00  0.00    +0.068 C 
ATOM     15  C   UNL     1      -0.759   3.140   0.778  0.00  0.00    +0.037 C 
ATOM     16  C   UNL     1       0.214   2.687  -0.113  0.00  0.00    +0.140 C 
BRANCH  16  17
ATOM     17  O   UNL     1       1.494   3.131   0.038  0.00  0.00    -0.505 OA
ATOM     18  H   UNL     1       2.163   2.840  -0.549  0.00  0.00    +0.292 HD
ENDBRANCH  16  17
ENDBRANCH   9  11
ENDBRANCH   6   9
ENDBRANCH   3   6
BRANCH   2  19
ATOM     19  C   UNL     1      -2.584  -3.299  -0.347  0.00  0.00    +0.102 C 
BRANCH  19  20
ATOM     20  C   UNL     1      -1.133  -3.661  -0.058  0.00  0.00    +0.090 C 
BRANCH  20  21
ATOM     21  S   UNL     1       0.032  -2.500  -0.834  0.00  0.00    -0.080 S 
BRANCH  21  22
ATOM     22  S   UNL     1       1.839  -3.280  -0.245  0.00  0.00    -0.080 S 
BRANCH  22  23
ATOM     23  C   UNL     1       2.126  -2.411   1.315  0.00  0.00    +0.090 C 
BRANCH  23  24
ATOM     24  C   UNL     1       2.188  -0.901   1.130  0.00  0.00    +0.102 C 
BRANCH  24  26
ATOM     25  O   UNL     1       4.933  -0.211   1.878  0.00  0.00    -0.263 OA
ATOM     26  N   UNL     1       3.260  -0.483   0.268  0.00  0.00    -0.295 N 
ATOM     27  C   UNL     1       4.528  -0.180   0.726  0.00  0.00    +0.322 C 
ATOM     28  H   UNL     1       3.082  -0.411  -0.698  0.00  0.00    +0.150 HD
BRANCH  27  30
ATOM     29  O   UNL     1       5.140   0.291  -1.551  0.00  0.00    -0.240 OA
ATOM     30  C   UNL     1       5.471   0.234  -0.383  0.00  0.00    +0.392 C 
BRANCH  30  31
ATOM     31  O   UNL     1       6.681   0.517   0.122  0.00  0.00    -0.474 OA
ATOM     32  H   UNL     1       6.833   0.442   1.044  0.00  0.00    +0.296 HD
ENDBRANCH  30  31
ENDBRANCH  27  30
ENDBRANCH  24  26
ENDBRANCH  23  24
ENDBRANCH  22  23
ENDBRANCH  21  22
ENDBRANCH  20  21
ENDBRANCH  19  20
ENDBRANCH   2  19
TORSDOF 14
