10410865
  -OEChem-03292013303D

 47 52  0     1  0  0  0  0  0999 V2000
    0.5170   -0.1243   -2.7256 S   0  0  0  0  0  0  0  0  0  0  0  0
   -0.9045    1.3360   -2.3968 S   0  0  0  0  0  0  0  0  0  0  0  0
    3.1992    2.6233    0.1289 O   0  0  0  0  0  0  0  0  0  0  0  0
    0.3192    2.5022    0.7344 O   0  0  0  0  0  0  0  0  0  0  0  0
   -0.6171   -2.4935   -0.3259 O   0  0  0  0  0  0  0  0  0  0  0  0
   -3.1172   -2.7955    0.7450 O   0  0  0  0  0  0  0  0  0  0  0  0
    5.0285    1.1104    1.6310 O   0  0  0  0  0  0  0  0  0  0  0  0
    4.5105   -2.5821    0.9936 O   0  0  0  0  0  0  0  0  0  0  0  0
   -5.1296    2.0447    1.0793 O   0  0  0  0  0  0  0  0  0  0  0  0
    1.0941    0.4701   -0.1092 N   0  0  0  0  0  0  0  0  0  0  0  0
   -1.4414   -0.3049   -0.2779 N   0  0  0  0  0  0  0  0  0  0  0  0
    0.8248   -0.6594   -1.0028 C   0  0  2  0  0  0  0  0  0  0  0  0
   -1.1638    1.1105   -0.5989 C   0  0  2  0  0  0  0  0  0  0  0  0
    2.4036    0.3802    0.5346 C   0  0  1  0  0  0  0  0  0  0  0  0
    2.6981   -1.1230    0.4423 C   0  0  1  0  0  0  0  0  0  0  0  0
    2.0711   -1.5439   -0.8968 C   0  0  0  0  0  0  0  0  0  0  0  0
   -2.7594   -0.4569    0.3266 C   0  0  1  0  0  0  0  0  0  0  0  0
   -2.3939    1.8665   -0.0679 C   0  0  0  0  0  0  0  0  0  0  0  0
   -3.4792    0.8024   -0.1678 C   0  0  2  0  0  0  0  0  0  0  0  0
    0.1388    1.4587    0.1162 C   0  0  0  0  0  0  0  0  0  0  0  0
   -0.4672   -1.2856   -0.4709 C   0  0  0  0  0  0  0  0  0  0  0  0
    3.4409    1.2530   -0.1868 C   0  0  2  0  0  0  0  0  0  0  0  0
    4.1643   -1.4946    0.5277 C   0  0  0  0  0  0  0  0  0  0  0  0
   -3.6144   -1.6835    0.0032 C   0  0  2  0  0  0  0  0  0  0  0  0
    4.8670    0.8912    0.2290 C   0  0  2  0  0  0  0  0  0  0  0  0
    5.1806   -0.5618   -0.0945 C   0  0  0  0  0  0  0  0  0  0  0  0
   -4.7447    0.9702    0.6323 C   0  0  0  0  0  0  0  0  0  0  0  0
   -5.0508   -1.4497    0.4287 C   0  0  0  0  0  0  0  0  0  0  0  0
   -5.5745   -0.2607    0.7691 C   0  0  0  0  0  0  0  0  0  0  0  0
    2.2951    0.7096    1.5751 H   0  0  0  0  0  0  0  0  0  0  0  0
    2.1721   -1.6334    1.2609 H   0  0  0  0  0  0  0  0  0  0  0  0
    2.7818   -1.3540   -1.7113 H   0  0  0  0  0  0  0  0  0  0  0  0
    1.8499   -2.6164   -0.9101 H   0  0  0  0  0  0  0  0  0  0  0  0
   -2.5837   -0.4085    1.4120 H   0  0  0  0  0  0  0  0  0  0  0  0
   -2.6379    2.7713   -0.6344 H   0  0  0  0  0  0  0  0  0  0  0  0
   -2.2634    2.1699    0.9788 H   0  0  0  0  0  0  0  0  0  0  0  0
   -3.7746    0.7030   -1.2229 H   0  0  0  0  0  0  0  0  0  0  0  0
    3.3511    1.1520   -1.2754 H   0  0  0  0  0  0  0  0  0  0  0  0
   -3.5750   -1.9392   -1.0608 H   0  0  0  0  0  0  0  0  0  0  0  0
    5.5844    1.5480   -0.2759 H   0  0  0  0  0  0  0  0  0  0  0  0
    6.1658   -0.8261    0.3062 H   0  0  0  0  0  0  0  0  0  0  0  0
    5.1842   -0.7317   -1.1761 H   0  0  0  0  0  0  0  0  0  0  0  0
   -5.6912   -2.3268    0.4879 H   0  0  0  0  0  0  0  0  0  0  0  0
   -6.5975   -0.1584    1.1095 H   0  0  0  0  0  0  0  0  0  0  0  0
    2.3343    2.8620   -0.2445 H   0  0  0  0  0  0  0  0  0  0  0  0
   -3.1772   -2.5837    1.6925 H   0  0  0  0  0  0  0  0  0  0  0  0
    4.7956    2.0378    1.8086 H   0  0  0  0  0  0  0  0  0  0  0  0
  1  2  1  0  0  0  0
  1 12  1  0  0  0  0
  2 13  1  0  0  0  0
  3 22  1  0  0  0  0
  3 45  1  0  0  0  0
  4 20  2  0  0  0  0
  5 21  2  0  0  0  0
  6 24  1  0  0  0  0
  6 46  1  0  0  0  0
  7 25  1  0  0  0  0
  7 47  1  0  0  0  0
  8 23  2  0  0  0  0
  9 27  2  0  0  0  0
 10 12  1  0  0  0  0
 10 14  1  0  0  0  0
 10 20  1  0  0  0  0
 11 13  1  0  0  0  0
 11 17  1  0  0  0  0
 11 21  1  0  0  0  0
 12 16  1  0  0  0  0
 12 21  1  0  0  0  0
 13 18  1  0  0  0  0
 13 20  1  0  0  0  0
 14 15  1  0  0  0  0
 14 22  1  0  0  0  0
 14 30  1  0  0  0  0
 15 16  1  0  0  0  0
 15 23  1  0  0  0  0
 15 31  1  0  0  0  0
 16 32  1  0  0  0  0
 16 33  1  0  0  0  0
 17 19  1  0  0  0  0
 17 24  1  0  0  0  0
 17 34  1  0  0  0  0
 18 19  1  0  0  0  0
 18 35  1  0  0  0  0
 18 36  1  0  0  0  0
 19 27  1  0  0  0  0
 19 37  1  0  0  0  0
 22 25  1  0  0  0  0
 22 38  1  0  0  0  0
 23 26  1  0  0  0  0
 24 28  1  0  0  0  0
 24 39  1  0  0  0  0
 25 26  1  0  0  0  0
 25 40  1  0  0  0  0
 26 41  1  0  0  0  0
 26 42  1  0  0  0  0
 27 29  1  0  0  0  0
 28 29  2  0  0  0  0
 28 43  1  0  0  0  0
 29 44  1  0  0  0  0
M  END
> <PUBCHEM_COMPOUND_CID>
10410865

> <PUBCHEM_CONFORMER_RMSD>
0.6

> <PUBCHEM_CONFORMER_DIVERSEORDER>
1
2
4
3

> <PUBCHEM_MMFF94_PARTIAL_CHARGES>
32
1 -0.23
10 -0.66
11 -0.66
12 0.59
13 0.59
14 0.3
15 0.06
17 0.3
19 0.06
2 -0.23
20 0.57
21 0.57
22 0.28
23 0.45
24 0.42
25 0.28
26 0.06
27 0.49
28 -0.29
29 -0.14
3 -0.68
4 -0.57
43 0.15
44 0.15
45 0.4
46 0.4
47 0.4
5 -0.57
6 -0.68
7 -0.68
8 -0.57
9 -0.57

> <PUBCHEM_EFFECTIVE_ROTOR_COUNT>
1.6

> <PUBCHEM_PHARMACOPHORE_FEATURES>
15
1 3 acceptor
1 3 donor
1 4 acceptor
1 5 acceptor
1 6 acceptor
1 6 donor
1 7 acceptor
1 7 donor
1 8 acceptor
1 9 acceptor
5 10 12 14 15 16 rings
5 11 13 17 18 19 rings
6 14 15 22 23 25 26 rings
6 17 19 24 27 28 29 rings
8 1 2 10 11 12 13 20 21 rings

> <PUBCHEM_HEAVY_ATOM_COUNT>
29

> <PUBCHEM_ATOM_DEF_STEREO_COUNT>
9

> <PUBCHEM_ATOM_UDEF_STEREO_COUNT>
0

> <PUBCHEM_BOND_DEF_STEREO_COUNT>
0

> <PUBCHEM_BOND_UDEF_STEREO_COUNT>
0

> <PUBCHEM_ISOTOPIC_ATOM_COUNT>
0

> <PUBCHEM_COMPONENT_COUNT>
1

> <PUBCHEM_CACTVS_TAUTO_COUNT>
6

> <PUBCHEM_CONFORMER_ID>
009EDB7100000001

> <PUBCHEM_MMFF94_ENERGY>
98.2226

> <PUBCHEM_FEATURE_SELFOVERLAP>
76.488

> <PUBCHEM_SHAPE_FINGERPRINT>
10 15 18339631352714902056
10675989 125 16606589547013526877
10764073 3 18195810656885865663
10863032 1 18410574010931830400
10906281 52 17988095387355008281
11045977 3 18413389821666667897
11135609 12 17315368174581988787
11552529 35 18269268131158538679
11578080 2 13684923514292458521
12107183 9 18050286959954857171
12236239 1 17676776404631926406
12422481 6 18114749231106077701
12633257 1 18340488863645201083
12788726 201 17703519800322299192
12892183 10 18267021841639713867
13140716 1 18411981334365550987
13544653 18 18186805789735062171
13583140 156 18337093631699671508
13782708 43 17386560246794927154
14341114 176 18410578366334688784
14341114 328 18334575771831548920
14787075 74 18408886264899332091
14790565 3 17905614659187866660
14955137 171 17846505850349571500
15196674 1 18411700984759916683
15788980 27 17167863075882183189
1601671 61 17632863027031609528
16945 1 18126275578571209405
17349148 13 18202003235465254373
17980427 23 18413111675959752709
1813 80 16877662370197622806
18222031 100 16732704947535349774
20600515 1 18262249879929380061
20691752 17 17458343065250335907
21033648 29 18041825234616960077
21267235 1 18411705349174780466
21756936 100 17916576682953152836
21859007 373 17679014903723765525
23559900 14 18198926754506801638
350125 39 18408605872950751348
3633792 109 18334845101447829221
3680242 22 18339089185232272755
392239 28 18341619170257184915
4073 2 18115031912757836178
5104073 3 18412542098122636066
513202 73 16806723954348228067
59755656 520 14117800223708143221

> <PUBCHEM_SHAPE_MULTIPOLES>
553.46
11.25
2.64
1.5
1.13
0.39
-1.17
1.14
5.52
0.08
0.47
-0.24
-0.36
0.07

> <PUBCHEM_SHAPE_SELFOVERLAP>
1215.382

> <PUBCHEM_SHAPE_VOLUME>
301.1

> <PUBCHEM_COORDINATE_TYPE>
2
5
10

$$$$
