10413431
  -OEChem-03292013303D

 66 68  0     1  0  0  0  0  0999 V2000
    5.3484    3.6104   -0.1639 Cl  0  0  0  0  0  0  0  0  0  0  0  0
   -0.9298   -2.8408   -1.8401 O   0  0  0  0  0  0  0  0  0  0  0  0
    1.7638   -2.3158    1.4991 O   0  0  0  0  0  0  0  0  0  0  0  0
    1.5375   -1.7395   -0.7336 N   0  0  0  0  0  0  0  0  0  0  0  0
   -1.6059   -2.4082    0.3356 N   0  0  0  0  0  0  0  0  0  0  0  0
    3.4293   -4.3405    0.2137 N   0  0  0  0  0  0  0  0  0  0  0  0
   -5.7857   -1.1621    0.2441 N   0  0  0  0  0  0  0  0  0  0  0  0
   -5.8564    0.4808    1.9951 N   0  0  0  0  0  0  0  0  0  0  0  0
   -7.5626    0.3045    0.4943 N   0  0  0  0  0  0  0  0  0  0  0  0
    0.2225   -1.1136   -0.5911 C   0  0  1  0  0  0  0  0  0  0  0  0
    0.0397   -0.0055   -1.6458 C   0  0  0  0  0  0  0  0  0  0  0  0
   -1.0246    0.9848   -1.2852 C   0  0  0  0  0  0  0  0  0  0  0  0
   -0.7425    2.1446   -0.5451 C   0  0  0  0  0  0  0  0  0  0  0  0
    3.5290   -2.9051   -0.0527 C   0  0  1  0  0  0  0  0  0  0  0  0
   -0.8131   -2.2166   -0.7866 C   0  0  0  0  0  0  0  0  0  0  0  0
    2.1912   -2.2895    0.3460 C   0  0  0  0  0  0  0  0  0  0  0  0
    4.6740   -2.2992    0.7722 C   0  0  0  0  0  0  0  0  0  0  0  0
   -1.7932    3.0412   -0.2368 C   0  0  0  0  0  0  0  0  0  0  0  0
   -2.3238    0.7129   -1.7151 C   0  0  0  0  0  0  0  0  0  0  0  0
   -2.6681   -3.3848    0.3671 C   0  0  0  0  0  0  0  0  0  0  0  0
    0.5591    2.4342   -0.1042 C   0  0  0  0  0  0  0  0  0  0  0  0
   -3.0948    2.7518   -0.6778 C   0  0  0  0  0  0  0  0  0  0  0  0
   -3.3569    1.5948   -1.4122 C   0  0  0  0  0  0  0  0  0  0  0  0
    4.8440   -0.8165    0.5380 C   0  0  0  0  0  0  0  0  0  0  0  0
   -4.0060   -2.8114   -0.0945 C   0  0  0  0  0  0  0  0  0  0  0  0
   -1.5113    4.2011    0.5032 C   0  0  0  0  0  0  0  0  0  0  0  0
    0.8209    3.5912    0.6303 C   0  0  0  0  0  0  0  0  0  0  0  0
   -0.2123    4.4729    0.9335 C   0  0  0  0  0  0  0  0  0  0  0  0
   -4.4854   -1.6225    0.7343 C   0  0  0  0  0  0  0  0  0  0  0  0
    5.6921   -0.3625   -0.4722 C   0  0  0  0  0  0  0  0  0  0  0  0
    4.1515    0.0987    1.3308 C   0  0  0  0  0  0  0  0  0  0  0  0
    5.8478    1.0065   -0.6894 C   0  0  0  0  0  0  0  0  0  0  0  0
    4.3071    1.4677    1.1137 C   0  0  0  0  0  0  0  0  0  0  0  0
    5.1552    1.9216    0.1036 C   0  0  0  0  0  0  0  0  0  0  0  0
   -6.3410   -0.1856    0.8916 C   0  0  0  0  0  0  0  0  0  0  0  0
    0.1582   -0.6928    0.4192 H   0  0  0  0  0  0  0  0  0  0  0  0
    0.9905    0.5004   -1.8506 H   0  0  0  0  0  0  0  0  0  0  0  0
   -0.2068   -0.4534   -2.6197 H   0  0  0  0  0  0  0  0  0  0  0  0
    1.9269   -1.8269   -1.6676 H   0  0  0  0  0  0  0  0  0  0  0  0
    3.7267   -2.7570   -1.1206 H   0  0  0  0  0  0  0  0  0  0  0  0
    5.6185   -2.8072    0.5338 H   0  0  0  0  0  0  0  0  0  0  0  0
    4.5131   -2.4706    1.8458 H   0  0  0  0  0  0  0  0  0  0  0  0
   -2.5490   -0.1830   -2.2878 H   0  0  0  0  0  0  0  0  0  0  0  0
   -1.4539   -1.8445    1.1664 H   0  0  0  0  0  0  0  0  0  0  0  0
   -2.3940   -4.2375   -0.2635 H   0  0  0  0  0  0  0  0  0  0  0  0
   -2.7461   -3.7424    1.3994 H   0  0  0  0  0  0  0  0  0  0  0  0
    1.4025    1.7781   -0.2940 H   0  0  0  0  0  0  0  0  0  0  0  0
   -3.9182    3.4261   -0.4514 H   0  0  0  0  0  0  0  0  0  0  0  0
   -4.3684    1.3816   -1.7453 H   0  0  0  0  0  0  0  0  0  0  0  0
   -3.9282   -2.5032   -1.1452 H   0  0  0  0  0  0  0  0  0  0  0  0
   -4.7619   -3.6057   -0.0612 H   0  0  0  0  0  0  0  0  0  0  0  0
   -2.3034    4.9044    0.7518 H   0  0  0  0  0  0  0  0  0  0  0  0
    2.7275   -4.7532   -0.4000 H   0  0  0  0  0  0  0  0  0  0  0  0
    4.3118   -4.7936   -0.0204 H   0  0  0  0  0  0  0  0  0  0  0  0
    1.8308    3.8038    0.9683 H   0  0  0  0  0  0  0  0  0  0  0  0
   -0.0077    5.3730    1.5059 H   0  0  0  0  0  0  0  0  0  0  0  0
   -4.5650   -1.9364    1.7825 H   0  0  0  0  0  0  0  0  0  0  0  0
   -3.7548   -0.8084    0.6711 H   0  0  0  0  0  0  0  0  0  0  0  0
    6.2348   -1.0660   -1.0979 H   0  0  0  0  0  0  0  0  0  0  0  0
    3.4945   -0.2374    2.1280 H   0  0  0  0  0  0  0  0  0  0  0  0
    6.5115    1.3457   -1.4805 H   0  0  0  0  0  0  0  0  0  0  0  0
    3.7647    2.1688    1.7424 H   0  0  0  0  0  0  0  0  0  0  0  0
   -4.9639    0.2511    2.4174 H   0  0  0  0  0  0  0  0  0  0  0  0
   -6.3816    1.2368    2.4210 H   0  0  0  0  0  0  0  0  0  0  0  0
   -8.0479   -0.0853   -0.3066 H   0  0  0  0  0  0  0  0  0  0  0  0
   -8.0133    1.0680    0.9863 H   0  0  0  0  0  0  0  0  0  0  0  0
  1 34  1  0  0  0  0
  2 15  2  0  0  0  0
  3 16  2  0  0  0  0
  4 10  1  0  0  0  0
  4 16  1  0  0  0  0
  4 39  1  0  0  0  0
  5 15  1  0  0  0  0
  5 20  1  0  0  0  0
  5 44  1  0  0  0  0
  6 14  1  0  0  0  0
  6 53  1  0  0  0  0
  6 54  1  0  0  0  0
  7 29  1  0  0  0  0
  7 35  2  0  0  0  0
  8 35  1  0  0  0  0
  8 63  1  0  0  0  0
  8 64  1  0  0  0  0
  9 35  1  0  0  0  0
  9 65  1  0  0  0  0
  9 66  1  0  0  0  0
 10 11  1  0  0  0  0
 10 15  1  0  0  0  0
 10 36  1  0  0  0  0
 11 12  1  0  0  0  0
 11 37  1  0  0  0  0
 11 38  1  0  0  0  0
 12 13  1  0  0  0  0
 12 19  2  0  0  0  0
 13 18  1  0  0  0  0
 13 21  2  0  0  0  0
 14 16  1  0  0  0  0
 14 17  1  0  0  0  0
 14 40  1  0  0  0  0
 17 24  1  0  0  0  0
 17 41  1  0  0  0  0
 17 42  1  0  0  0  0
 18 22  1  0  0  0  0
 18 26  2  0  0  0  0
 19 23  1  0  0  0  0
 19 43  1  0  0  0  0
 20 25  1  0  0  0  0
 20 45  1  0  0  0  0
 20 46  1  0  0  0  0
 21 27  1  0  0  0  0
 21 47  1  0  0  0  0
 22 23  2  0  0  0  0
 22 48  1  0  0  0  0
 23 49  1  0  0  0  0
 24 30  2  0  0  0  0
 24 31  1  0  0  0  0
 25 29  1  0  0  0  0
 25 50  1  0  0  0  0
 25 51  1  0  0  0  0
 26 28  1  0  0  0  0
 26 52  1  0  0  0  0
 27 28  2  0  0  0  0
 27 55  1  0  0  0  0
 28 56  1  0  0  0  0
 29 57  1  0  0  0  0
 29 58  1  0  0  0  0
 30 32  1  0  0  0  0
 30 59  1  0  0  0  0
 31 33  2  0  0  0  0
 31 60  1  0  0  0  0
 32 34  2  0  0  0  0
 32 61  1  0  0  0  0
 33 34  1  0  0  0  0
 33 62  1  0  0  0  0
M  END
> <PUBCHEM_COMPOUND_CID>
10413431

> <PUBCHEM_CONFORMER_RMSD>
1.2

> <PUBCHEM_CONFORMER_DIVERSEORDER>
1
50
197
159
209
196
132
84
158
63
264
118
178
107
22
131
169
249
126
239
144
152
231
201
106
259
56
64
5
92
38
115
185
137
238
211
76
250
119
202
153
95
168
134
225
79
111
114
32
203
13
147
183
68
214
16
228
266
192
18
90
49
263
23
219
245
256
4
172
261
66
236
120
252
136
222
65
246
167
188
254
116
60
81
149
109
157
154
234
100
200
123
98
181
127
35
133
179
210
61
190
265
208
257
213
94
160
143
212
121
104
230
174
70
148
165
112
226
204
85
235
142
151
128
269
43
140
255
180
215
199
103
117
130
47
240
166
260
163
78
3
253
198
72
220
244
122
207
182
91
10
77
75
243
82
113
89
87
96
105
227
224
186
33
59
145
99
229
129
164
258
108
262
138
48
88
187
24
34
73
251
101
40
2
175
150
248
58
176
55
29
86
170
12
221
155
7
233
223
6
232
17
31
37
162
74
39
193
67
195
141
191
242
41
8
26
36
268
125
247
173
184
218
135
19
46
97
80
205
194
241
146
156
21
102
83
45
267
44
206
53
139
189
171
93
177
57
28
217
27
52
14
15
62
161
216
51
54
110
20
237
9
11
25
42
71
30
124
69

> <PUBCHEM_MMFF94_PARTIAL_CHARGES>
51
1 -0.18
10 0.36
11 0.14
12 -0.14
14 0.33
15 0.57
16 0.57
17 0.14
19 -0.15
2 -0.57
20 0.3
21 -0.15
22 -0.15
23 -0.15
24 -0.14
26 -0.15
27 -0.15
28 -0.15
29 0.25
3 -0.57
30 -0.15
31 -0.15
32 -0.15
33 -0.15
34 0.18
35 0.55
39 0.37
4 -0.73
43 0.15
44 0.37
47 0.15
48 0.15
49 0.15
5 -0.73
52 0.15
53 0.36
54 0.36
55 0.15
56 0.15
59 0.15
6 -0.99
60 0.15
61 0.15
62 0.15
63 0.4
64 0.4
65 0.4
66 0.4
7 -0.7
8 -0.85
9 -0.85

> <PUBCHEM_EFFECTIVE_ROTOR_COUNT>
13

> <PUBCHEM_PHARMACOPHORE_FEATURES>
12
1 2 acceptor
1 3 acceptor
1 4 donor
1 5 donor
1 6 cation
1 6 donor
1 8 donor
1 9 donor
4 7 8 9 35 cation
6 12 13 18 19 22 23 rings
6 13 18 21 26 27 28 rings
6 24 30 31 32 33 34 rings

> <PUBCHEM_HEAVY_ATOM_COUNT>
35

> <PUBCHEM_ATOM_DEF_STEREO_COUNT>
2

> <PUBCHEM_ATOM_UDEF_STEREO_COUNT>
0

> <PUBCHEM_BOND_DEF_STEREO_COUNT>
0

> <PUBCHEM_BOND_UDEF_STEREO_COUNT>
0

> <PUBCHEM_ISOTOPIC_ATOM_COUNT>
0

> <PUBCHEM_COMPONENT_COUNT>
1

> <PUBCHEM_CACTVS_TAUTO_COUNT>
8

> <PUBCHEM_CONFORMER_ID>
009EE57700000001

> <PUBCHEM_MMFF94_ENERGY>
85.0991

> <PUBCHEM_FEATURE_SELFOVERLAP>
60.98

> <PUBCHEM_SHAPE_FINGERPRINT>
10006869 2 18412259506444170599
10439779 11 18270694181224091753
12422481 6 18337393837497894147
12788726 201 18333723615929051658
13140716 1 17979071905652180637
13512321 179 17845673490277565193
14040221 97 17968376848527182172
14394314 77 18410018766836001665
14790565 3 17832428970329886348
15274700 259 17823394073795976853
15276724 80 18408601431527695863
15420108 30 18058734740205259719
15968369 153 18130490969093249488
16112460 7 18340494378952928075
17980427 23 18130793391179669047
18608769 82 18411418423741886546
19315092 285 16806427133975394664
20764821 26 17908953811803376440
3117164 225 18127129908181560329
392239 28 18265897960509873585
56638632 10 17983847067171185544
6004065 56 18048025561238619543

> <PUBCHEM_SHAPE_MULTIPOLES>
680.53
14.24
6.11
1.4
4.97
1.74
0.13
-1.38
-4.28
-1.55
-0.82
0.78
0.04
0.06

> <PUBCHEM_SHAPE_SELFOVERLAP>
1428.117

> <PUBCHEM_SHAPE_VOLUME>
382.4

> <PUBCHEM_COORDINATE_TYPE>
2
5
10

$$$$
