REMARK  Name = 10413492
REMARK  8 active torsions:
REMARK  status: ('A' for Active; 'I' for Inactive)
REMARK    1  A    between atoms: C_2  and  O_25
REMARK    2  A    between atoms: C_3  and  O_23
REMARK    3  A    between atoms: C_6  and  N_10
REMARK    4  A    between atoms: C_17  and  C_19
REMARK    5  A    between atoms: O_25  and  C_30
REMARK    6  A    between atoms: C_27  and  N_33
REMARK    7  A    between atoms: C_28  and  O_37
REMARK    8  A    between atoms: C_29  and  O_39
REMARK                            x       y       z     vdW  Elec       q    Type
REMARK                         _______ _______ _______ _____ _____    ______ ____
ROOT
ATOM      1  O   UNL     1       0.417  -0.615  -1.421  0.00  0.00    -0.337 OA
ATOM      2  C   UNL     1      -1.794  -0.600  -0.401  0.00  0.00    +0.172 C 
ATOM      3  C   UNL     1      -1.244  -1.362   0.806  0.00  0.00    +0.144 C 
ATOM      4  C   UNL     1      -0.966  -0.892  -1.659  0.00  0.00    +0.147 C 
ATOM      5  C   UNL     1       0.261  -1.144   0.938  0.00  0.00    +0.084 C 
ATOM      6  C   UNL     1       0.964  -1.428  -0.384  0.00  0.00    +0.209 C 
ATOM      7  C   UNL     1      -1.413  -0.034  -2.838  0.00  0.00    +0.035 C 
ENDROOT
BRANCH   6  10
ATOM      8  O   UNL     1       2.890  -3.306   0.340  0.00  0.00    -0.193 OA
ATOM      9  O   UNL     1       6.054   1.910   0.529  0.00  0.00    -0.270 OA
ATOM     10  N   UNL     1       2.371  -1.144  -0.294  0.00  0.00    -0.180 N 
ATOM     11  N   UNL     1       4.632  -1.857   0.162  0.00  0.00    -0.305 NA
ATOM     12  N   UNL     1       6.342  -0.319  -0.043  0.00  0.00    -0.255 N 
ATOM     13  C   UNL     1       2.845   0.131  -0.576  0.00  0.00    +0.083 C 
ATOM     14  C   UNL     1       3.283  -2.167   0.084  0.00  0.00    +0.275 C 
ATOM     15  C   UNL     1       4.137   0.455  -0.509  0.00  0.00    +0.066 C 
ATOM     16  C   UNL     1       5.016  -0.655  -0.112  0.00  0.00    +0.202 C 
ATOM     17  C   UNL     1       6.784   0.954   0.276  0.00  0.00    +0.247 C 
ATOM     18  H   UNL     1       7.012  -1.016  -0.229  0.00  0.00    +0.158 HD
BRANCH  17  19
ATOM     19  C   UNL     1       8.283   1.080   0.295  0.00  0.00    +0.028 C 
ATOM     20  C   UNL     1       9.108  -0.100   0.715  0.00  0.00    +0.035 C 
ATOM     21  C   UNL     1       8.772   2.292  -0.028  0.00  0.00    -0.026 C 
ATOM     22  C   UNL     1      10.211   2.692  -0.100  0.00  0.00    +0.031 C 
ENDBRANCH  17  19
ENDBRANCH   6  10
BRANCH   3  23
ATOM     23  O   UNL     1      -1.895  -0.896   1.985  0.00  0.00    -0.382 OA
ATOM     24  H   UNL     1      -2.852  -1.034   1.901  0.00  0.00    +0.210 HD
ENDBRANCH   3  23
BRANCH   2  25
ATOM     25  O   UNL     1      -3.155  -0.968  -0.613  0.00  0.00    -0.326 OA
BRANCH  25  30
ATOM     26  O   UNL     1      -4.398   1.018  -0.602  0.00  0.00    -0.333 OA
ATOM     27  C   UNL     1      -6.571   1.239   0.549  0.00  0.00    -0.000 C 
ATOM     28  C   UNL     1      -6.309  -0.110   1.247  0.00  0.00    +0.126 C 
ATOM     29  C   UNL     1      -5.281  -0.964   0.500  0.00  0.00    +0.192 C 
ATOM     30  C   UNL     1      -4.040  -0.144   0.144  0.00  0.00    +0.265 C 
ATOM     31  C   UNL     1      -5.271   1.928   0.078  0.00  0.00    +0.102 C 
ATOM     32  C   UNL     1      -4.531   2.664   1.196  0.00  0.00    +0.030 C 
BRANCH  27  33
ATOM     33  N   UNL     1      -7.435   1.022  -0.619  0.00  0.00    +0.389 N 
ATOM     34  C   UNL     1      -7.699   2.288  -1.299  0.00  0.00    -0.100 C 
ATOM     35  C   UNL     1      -8.687   0.386  -0.214  0.00  0.00    -0.100 C 
ATOM     36  H   UNL     1      -6.953   0.401  -1.269  0.00  0.00    -0.080 HD
ENDBRANCH  27  33
BRANCH  28  37
ATOM     37  O   UNL     1      -5.826   0.118   2.570  0.00  0.00    -0.384 OA
ATOM     38  H   UNL     1      -6.465   0.659   3.059  0.00  0.00    +0.210 HD
ENDBRANCH  28  37
BRANCH  29  39
ATOM     39  O   UNL     1      -5.856  -1.472  -0.704  0.00  0.00    -0.378 OA
ATOM     40  H   UNL     1      -6.645  -1.995  -0.490  0.00  0.00    +0.211 HD
ENDBRANCH  29  39
ENDBRANCH  25  30
ENDBRANCH   2  25
TORSDOF 8
