REMARK  Name = 10413431
REMARK  13 active torsions:
REMARK  status: ('A' for Active; 'I' for Inactive)
REMARK    1  A    between atoms: C_1  and  C_4
REMARK    2  A    between atoms: C_1  and  N_18
REMARK    3  A    between atoms: C_1  and  C_34
REMARK    4  A    between atoms: N_3  and  C_6
REMARK    5  A    between atoms: C_6  and  C_7
REMARK    6  A    between atoms: C_7  and  C_8
REMARK    7  A    between atoms: C_8  and  N_9
REMARK    8  A    between atoms: N_9  and  C_12
REMARK    9  A    between atoms: C_19  and  C_21
REMARK   10  A    between atoms: C_21  and  N_22
REMARK   11  A    between atoms: C_21  and  C_26
REMARK   12  A    between atoms: C_26  and  C_28
REMARK   13  A    between atoms: C_34  and  C_35
REMARK                            x       y       z     vdW  Elec       q    Type
REMARK                         _______ _______ _______ _____ _____    ______ ____
ROOT
ATOM      1  C   UNL     1       0.223  -1.114  -0.591  0.00  0.00    +0.153 C 
ENDROOT
BRANCH   1   4
ATOM      2  O   UNL     1      -0.930  -2.841  -1.840  0.00  0.00    -0.273 OA
ATOM      3  N   UNL     1      -1.606  -2.408   0.336  0.00  0.00    -0.303 N 
ATOM      4  C   UNL     1      -0.813  -2.217  -0.787  0.00  0.00    +0.241 C 
ATOM      5  H   UNL     1      -1.439  -1.860   1.136  0.00  0.00    +0.149 HD
BRANCH   3   6
ATOM      6  C   UNL     1      -2.668  -3.385   0.367  0.00  0.00    +0.092 C 
BRANCH   6   7
ATOM      7  C   UNL     1      -4.006  -2.811  -0.095  0.00  0.00    +0.048 C 
BRANCH   7   8
ATOM      8  C   UNL     1      -4.485  -1.623   0.734  0.00  0.00    +0.130 C 
BRANCH   8   9
ATOM      9  N   UNL     1      -5.786  -1.162   0.244  0.00  0.00    -0.240 NA
BRANCH   9  12
ATOM     10  N   UNL     1      -5.856   0.481   1.995  0.00  0.00    -0.370 N 
ATOM     11  N   UNL     1      -7.563   0.304   0.494  0.00  0.00    -0.370 N 
ATOM     12  C   UNL     1      -6.341  -0.186   0.892  0.00  0.00    +0.189 C 
ATOM     13  H   UNL     1      -4.987   0.226   2.381  0.00  0.00    +0.159 HD
ATOM     14  H   UNL     1      -6.379   1.212   2.398  0.00  0.00    +0.159 HD
ATOM     15  H   UNL     1      -8.020  -0.086  -0.285  0.00  0.00    +0.159 HD
ATOM     16  H   UNL     1      -7.980   1.046   0.989  0.00  0.00    +0.159 HD
ENDBRANCH   9  12
ENDBRANCH   8   9
ENDBRANCH   7   8
ENDBRANCH   6   7
ENDBRANCH   3   6
ENDBRANCH   1   4
BRANCH   1  18
ATOM     17  O   UNL     1       1.764  -2.316   1.499  0.00  0.00    -0.277 OA
ATOM     18  N   UNL     1       1.538  -1.740  -0.734  0.00  0.00    -0.300 N 
ATOM     19  C   UNL     1       2.191  -2.289   0.346  0.00  0.00    +0.202 C 
ATOM     20  H   UNL     1       1.964  -1.768  -1.621  0.00  0.00    +0.150 HD
BRANCH  19  21
ATOM     21  C   UNL     1       3.529  -2.905  -0.053  0.00  0.00    +0.017 C 
BRANCH  21  22
ATOM     22  N   UNL     1       3.429  -4.340   0.214  0.00  0.00    +0.388 N 
ATOM     23  H   UNL     1       2.667  -4.736  -0.337  0.00  0.00    -0.089 HD
ATOM     24  H   UNL     1       3.245  -4.490   1.206  0.00  0.00    -0.089 HD
ATOM     25  H   UNL     1       4.306  -4.795  -0.042  0.00  0.00    -0.089 HD
ENDBRANCH  21  22
BRANCH  21  26
ATOM     26  C   UNL     1       4.674  -2.299   0.772  0.00  0.00    +0.013 C 
BRANCH  26  28
ATOM     27 CL   UNL     1       5.348   3.610  -0.164  0.00  0.00    -0.082 Cl
ATOM     28  C   UNL     1       4.844  -0.817   0.538  0.00  0.00    -0.024 C 
ATOM     29  C   UNL     1       5.692  -0.362  -0.472  0.00  0.00    -0.003 C 
ATOM     30  C   UNL     1       4.152   0.099   1.331  0.00  0.00    -0.003 C 
ATOM     31  C   UNL     1       5.848   1.006  -0.689  0.00  0.00    +0.011 C 
ATOM     32  C   UNL     1       4.307   1.468   1.114  0.00  0.00    +0.011 C 
ATOM     33  C   UNL     1       5.155   1.922   0.104  0.00  0.00    +0.058 C 
ENDBRANCH  26  28
ENDBRANCH  21  26
ENDBRANCH  19  21
ENDBRANCH   1  18
BRANCH   1  34
ATOM     34  C   UNL     1       0.040  -0.005  -1.646  0.00  0.00    +0.055 C 
BRANCH  34  35
ATOM     35  C   UNL     1      -1.025   0.985  -1.285  0.00  0.00    -0.020 C 
ATOM     36  C   UNL     1      -0.743   2.145  -0.545  0.00  0.00    -0.004 C 
ATOM     37  C   UNL     1      -1.793   3.041  -0.237  0.00  0.00    -0.000 C 
ATOM     38  C   UNL     1      -2.324   0.713  -1.715  0.00  0.00    -0.004 C 
ATOM     39  C   UNL     1       0.559   2.434  -0.104  0.00  0.00    -0.000 C 
ATOM     40  C   UNL     1      -3.095   2.752  -0.678  0.00  0.00    -0.000 C 
ATOM     41  C   UNL     1      -3.357   1.595  -1.412  0.00  0.00    -0.000 C 
ATOM     42  C   UNL     1      -1.511   4.201   0.503  0.00  0.00    -0.000 C 
ATOM     43  C   UNL     1       0.821   3.591   0.630  0.00  0.00    -0.000 C 
ATOM     44  C   UNL     1      -0.212   4.473   0.933  0.00  0.00    -0.000 C 
ENDBRANCH  34  35
ENDBRANCH   1  34
TORSDOF 13
