REMARK  Name = 10412012
REMARK  3 active torsions:
REMARK  status: ('A' for Active; 'I' for Inactive)
REMARK    1  A    between atoms: C_19  and  O_29
REMARK    2  A    between atoms: C_20  and  O_27
REMARK    3  A    between atoms: O_29  and  C_31
REMARK                            x       y       z     vdW  Elec       q    Type
REMARK                         _______ _______ _______ _____ _____    ______ ____
ROOT
ATOM      1  S   UNL     1       0.007  -1.539  -2.208  0.00  0.00    -0.054 S 
ATOM      2  S   UNL     1      -1.025   0.242  -2.447  0.00  0.00    -0.054 S 
ATOM      3  O   UNL     1       0.669   2.130   0.054  0.00  0.00    -0.272 OA
ATOM      4  O   UNL     1      -1.409  -2.514   0.912  0.00  0.00    -0.272 OA
ATOM      5  O   UNL     1       4.930  -1.785   0.957  0.00  0.00    -0.448 OA
ATOM      6  O   UNL     1      -5.625   1.552   0.932  0.00  0.00    -0.448 OA
ATOM      7  N   UNL     1       0.964  -0.182  -0.057  0.00  0.00    -0.258 N 
ATOM      8  N   UNL     1      -1.749  -0.351   0.104  0.00  0.00    -0.259 N 
ATOM      9  C   UNL     1       0.344  -1.459  -0.403  0.00  0.00    +0.182 C 
ATOM     10  C   UNL     1      -1.185   0.741  -0.685  0.00  0.00    +0.182 C 
ATOM     11  C   UNL     1       2.392  -0.288   0.276  0.00  0.00    +0.143 C 
ATOM     12  C   UNL     1      -3.141  -0.123   0.521  0.00  0.00    +0.129 C 
ATOM     13  C   UNL     1       1.316  -2.532   0.082  0.00  0.00    +0.065 C 
ATOM     14  C   UNL     1      -2.123   1.927  -0.473  0.00  0.00    +0.065 C 
ATOM     15  C   UNL     1       0.232   1.003  -0.155  0.00  0.00    +0.254 C 
ATOM     16  C   UNL     1      -1.011  -1.517   0.316  0.00  0.00    +0.254 C 
ATOM     17  C   UNL     1       2.582  -1.777   0.374  0.00  0.00    +0.018 C 
ATOM     18  C   UNL     1      -3.343   1.323   0.161  0.00  0.00    +0.017 C 
ATOM     19  C   UNL     1       3.313   0.337  -0.793  0.00  0.00    +0.216 C 
ATOM     20  C   UNL     1      -4.150  -1.040  -0.203  0.00  0.00    +0.158 C 
ATOM     21  C   UNL     1       3.730  -2.386   0.688  0.00  0.00    +0.173 C 
ATOM     22  C   UNL     1      -4.466   2.018   0.374  0.00  0.00    +0.173 C 
ATOM     23  C   UNL     1       4.788   0.062  -0.656  0.00  0.00    +0.059 C 
ATOM     24  C   UNL     1      -5.609  -0.713  -0.021  0.00  0.00    +0.045 C 
ATOM     25  C   UNL     1       5.428  -0.823   0.120  0.00  0.00    +0.179 C 
ATOM     26  C   UNL     1      -6.186   0.383   0.493  0.00  0.00    +0.178 C 
ENDROOT
BRANCH  20  27
ATOM     27  O   UNL     1      -3.982  -2.371   0.298  0.00  0.00    -0.378 OA
ATOM     28  H   UNL     1      -3.054  -2.637   0.205  0.00  0.00    +0.211 HD
ENDBRANCH  20  27
BRANCH  19  29
ATOM     29  O   UNL     1       3.173   1.760  -0.726  0.00  0.00    -0.445 OA
BRANCH  29  31
ATOM     30  O   UNL     1       4.110   1.762   1.385  0.00  0.00    -0.250 OA
ATOM     31  C   UNL     1       3.616   2.338   0.426  0.00  0.00    +0.318 C 
ATOM     32  C   UNL     1       3.408   3.821   0.355  0.00  0.00    +0.121 C 
ENDBRANCH  29  31
ENDBRANCH  19  29
TORSDOF 3
