REMARK  Name = 10410865
REMARK  3 active torsions:
REMARK  status: ('A' for Active; 'I' for Inactive)
REMARK    1  A    between atoms: C_19  and  O_27
REMARK    2  A    between atoms: C_21  and  O_29
REMARK    3  A    between atoms: C_22  and  O_31
REMARK                            x       y       z     vdW  Elec       q    Type
REMARK                         _______ _______ _______ _____ _____    ______ ____
ROOT
ATOM      1  S   UNL     1       0.517  -0.124  -2.726  0.00  0.00    -0.054 S 
ATOM      2  S   UNL     1      -0.904   1.336  -2.397  0.00  0.00    -0.054 S 
ATOM      3  O   UNL     1       0.319   2.502   0.734  0.00  0.00    -0.272 OA
ATOM      4  O   UNL     1      -0.617  -2.494  -0.326  0.00  0.00    -0.272 OA
ATOM      5  O   UNL     1       4.511  -2.582   0.994  0.00  0.00    -0.296 OA
ATOM      6  O   UNL     1      -5.130   2.045   1.079  0.00  0.00    -0.291 OA
ATOM      7  N   UNL     1       1.094   0.470  -0.109  0.00  0.00    -0.263 N 
ATOM      8  N   UNL     1      -1.441  -0.305  -0.278  0.00  0.00    -0.263 N 
ATOM      9  C   UNL     1       0.825  -0.659  -1.003  0.00  0.00    +0.178 C 
ATOM     10  C   UNL     1      -1.164   1.111  -0.599  0.00  0.00    +0.178 C 
ATOM     11  C   UNL     1       2.404   0.380   0.535  0.00  0.00    +0.113 C 
ATOM     12  C   UNL     1       2.698  -1.123   0.442  0.00  0.00    +0.081 C 
ATOM     13  C   UNL     1       2.071  -1.544  -0.897  0.00  0.00    +0.048 C 
ATOM     14  C   UNL     1      -2.759  -0.457   0.327  0.00  0.00    +0.115 C 
ATOM     15  C   UNL     1      -2.394   1.867  -0.068  0.00  0.00    +0.048 C 
ATOM     16  C   UNL     1      -3.479   0.802  -0.168  0.00  0.00    +0.086 C 
ATOM     17  C   UNL     1       0.139   1.459   0.116  0.00  0.00    +0.253 C 
ATOM     18  C   UNL     1      -0.467  -1.286  -0.471  0.00  0.00    +0.253 C 
ATOM     19  C   UNL     1       3.441   1.253  -0.187  0.00  0.00    +0.156 C 
ATOM     20  C   UNL     1       4.164  -1.495   0.528  0.00  0.00    +0.155 C 
ATOM     21  C   UNL     1      -3.614  -1.683   0.003  0.00  0.00    +0.151 C 
ATOM     22  C   UNL     1       4.867   0.891   0.229  0.00  0.00    +0.146 C 
ATOM     23  C   UNL     1       5.181  -0.562  -0.095  0.00  0.00    +0.096 C 
ATOM     24  C   UNL     1      -4.745   0.970   0.632  0.00  0.00    +0.174 C 
ATOM     25  C   UNL     1      -5.051  -1.450   0.429  0.00  0.00    +0.007 C 
ATOM     26  C   UNL     1      -5.574  -0.261   0.769  0.00  0.00    +0.035 C 
ENDROOT
BRANCH  19  27
ATOM     27  O   UNL     1       3.199   2.623   0.129  0.00  0.00    -0.380 OA
ATOM     28  H   UNL     1       2.296   2.861  -0.132  0.00  0.00    +0.211 HD
ENDBRANCH  19  27
BRANCH  21  29
ATOM     29  O   UNL     1      -3.117  -2.796   0.745  0.00  0.00    -0.378 OA
ATOM     30  H   UNL     1      -2.197  -2.968   0.492  0.00  0.00    +0.211 HD
ENDBRANCH  21  29
BRANCH  22  31
ATOM     31  O   UNL     1       5.029   1.110   1.631  0.00  0.00    -0.381 OA
ATOM     32  H   UNL     1       4.829   2.037   1.839  0.00  0.00    +0.210 HD
ENDBRANCH  22  31
TORSDOF 3
