REMARK  Name = 10411193
REMARK  12 active torsions:
REMARK  status: ('A' for Active; 'I' for Inactive)
REMARK    1  A    between atoms: C_1  and  O_21
REMARK    2  A    between atoms: C_2  and  C_7
REMARK    3  A    between atoms: C_7  and  C_17
REMARK    4  A    between atoms: C_8  and  C_9
REMARK    5  A    between atoms: C_8  and  C_19
REMARK    6  A    between atoms: C_14  and  O_15
REMARK    7  A    between atoms: O_21  and  C_27
REMARK    8  A    between atoms: C_23  and  O_28
REMARK    9  A    between atoms: C_24  and  O_30
REMARK   10  A    between atoms: C_25  and  O_32
REMARK   11  A    between atoms: C_26  and  C_35
REMARK   12  A    between atoms: C_35  and  O_36
REMARK                            x       y       z     vdW  Elec       q    Type
REMARK                         _______ _______ _______ _____ _____    ______ ____
ROOT
ATOM      1  C   UNL     1      -1.498  -1.687   0.259  0.00  0.00    +0.141 C 
ATOM      2  C   UNL     1       1.239  -1.225   0.067  0.00  0.00    -0.004 C 
ATOM      3  C   UNL     1      -0.743  -1.521   1.416  0.00  0.00    +0.037 C 
ATOM      4  C   UNL     1      -0.895  -1.624  -0.993  0.00  0.00    +0.037 C 
ATOM      5  C   UNL     1       0.629  -1.290   1.319  0.00  0.00    +0.003 C 
ATOM      6  C   UNL     1       0.477  -1.392  -1.090  0.00  0.00    +0.003 C 
ENDROOT
BRANCH   2   7
ATOM      7  C   UNL     1       2.670  -0.983  -0.034  0.00  0.00    -0.026 C 
ATOM      8  C   UNL     1       3.206   0.276  -0.120  0.00  0.00    -0.026 C 
BRANCH   8   9
ATOM      9  C   UNL     1       4.672   0.473  -0.221  0.00  0.00    -0.004 C 
ATOM     10  C   UNL     1       5.259   0.511  -1.471  0.00  0.00    +0.003 C 
ATOM     11  C   UNL     1       5.410   0.612   0.938  0.00  0.00    +0.003 C 
ATOM     12  C   UNL     1       6.638   0.695  -1.565  0.00  0.00    +0.037 C 
ATOM     13  C   UNL     1       6.789   0.796   0.844  0.00  0.00    +0.037 C 
ATOM     14  C   UNL     1       7.403   0.838  -0.407  0.00  0.00    +0.134 C 
BRANCH  14  15
ATOM     15  O   UNL     1       8.749   1.017  -0.500  0.00  0.00    -0.506 OA
ATOM     16  H   UNL     1       9.162   1.045  -1.340  0.00  0.00    +0.292 HD
ENDBRANCH  14  15
ENDBRANCH   8   9
BRANCH   7  17
ATOM     17  C   UNL     1       3.531  -2.243  -0.088  0.00  0.00    +0.026 C 
ATOM     18  C   UNL     1       3.998  -2.682   1.294  0.00  0.00    +0.005 C 
ENDBRANCH   7  17
BRANCH   8  19
ATOM     19  C   UNL     1       2.409   1.565  -0.178  0.00  0.00    +0.026 C 
ATOM     20  C   UNL     1       2.137   2.139   1.206  0.00  0.00    +0.005 C 
ENDBRANCH   8  19
ENDBRANCH   2   7
BRANCH   1  21
ATOM     21  O   UNL     1      -2.844  -1.914   0.353  0.00  0.00    -0.451 OA
BRANCH  21  27
ATOM     22  O   UNL     1      -3.473   0.332   0.290  0.00  0.00    -0.307 OA
ATOM     23  C   UNL     1      -6.130  -0.349  -0.564  0.00  0.00    +0.173 C 
ATOM     24  C   UNL     1      -5.763   1.055  -0.081  0.00  0.00    +0.178 C 
ATOM     25  C   UNL     1      -5.145  -1.394  -0.040  0.00  0.00    +0.210 C 
ATOM     26  C   UNL     1      -4.283   1.335  -0.311  0.00  0.00    +0.246 C 
ATOM     27  C   UNL     1      -3.699  -0.958  -0.273  0.00  0.00    +0.318 C 
BRANCH  23  28
ATOM     28  O   UNL     1      -7.443  -0.650  -0.088  0.00  0.00    -0.379 OA
ATOM     29  H   UNL     1      -8.068   0.013  -0.421  0.00  0.00    +0.211 HD
ENDBRANCH  23  28
BRANCH  24  30
ATOM     30  O   UNL     1      -6.529   2.013  -0.809  0.00  0.00    -0.379 OA
ATOM     31  H   UNL     1      -7.475   1.845  -0.670  0.00  0.00    +0.211 HD
ENDBRANCH  24  30
BRANCH  25  32
ATOM     32  O   UNL     1      -5.356  -2.629  -0.724  0.00  0.00    -0.377 OA
ATOM     33  H   UNL     1      -6.271  -2.922  -0.587  0.00  0.00    +0.211 HD
ENDBRANCH  25  32
BRANCH  26  35
ATOM     34  O   UNL     1      -3.044   2.639   1.297  0.00  0.00    -0.247 OA
ATOM     35  C   UNL     1      -3.860   2.585   0.390  0.00  0.00    +0.344 C 
BRANCH  35  36
ATOM     36  O   UNL     1      -4.510   3.662  -0.117  0.00  0.00    -0.478 OA
ATOM     37  H   UNL     1      -5.125   3.552  -0.815  0.00  0.00    +0.295 HD
ENDBRANCH  35  36
ENDBRANCH  26  35
ENDBRANCH  21  27
ENDBRANCH   1  21
TORSDOF 12
