REMARK  Name = 10411304
REMARK  9 active torsions:
REMARK  status: ('A' for Active; 'I' for Inactive)
REMARK    1  A    between atoms: C_1  and  C_6
REMARK    2  A    between atoms: C_1  and  C_16
REMARK    3  A    between atoms: C_1  and  C_34
REMARK    4  A    between atoms: C_8  and  O_14
REMARK    5  A    between atoms: C_17  and  O_23
REMARK    6  A    between atoms: C_18  and  O_25
REMARK    7  A    between atoms: C_19  and  C_30
REMARK    8  A    between atoms: C_21  and  O_27
REMARK    9  A    between atoms: C_30  and  C_31
REMARK                            x       y       z     vdW  Elec       q    Type
REMARK                         _______ _______ _______ _____ _____    ______ ____
ROOT
ATOM      1  C   UNL     1      -0.615   1.632   0.821  0.00  0.00    +0.056 C 
ENDROOT
BRANCH   1   6
ATOM      2  O   UNL     1      -3.365  -2.516  -1.645  0.00  0.00    -0.295 OA
ATOM      3  O   UNL     1      -2.256   2.109  -1.375  0.00  0.00    -0.291 OA
ATOM      4  C   UNL     1      -3.036  -1.482   0.512  0.00  0.00    +0.102 C 
ATOM      5  C   UNL     1      -2.920  -0.167  -1.766  0.00  0.00    +0.107 C 
ATOM      6  C   UNL     1      -1.627   0.627   0.347  0.00  0.00    +0.047 C 
ATOM      7  C   UNL     1      -3.095  -1.484  -1.021  0.00  0.00    +0.163 C 
ATOM      8  C   UNL     1      -1.997  -0.489   1.002  0.00  0.00    +0.116 C 
ATOM      9  C   UNL     1      -2.283   0.950  -0.953  0.00  0.00    +0.178 C 
ATOM     10  C   UNL     1      -2.686  -2.917   0.969  0.00  0.00    +0.015 C 
ATOM     11  C   UNL     1      -4.419  -1.110   1.064  0.00  0.00    +0.015 C 
ATOM     12  C   UNL     1      -1.996  -0.419  -2.971  0.00  0.00    +0.015 C 
ATOM     13  C   UNL     1      -4.298   0.294  -2.260  0.00  0.00    +0.015 C 
BRANCH   8  14
ATOM     14  O   UNL     1      -1.498  -0.799   2.260  0.00  0.00    -0.510 OA
ATOM     15  H   UNL     1      -1.773  -1.584   2.692  0.00  0.00    +0.292 HD
ENDBRANCH   8  14
ENDBRANCH   1   6
BRANCH   1  16
ATOM     16  C   UNL     1       0.755   1.292   0.252  0.00  0.00    +0.049 A 
ATOM     17  C   UNL     1       1.365   0.111   0.631  0.00  0.00    +0.138 A 
ATOM     18  C   UNL     1       1.352   2.172  -0.630  0.00  0.00    +0.132 A 
ATOM     19  C   UNL     1       2.620  -0.201   0.109  0.00  0.00    +0.101 A 
ATOM     20  C   UNL     1       2.608   1.860  -1.152  0.00  0.00    +0.045 A 
ATOM     21  C   UNL     1       3.242   0.674  -0.783  0.00  0.00    +0.138 A 
ATOM     22  C   UNL     1       3.274   2.798  -2.108  0.00  0.00    +0.037 C 
BRANCH  17  23
ATOM     23  O   UNL     1       0.754  -0.742   1.504  0.00  0.00    -0.506 OA
ATOM     24  H   UNL     1      -0.089  -0.530   1.853  0.00  0.00    +0.292 HD
ENDBRANCH  17  23
BRANCH  18  25
ATOM     25  O   UNL     1       0.733   3.333  -0.991  0.00  0.00    -0.506 OA
ATOM     26  H   UNL     1      -0.111   3.542  -0.641  0.00  0.00    +0.292 HD
ENDBRANCH  18  25
BRANCH  21  27
ATOM     27  O   UNL     1       4.470   0.372  -1.296  0.00  0.00    -0.506 OA
ATOM     28  H   UNL     1       4.897  -0.425  -1.049  0.00  0.00    +0.292 HD
ENDBRANCH  21  27
BRANCH  19  30
ATOM     29  O   UNL     1       4.047  -1.464   1.480  0.00  0.00    -0.291 OA
ATOM     30  C   UNL     1       3.283  -1.442   0.494  0.00  0.00    +0.178 C 
BRANCH  30  31
ATOM     31  C   UNL     1       3.066  -2.742  -0.311  0.00  0.00    +0.062 C 
ATOM     32  C   UNL     1       4.401  -3.244  -0.851  0.00  0.00    +0.008 C 
ATOM     33  C   UNL     1       2.401  -3.815   0.553  0.00  0.00    +0.008 C 
ENDBRANCH  30  31
ENDBRANCH  19  30
ENDBRANCH   1  16
BRANCH   1  34
ATOM     34  C   UNL     1      -0.613   1.794   2.373  0.00  0.00    +0.008 C 
ATOM     35  C   UNL     1      -2.016   2.112   2.913  0.00  0.00    +0.001 C 
ATOM     36  C   UNL     1       0.345   2.904   2.828  0.00  0.00    +0.001 C 
ENDBRANCH   1  34
TORSDOF 9
