REMARK  Name = 10424498
REMARK  3 active torsions:
REMARK  status: ('A' for Active; 'I' for Inactive)
REMARK    1  A    between atoms: N_3  and  C_13
REMARK    2  A    between atoms: C_14  and  C_15
REMARK    3  A    between atoms: C_15  and  O_16
REMARK                            x       y       z     vdW  Elec       q    Type
REMARK                         _______ _______ _______ _____ _____    ______ ____
ROOT
ATOM      1  O   UNL     1      -0.623  -3.264   0.034  0.00  0.00    -0.252 OA
ATOM      2  O   UNL     1      -4.586  -0.932   0.109  0.00  0.00    -0.270 OA
ATOM      3  N   UNL     1      -0.521  -0.943   0.268  0.00  0.00    -0.219 N 
ATOM      4  N   UNL     1      -2.592  -2.089   0.074  0.00  0.00    -0.236 N 
ATOM      5  C   UNL     1      -1.247   0.242   0.356  0.00  0.00    +0.076 C 
ATOM      6  C   UNL     1      -1.196  -2.176   0.120  0.00  0.00    +0.315 C 
ATOM      7  C   UNL     1      -2.582   0.321   0.311  0.00  0.00    +0.074 C 
ATOM      8  C   UNL     1      -3.359  -0.937   0.158  0.00  0.00    +0.254 C 
ATOM      9  H   UNL     1      -3.082  -2.937  -0.028  0.00  0.00    +0.159 HD
ENDROOT
BRANCH   3  13
ATOM     10  O   UNL     1       1.301   0.204   1.183  0.00  0.00    -0.337 OA
ATOM     11  C   UNL     1       2.794   0.139  -0.669  0.00  0.00    +0.037 C 
ATOM     12  C   UNL     1       1.543  -0.628  -1.028  0.00  0.00    +0.054 C 
ATOM     13  C   UNL     1       0.909  -0.878   0.329  0.00  0.00    +0.199 C 
ATOM     14  C   UNL     1       2.365   0.943   0.552  0.00  0.00    +0.146 C 
BRANCH  14  15
ATOM     15  C   UNL     1       1.827   2.321   0.187  0.00  0.00    +0.167 C 
BRANCH  15  16
ATOM     16  O   UNL     1       1.444   2.987   1.377  0.00  0.00    -0.379 OA
ATOM     17  H   UNL     1       1.099   3.867   1.158  0.00  0.00    +0.211 HD
ENDBRANCH  15  16
ENDBRANCH  14  15
ENDBRANCH   3  13
TORSDOF 3
REMARK  Name = 10424498
REMARK  3 active torsions:
REMARK  status: ('A' for Active; 'I' for Inactive)
REMARK    1  A    between atoms: N_3  and  C_13
REMARK    2  A    between atoms: C_14  and  C_15
REMARK    3  A    between atoms: C_15  and  O_16
REMARK                            x       y       z     vdW  Elec       q    Type
REMARK                         _______ _______ _______ _____ _____    ______ ____
ROOT
ATOM      1  N   UNL     1       5.012  -0.414  -0.439  0.00  0.00    +0.000 NA
ATOM      2  N   UNL     1       6.087  -0.063  -0.586  0.00  0.00    +0.000 NA
ENDROOT
TORSDOF 0
REMARK  Name = 10424498
REMARK  3 active torsions:
REMARK  status: ('A' for Active; 'I' for Inactive)
REMARK    1  A    between atoms: N_3  and  C_13
REMARK    2  A    between atoms: C_14  and  C_15
REMARK    3  A    between atoms: C_15  and  O_16
REMARK                            x       y       z     vdW  Elec       q    Type
REMARK                         _______ _______ _______ _____ _____    ______ ____
ROOT
ATOM      1  N   UNL     1      -3.476   2.000  -0.722  0.00  0.00    +0.000 NA
ATOM      2  N   UNL     1      -3.663   2.482  -1.739  0.00  0.00    +0.000 NA
ENDROOT
TORSDOF 0
