REMARK  Name = 10422896
REMARK  7 active torsions:
REMARK  status: ('A' for Active; 'I' for Inactive)
REMARK    1  A    between atoms: C_2  and  O_7
REMARK    2  A    between atoms: C_3  and  O_9
REMARK    3  A    between atoms: C_4  and  O_11
REMARK    4  A    between atoms: C_5  and  C_20
REMARK    5  A    between atoms: C_6  and  O_13
REMARK    6  A    between atoms: O_13  and  C_16
REMARK    7  A    between atoms: C_20  and  O_21
REMARK                            x       y       z     vdW  Elec       q    Type
REMARK                         _______ _______ _______ _____ _____    ______ ____
ROOT
ATOM      1  O   UNL     1       1.049  -1.002   0.301  0.00  0.00    -0.326 OA
ATOM      2  C   UNL     1       2.147   1.618  -0.125  0.00  0.00    +0.172 C 
ATOM      3  C   UNL     1       0.707   1.402   0.340  0.00  0.00    +0.196 C 
ATOM      4  C   UNL     1       3.020   0.405   0.197  0.00  0.00    +0.169 C 
ATOM      5  C   UNL     1       2.351  -0.887  -0.276  0.00  0.00    +0.176 C 
ATOM      6  C   UNL     1       0.173   0.044  -0.115  0.00  0.00    +0.266 C 
ENDROOT
BRANCH   2   7
ATOM      7  O   UNL     1       2.699   2.751   0.546  0.00  0.00    -0.379 OA
ATOM      8  H   UNL     1       2.160   3.535   0.355  0.00  0.00    +0.211 HD
ENDBRANCH   2   7
BRANCH   3   9
ATOM      9  O   UNL     1      -0.127   2.419  -0.215  0.00  0.00    -0.378 OA
ATOM     10  H   UNL     1       0.196   3.290   0.063  0.00  0.00    +0.211 HD
ENDBRANCH   3   9
BRANCH   4  11
ATOM     11  O   UNL     1       4.282   0.547  -0.450  0.00  0.00    -0.379 OA
ATOM     12  H   UNL     1       4.708   1.366  -0.152  0.00  0.00    +0.211 HD
ENDBRANCH   4  11
BRANCH   6  13
ATOM     13  O   UNL     1      -1.113  -0.143   0.475  0.00  0.00    -0.327 OA
BRANCH  13  16
ATOM     14  O   UNL     1      -4.041  -0.613   0.835  0.00  0.00    -0.446 OA
ATOM     15  O   UNL     1      -4.830   1.173  -0.366  0.00  0.00    -0.250 OA
ATOM     16  C   UNL     1      -2.018  -0.944  -0.280  0.00  0.00    +0.173 C 
ATOM     17  C   UNL     1      -2.891  -0.058  -1.138  0.00  0.00    +0.143 C 
ATOM     18  C   UNL     1      -3.003  -1.589   0.662  0.00  0.00    +0.238 C 
ATOM     19  C   UNL     1      -4.022   0.271  -0.207  0.00  0.00    +0.320 C 
ENDBRANCH  13  16
ENDBRANCH   6  13
BRANCH   5  20
ATOM     20  C   UNL     1       3.148  -2.120   0.139  0.00  0.00    +0.169 C 
BRANCH  20  21
ATOM     21  O   UNL     1       2.467  -3.273  -0.322  0.00  0.00    -0.379 OA
ATOM     22  H   UNL     1       2.963  -4.066  -0.064  0.00  0.00    +0.211 HD
ENDBRANCH  20  21
ENDBRANCH   5  20
TORSDOF 7
