10428463
  -OEChem-03292013303D

 42 43  0     1  0  0  0  0  0999 V2000
    1.7681    1.1678    2.2347 S   0  0  0  0  0  0  0  0  0  0  0  0
    0.7644    0.7178   -2.2822 O   0  0  0  0  0  0  0  0  0  0  0  0
   -1.4675    2.8419   -1.6366 O   0  0  0  0  0  0  0  0  0  0  0  0
    3.3656   -1.1007   -2.2628 O   0  0  0  0  0  0  0  0  0  0  0  0
    2.1901   -2.7207   -1.1564 O   0  0  0  0  0  0  0  0  0  0  0  0
   -2.4995   -1.5877    1.6707 O   0  0  0  0  0  0  0  0  0  0  0  0
   -4.9884   -1.9392   -0.8911 O   0  0  0  0  0  0  0  0  0  0  0  0
   -3.2727   -3.2794   -0.2495 O   0  0  0  0  0  0  0  0  0  0  0  0
    2.0652    0.5272   -0.3246 N   0  0  0  0  0  0  0  0  0  0  0  0
   -0.3158    2.3673    0.3226 N   0  0  0  0  0  0  0  0  0  0  0  0
    2.1767    1.6800    0.5505 C   0  0  1  0  0  0  0  0  0  0  0  0
    1.0282    2.2982   -0.2767 C   0  0  1  0  0  0  0  0  0  0  0  0
    1.2243    1.0811   -1.2250 C   0  0  0  0  0  0  0  0  0  0  0  0
    2.7035   -0.6511   -0.1058 C   0  0  0  0  0  0  0  0  0  0  0  0
    3.1357   -0.0376    2.3188 C   0  0  0  0  0  0  0  0  0  0  0  0
    3.2595   -0.9419    1.0945 C   0  0  0  0  0  0  0  0  0  0  0  0
   -1.4519    2.6363   -0.4248 C   0  0  0  0  0  0  0  0  0  0  0  0
   -2.7183    2.6664    0.4064 C   0  0  0  0  0  0  0  0  0  0  0  0
    4.0539   -2.1912    1.3910 C   0  0  0  0  0  0  0  0  0  0  0  0
    2.7071   -1.6229   -1.2093 C   0  0  0  0  0  0  0  0  0  0  0  0
   -2.9884    1.3392    1.1138 C   0  0  0  0  0  0  0  0  0  0  0  0
   -3.2251    0.1477    0.1751 C   0  0  0  0  0  0  0  0  0  0  0  0
   -3.6014   -1.1539    0.8861 C   0  0  1  0  0  0  0  0  0  0  0  0
   -3.9134   -2.2446   -0.1194 C   0  0  0  0  0  0  0  0  0  0  0  0
    3.1333    2.2054    0.4442 H   0  0  0  0  0  0  0  0  0  0  0  0
    1.3006    3.2518   -0.7444 H   0  0  0  0  0  0  0  0  0  0  0  0
   -0.4139    2.2555    1.3283 H   0  0  0  0  0  0  0  0  0  0  0  0
    2.9523   -0.6470    3.2103 H   0  0  0  0  0  0  0  0  0  0  0  0
    4.0773    0.5015    2.4700 H   0  0  0  0  0  0  0  0  0  0  0  0
   -3.5590    2.9235   -0.2478 H   0  0  0  0  0  0  0  0  0  0  0  0
   -2.6219    3.4694    1.1464 H   0  0  0  0  0  0  0  0  0  0  0  0
    5.0153   -1.9254    1.8440 H   0  0  0  0  0  0  0  0  0  0  0  0
    4.2778   -2.7814    0.4984 H   0  0  0  0  0  0  0  0  0  0  0  0
    3.5056   -2.8304    2.0906 H   0  0  0  0  0  0  0  0  0  0  0  0
   -3.8817    1.4692    1.7380 H   0  0  0  0  0  0  0  0  0  0  0  0
   -2.1714    1.0977    1.8030 H   0  0  0  0  0  0  0  0  0  0  0  0
   -2.3142   -0.0207   -0.4143 H   0  0  0  0  0  0  0  0  0  0  0  0
   -4.0128    0.4213   -0.5377 H   0  0  0  0  0  0  0  0  0  0  0  0
   -4.4648   -1.0175    1.5457 H   0  0  0  0  0  0  0  0  0  0  0  0
    3.3920   -1.7181   -3.0246 H   0  0  0  0  0  0  0  0  0  0  0  0
   -2.7932   -2.3576    2.1873 H   0  0  0  0  0  0  0  0  0  0  0  0
   -5.1800   -2.6435   -1.5463 H   0  0  0  0  0  0  0  0  0  0  0  0
  1 11  1  0  0  0  0
  1 15  1  0  0  0  0
  2 13  2  0  0  0  0
  3 17  2  0  0  0  0
  4 20  1  0  0  0  0
  4 40  1  0  0  0  0
  5 20  2  0  0  0  0
  6 23  1  0  0  0  0
  6 41  1  0  0  0  0
  7 24  1  0  0  0  0
  7 42  1  0  0  0  0
  8 24  2  0  0  0  0
  9 11  1  0  0  0  0
  9 13  1  0  0  0  0
  9 14  1  0  0  0  0
 10 12  1  0  0  0  0
 10 17  1  0  0  0  0
 10 27  1  0  0  0  0
 11 12  1  0  0  0  0
 11 25  1  0  0  0  0
 12 13  1  0  0  0  0
 12 26  1  0  0  0  0
 14 16  2  0  0  0  0
 14 20  1  0  0  0  0
 15 16  1  0  0  0  0
 15 28  1  0  0  0  0
 15 29  1  0  0  0  0
 16 19  1  0  0  0  0
 17 18  1  0  0  0  0
 18 21  1  0  0  0  0
 18 30  1  0  0  0  0
 18 31  1  0  0  0  0
 19 32  1  0  0  0  0
 19 33  1  0  0  0  0
 19 34  1  0  0  0  0
 21 22  1  0  0  0  0
 21 35  1  0  0  0  0
 21 36  1  0  0  0  0
 22 23  1  0  0  0  0
 22 37  1  0  0  0  0
 22 38  1  0  0  0  0
 23 24  1  0  0  0  0
 23 39  1  0  0  0  0
M  END
> <PUBCHEM_COMPOUND_CID>
10428463

> <PUBCHEM_CONFORMER_RMSD>
0.8

> <PUBCHEM_CONFORMER_DIVERSEORDER>
21
118
130
136
50
150
2
13
100
94
124
92
26
32
63
57
75
131
104
134
37
10
147
36
41
39
31
125
110
122
24
42
80
28
49
67
129
105
8
61
64
6
7
82
48
43
128
3
137
52
95
123
11
115
77
114
38
89
141
99
16
44
120
155
29
30
23
84
139
93
117
103
14
83
119
78
4
87
81
35
133
126
154
18
101
27
17
138
19
1
127
5
12
66
56
54
121
79
132
113
62
25
71
98
9
76
46
59
22
111
88
20
65
86
55
33
116
152
97
156
47
142
153
45
15
72
108
107
112
145
51
68
74
109
143
149
34
40
140
69
146
53
90
144
58
70
85
135
60
73
96
106
91
148
102
151

> <PUBCHEM_MMFF94_PARTIAL_CHARGES>
26
1 -0.45
10 -0.65
11 0.44
12 0.28
13 0.58
14 0.12
15 0.37
16 -0.28
17 0.57
18 0.06
19 0.14
2 -0.57
20 0.71
23 0.34
24 0.66
27 0.37
3 -0.57
4 -0.65
40 0.5
41 0.4
42 0.5
5 -0.57
6 -0.68
7 -0.65
8 -0.57
9 -0.39

> <PUBCHEM_EFFECTIVE_ROTOR_COUNT>
8.6

> <PUBCHEM_PHARMACOPHORE_FEATURES>
13
1 10 donor
1 2 acceptor
1 3 acceptor
1 4 acceptor
1 5 acceptor
1 6 acceptor
1 6 donor
1 7 acceptor
1 8 acceptor
3 4 5 20 anion
3 7 8 24 anion
4 9 11 12 13 rings
6 1 9 11 14 15 16 rings

> <PUBCHEM_HEAVY_ATOM_COUNT>
24

> <PUBCHEM_ATOM_DEF_STEREO_COUNT>
2

> <PUBCHEM_ATOM_UDEF_STEREO_COUNT>
1

> <PUBCHEM_BOND_DEF_STEREO_COUNT>
0

> <PUBCHEM_BOND_UDEF_STEREO_COUNT>
0

> <PUBCHEM_ISOTOPIC_ATOM_COUNT>
0

> <PUBCHEM_COMPONENT_COUNT>
1

> <PUBCHEM_CACTVS_TAUTO_COUNT>
2

> <PUBCHEM_CONFORMER_ID>
009F202F00000015

> <PUBCHEM_MMFF94_ENERGY>
51.2995

> <PUBCHEM_FEATURE_SELFOVERLAP>
66.356

> <PUBCHEM_SHAPE_FINGERPRINT>
11720765 8 12831136289562438320
12363563 72 18260541268808575043
12403259 327 17416705569709512313
12553582 1 18261407666833558811
12596599 1 18342183245602716659
12633257 1 18200600194108907113
13583140 156 16630233758351503121
14429115 67 18270111439792500787
15163728 17 10735296810262006200
151778 21 9438311743007391139
19026451 147 18121488326862619875
20775530 9 18342749515518748411
23559900 14 18343024402047437765
3797600 57 15194162858247850729
602551 16 18265330595530525474

> <PUBCHEM_SHAPE_MULTIPOLES>
446.71
8.25
3.84
2.1
4.76
0.47
-0.04
6.71
1.44
2.93
-0.65
-1.88
0.01
0.4

> <PUBCHEM_SHAPE_SELFOVERLAP>
911.788

> <PUBCHEM_SHAPE_VOLUME>
258.6

> <PUBCHEM_COORDINATE_TYPE>
2
5
10

$$$$
