REMARK  Name = 10429220
REMARK  9 active torsions:
REMARK  status: ('A' for Active; 'I' for Inactive)
REMARK    1  A    between atoms: C_1  and  C_7
REMARK    2  A    between atoms: C_2  and  C_17
REMARK    3  A    between atoms: C_3  and  O_27
REMARK    4  A    between atoms: C_4  and  O_29
REMARK    5  A    between atoms: C_5  and  O_31
REMARK    6  A    between atoms: C_10  and  O_13
REMARK    7  A    between atoms: C_12  and  O_15
REMARK    8  A    between atoms: C_20  and  O_23
REMARK    9  A    between atoms: C_22  and  O_25
REMARK                            x       y       z     vdW  Elec       q    Type
REMARK                         _______ _______ _______ _____ _____    ______ ____
ROOT
ATOM      1  C   UNL     1       1.343   0.009   0.112  0.00  0.00    +0.071 C 
ATOM      2  C   UNL     1      -1.438  -0.150  -0.074  0.00  0.00    +0.040 C 
ATOM      3  C   UNL     1      -0.779   1.030  -0.424  0.00  0.00    +0.172 C 
ATOM      4  C   UNL     1       0.687  -1.171   0.462  0.00  0.00    +0.142 C 
ATOM      5  C   UNL     1       0.610   1.109  -0.331  0.00  0.00    +0.171 C 
ATOM      6  C   UNL     1      -0.702  -1.251   0.369  0.00  0.00    +0.040 C 
ENDROOT
BRANCH   1   7
ATOM      7  C   UNL     1       2.790   0.090   0.210  0.00  0.00    +0.009 C 
ATOM      8  C   UNL     1       3.578  -0.264  -0.882  0.00  0.00    +0.040 C 
ATOM      9  C   UNL     1       3.380   0.521   1.394  0.00  0.00    +0.004 C 
ATOM     10  C   UNL     1       4.968  -0.185  -0.788  0.00  0.00    +0.167 C 
ATOM     11  C   UNL     1       4.770   0.600   1.488  0.00  0.00    +0.040 C 
ATOM     12  C   UNL     1       5.564   0.247   0.397  0.00  0.00    +0.167 C 
BRANCH  10  13
ATOM     13  O   UNL     1       5.733  -0.533  -1.861  0.00  0.00    -0.503 OA
ATOM     14  H   UNL     1       5.325  -0.822  -2.653  0.00  0.00    +0.292 HD
ENDBRANCH  10  13
BRANCH  12  15
ATOM     15  O   UNL     1       6.919   0.328   0.500  0.00  0.00    -0.503 OA
ATOM     16  H   UNL     1       7.460   0.093  -0.228  0.00  0.00    +0.292 HD
ENDBRANCH  12  15
ENDBRANCH   1   7
BRANCH   2  17
ATOM     17  C   UNL     1      -2.878  -0.254  -0.161  0.00  0.00    +0.006 C 
ATOM     18  C   UNL     1      -3.670   0.089   0.934  0.00  0.00    +0.040 C 
ATOM     19  C   UNL     1      -3.475  -0.697  -1.342  0.00  0.00    +0.003 C 
ATOM     20  C   UNL     1      -5.059  -0.010   0.850  0.00  0.00    +0.167 C 
ATOM     21  C   UNL     1      -4.864  -0.796  -1.427  0.00  0.00    +0.040 C 
ATOM     22  C   UNL     1      -5.656  -0.453  -0.331  0.00  0.00    +0.167 C 
BRANCH  20  23
ATOM     23  O   UNL     1      -5.822   0.328   1.926  0.00  0.00    -0.503 OA
ATOM     24  H   UNL     1      -5.414   0.624   2.716  0.00  0.00    +0.292 HD
ENDBRANCH  20  23
BRANCH  22  25
ATOM     25  O   UNL     1      -7.011  -0.554  -0.426  0.00  0.00    -0.503 OA
ATOM     26  H   UNL     1      -7.550  -0.326   0.306  0.00  0.00    +0.292 HD
ENDBRANCH  22  25
ENDBRANCH   2  17
BRANCH   3  27
ATOM     27  O   UNL     1      -1.486   2.114  -0.859  0.00  0.00    -0.468 OA
ATOM     28  C   UNL     1      -1.923   3.040   0.132  0.00  0.00    +0.253 C 
ENDBRANCH   3  27
BRANCH   4  29
ATOM     29  O   UNL     1       1.378  -2.264   0.897  0.00  0.00    -0.471 OA
ATOM     30  C   UNL     1       1.808  -3.194  -0.094  0.00  0.00    +0.252 C 
ENDBRANCH   4  29
BRANCH   5  31
ATOM     31  O   UNL     1       1.238   2.272  -0.676  0.00  0.00    -0.503 OA
ATOM     32  H   UNL     1       2.171   2.335  -0.617  0.00  0.00    +0.292 HD
ENDBRANCH   5  31
TORSDOF 9
