REMARK  Name = 10423457
REMARK  5 active torsions:
REMARK  status: ('A' for Active; 'I' for Inactive)
REMARK    1  A    between atoms: C_2  and  O_15
REMARK    2  A    between atoms: C_3  and  O_17
REMARK    3  A    between atoms: C_4  and  N_8
REMARK    4  A    between atoms: C_5  and  C_19
REMARK    5  A    between atoms: C_19  and  O_20
REMARK                            x       y       z     vdW  Elec       q    Type
REMARK                         _______ _______ _______ _____ _____    ______ ____
ROOT
ATOM      1  O   UNL     1      -1.108  -0.955   1.097  0.00  0.00    -0.333 OA
ATOM      2  C   UNL     1      -1.382   0.765  -0.509  0.00  0.00    +0.191 C 
ATOM      3  C   UNL     1      -2.737   0.160  -0.211  0.00  0.00    +0.171 C 
ATOM      4  C   UNL     1      -0.564   0.310   0.687  0.00  0.00    +0.228 C 
ATOM      5  C   UNL     1      -2.360  -1.177   0.412  0.00  0.00    +0.175 C 
ENDROOT
BRANCH   4   8
ATOM      6  S   UNL     1       1.603   2.668   1.181  0.00  0.00    -0.018 S 
ATOM      7  O   UNL     1       4.686  -0.732  -0.662  0.00  0.00    -0.270 OA
ATOM      8  N   UNL     1       0.825   0.139   0.368  0.00  0.00    -0.244 N 
ATOM      9  N   UNL     1       3.131   0.759   0.182  0.00  0.00    -0.263 N 
ATOM     10  C   UNL     1       1.835   1.125   0.556  0.00  0.00    +0.146 C 
ATOM     11  C   UNL     1       1.202  -1.100  -0.166  0.00  0.00    +0.073 C 
ATOM     12  C   UNL     1       2.444  -1.436  -0.519  0.00  0.00    +0.074 C 
ATOM     13  C   UNL     1       3.532  -0.456  -0.348  0.00  0.00    +0.252 C 
ATOM     14  H   UNL     1       3.834   1.437   0.310  0.00  0.00    +0.157 HD
ENDBRANCH   4   8
BRANCH   2  15
ATOM     15  O   UNL     1      -1.437   2.172  -0.627  0.00  0.00    -0.347 OA
ATOM     16  C   UNL     1      -2.309   2.582  -1.675  0.00  0.00    +0.174 C 
ENDBRANCH   2  15
BRANCH   3  17
ATOM     17  O   UNL     1      -3.417   0.931   0.779  0.00  0.00    -0.379 OA
ATOM     18  H   UNL     1      -3.668   1.790   0.405  0.00  0.00    +0.211 HD
ENDBRANCH   3  17
BRANCH   5  19
ATOM     19  C   UNL     1      -2.150  -2.282  -0.614  0.00  0.00    +0.169 C 
BRANCH  19  20
ATOM     20  O   UNL     1      -1.794  -3.472   0.067  0.00  0.00    -0.379 OA
ATOM     21  H   UNL     1      -1.657  -4.185  -0.576  0.00  0.00    +0.211 HD
ENDBRANCH  19  20
ENDBRANCH   5  19
TORSDOF 5
