REMARK  Name = 10426622
REMARK  6 active torsions:
REMARK  status: ('A' for Active; 'I' for Inactive)
REMARK    1  A    between atoms: C_3  and  C_16
REMARK    2  A    between atoms: C_4  and  O_21
REMARK    3  A    between atoms: C_8  and  O_23
REMARK    4  A    between atoms: C_13  and  O_25
REMARK    5  A    between atoms: C_14  and  O_27
REMARK    6  A    between atoms: C_16  and  C_19
REMARK                            x       y       z     vdW  Elec       q    Type
REMARK                         _______ _______ _______ _____ _____    ______ ____
ROOT
ATOM      1  O   UNL     1       1.466  -1.325  -0.049  0.00  0.00    -0.447 OA
ATOM      2  O   UNL     1       0.345   2.603   0.172  0.00  0.00    -0.286 OA
ATOM      3  C   UNL     1      -2.603  -0.451   0.098  0.00  0.00    +0.018 C 
ATOM      4  C   UNL     1      -1.692   0.604   0.127  0.00  0.00    +0.136 C 
ATOM      5  C   UNL     1      -0.322   0.333   0.079  0.00  0.00    +0.110 A 
ATOM      6  C   UNL     1      -2.148  -1.768   0.021  0.00  0.00    +0.039 C 
ATOM      7  C   UNL     1       0.138  -0.982   0.002  0.00  0.00    +0.185 A 
ATOM      8  C   UNL     1      -0.779  -2.034  -0.027  0.00  0.00    +0.168 C 
ATOM      9  C   UNL     1       0.663   1.425   0.107  0.00  0.00    +0.205 A 
ATOM     10  C   UNL     1       2.080   1.036   0.050  0.00  0.00    +0.077 A 
ATOM     11  C   UNL     1       2.400  -0.319  -0.024  0.00  0.00    +0.185 A 
ATOM     12  C   UNL     1       3.089   2.003   0.072  0.00  0.00    +0.010 C 
ATOM     13  C   UNL     1       3.740  -0.711  -0.078  0.00  0.00    +0.203 C 
ATOM     14  C   UNL     1       4.750   0.251  -0.057  0.00  0.00    +0.171 C 
ATOM     15  C   UNL     1       4.425   1.605   0.018  0.00  0.00    +0.040 C 
ENDROOT
BRANCH   3  16
ATOM     16  C   UNL     1      -4.074  -0.195   0.150  0.00  0.00    +0.040 C 
ATOM     17  C   UNL     1      -4.978  -1.472   0.053  0.00  0.00    +0.009 C 
ATOM     18  C   UNL     1      -4.451   0.454   1.522  0.00  0.00    +0.009 C 
BRANCH  16  19
ATOM     19  C   UNL     1      -4.528   0.671  -1.047  0.00  0.00    -0.023 C 
ATOM     20  C   UNL     1      -5.118   1.873  -1.029  0.00  0.00    -0.005 C 
ENDBRANCH  16  19
ENDBRANCH   3  16
BRANCH   4  21
ATOM     21  O   UNL     1      -2.173   1.878   0.202  0.00  0.00    -0.506 OA
ATOM     22  H   UNL     1      -3.097   2.029   0.233  0.00  0.00    +0.292 HD
ENDBRANCH   4  21
BRANCH   8  23
ATOM     23  O   UNL     1      -0.356  -3.327  -0.101  0.00  0.00    -0.503 OA
ATOM     24  H   UNL     1      -0.982  -4.025  -0.119  0.00  0.00    +0.292 HD
ENDBRANCH   8  23
BRANCH  13  25
ATOM     25  O   UNL     1       4.067  -2.034  -0.151  0.00  0.00    -0.501 OA
ATOM     26  H   UNL     1       3.391  -2.683  -0.165  0.00  0.00    +0.292 HD
ENDBRANCH  13  25
BRANCH  14  27
ATOM     27  O   UNL     1       6.060  -0.119  -0.109  0.00  0.00    -0.503 OA
ATOM     28  H   UNL     1       6.290  -1.026  -0.160  0.00  0.00    +0.292 HD
ENDBRANCH  14  27
TORSDOF 6
