10427992
  -OEChem-03292013303D

 46 46  0     1  0  0  0  0  0999 V2000
   -0.0889   -0.8380    2.2564 O   0  0  0  0  0  0  0  0  0  0  0  0
   -0.2915    1.0515   -1.2090 O   0  0  0  0  0  0  0  0  0  0  0  0
    6.2759   -0.8109   -0.1624 O   0  0  0  0  0  0  0  0  0  0  0  0
    5.4329    0.6554   -1.6762 O   0  0  0  0  0  0  0  0  0  0  0  0
   -1.8819    2.5914    1.6265 O   0  0  0  0  0  0  0  0  0  0  0  0
   -2.7322    4.4082    0.5663 O   0  0  0  0  0  0  0  0  0  0  0  0
    0.9851   -0.8623    0.2012 N   0  0  0  0  0  0  0  0  0  0  0  0
    0.3053   -3.7097    1.9055 N   0  0  0  0  0  0  0  0  0  0  0  0
    0.4014    2.6196    0.3574 N   0  0  0  0  0  0  0  0  0  0  0  0
    1.5197    0.4751    0.2870 C   0  0  1  0  0  0  0  0  0  0  0  0
    2.8271    0.5875   -0.5063 C   0  0  0  0  0  0  0  0  0  0  0  0
   -0.2605   -2.8275    0.8841 C   0  0  1  0  0  0  0  0  0  0  0  0
   -1.7937   -2.9089    0.9140 C   0  0  0  0  0  0  0  0  0  0  0  0
    0.2121   -1.4145    1.2124 C   0  0  0  0  0  0  0  0  0  0  0  0
    3.9773   -0.2544    0.0513 C   0  0  0  0  0  0  0  0  0  0  0  0
    0.4365    1.3865   -0.2763 C   0  0  0  0  0  0  0  0  0  0  0  0
   -2.4476   -2.0296   -0.1258 C   0  0  0  0  0  0  0  0  0  0  0  0
    5.2727   -0.0745   -0.7079 C   0  0  0  0  0  0  0  0  0  0  0  0
   -2.7738   -0.7228    0.1991 C   0  0  0  0  0  0  0  0  0  0  0  0
   -2.7083   -2.5464   -1.3846 C   0  0  0  0  0  0  0  0  0  0  0  0
   -0.5142    3.6742   -0.0138 C   0  0  0  0  0  0  0  0  0  0  0  0
   -3.3774    0.0893   -0.7610 C   0  0  0  0  0  0  0  0  0  0  0  0
   -3.3118   -1.7341   -2.3446 C   0  0  0  0  0  0  0  0  0  0  0  0
   -3.6463   -0.4163   -2.0328 C   0  0  0  0  0  0  0  0  0  0  0  0
   -1.8180    3.6113    0.7394 C   0  0  0  0  0  0  0  0  0  0  0  0
    1.6966    0.7193    1.3411 H   0  0  0  0  0  0  0  0  0  0  0  0
    2.6528    0.3091   -1.5547 H   0  0  0  0  0  0  0  0  0  0  0  0
    3.1369    1.6408   -0.5304 H   0  0  0  0  0  0  0  0  0  0  0  0
    0.1145   -3.1418   -0.0963 H   0  0  0  0  0  0  0  0  0  0  0  0
    1.1212   -1.3779   -0.6635 H   0  0  0  0  0  0  0  0  0  0  0  0
   -2.1798   -2.6305    1.9048 H   0  0  0  0  0  0  0  0  0  0  0  0
   -2.1170   -3.9474    0.7583 H   0  0  0  0  0  0  0  0  0  0  0  0
    3.7141   -1.3171    0.0121 H   0  0  0  0  0  0  0  0  0  0  0  0
    4.1588    0.0263    1.0949 H   0  0  0  0  0  0  0  0  0  0  0  0
   -0.0845   -3.4768    2.8187 H   0  0  0  0  0  0  0  0  0  0  0  0
    0.0186   -4.6704    1.7198 H   0  0  0  0  0  0  0  0  0  0  0  0
    1.0418    2.8033    1.1241 H   0  0  0  0  0  0  0  0  0  0  0  0
   -2.5803   -0.3192    1.1881 H   0  0  0  0  0  0  0  0  0  0  0  0
   -2.4490   -3.5705   -1.6372 H   0  0  0  0  0  0  0  0  0  0  0  0
   -0.7272    3.6046   -1.0845 H   0  0  0  0  0  0  0  0  0  0  0  0
   -0.0238    4.6247    0.2139 H   0  0  0  0  0  0  0  0  0  0  0  0
   -3.6398    1.1147   -0.5180 H   0  0  0  0  0  0  0  0  0  0  0  0
   -3.5206   -2.1273   -3.3353 H   0  0  0  0  0  0  0  0  0  0  0  0
   -4.1161    0.2162   -2.7803 H   0  0  0  0  0  0  0  0  0  0  0  0
    7.1224   -0.6879   -0.6428 H   0  0  0  0  0  0  0  0  0  0  0  0
   -2.7405    2.5695    2.1005 H   0  0  0  0  0  0  0  0  0  0  0  0
  1 14  2  0  0  0  0
  2 16  2  0  0  0  0
  3 18  1  0  0  0  0
  3 45  1  0  0  0  0
  4 18  2  0  0  0  0
  5 25  1  0  0  0  0
  5 46  1  0  0  0  0
  6 25  2  0  0  0  0
  7 10  1  0  0  0  0
  7 14  1  0  0  0  0
  7 30  1  0  0  0  0
  8 12  1  0  0  0  0
  8 35  1  0  0  0  0
  8 36  1  0  0  0  0
  9 16  1  0  0  0  0
  9 21  1  0  0  0  0
  9 37  1  0  0  0  0
 10 11  1  0  0  0  0
 10 16  1  0  0  0  0
 10 26  1  0  0  0  0
 11 15  1  0  0  0  0
 11 27  1  0  0  0  0
 11 28  1  0  0  0  0
 12 13  1  0  0  0  0
 12 14  1  0  0  0  0
 12 29  1  0  0  0  0
 13 17  1  0  0  0  0
 13 31  1  0  0  0  0
 13 32  1  0  0  0  0
 15 18  1  0  0  0  0
 15 33  1  0  0  0  0
 15 34  1  0  0  0  0
 17 19  2  0  0  0  0
 17 20  1  0  0  0  0
 19 22  1  0  0  0  0
 19 38  1  0  0  0  0
 20 23  2  0  0  0  0
 20 39  1  0  0  0  0
 21 25  1  0  0  0  0
 21 40  1  0  0  0  0
 21 41  1  0  0  0  0
 22 24  2  0  0  0  0
 22 42  1  0  0  0  0
 23 24  1  0  0  0  0
 23 43  1  0  0  0  0
 24 44  1  0  0  0  0
M  END
> <PUBCHEM_COMPOUND_CID>
10427992

> <PUBCHEM_CONFORMER_RMSD>
1

> <PUBCHEM_CONFORMER_DIVERSEORDER>
1
115
143
39
133
10
114
93
47
131
125
8
73
139
64
99
16
116
69
117
74
85
118
144
75
6
58
44
149
66
68
33
150
127
77
36
101
111
40
54
92
32
13
107
95
137
25
138
51
53
41
49
52
63
103
120
27
145
78
82
104
119
71
106
123
110
124
34
113
9
135
67
142
96
21
11
57
37
94
14
126
55
140
61
129
130
76
84
128
90
56
86
22
105
147
72
83
46
30
50
18
109
17
122
7
35
132
136
80
70
24
81
100
141
15
31
23
12
42
38
60
26
20
98
59
148
5
79
108
97
88
91
134
48
43
45
62
89
3
87
65
19
146
102
28
121
112
4
29
2

> <PUBCHEM_MMFF94_PARTIAL_CHARGES>
35
1 -0.57
10 0.36
12 0.33
13 0.14
14 0.57
15 0.06
16 0.57
17 -0.14
18 0.66
19 -0.15
2 -0.57
20 -0.15
21 0.36
22 -0.15
23 -0.15
24 -0.15
25 0.66
3 -0.65
30 0.37
35 0.36
36 0.36
37 0.37
38 0.15
39 0.15
4 -0.57
42 0.15
43 0.15
44 0.15
45 0.5
46 0.5
5 -0.65
6 -0.57
7 -0.73
8 -0.99
9 -0.73

> <PUBCHEM_EFFECTIVE_ROTOR_COUNT>
12

> <PUBCHEM_PHARMACOPHORE_FEATURES>
13
1 1 acceptor
1 2 acceptor
1 3 acceptor
1 4 acceptor
1 5 acceptor
1 6 acceptor
1 7 donor
1 8 cation
1 8 donor
1 9 donor
3 3 4 18 anion
3 5 6 25 anion
6 17 19 20 22 23 24 rings

> <PUBCHEM_HEAVY_ATOM_COUNT>
25

> <PUBCHEM_ATOM_DEF_STEREO_COUNT>
2

> <PUBCHEM_ATOM_UDEF_STEREO_COUNT>
0

> <PUBCHEM_BOND_DEF_STEREO_COUNT>
0

> <PUBCHEM_BOND_UDEF_STEREO_COUNT>
0

> <PUBCHEM_ISOTOPIC_ATOM_COUNT>
0

> <PUBCHEM_COMPONENT_COUNT>
1

> <PUBCHEM_CACTVS_TAUTO_COUNT>
4

> <PUBCHEM_CONFORMER_ID>
009F1E5800000001

> <PUBCHEM_MMFF94_ENERGY>
42.466

> <PUBCHEM_FEATURE_SELFOVERLAP>
66.091

> <PUBCHEM_SHAPE_FINGERPRINT>
10165383 225 17749383780913332247
10871710 139 18339080372334213089
12788726 201 18411131403577424578
13134695 92 17981045524507297932
13583140 156 13972868030311104948
14114206 34 18265591287081785941
14251740 79 18335419050089743950
14251757 17 17972029512101016952
20465049 17 18336254748094937775
20600515 1 17899670626286941152
20775438 99 16757437645854914799
22620623 9 18130519547942657284
23402539 116 18412545422807111102
23558518 356 18263937535836682422
238 59 17189229026477947709
23929065 36 18198601308246095712
3027735 51 18342182120427312234
394222 165 16734367340418111266
5171179 24 17988636454423852208
5262128 65 17913202346044149631
5283173 99 17969214706963650588
621550 5 16883316235187210643
6438718 38 17986701249222700641
7226269 152 18335129930319140106

> <PUBCHEM_SHAPE_MULTIPOLES>
464.33
8.39
4.94
1.84
15.53
4.85
-0.17
-2.93
-5.64
-4.32
2.53
-1.1
-0.93
-1.23

> <PUBCHEM_SHAPE_SELFOVERLAP>
945.997

> <PUBCHEM_SHAPE_VOLUME>
266.1

> <PUBCHEM_COORDINATE_TYPE>
2
5
10

$$$$
