REMARK  Name = 10422256
REMARK  8 active torsions:
REMARK  status: ('A' for Active; 'I' for Inactive)
REMARK    1  A    between atoms: C_2  and  C_13
REMARK    2  A    between atoms: CA_5  and  C_10
REMARK    3  A    between atoms: C_10  and  O_11
REMARK    4  A    between atoms: C_13  and  C_14
REMARK    5  A    between atoms: C_14  and  C_15
REMARK    6  A    between atoms: C_15  and  P_16
REMARK    7  A    between atoms: P_16  and  O_18
REMARK    8  A    between atoms: P_16  and  O_20
REMARK                            x       y       z     vdW  Elec       q    Type
REMARK                         _______ _______ _______ _____ _____    ______ ____
ROOT
ATOM      1  N   UNL     1      -3.151  -1.393   0.059  0.00  0.00    +0.392 N 
ATOM      2  C   UNL     1      -0.619   0.042  -0.294  0.00  0.00    -0.004 C 
ATOM      3  C   UNL     1      -1.925   0.760   0.065  0.00  0.00    -0.011 C 
ATOM      4  C   UNL     1      -0.679  -1.413   0.185  0.00  0.00    -0.023 C 
ATOM      5  CA  UNL     1      -3.139  -0.020  -0.444  0.00  0.00    +0.040 C 
ATOM      6  C   UNL     1      -1.937  -2.113  -0.328  0.00  0.00    -0.081 C 
ATOM      7  H1  UNL     1      -3.961  -1.880  -0.322  0.00  0.00    -0.084 HD
ATOM      8  H2  UNL     1      -3.194  -1.362   1.078  0.00  0.00    -0.084 HD
ENDROOT
BRANCH   5  10
ATOM      9  OXT UNL     1      -5.231   0.073   0.759  0.00  0.00    -0.253 OA
ATOM     10  C   UNL     1      -4.398   0.619   0.049  0.00  0.00    +0.293 C 
BRANCH  10  11
ATOM     11  O   UNL     1      -4.497   1.893  -0.401  0.00  0.00    -0.482 OA
ATOM     12  H   UNL     1      -3.822   2.252  -0.943  0.00  0.00    +0.295 HD
ENDBRANCH  10  11
ENDBRANCH   5  10
BRANCH   2  13
ATOM     13  C   UNL     1       0.587   0.766   0.301  0.00  0.00    +0.001 C 
BRANCH  13  14
ATOM     14  C   UNL     1       1.895   0.114  -0.140  0.00  0.00    +0.013 C 
BRANCH  14  15
ATOM     15  C   UNL     1       3.109   0.809   0.461  0.00  0.00    +0.116 C 
BRANCH  15  16
ATOM     16  P   UNL     1       4.686   0.117  -0.087  0.00  0.00    +0.337 P 
ATOM     17  O   UNL     1       4.890   0.190  -1.559  0.00  0.00    -0.258 OA
BRANCH  16  18
ATOM     18  O   UNL     1       4.659  -1.359   0.555  0.00  0.00    -0.324 OA
ATOM     19  H   UNL     1       5.474  -1.829   0.320  0.00  0.00    +0.220 HD
ENDBRANCH  16  18
BRANCH  16  20
ATOM     20  O   UNL     1       5.749   0.917   0.819  0.00  0.00    -0.324 OA
ATOM     21  H   UNL     1       6.647   0.618   0.603  0.00  0.00    +0.220 HD
ENDBRANCH  16  20
ENDBRANCH  15  16
ENDBRANCH  14  15
ENDBRANCH  13  14
ENDBRANCH   2  13
TORSDOF 8
