REMARK  Name = 10428933
REMARK  7 active torsions:
REMARK  status: ('A' for Active; 'I' for Inactive)
REMARK    1  A    between atoms: C_2  and  O_19
REMARK    2  A    between atoms: C_3  and  N_7
REMARK    3  A    between atoms: C_4  and  C_21
REMARK    4  A    between atoms: C_21  and  O_22
REMARK    5  A    between atoms: O_22  and  P_23
REMARK    6  A    between atoms: P_23  and  O_25
REMARK    7  A    between atoms: P_23  and  O_27
REMARK                            x       y       z     vdW  Elec       q    Type
REMARK                         _______ _______ _______ _____ _____    ______ ____
ROOT
ATOM      1  O   UNL     1       0.626  -1.443   0.929  0.00  0.00    -0.335 OA
ATOM      2  C   UNL     1       1.558  -2.859  -0.746  0.00  0.00    +0.144 C 
ATOM      3  C   UNL     1      -0.429  -2.222   0.339  0.00  0.00    +0.198 C 
ATOM      4  C   UNL     1       1.860  -1.736   0.240  0.00  0.00    +0.174 C 
ATOM      5  C   UNL     1       0.080  -2.692  -1.017  0.00  0.00    +0.083 C 
ENDROOT
BRANCH   3   7
ATOM      6 CL   UNL     1      -0.081   3.270  -0.496  0.00  0.00    +0.024 Cl
ATOM      7  N   UNL     1      -1.655  -1.435   0.280  0.00  0.00    -0.238 N 
ATOM      8  N   UNL     1      -3.838  -0.965   0.309  0.00  0.00    -0.240 NA
ATOM      9  N   UNL     1      -0.759   0.792  -0.094  0.00  0.00    -0.314 NA
ATOM     10  N   UNL     1      -2.541   2.452  -0.259  0.00  0.00    -0.314 NA
ATOM     11  C   UNL     1      -1.758  -0.085   0.083  0.00  0.00    +0.221 C 
ATOM     12  C   UNL     1      -2.933  -1.917   0.409  0.00  0.00    +0.224 C 
ATOM     13  C   UNL     1      -3.117   0.185   0.106  0.00  0.00    +0.167 C 
ATOM     14  C   UNL     1      -3.498   1.511  -0.074  0.00  0.00    +0.212 C 
ATOM     15  C   UNL     1      -1.250   2.040  -0.257  0.00  0.00    +0.207 C 
ATOM     16  N   UNL     1      -4.855   1.876  -0.065  0.00  0.00    -0.331 N 
ATOM     17  H   UNL     1      -5.112   2.818  -0.193  0.00  0.00    +0.145 HD
ATOM     18  H   UNL     1      -5.548   1.191   0.069  0.00  0.00    +0.145 HD
ENDBRANCH   3   7
BRANCH   2  19
ATOM     19  O   UNL     1       1.760  -4.120  -0.111  0.00  0.00    -0.382 OA
ATOM     20  H   UNL     1       2.705  -4.243   0.069  0.00  0.00    +0.210 HD
ENDBRANCH   2  19
BRANCH   4  21
ATOM     21  C   UNL     1       2.330  -0.462  -0.448  0.00  0.00    +0.186 C 
BRANCH  21  22
ATOM     22  O   UNL     1       2.575   0.523   0.541  0.00  0.00    -0.271 OA
BRANCH  22  23
ATOM     23  P   UNL     1       3.712   1.640   0.254  0.00  0.00    +0.473 P 
ATOM     24  O   UNL     1       3.906   2.644   1.352  0.00  0.00    -0.227 OA
BRANCH  23  25
ATOM     25  O   UNL     1       3.291   2.257  -1.181  0.00  0.00    -0.303 OA
ATOM     26  H   UNL     1       3.189   1.538  -1.824  0.00  0.00    +0.222 HD
ENDBRANCH  23  25
BRANCH  23  27
ATOM     27  O   UNL     1       5.015   0.747  -0.094  0.00  0.00    -0.303 OA
ATOM     28  H   UNL     1       4.802   0.129  -0.810  0.00  0.00    +0.222 HD
ENDBRANCH  23  27
ENDBRANCH  22  23
ENDBRANCH  21  22
ENDBRANCH   4  21
TORSDOF 7
