REMARK  Name = 104294
REMARK  11 active torsions:
REMARK  status: ('A' for Active; 'I' for Inactive)
REMARK    1  A    between atoms: N_2  and  CA_5
REMARK    2  A    between atoms: C_3  and  CA_14
REMARK    3  A    between atoms: CA_5  and  C_7
REMARK    4  A    between atoms: CA_5  and  CB_10
REMARK    5  A    between atoms: C_7  and  O_8
REMARK    6  A    between atoms: CB_10  and  CG_11
REMARK    7  A    between atoms: CG_11  and  SD_12
REMARK    8  A    between atoms: CA_14  and  N_15
REMARK    9  A    between atoms: CA_14  and  CB_19
REMARK   10  A    between atoms: CB_19  and  CG_20
REMARK   11  A    between atoms: CG_20  and  SD_21
REMARK                            x       y       z     vdW  Elec       q    Type
REMARK                         _______ _______ _______ _____ _____    ______ ____
ROOT
ATOM      1  O   MET A   1       0.369   1.575   1.768  0.00  0.00    -0.277 OA
ATOM      2  N   MET A   2      -0.137   0.106   0.044  0.00  0.00    -0.298 N 
ATOM      3  C   MET A   1       0.520   1.190   0.610  0.00  0.00    +0.202 C 
ATOM      4  H   MET A   2       0.056  -0.119  -0.895  0.00  0.00    +0.150 HD
ENDROOT
BRANCH   2   5
ATOM      5  CA  MET A   2      -1.089  -0.708   0.764  0.00  0.00    +0.172 C 
BRANCH   5   7
ATOM      6  OXT MET A   2      -1.674  -3.053   0.908  0.00  0.00    -0.248 OA
ATOM      7  C   MET A   2      -1.024  -2.173   0.356  0.00  0.00    +0.332 C 
BRANCH   7   8
ATOM      8  O   MET A   2      -0.143  -2.440  -0.638  0.00  0.00    -0.479 OA
ATOM      9  H   MET A   2       0.338  -1.742  -1.039  0.00  0.00    +0.295 HD
ENDBRANCH   7   8
ENDBRANCH   5   7
BRANCH   5  10
ATOM     10  CB  MET A   2      -2.511  -0.142   0.661  0.00  0.00    +0.043 C 
BRANCH  10  11
ATOM     11  CG  MET A   2      -3.113  -0.249  -0.742  0.00  0.00    +0.060 C 
BRANCH  11  12
ATOM     12  SD  MET A   2      -4.789   0.452  -0.766  0.00  0.00    -0.139 S 
ATOM     13  CE  MET A   2      -4.340   2.196  -0.924  0.00  0.00    +0.069 C 
ENDBRANCH  11  12
ENDBRANCH  10  11
ENDBRANCH   5  10
ENDBRANCH   2   5
BRANCH   3  14
ATOM     14  CA  MET A   1       1.461   1.871  -0.380  0.00  0.00    +0.014 C 
BRANCH  14  15
ATOM     15  N   MET A   1       2.043   3.046   0.268  0.00  0.00    +0.387 N 
ATOM     16  H1  MET A   1       2.675   3.514  -0.380  0.00  0.00    -0.089 HD
ATOM     17  H2  MET A   1       2.560   2.755   1.098  0.00  0.00    -0.089 HD
ATOM     18  H3  MET A   1       1.298   3.688   0.540  0.00  0.00    -0.089 HD
ENDBRANCH  14  15
BRANCH  14  19
ATOM     19  CB  MET A   1       2.544   0.909  -0.897  0.00  0.00    -0.001 C 
BRANCH  19  20
ATOM     20  CG  MET A   1       3.476   0.373   0.193  0.00  0.00    +0.056 C 
BRANCH  20  21
ATOM     21  SD  MET A   1       4.721  -0.741  -0.524  0.00  0.00    -0.139 S 
ATOM     22  CE  MET A   1       3.684  -2.211  -0.700  0.00  0.00    +0.069 C 
ENDBRANCH  20  21
ENDBRANCH  19  20
ENDBRANCH  14  19
ENDBRANCH   3  14
TORSDOF 11
