REMARK  Name = 10429214
REMARK  5 active torsions:
REMARK  status: ('A' for Active; 'I' for Inactive)
REMARK    1  A    between atoms: C_9  and  O_23
REMARK    2  A    between atoms: C_15  and  O_25
REMARK    3  A    between atoms: C_16  and  O_27
REMARK    4  A    between atoms: C_19  and  O_29
REMARK    5  A    between atoms: C_20  and  O_31
REMARK                            x       y       z     vdW  Elec       q    Type
REMARK                         _______ _______ _______ _____ _____    ______ ____
ROOT
ATOM      1  O   UNL     1      -1.351  -0.850  -0.001  0.00  0.00    -0.441 OA
ATOM      2  O   UNL     1       1.350  -0.851  -0.001  0.00  0.00    -0.444 OA
ATOM      3  O   UNL     1      -2.762   1.628   0.001  0.00  0.00    -0.444 OA
ATOM      4  O   UNL     1       2.763   1.626  -0.001  0.00  0.00    -0.444 OA
ATOM      5  C   UNL     1      -0.698   0.358  -0.001  0.00  0.00    +0.220 C 
ATOM      6  C   UNL     1       0.698   0.357  -0.001  0.00  0.00    +0.217 C 
ATOM      7  C   UNL     1      -1.391   1.569   0.000  0.00  0.00    +0.216 C 
ATOM      8  C   UNL     1       1.392   1.568  -0.001  0.00  0.00    +0.186 C 
ATOM      9  C   UNL     1      -0.697   2.780   0.000  0.00  0.00    +0.175 C 
ATOM     10  C   UNL     1      -2.721  -0.791  -0.001  0.00  0.00    +0.213 C 
ATOM     11  C   UNL     1       0.698   2.779   0.000  0.00  0.00    +0.081 C 
ATOM     12  C   UNL     1       2.720  -0.793  -0.001  0.00  0.00    +0.186 C 
ATOM     13  C   UNL     1      -3.410   0.419   0.000  0.00  0.00    +0.186 C 
ATOM     14  C   UNL     1       3.410   0.417   0.000  0.00  0.00    +0.213 C 
ATOM     15  C   UNL     1      -3.420  -1.997  -0.001  0.00  0.00    +0.175 C 
ATOM     16  C   UNL     1       4.805   0.429   0.001  0.00  0.00    +0.175 C 
ATOM     17  C   UNL     1       3.419  -2.000  -0.001  0.00  0.00    +0.077 C 
ATOM     18  C   UNL     1      -4.805   0.432   0.001  0.00  0.00    +0.077 C 
ATOM     19  C   UNL     1      -5.507  -0.774   0.001  0.00  0.00    +0.140 C 
ATOM     20  C   UNL     1       4.814  -1.990   0.000  0.00  0.00    +0.140 C 
ATOM     21  C   UNL     1      -4.815  -1.986   0.000  0.00  0.00    +0.077 C 
ATOM     22  C   UNL     1       5.506  -0.777   0.001  0.00  0.00    +0.077 C 
ENDROOT
BRANCH   9  23
ATOM     23  O   UNL     1      -1.364   3.967   0.001  0.00  0.00    -0.503 OA
ATOM     24  H   UNL     1      -2.301   3.978   0.001  0.00  0.00    +0.292 HD
ENDBRANCH   9  23
BRANCH  15  25
ATOM     25  O   UNL     1      -2.761  -3.189   0.001  0.00  0.00    -0.503 OA
ATOM     26  H   UNL     1      -1.824  -3.206   0.000  0.00  0.00    +0.292 HD
ENDBRANCH  15  25
BRANCH  16  27
ATOM     27  O   UNL     1       5.495   1.603   0.001  0.00  0.00    -0.503 OA
ATOM     28  H   UNL     1       5.032   2.418   0.001  0.00  0.00    +0.292 HD
ENDBRANCH  16  27
BRANCH  19  29
ATOM     29  O   UNL     1      -6.868  -0.768   0.000  0.00  0.00    -0.505 OA
ATOM     30  H   UNL     1      -7.333   0.045   0.001  0.00  0.00    +0.292 HD
ENDBRANCH  19  29
BRANCH  20  31
ATOM     31  O   UNL     1       5.501  -3.165   0.001  0.00  0.00    -0.505 OA
ATOM     32  H   UNL     1       5.038  -3.979   0.001  0.00  0.00    +0.292 HD
ENDBRANCH  20  31
TORSDOF 5
