REMARK  Name = 10423557
REMARK  6 active torsions:
REMARK  status: ('A' for Active; 'I' for Inactive)
REMARK    1  A    between atoms: C_5  and  O_13
REMARK    2  A    between atoms: C_6  and  O_15
REMARK    3  A    between atoms: C_7  and  C_20
REMARK    4  A    between atoms: C_9  and  O_17
REMARK    5  A    between atoms: C_20  and  O_21
REMARK    6  A    between atoms: O_21  and  C_22
REMARK                            x       y       z     vdW  Elec       q    Type
REMARK                         _______ _______ _______ _____ _____    ______ ____
ROOT
ATOM      1  O   UNL     1      -0.371   3.509   0.989  0.00  0.00    -0.288 OA
ATOM      2  C   UNL     1      -0.616  -0.600   0.512  0.00  0.00    -0.013 C 
ATOM      3  C   UNL     1      -1.512   0.358  -0.200  0.00  0.00    +0.042 C 
ATOM      4  C   UNL     1       0.703  -0.438   0.721  0.00  0.00    +0.059 C 
ATOM      5  C   UNL     1      -2.726  -0.255  -0.813  0.00  0.00    +0.135 C 
ATOM      6  C   UNL     1      -1.338   1.701  -0.191  0.00  0.00    +0.197 C 
ATOM      7  C   UNL     1       1.542   0.655   0.305  0.00  0.00    +0.061 C 
ATOM      8  C   UNL     1      -1.220  -1.848   1.012  0.00  0.00    +0.033 C 
ATOM      9  C   UNL     1      -2.430  -2.237   0.573  0.00  0.00    +0.136 C 
ATOM     10  C   UNL     1      -3.148  -1.471  -0.424  0.00  0.00    +0.073 C 
ATOM     11  C   UNL     1      -0.193   2.430   0.428  0.00  0.00    +0.204 C 
ATOM     12  C   UNL     1       1.181   1.938   0.206  0.00  0.00    +0.043 C 
ENDROOT
BRANCH   5  13
ATOM     13  O   UNL     1      -3.386   0.403  -1.832  0.00  0.00    -0.506 OA
ATOM     14  H   UNL     1      -3.097   1.251  -2.108  0.00  0.00    +0.292 HD
ENDBRANCH   5  13
BRANCH   6  15
ATOM     15  O   UNL     1      -2.311   2.541  -0.720  0.00  0.00    -0.373 OA
ATOM     16  H   UNL     1      -3.070   2.177  -1.131  0.00  0.00    +0.211 HD
ENDBRANCH   6  15
BRANCH   9  17
ATOM     17  O   UNL     1      -3.054  -3.392   0.983  0.00  0.00    -0.505 OA
ATOM     18  H   UNL     1      -2.649  -3.940   1.626  0.00  0.00    +0.292 HD
ENDBRANCH   9  17
BRANCH   7  20
ATOM     19  O   UNL     1       3.839   1.237   0.255  0.00  0.00    -0.245 OA
ATOM     20  C   UNL     1       2.975   0.397   0.086  0.00  0.00    +0.338 C 
BRANCH  20  21
ATOM     21  O   UNL     1       3.121  -0.889  -0.315  0.00  0.00    -0.446 OA
BRANCH  21  22
ATOM     22  C   UNL     1       4.470  -1.295  -0.570  0.00  0.00    +0.209 C 
ATOM     23  C   UNL     1       4.474  -2.744  -1.007  0.00  0.00    +0.051 C 
ENDBRANCH  21  22
ENDBRANCH  20  21
ENDBRANCH   7  20
TORSDOF 6
