REMARK  Name = 10427992
REMARK  13 active torsions:
REMARK  status: ('A' for Active; 'I' for Inactive)
REMARK    1  A    between atoms: N_2  and  CA_5
REMARK    2  A    between atoms: C_3  and  CA_21
REMARK    3  A    between atoms: CA_5  and  C_8
REMARK    4  A    between atoms: CA_5  and  CB_15
REMARK    5  A    between atoms: N_7  and  CA_10
REMARK    6  A    between atoms: CA_10  and  C_12
REMARK    7  A    between atoms: C_12  and  O_13
REMARK    8  A    between atoms: CB_15  and  CG_16
REMARK    9  A    between atoms: CG_16  and  CD_18
REMARK   10  A    between atoms: CD_18  and  OE1_19
REMARK   11  A    between atoms: CA_21  and  N_22
REMARK   12  A    between atoms: CA_21  and  CB_26
REMARK   13  A    between atoms: CB_26  and  CG_27
REMARK                            x       y       z     vdW  Elec       q    Type
REMARK                         _______ _______ _______ _____ _____    ______ ____
ROOT
ATOM      1  O   PHE A   1      -0.089  -0.838   2.256  0.00  0.00    -0.277 OA
ATOM      2  N   GLU A   2       0.985  -0.862   0.201  0.00  0.00    -0.300 N 
ATOM      3  C   PHE A   1       0.212  -1.415   1.212  0.00  0.00    +0.202 C 
ATOM      4  H   GLU A   2       1.175  -1.401  -0.601  0.00  0.00    +0.150 HD
ENDROOT
BRANCH   2   5
ATOM      5  CA  GLU A   2       1.520   0.475   0.287  0.00  0.00    +0.149 C 
BRANCH   5   8
ATOM      6  O   GLU A   2      -0.291   1.052  -1.209  0.00  0.00    -0.273 OA
ATOM      7  N   GLY A   3       0.401   2.620   0.357  0.00  0.00    -0.294 N 
ATOM      8  C   GLU A   2       0.436   1.387  -0.276  0.00  0.00    +0.241 C 
ATOM      9  H   GLY A   3       1.031   2.785   1.096  0.00  0.00    +0.150 HD
BRANCH   7  10
ATOM     10  CA  GLY A   3      -0.514   3.674  -0.014  0.00  0.00    +0.200 C 
BRANCH  10  12
ATOM     11  OXT GLY A   3      -2.732   4.408   0.566  0.00  0.00    -0.248 OA
ATOM     12  C   GLY A   3      -1.818   3.611   0.739  0.00  0.00    +0.334 C 
BRANCH  12  13
ATOM     13  O   GLY A   3      -1.882   2.591   1.627  0.00  0.00    -0.479 OA
ATOM     14  H   GLY A   3      -1.155   2.008   1.722  0.00  0.00    +0.295 HD
ENDBRANCH  12  13
ENDBRANCH  10  12
ENDBRANCH   7  10
ENDBRANCH   5   8
BRANCH   5  15
ATOM     15  CB  GLU A   2       2.827   0.588  -0.506  0.00  0.00    +0.041 C 
BRANCH  15  16
ATOM     16  CG  GLU A   2       3.977  -0.254   0.051  0.00  0.00    +0.112 C 
BRANCH  16  18
ATOM     17  OE2 GLU A   2       5.433   0.655  -1.676  0.00  0.00    -0.250 OA
ATOM     18  CD  GLU A   2       5.273  -0.074  -0.708  0.00  0.00    +0.314 C 
BRANCH  18  19
ATOM     19  OE1 GLU A   2       6.276  -0.811  -0.162  0.00  0.00    -0.480 OA
ATOM     20  HE1 GLU A   2       6.106  -1.357   0.580  0.00  0.00    +0.295 HD
ENDBRANCH  18  19
ENDBRANCH  16  18
ENDBRANCH  15  16
ENDBRANCH   5  15
ENDBRANCH   2   5
BRANCH   3  21
ATOM     21  CA  PHE A   1      -0.261  -2.828   0.884  0.00  0.00    +0.017 C 
BRANCH  21  22
ATOM     22  N   PHE A   1       0.305  -3.710   1.905  0.00  0.00    +0.388 N 
ATOM     23  H1  PHE A   1       0.014  -4.670   1.725  0.00  0.00    -0.089 HD
ATOM     24  H2  PHE A   1      -0.027  -3.421   2.826  0.00  0.00    -0.089 HD
ATOM     25  H3  PHE A   1       1.323  -3.653   1.878  0.00  0.00    -0.089 HD
ENDBRANCH  21  22
BRANCH  21  26
ATOM     26  CB  PHE A   1      -1.794  -2.909   0.914  0.00  0.00    +0.013 C 
BRANCH  26  27
ATOM     27  CG  PHE A   1      -2.448  -2.030  -0.126  0.00  0.00    -0.024 C 
ATOM     28  CD1 PHE A   1      -2.774  -0.723   0.199  0.00  0.00    -0.004 C 
ATOM     29  CD2 PHE A   1      -2.708  -2.546  -1.385  0.00  0.00    -0.004 C 
ATOM     30  CE1 PHE A   1      -3.377   0.089  -0.761  0.00  0.00    -0.000 C 
ATOM     31  CE2 PHE A   1      -3.312  -1.734  -2.345  0.00  0.00    -0.000 C 
ATOM     32  CZ  PHE A   1      -3.646  -0.416  -2.033  0.00  0.00    -0.000 C 
ENDBRANCH  26  27
ENDBRANCH  21  26
ENDBRANCH   3  21
TORSDOF 13
