REMARK  Name = 10429090
REMARK  4 active torsions:
REMARK  status: ('A' for Active; 'I' for Inactive)
REMARK    1  A    between atoms: C_8  and  O_24
REMARK    2  A    between atoms: C_12  and  O_26
REMARK    3  A    between atoms: C_20  and  O_28
REMARK    4  A    between atoms: C_22  and  O_30
REMARK                            x       y       z     vdW  Elec       q    Type
REMARK                         _______ _______ _______ _____ _____    ______ ____
ROOT
ATOM      1  O   UNL     1      -3.087  -2.021   0.840  0.00  0.00    -0.479 OA
ATOM      2  O   UNL     1       1.336   2.418   0.323  0.00  0.00    -0.286 OA
ATOM      3  O   UNL     1       1.882  -2.888  -0.049  0.00  0.00    -0.287 OA
ATOM      4  C   UNL     1      -3.479   0.345   1.138  0.00  0.00    +0.068 C 
ATOM      5  C   UNL     1      -4.106  -0.992   0.693  0.00  0.00    +0.172 C 
ATOM      6  C   UNL     1      -4.126   1.596   0.552  0.00  0.00    +0.011 C 
ATOM      7  C   UNL     1      -4.607  -1.029  -0.759  0.00  0.00    +0.073 C 
ATOM      8  C   UNL     1      -5.363   0.230  -1.156  0.00  0.00    +0.114 C 
ATOM      9  C   UNL     1      -4.502   1.466  -0.918  0.00  0.00    +0.030 C 
ATOM     10  C   UNL     1      -2.063   0.050   0.785  0.00  0.00    +0.049 C 
ATOM     11  C   UNL     1      -1.908  -1.327   0.685  0.00  0.00    +0.137 C 
ATOM     12  C   UNL     1      -0.973   0.892   0.649  0.00  0.00    +0.136 C 
ATOM     13  C   UNL     1      -0.682  -1.918   0.451  0.00  0.00    +0.040 C 
ATOM     14  C   UNL     1       0.283   0.320   0.394  0.00  0.00    +0.076 C 
ATOM     15  C   UNL     1       0.427  -1.076   0.298  0.00  0.00    +0.048 C 
ATOM     16  C   UNL     1       1.458   1.202   0.238  0.00  0.00    +0.202 C 
ATOM     17  C   UNL     1       1.754  -1.672   0.037  0.00  0.00    +0.196 C 
ATOM     18  C   UNL     1       2.781   0.601  -0.023  0.00  0.00    +0.076 C 
ATOM     19  C   UNL     1       2.923  -0.785  -0.120  0.00  0.00    +0.048 C 
ATOM     20  C   UNL     1       3.899   1.430  -0.173  0.00  0.00    +0.140 C 
ATOM     21  C   UNL     1       4.184  -1.341  -0.368  0.00  0.00    +0.040 C 
ATOM     22  C   UNL     1       5.296  -0.511  -0.517  0.00  0.00    +0.137 C 
ATOM     23  C   UNL     1       5.153   0.872  -0.420  0.00  0.00    +0.073 C 
ENDROOT
BRANCH   8  24
ATOM     24  O   UNL     1      -5.695   0.170  -2.539  0.00  0.00    -0.384 OA
ATOM     25  H   UNL     1      -6.244  -0.613  -2.706  0.00  0.00    +0.210 HD
ENDBRANCH   8  24
BRANCH  12  26
ATOM     26  O   UNL     1      -1.141   2.231   0.807  0.00  0.00    -0.506 OA
ATOM     27  H   UNL     1      -1.994   2.580   0.977  0.00  0.00    +0.292 HD
ENDBRANCH  12  26
BRANCH  20  28
ATOM     28  O   UNL     1       3.833   2.790  -0.089  0.00  0.00    -0.505 OA
ATOM     29  H   UNL     1       3.012   3.210   0.075  0.00  0.00    +0.292 HD
ENDBRANCH  20  28
BRANCH  22  30
ATOM     30  O   UNL     1       6.521  -1.052  -0.758  0.00  0.00    -0.505 OA
ATOM     31  H   UNL     1       6.618  -1.982  -0.824  0.00  0.00    +0.292 HD
ENDBRANCH  22  30
TORSDOF 4
