REMARK  Name = 10428463
REMARK  10 active torsions:
REMARK  status: ('A' for Active; 'I' for Inactive)
REMARK    1  A    between atoms: N_2  and  CA_9
REMARK    2  A    between atoms: C_3  and  C_19
REMARK    3  A    between atoms: CA_11  and  C_16
REMARK    4  A    between atoms: C_16  and  O_17
REMARK    5  A    between atoms: C_19  and  C_20
REMARK    6  A    between atoms: C_20  and  C_21
REMARK    7  A    between atoms: C_21  and  C_22
REMARK    8  A    between atoms: C_22  and  O_23
REMARK    9  A    between atoms: C_22  and  C_26
REMARK   10  A    between atoms: C_26  and  O_27
REMARK                            x       y       z     vdW  Elec       q    Type
REMARK                         _______ _______ _______ _____ _____    ______ ____
ROOT
ATOM      1  O   UNL     1      -1.468   2.842  -1.637  0.00  0.00    -0.275 OA
ATOM      2  N   UNL     1      -0.316   2.367   0.323  0.00  0.00    -0.296 N 
ATOM      3  C   UNL     1      -1.452   2.636  -0.425  0.00  0.00    +0.223 C 
ATOM      4  H   UNL     1      -0.411   2.217   1.291  0.00  0.00    +0.150 HD
ENDROOT
BRANCH   2   9
ATOM      5  S   UNL     1       1.768   1.168   2.235  0.00  0.00    -0.114 S 
ATOM      6  O   UNL     1       0.764   0.718  -2.282  0.00  0.00    -0.273 OA
ATOM      7  N   UNL     1       2.065   0.527  -0.325  0.00  0.00    -0.242 N 
ATOM      8  C   UNL     1       2.177   1.680   0.550  0.00  0.00    +0.155 C 
ATOM      9  CA  UNL     1       1.028   2.298  -0.277  0.00  0.00    +0.178 C 
ATOM     10  C   UNL     1       1.224   1.081  -1.225  0.00  0.00    +0.251 C 
ATOM     11  CA  UNL     1       2.704  -0.651  -0.106  0.00  0.00    +0.124 C 
ATOM     12  C   UNL     1       3.136  -0.038   2.319  0.00  0.00    +0.083 C 
ATOM     13  C   UNL     1       3.260  -0.942   1.095  0.00  0.00    -0.013 C 
ATOM     14  C   UNL     1       4.054  -2.191   1.391  0.00  0.00    +0.029 C 
BRANCH  11  16
ATOM     15  OXT UNL     1       2.190  -2.721  -1.156  0.00  0.00    -0.244 OA
ATOM     16  C   UNL     1       2.707  -1.623  -1.209  0.00  0.00    +0.351 C 
BRANCH  16  17
ATOM     17  O   UNL     1       3.366  -1.101  -2.263  0.00  0.00    -0.476 OA
ATOM     18  H   UNL     1       3.732  -0.240  -2.207  0.00  0.00    +0.295 HD
ENDBRANCH  16  17
ENDBRANCH  11  16
ENDBRANCH   2   9
BRANCH   3  19
ATOM     19  C   UNL     1      -2.718   2.666   0.406  0.00  0.00    +0.085 C 
BRANCH  19  20
ATOM     20  C   UNL     1      -2.988   1.339   1.114  0.00  0.00    +0.013 C 
BRANCH  20  21
ATOM     21  C   UNL     1      -3.225   0.148   0.175  0.00  0.00    +0.041 C 
BRANCH  21  22
ATOM     22  C   UNL     1      -3.601  -1.154   0.886  0.00  0.00    +0.209 C 
BRANCH  22  23
ATOM     23  O   UNL     1      -2.499  -1.588   1.671  0.00  0.00    -0.374 OA
ATOM     24  H   UNL     1      -2.279  -0.905   2.324  0.00  0.00    +0.211 HD
ENDBRANCH  22  23
BRANCH  22  26
ATOM     25  O   UNL     1      -3.273  -3.279  -0.249  0.00  0.00    -0.248 OA
ATOM     26  C   UNL     1      -3.913  -2.245  -0.119  0.00  0.00    +0.341 C 
BRANCH  26  27
ATOM     27  O   UNL     1      -4.988  -1.939  -0.891  0.00  0.00    -0.479 OA
ATOM     28  H   UNL     1      -5.449  -1.135  -0.756  0.00  0.00    +0.295 HD
ENDBRANCH  26  27
ENDBRANCH  22  26
ENDBRANCH  21  22
ENDBRANCH  20  21
ENDBRANCH  19  20
ENDBRANCH   3  19
TORSDOF 10
