REMARK  Name = 10423558
REMARK  7 active torsions:
REMARK  status: ('A' for Active; 'I' for Inactive)
REMARK    1  A    between atoms: C_1  and  C_12
REMARK    2  A    between atoms: C_2  and  O_7
REMARK    3  A    between atoms: C_3  and  O_9
REMARK    4  A    between atoms: C_6  and  O_23
REMARK    5  A    between atoms: C_12  and  C_13
REMARK    6  A    between atoms: C_16  and  O_19
REMARK    7  A    between atoms: C_18  and  O_21
REMARK                            x       y       z     vdW  Elec       q    Type
REMARK                         _______ _______ _______ _____ _____    ______ ____
ROOT
ATOM      1  C   UNL     1      -1.254  -0.290   0.413  0.00  0.00    +0.107 C 
ATOM      2  C   UNL     1      -1.855  -0.597  -0.788  0.00  0.00    +0.148 C 
ATOM      3  C   UNL     1      -1.756   0.663   1.271  0.00  0.00    +0.143 C 
ATOM      4  C   UNL     1      -3.018   0.084  -1.149  0.00  0.00    +0.074 C 
ATOM      5  C   UNL     1      -2.918   1.345   0.910  0.00  0.00    +0.073 C 
ATOM      6  C   UNL     1      -3.549   1.055  -0.300  0.00  0.00    +0.140 C 
ENDROOT
BRANCH   2   7
ATOM      7  O   UNL     1      -1.353  -1.542  -1.632  0.00  0.00    -0.471 OA
ATOM      8  C   UNL     1      -1.815  -2.880  -1.455  0.00  0.00    +0.252 C 
ENDBRANCH   2   7
BRANCH   3   9
ATOM      9  O   UNL     1      -1.156   0.962   2.458  0.00  0.00    -0.505 OA
ATOM     10  H   UNL     1      -0.374   0.513   2.714  0.00  0.00    +0.292 HD
ENDBRANCH   3   9
BRANCH   1  12
ATOM     11  O   UNL     1      -0.141  -2.068   1.448  0.00  0.00    -0.286 OA
ATOM     12  C   UNL     1      -0.009  -1.019   0.800  0.00  0.00    +0.202 C 
BRANCH  12  13
ATOM     13  C   UNL     1       1.318  -0.540   0.443  0.00  0.00    +0.042 C 
ATOM     14  C   UNL     1       1.460   0.639  -0.288  0.00  0.00    +0.043 C 
ATOM     15  C   UNL     1       2.447  -1.262   0.831  0.00  0.00    +0.006 C 
ATOM     16  C   UNL     1       2.732   1.097  -0.632  0.00  0.00    +0.168 C 
ATOM     17  C   UNL     1       3.719  -0.804   0.487  0.00  0.00    +0.040 C 
ATOM     18  C   UNL     1       3.862   0.375  -0.244  0.00  0.00    +0.167 C 
BRANCH  16  19
ATOM     19  O   UNL     1       2.860   2.249  -1.347  0.00  0.00    -0.503 OA
ATOM     20  H   UNL     1       2.096   2.728  -1.603  0.00  0.00    +0.292 HD
ENDBRANCH  16  19
BRANCH  18  21
ATOM     21  O   UNL     1       5.109   0.813  -0.573  0.00  0.00    -0.503 OA
ATOM     22  H   UNL     1       5.214   1.604  -1.064  0.00  0.00    +0.292 HD
ENDBRANCH  18  21
ENDBRANCH  12  13
ENDBRANCH   1  12
BRANCH   6  23
ATOM     23  O   UNL     1      -4.683   1.720  -0.652  0.00  0.00    -0.505 OA
ATOM     24  H   UNL     1      -5.107   1.526  -1.465  0.00  0.00    +0.292 HD
ENDBRANCH   6  23
TORSDOF 7
