REMARK  Name = 10424358
REMARK  4 active torsions:
REMARK  status: ('A' for Active; 'I' for Inactive)
REMARK    1  A    between atoms: C_6  and  O_22
REMARK    2  A    between atoms: C_9  and  C_24
REMARK    3  A    between atoms: C_15  and  N_19
REMARK    4  A    between atoms: C_24  and  O_25
REMARK                            x       y       z     vdW  Elec       q    Type
REMARK                         _______ _______ _______ _____ _____    ______ ____
ROOT
ATOM      1  O   UNL     1      -1.408  -2.803  -0.222  0.00  0.00    -0.286 OA
ATOM      2  O   UNL     1      -1.779   2.531  -0.131  0.00  0.00    -0.286 OA
ATOM      3  N   UNL     1       2.749  -0.662   1.891  0.00  0.00    +0.388 N 
ATOM      4  N   UNL     1       0.970  -1.129  -0.335  0.00  0.00    -0.290 N 
ATOM      5  C   UNL     1       2.988  -0.271   0.503  0.00  0.00    -0.036 C 
ATOM      6  C   UNL     1       1.880   0.032  -0.459  0.00  0.00    +0.140 C 
ATOM      7  C   UNL     1       2.857  -1.711   0.892  0.00  0.00    -0.057 C 
ATOM      8  C   UNL     1       1.605  -2.283   0.290  0.00  0.00    +0.070 C 
ATOM      9  C   UNL     1       0.948   1.265  -0.221  0.00  0.00    +0.097 C 
ATOM     10  C   UNL     1      -0.335  -0.710  -0.231  0.00  0.00    +0.088 C 
ATOM     11  C   UNL     1      -0.423   0.619  -0.191  0.00  0.00    +0.040 C 
ATOM     12  C   UNL     1      -1.509  -1.583  -0.164  0.00  0.00    +0.206 C 
ATOM     13  C   UNL     1      -1.714   1.306  -0.114  0.00  0.00    +0.206 C 
ATOM     14  C   UNL     1      -2.839  -0.899  -0.036  0.00  0.00    +0.034 C 
ATOM     15  C   UNL     1      -2.943   0.448  -0.015  0.00  0.00    +0.080 C 
ATOM     16  C   UNL     1      -4.006  -1.846   0.055  0.00  0.00    +0.036 C 
ATOM     17  H   UNL     1       1.845  -0.467   2.322  0.00  0.00    -0.084 HD
ATOM     18  H   UNL     1       3.220  -0.471   2.775  0.00  0.00    -0.084 HD
ENDROOT
BRANCH  15  19
ATOM     19  N   UNL     1      -4.106   1.161   0.090  0.00  0.00    -0.355 N 
ATOM     20  H   UNL     1      -4.080   2.145   0.098  0.00  0.00    +0.142 HD
ATOM     21  H   UNL     1      -4.968   0.691   0.159  0.00  0.00    +0.142 HD
ENDBRANCH  15  19
BRANCH   6  22
ATOM     22  O   UNL     1       2.408   0.084  -1.785  0.00  0.00    -0.341 OA
ATOM     23  C   UNL     1       3.162   1.268  -1.993  0.00  0.00    +0.176 C 
ENDBRANCH   6  22
BRANCH   9  24
ATOM     24  C   UNL     1       1.232   2.078   1.037  0.00  0.00    +0.146 C 
BRANCH  24  25
ATOM     25  O   UNL     1       0.264   3.106   1.139  0.00  0.00    -0.381 OA
ATOM     26  H   UNL     1       0.433   3.632   1.936  0.00  0.00    +0.210 HD
ENDBRANCH  24  25
ENDBRANCH   9  24
TORSDOF 4
