10424498
  -OEChem-03292013303D

 31 32  0     1  0  0  0  0  0999 V2000
    1.3012    0.2045    1.1832 O   0  0  0  0  0  0  0  0  0  0  0  0
    1.4441    2.9871    1.3766 O   0  0  0  0  0  0  0  0  0  0  0  0
   -0.6225   -3.2636    0.0340 O   0  0  0  0  0  0  0  0  0  0  0  0
   -4.5860   -0.9318    0.1092 O   0  0  0  0  0  0  0  0  0  0  0  0
   -0.5210   -0.9425    0.2683 N   0  0  0  0  0  0  0  0  0  0  0  0
    3.8450   -0.8074   -0.2743 N   0  0  0  0  0  0  0  0  0  0  0  0
   -2.5921   -2.0892    0.0742 N   0  0  0  0  0  0  0  0  0  0  0  0
    5.0118   -0.4141   -0.4388 N   0  3  0  0  0  0  0  0  0  0  0  0
   -3.2830    1.4913    0.3974 N   0  0  0  0  0  0  0  0  0  0  0  0
    6.0871   -0.0627   -0.5855 N   0  5  0  0  0  0  0  0  0  0  0  0
   -3.4756    1.9996   -0.7215 N   0  3  0  0  0  0  0  0  0  0  0  0
   -3.6627    2.4823   -1.7390 N   0  5  0  0  0  0  0  0  0  0  0  0
    2.7940    0.1391   -0.6690 C   0  0  1  0  0  0  0  0  0  0  0  0
    1.5428   -0.6276   -1.0275 C   0  0  0  0  0  0  0  0  0  0  0  0
    0.9094   -0.8782    0.3293 C   0  0  1  0  0  0  0  0  0  0  0  0
    2.3646    0.9425    0.5522 C   0  0  1  0  0  0  0  0  0  0  0  0
    1.8266    2.3206    0.1867 C   0  0  0  0  0  0  0  0  0  0  0  0
   -1.2468    0.2416    0.3556 C   0  0  0  0  0  0  0  0  0  0  0  0
   -1.1962   -2.1759    0.1201 C   0  0  0  0  0  0  0  0  0  0  0  0
   -2.5821    0.3214    0.3111 C   0  0  0  0  0  0  0  0  0  0  0  0
   -3.3586   -0.9370    0.1576 C   0  0  0  0  0  0  0  0  0  0  0  0
    3.1371    0.7655   -1.5014 H   0  0  0  0  0  0  0  0  0  0  0  0
    1.3037   -1.8026    0.7681 H   0  0  0  0  0  0  0  0  0  0  0  0
    0.8972    0.0014   -1.6533 H   0  0  0  0  0  0  0  0  0  0  0  0
    1.7259   -1.5568   -1.5768 H   0  0  0  0  0  0  0  0  0  0  0  0
    3.1655    1.0520    1.2925 H   0  0  0  0  0  0  0  0  0  0  0  0
    0.9608    2.2776   -0.4794 H   0  0  0  0  0  0  0  0  0  0  0  0
    2.6015    2.9196   -0.3018 H   0  0  0  0  0  0  0  0  0  0  0  0
   -0.6866    1.1601    0.4597 H   0  0  0  0  0  0  0  0  0  0  0  0
   -3.0967   -2.9650   -0.0321 H   0  0  0  0  0  0  0  0  0  0  0  0
    0.7785    2.4366    1.8230 H   0  0  0  0  0  0  0  0  0  0  0  0
  1 15  1  0  0  0  0
  1 16  1  0  0  0  0
  2 17  1  0  0  0  0
  2 31  1  0  0  0  0
  3 19  2  0  0  0  0
  4 21  2  0  0  0  0
  5 15  1  0  0  0  0
  5 18  1  0  0  0  0
  5 19  1  0  0  0  0
  6  8  2  0  0  0  0
  6 13  1  0  0  0  0
  7 19  1  0  0  0  0
  7 21  1  0  0  0  0
  7 30  1  0  0  0  0
  8 10  2  0  0  0  0
  9 11  2  0  0  0  0
  9 20  1  0  0  0  0
 11 12  2  0  0  0  0
 13 14  1  0  0  0  0
 13 16  1  0  0  0  0
 13 22  1  0  0  0  0
 14 15  1  0  0  0  0
 14 24  1  0  0  0  0
 14 25  1  0  0  0  0
 15 23  1  0  0  0  0
 16 17  1  0  0  0  0
 16 26  1  0  0  0  0
 17 27  1  0  0  0  0
 17 28  1  0  0  0  0
 18 20  2  0  0  0  0
 18 29  1  0  0  0  0
 20 21  1  0  0  0  0
M  CHG  4   8   1  10  -1  11   1  12  -1
M  END
> <PUBCHEM_COMPOUND_CID>
10424498

> <PUBCHEM_CONFORMER_RMSD>
0.8

> <PUBCHEM_CONFORMER_DIVERSEORDER>
1
52
44
23
53
15
16
6
40
42
49
47
36
39
55
32
50
41
45
38
28
3
56
51
24
25
46
12
30
19
11
29
8
31
57
4
27
37
35
43
10
7
33
5
22
20
34
48
2
54
17
9
21
18
26
14
13

> <PUBCHEM_MMFF94_PARTIAL_CHARGES>
23
1 -0.56
10 -0.37
11 0.69
12 -0.37
13 0.25
15 0.58
16 0.28
17 0.28
18 -0.04
19 0.69
2 -0.68
20 0.19
21 0.62
29 0.15
3 -0.57
30 0.37
31 0.4
4 -0.57
5 -0.47
6 -0.56
7 -0.49
8 0.69
9 -0.49

> <PUBCHEM_EFFECTIVE_ROTOR_COUNT>
5

> <PUBCHEM_PHARMACOPHORE_FEATURES>
8
1 1 acceptor
1 2 acceptor
1 2 donor
1 3 acceptor
1 4 acceptor
1 7 donor
5 1 13 14 15 16 rings
6 5 7 18 19 20 21 rings

> <PUBCHEM_HEAVY_ATOM_COUNT>
21

> <PUBCHEM_ATOM_DEF_STEREO_COUNT>
3

> <PUBCHEM_ATOM_UDEF_STEREO_COUNT>
0

> <PUBCHEM_BOND_DEF_STEREO_COUNT>
0

> <PUBCHEM_BOND_UDEF_STEREO_COUNT>
0

> <PUBCHEM_ISOTOPIC_ATOM_COUNT>
0

> <PUBCHEM_COMPONENT_COUNT>
1

> <PUBCHEM_CACTVS_TAUTO_COUNT>
3

> <PUBCHEM_CONFORMER_ID>
009F10B200000001

> <PUBCHEM_MMFF94_ENERGY>
44.257

> <PUBCHEM_FEATURE_SELFOVERLAP>
40.601

> <PUBCHEM_SHAPE_FINGERPRINT>
10165383 225 18263650567681404093
10608611 8 18269554003986107521
12236239 1 17458626730781966090
12403259 226 18268710691653030179
12403259 415 18413102870654439641
12500047 106 18409446981749568270
13134695 92 16917065581772735288
15042514 8 18192721265815824443
17802600 8 18411139164435550669
18186145 218 18343862204132205137
18219364 16 18337681806555308169
200 152 16200436849097350098
20233049 118 18335702702641429028
21279426 13 18267591200275698214
21524375 3 18335425651481286691
221357 26 18413387657193184789
221490 88 18124885800617294554
23175994 123 17417823854506963434
23402539 116 18130508544078007236
23559900 14 18200308960903163682
25 1 18267304223165760353
2748010 2 18410849988883509601
3004659 81 18261962847919823878
3084891 72 18269836415624508162
350125 39 18409736170656048753
3524813 1 18408882928079385013
5283173 99 18409168801529952612
559249 180 18334574591185547498
7364860 26 18057043729981317664
81228 2 17975696409350148035
9709674 26 18054225706911197586

> <PUBCHEM_SHAPE_MULTIPOLES>
368.84
8.93
2.9
1
6.4
0.54
-0.14
0.78
-2.26
-1.93
0.05
-0.09
0.6
1.39

> <PUBCHEM_SHAPE_SELFOVERLAP>
777.957

> <PUBCHEM_SHAPE_VOLUME>
205

> <PUBCHEM_COORDINATE_TYPE>
2
5
10

$$$$
