REMARK  Name = 10427712
REMARK  4 active torsions:
REMARK  status: ('A' for Active; 'I' for Inactive)
REMARK    1  A    between atoms: C_6  and  C_14
REMARK    2  A    between atoms: C_7  and  C_22
REMARK    3  A    between atoms: C_17  and  O_20
REMARK    4  A    between atoms: C_25  and  O_28
REMARK                            x       y       z     vdW  Elec       q    Type
REMARK                         _______ _______ _______ _____ _____    ______ ____
ROOT
ATOM      1  N   UNL     1      -1.274   1.326  -0.084  0.00  0.00    -0.383 NA
ATOM      2  N   UNL     1      -1.255  -1.442  -0.086  0.00  0.00    -0.335 NA
ATOM      3  N   UNL     1      -3.563  -1.472   0.097  0.00  0.00    -0.259 NA
ATOM      4  N   UNL     1      -4.819   0.568   0.196  0.00  0.00    -0.310 NA
ATOM      5  N   UNL     1      -5.902  -1.506   0.281  0.00  0.00    -0.283 N 
ATOM      6  C   UNL     1      -0.124   0.639  -0.175  0.00  0.00    +0.163 C 
ATOM      7  C   UNL     1      -0.116  -0.729  -0.176  0.00  0.00    +0.173 C 
ATOM      8  C   UNL     1      -2.412   0.611   0.006  0.00  0.00    +0.261 C 
ATOM      9  C   UNL     1      -2.418  -0.785   0.006  0.00  0.00    +0.185 C 
ATOM     10  C   UNL     1      -3.648   1.222   0.104  0.00  0.00    +0.232 C 
ATOM     11  C   UNL     1      -4.705  -0.765   0.187  0.00  0.00    +0.208 C 
ATOM     12  H   UNL     1      -5.874  -2.490   0.279  0.00  0.00    +0.156 HD
ATOM     13  H   UNL     1      -6.767  -1.039   0.349  0.00  0.00    +0.156 HD
ATOM     14  N   UNL     1      -3.689   2.641   0.107  0.00  0.00    -0.329 N 
ATOM     15  H   UNL     1      -4.553   3.108   0.175  0.00  0.00    +0.145 HD
ATOM     16  H   UNL     1      -2.854   3.158   0.041  0.00  0.00    +0.145 HD
ENDROOT
BRANCH   6  17
ATOM     17  C   UNL     1       1.065   1.452  -0.267  0.00  0.00    +0.035 C 
ATOM     18  C   UNL     1       1.735   1.848   0.892  0.00  0.00    +0.039 C 
ATOM     19  C   UNL     1       1.548   1.847  -1.517  0.00  0.00    +0.003 C 
ATOM     20  C   UNL     1       2.883   2.635   0.802  0.00  0.00    +0.134 C 
ATOM     21  C   UNL     1       2.696   2.634  -1.607  0.00  0.00    +0.003 C 
ATOM     22  C   UNL     1       3.363   3.028  -0.447  0.00  0.00    +0.037 C 
BRANCH  20  23
ATOM     23  O   UNL     1       3.536   3.018   1.933  0.00  0.00    -0.506 OA
ATOM     24  H   UNL     1       3.214   2.754   2.773  0.00  0.00    +0.292 HD
ENDBRANCH  20  23
ENDBRANCH   6  17
BRANCH   7  25
ATOM     25  C   UNL     1       1.087  -1.522  -0.271  0.00  0.00    +0.036 C 
ATOM     26  C   UNL     1       1.766  -1.905   0.887  0.00  0.00    +0.039 C 
ATOM     27  C   UNL     1       1.575  -1.906  -1.521  0.00  0.00    +0.003 C 
ATOM     28  C   UNL     1       2.929  -2.670   0.795  0.00  0.00    +0.134 C 
ATOM     29  C   UNL     1       2.738  -2.671  -1.613  0.00  0.00    +0.003 C 
ATOM     30  C   UNL     1       3.415  -3.053  -0.455  0.00  0.00    +0.037 C 
BRANCH  28  31
ATOM     31  O   UNL     1       3.589  -3.045   1.925  0.00  0.00    -0.506 OA
ATOM     32  H   UNL     1       3.263  -2.788   2.765  0.00  0.00    +0.292 HD
ENDBRANCH  28  31
ENDBRANCH   7  25
TORSDOF 4
