10422896
  -OEChem-03292013303D

 34 35  0     1  0  0  0  0  0999 V2000
    1.0492   -1.0017    0.3009 O   0  0  0  0  0  0  0  0  0  0  0  0
   -1.1131   -0.1427    0.4747 O   0  0  0  0  0  0  0  0  0  0  0  0
    2.6993    2.7512    0.5463 O   0  0  0  0  0  0  0  0  0  0  0  0
   -0.1273    2.4187   -0.2153 O   0  0  0  0  0  0  0  0  0  0  0  0
    4.2820    0.5471   -0.4502 O   0  0  0  0  0  0  0  0  0  0  0  0
   -4.0406   -0.6132    0.8353 O   0  0  0  0  0  0  0  0  0  0  0  0
    2.4667   -3.2731   -0.3215 O   0  0  0  0  0  0  0  0  0  0  0  0
   -4.8300    1.1725   -0.3663 O   0  0  0  0  0  0  0  0  0  0  0  0
    2.1472    1.6178   -0.1254 C   0  0  2  0  0  0  0  0  0  0  0  0
    0.7070    1.4022    0.3397 C   0  0  2  0  0  0  0  0  0  0  0  0
    3.0204    0.4052    0.1974 C   0  0  1  0  0  0  0  0  0  0  0  0
    2.3513   -0.8874   -0.2759 C   0  0  1  0  0  0  0  0  0  0  0  0
    0.1734    0.0437   -0.1146 C   0  0  1  0  0  0  0  0  0  0  0  0
   -2.0177   -0.9438   -0.2803 C   0  0  2  0  0  0  0  0  0  0  0  0
    3.1479   -2.1203    0.1388 C   0  0  0  0  0  0  0  0  0  0  0  0
   -2.8909   -0.0584   -1.1382 C   0  0  0  0  0  0  0  0  0  0  0  0
   -3.0032   -1.5886    0.6618 C   0  0  0  0  0  0  0  0  0  0  0  0
   -4.0216    0.2708   -0.2072 C   0  0  0  0  0  0  0  0  0  0  0  0
    2.1759    1.8490   -1.1974 H   0  0  0  0  0  0  0  0  0  0  0  0
    0.6414    1.4987    1.4300 H   0  0  0  0  0  0  0  0  0  0  0  0
    3.2085    0.3688    1.2775 H   0  0  0  0  0  0  0  0  0  0  0  0
    2.2502   -0.9015   -1.3698 H   0  0  0  0  0  0  0  0  0  0  0  0
    0.0724    0.0289   -1.2088 H   0  0  0  0  0  0  0  0  0  0  0  0
   -1.4629   -1.6973   -0.8496 H   0  0  0  0  0  0  0  0  0  0  0  0
    3.2328   -2.1952    1.2280 H   0  0  0  0  0  0  0  0  0  0  0  0
    4.1524   -2.1180   -0.2939 H   0  0  0  0  0  0  0  0  0  0  0  0
   -3.3002   -0.6025   -1.9943 H   0  0  0  0  0  0  0  0  0  0  0  0
   -2.3870    0.8574   -1.4557 H   0  0  0  0  0  0  0  0  0  0  0  0
   -3.4578   -2.4891    0.2361 H   0  0  0  0  0  0  0  0  0  0  0  0
   -2.5705   -1.8207    1.6393 H   0  0  0  0  0  0  0  0  0  0  0  0
    3.6168    2.8527    0.2397 H   0  0  0  0  0  0  0  0  0  0  0  0
   -0.0848    2.3483   -1.1843 H   0  0  0  0  0  0  0  0  0  0  0  0
    4.1258    0.5731   -1.4097 H   0  0  0  0  0  0  0  0  0  0  0  0
    1.5747   -3.2622    0.0658 H   0  0  0  0  0  0  0  0  0  0  0  0
  1 12  1  0  0  0  0
  1 13  1  0  0  0  0
  2 13  1  0  0  0  0
  2 14  1  0  0  0  0
  3  9  1  0  0  0  0
  3 31  1  0  0  0  0
  4 10  1  0  0  0  0
  4 32  1  0  0  0  0
  5 11  1  0  0  0  0
  5 33  1  0  0  0  0
  6 17  1  0  0  0  0
  6 18  1  0  0  0  0
  7 15  1  0  0  0  0
  7 34  1  0  0  0  0
  8 18  2  0  0  0  0
  9 10  1  0  0  0  0
  9 11  1  0  0  0  0
  9 19  1  0  0  0  0
 10 13  1  0  0  0  0
 10 20  1  0  0  0  0
 11 12  1  0  0  0  0
 11 21  1  0  0  0  0
 12 15  1  0  0  0  0
 12 22  1  0  0  0  0
 13 23  1  0  0  0  0
 14 16  1  0  0  0  0
 14 17  1  0  0  0  0
 14 24  1  0  0  0  0
 15 25  1  0  0  0  0
 15 26  1  0  0  0  0
 16 18  1  0  0  0  0
 16 27  1  0  0  0  0
 16 28  1  0  0  0  0
 17 29  1  0  0  0  0
 17 30  1  0  0  0  0
M  END
> <PUBCHEM_COMPOUND_CID>
10422896

> <PUBCHEM_CONFORMER_RMSD>
0.6

> <PUBCHEM_CONFORMER_DIVERSEORDER>
1
84
114
105
59
72
115
112
107
54
64
18
10
103
21
58
34
85
104
43
98
78
106
33
79
102
100
25
66
9
94
39
50
20
69
91
110
61
13
40
12
46
116
75
93
36
47
67
53
87
82
4
19
76
119
32
74
80
22
6
28
111
8
16
118
88
81
68
108
97
27
14
35
77
95
29
101
56
15
55
96
44
70
117
7
90
2
41
60
63
17
99
5
57
92
113
37
51
38
30
45
62
73
83
86
49
52
11
89
24
26
109
3
48
23
31
65
42
71

> <PUBCHEM_MMFF94_PARTIAL_CHARGES>
22
1 -0.56
10 0.28
11 0.28
12 0.28
13 0.56
14 0.28
15 0.28
16 0.06
17 0.28
18 0.66
2 -0.56
3 -0.68
31 0.4
32 0.4
33 0.4
34 0.4
4 -0.68
5 -0.68
6 -0.43
7 -0.68
8 -0.57
9 0.28

> <PUBCHEM_EFFECTIVE_ROTOR_COUNT>
5

> <PUBCHEM_PHARMACOPHORE_FEATURES>
13
1 1 acceptor
1 2 acceptor
1 3 acceptor
1 3 donor
1 4 acceptor
1 4 donor
1 5 acceptor
1 5 donor
1 7 acceptor
1 7 donor
1 8 acceptor
5 6 14 16 17 18 rings
6 1 9 10 11 12 13 rings

> <PUBCHEM_HEAVY_ATOM_COUNT>
18

> <PUBCHEM_ATOM_DEF_STEREO_COUNT>
6

> <PUBCHEM_ATOM_UDEF_STEREO_COUNT>
0

> <PUBCHEM_BOND_DEF_STEREO_COUNT>
0

> <PUBCHEM_BOND_UDEF_STEREO_COUNT>
0

> <PUBCHEM_ISOTOPIC_ATOM_COUNT>
0

> <PUBCHEM_COMPONENT_COUNT>
1

> <PUBCHEM_CACTVS_TAUTO_COUNT>
2

> <PUBCHEM_CONFORMER_ID>
009F0A7000000001

> <PUBCHEM_MMFF94_ENERGY>
39.4448

> <PUBCHEM_FEATURE_SELFOVERLAP>
66.036

> <PUBCHEM_SHAPE_FINGERPRINT>
10608611 8 18335416919817782221
10922523 26 18187642522610953829
10980938 120 18338514260957443966
11265709 11 18121213178541352826
11471102 20 18411416211269395702
116883 192 18124596388250636604
12553582 1 18123767365248015922
12616999 72 18114472231522310182
12654215 9 18410852200570107808
13140716 1 18195802101780536090
13296908 3 18334576849852652147
14178342 30 18054489576853846354
14415576 193 18262801894585205884
14790565 3 18193844962436086108
14866123 147 17114947686889020955
15219456 202 18334856168787207801
15375358 24 18336261322845686563
15442244 35 18269558230323792457
16945 1 18412260662269992232
18186145 218 18199758096718609800
20645477 56 18186800292820462605
20645477 70 18341047432642842495
21065199 12 18335143137306671675
21421861 104 17896312507248151530
21501502 16 18268716000380424424
21637258 2 15769508508856813532
22289505 5 18337386046047697284
2255824 54 18340488975609782172
22943178 12 18187364354933322627
23557571 272 17458058283581240085
23559900 14 18409445856594652770
25 1 18334853952330959926
2748010 2 17977395155030884672
3060560 45 18060144245439707438
34934 24 18341324556964998286
4072396 5 18337657673376216882
495365 180 18201141252302771137
5104073 3 18335421275035706769
543358 83 18340773645625533608
7364860 26 18412823586374585978
81228 2 17838062507006387002
8272917 22 18341898471716842326
84936 182 17915456310089270928
9709674 26 18335143132796063099

> <PUBCHEM_SHAPE_MULTIPOLES>
323.48
8.21
2.67
0.79
5.55
0.39
-0.04
0.26
-0.29
-2.72
0.1
0.38
0.04
0.61

> <PUBCHEM_SHAPE_SELFOVERLAP>
666.513

> <PUBCHEM_SHAPE_VOLUME>
184.4

> <PUBCHEM_COORDINATE_TYPE>
2
5
10

$$$$
