REMARK  Name = 10429474
REMARK  1 active torsions:
REMARK  status: ('A' for Active; 'I' for Inactive)
REMARK    1  A    between atoms: C_23  and  N_29
REMARK                            x       y       z     vdW  Elec       q    Type
REMARK                         _______ _______ _______ _____ _____    ______ ____
ROOT
ATOM      1  O   UNL     1      -2.832  -2.731   0.171  0.00  0.00    -0.355 OA
ATOM      2  O   UNL     1      -0.615   0.539   2.058  0.00  0.00    -0.274 OA
ATOM      3  O   UNL     1      -2.660   1.021  -2.200  0.00  0.00    -0.274 OA
ATOM      4  O   UNL     1      -2.403   4.536   0.727  0.00  0.00    -0.252 OA
ATOM      5  N   UNL     1      -0.177  -1.601  -0.051  0.00  0.00    -0.304 N 
ATOM      6  N   UNL     1      -1.427   2.549   1.337  0.00  0.00    -0.239 N 
ATOM      7  N   UNL     1      -2.464   2.779  -0.750  0.00  0.00    -0.239 N 
ATOM      8  C   UNL     1      -1.377  -0.804  -0.413  0.00  0.00    +0.117 C 
ATOM      9  C   UNL     1      -1.140   0.737  -0.318  0.00  0.00    +0.161 C 
ATOM     10  C   UNL     1      -2.550  -1.350   0.458  0.00  0.00    +0.134 C 
ATOM     11  C   UNL     1       0.203   1.085  -1.012  0.00  0.00    +0.047 C 
ATOM     12  C   UNL     1      -0.397  -3.018   0.265  0.00  0.00    +0.120 C 
ATOM     13  C   UNL     1       1.106  -1.067  -0.049  0.00  0.00    +0.044 C 
ATOM     14  C   UNL     1       1.343   0.243  -0.509  0.00  0.00    -0.006 C 
ATOM     15  C   UNL     1      -1.729  -3.486  -0.325  0.00  0.00    +0.135 C 
ATOM     16  C   UNL     1      -1.051   1.230   1.137  0.00  0.00    +0.239 C 
ATOM     17  C   UNL     1      -2.176   1.489  -1.168  0.00  0.00    +0.239 C 
ATOM     18  C   UNL     1      -3.883  -0.626   0.313  0.00  0.00    +0.034 C 
ATOM     19  C   UNL     1       2.226  -1.781   0.423  0.00  0.00    +0.016 C 
ATOM     20  C   UNL     1       2.643   0.779  -0.542  0.00  0.00    +0.021 C 
ATOM     21  C   UNL     1      -1.993  -4.951  -0.003  0.00  0.00    +0.034 C 
ATOM     22  C   UNL     1      -2.105   3.373   0.451  0.00  0.00    +0.312 C 
ATOM     23  C   UNL     1       3.726   0.040  -0.084  0.00  0.00    +0.143 C 
ATOM     24  C   UNL     1       3.515  -1.241   0.406  0.00  0.00    +0.025 C 
ATOM     25  H   UNL     1      -1.185   2.945   2.206  0.00  0.00    +0.159 HD
ATOM     26  H   UNL     1      -2.982   3.335  -1.376  0.00  0.00    +0.159 HD
ENDROOT
BRANCH  23  29
ATOM     27  O   UNL     1       5.991  -0.091   0.331  0.00  0.00    -0.126 OA
ATOM     28  O   UNL     1       5.195   1.755  -0.551  0.00  0.00    -0.126 OA
ATOM     29  N   UNL     1       5.032   0.594  -0.102  0.00  0.00    +0.058 N 
ENDBRANCH  23  29
TORSDOF 1
