REMARK  Name = 10429470
REMARK  7 active torsions:
REMARK  status: ('A' for Active; 'I' for Inactive)
REMARK    1  A    between atoms: C_5  and  O_20
REMARK    2  A    between atoms: C_6  and  C_12
REMARK    3  A    between atoms: C_7  and  O_28
REMARK    4  A    between atoms: C_9  and  O_22
REMARK    5  A    between atoms: C_10  and  O_24
REMARK    6  A    between atoms: C_11  and  O_26
REMARK    7  A    between atoms: C_17  and  O_18
REMARK                            x       y       z     vdW  Elec       q    Type
REMARK                         _______ _______ _______ _____ _____    ______ ____
ROOT
ATOM      1  O   UNL     1      -0.505  -0.653   0.137  0.00  0.00    -0.447 OA
ATOM      2  O   UNL     1       0.660   3.243  -0.076  0.00  0.00    -0.283 OA
ATOM      3  C   UNL     1       1.288   0.975   0.027  0.00  0.00    +0.117 A 
ATOM      4  C   UNL     1       0.827  -0.336   0.101  0.00  0.00    +0.188 A 
ATOM      5  C   UNL     1       1.735  -1.395   0.142  0.00  0.00    +0.210 A 
ATOM      6  C   UNL     1      -1.433   0.375   0.089  0.00  0.00    +0.182 A 
ATOM      7  C   UNL     1       2.660   1.240  -0.007  0.00  0.00    +0.177 A 
ATOM      8  C   UNL     1       0.309   2.072  -0.014  0.00  0.00    +0.238 A 
ATOM      9  C   UNL     1      -1.122   1.685   0.027  0.00  0.00    +0.212 A 
ATOM     10  C   UNL     1       3.106  -1.135   0.108  0.00  0.00    +0.212 A 
ATOM     11  C   UNL     1       3.567   0.180   0.034  0.00  0.00    +0.209 A 
ENDROOT
BRANCH   6  12
ATOM     12  C   UNL     1      -2.818  -0.121   0.124  0.00  0.00    +0.038 C 
ATOM     13  C   UNL     1      -3.486  -0.410  -1.065  0.00  0.00    +0.006 C 
ATOM     14  C   UNL     1      -3.464  -0.301   1.348  0.00  0.00    +0.006 C 
ATOM     15  C   UNL     1      -4.799  -0.880  -1.032  0.00  0.00    +0.037 C 
ATOM     16  C   UNL     1      -4.777  -0.770   1.382  0.00  0.00    +0.037 C 
ATOM     17  C   UNL     1      -5.445  -1.060   0.192  0.00  0.00    +0.134 C 
BRANCH  17  18
ATOM     18  O   UNL     1      -6.726  -1.517   0.225  0.00  0.00    -0.506 OA
ATOM     19  H   UNL     1      -7.174  -1.711  -0.575  0.00  0.00    +0.292 HD
ENDBRANCH  17  18
ENDBRANCH   6  12
BRANCH   5  20
ATOM     20  O   UNL     1       1.290  -2.681   0.216  0.00  0.00    -0.465 OA
ATOM     21  C   UNL     1       1.059  -3.357  -1.018  0.00  0.00    +0.253 C 
ENDBRANCH   5  20
BRANCH   9  22
ATOM     22  O   UNL     1      -2.029   2.721   0.009  0.00  0.00    -0.465 OA
ATOM     23  C   UNL     1      -2.397   3.047  -1.318  0.00  0.00    +0.253 C 
ENDBRANCH   9  22
BRANCH  10  24
ATOM     24  O   UNL     1       3.995  -2.168   0.149  0.00  0.00    -0.465 OA
ATOM     25  C   UNL     1       4.882  -2.301  -0.960  0.00  0.00    +0.253 C 
ENDBRANCH  10  24
BRANCH  11  26
ATOM     26  O   UNL     1       4.908   0.427   0.002  0.00  0.00    -0.465 OA
ATOM     27  C   UNL     1       5.562   0.609   1.255  0.00  0.00    +0.253 C 
ENDBRANCH  11  26
BRANCH   7  28
ATOM     28  O   UNL     1       3.151   2.510  -0.079  0.00  0.00    -0.503 OA
ATOM     29  H   UNL     1       2.562   3.238  -0.108  0.00  0.00    +0.292 HD
ENDBRANCH   7  28
TORSDOF 7
