10423452
  -OEChem-03292013303D

 30 32  0     0  0  0  0  0  0999 V2000
   -0.3103   -1.6757    0.0004 O   0  0  0  0  0  0  0  0  0  0  0  0
   -0.1600    2.4130    0.0015 O   0  0  0  0  0  0  0  0  0  0  0  0
    4.6697    0.7267   -0.0005 O   0  0  0  0  0  0  0  0  0  0  0  0
   -2.7628    2.5239   -0.0004 O   0  0  0  0  0  0  0  0  0  0  0  0
    4.4120   -2.0200   -0.0001 O   0  0  0  0  0  0  0  0  0  0  0  0
   -5.0517   -1.6328   -0.0003 O   0  0  0  0  0  0  0  0  0  0  0  0
    1.0230    0.3702    0.0000 C   0  0  0  0  0  0  0  0  0  0  0  0
    0.8952   -1.0185    0.0001 C   0  0  0  0  0  0  0  0  0  0  0  0
   -1.4782    0.4690    0.0001 C   0  0  0  0  0  0  0  0  0  0  0  0
    2.2864    0.9670   -0.0002 C   0  0  0  0  0  0  0  0  0  0  0  0
   -0.1971    1.1918    0.0002 C   0  0  0  0  0  0  0  0  0  0  0  0
   -1.4604   -0.9255    0.0001 C   0  0  0  0  0  0  0  0  0  0  0  0
    3.4267    0.1634   -0.0002 C   0  0  0  0  0  0  0  0  0  0  0  0
    2.0403   -1.8177    0.0002 C   0  0  0  0  0  0  0  0  0  0  0  0
   -2.6906    1.1636   -0.0002 C   0  0  0  0  0  0  0  0  0  0  0  0
    3.3042   -1.2263    0.0000 C   0  0  0  0  0  0  0  0  0  0  0  0
   -2.6649   -1.6318    0.0001 C   0  0  0  0  0  0  0  0  0  0  0  0
    2.4876    2.4503   -0.0006 C   0  0  0  0  0  0  0  0  0  0  0  0
   -3.8907    0.4523   -0.0004 C   0  0  0  0  0  0  0  0  0  0  0  0
   -3.8783   -0.9427   -0.0002 C   0  0  0  0  0  0  0  0  0  0  0  0
    1.9493   -2.9013    0.0003 H   0  0  0  0  0  0  0  0  0  0  0  0
   -2.6601   -2.7191    0.0002 H   0  0  0  0  0  0  0  0  0  0  0  0
    2.1303    2.8846    0.9390 H   0  0  0  0  0  0  0  0  0  0  0  0
    3.5246    2.7743   -0.1218 H   0  0  0  0  0  0  0  0  0  0  0  0
    1.9684    2.9059   -0.8509 H   0  0  0  0  0  0  0  0  0  0  0  0
   -4.8354    0.9910   -0.0006 H   0  0  0  0  0  0  0  0  0  0  0  0
    4.6925    1.4219    0.6787 H   0  0  0  0  0  0  0  0  0  0  0  0
   -1.8743    2.9114   -0.0010 H   0  0  0  0  0  0  0  0  0  0  0  0
    5.1984   -1.4470    0.0003 H   0  0  0  0  0  0  0  0  0  0  0  0
   -5.7901   -0.9997   -0.0004 H   0  0  0  0  0  0  0  0  0  0  0  0
  1  8  1  0  0  0  0
  1 12  1  0  0  0  0
  2 11  2  0  0  0  0
  3 13  1  0  0  0  0
  3 27  1  0  0  0  0
  4 15  1  0  0  0  0
  4 28  1  0  0  0  0
  5 16  1  0  0  0  0
  5 29  1  0  0  0  0
  6 20  1  0  0  0  0
  6 30  1  0  0  0  0
  7  8  2  0  0  0  0
  7 10  1  0  0  0  0
  7 11  1  0  0  0  0
  8 14  1  0  0  0  0
  9 11  1  0  0  0  0
  9 12  1  0  0  0  0
  9 15  2  0  0  0  0
 10 13  2  0  0  0  0
 10 18  1  0  0  0  0
 12 17  2  0  0  0  0
 13 16  1  0  0  0  0
 14 16  2  0  0  0  0
 14 21  1  0  0  0  0
 15 19  1  0  0  0  0
 17 20  1  0  0  0  0
 17 22  1  0  0  0  0
 18 23  1  0  0  0  0
 18 24  1  0  0  0  0
 18 25  1  0  0  0  0
 19 20  2  0  0  0  0
 19 26  1  0  0  0  0
M  END
> <PUBCHEM_COMPOUND_CID>
10423452

> <PUBCHEM_CONFORMER_RMSD>
0.6

> <PUBCHEM_CONFORMER_DIVERSEORDER>
1

> <PUBCHEM_MMFF94_PARTIAL_CHARGES>
27
1 -0.17
10 -0.14
11 0.4
12 0.08
13 0.08
14 -0.15
15 0.08
16 0.08
17 -0.15
18 0.14
19 -0.15
2 -0.57
20 0.08
21 0.15
22 0.15
26 0.15
27 0.45
28 0.45
29 0.45
3 -0.53
30 0.45
4 -0.53
5 -0.53
6 -0.53
7 0.09
8 0.08
9 0.09

> <PUBCHEM_EFFECTIVE_ROTOR_COUNT>
0

> <PUBCHEM_PHARMACOPHORE_FEATURES>
9
1 1 acceptor
1 2 acceptor
1 3 donor
1 4 donor
1 5 donor
1 6 donor
6 1 7 8 9 11 12 rings
6 7 8 10 13 14 16 rings
6 9 12 15 17 19 20 rings

> <PUBCHEM_HEAVY_ATOM_COUNT>
20

> <PUBCHEM_ATOM_DEF_STEREO_COUNT>
0

> <PUBCHEM_ATOM_UDEF_STEREO_COUNT>
0

> <PUBCHEM_BOND_DEF_STEREO_COUNT>
0

> <PUBCHEM_BOND_UDEF_STEREO_COUNT>
0

> <PUBCHEM_ISOTOPIC_ATOM_COUNT>
0

> <PUBCHEM_COMPONENT_COUNT>
1

> <PUBCHEM_CACTVS_TAUTO_COUNT>
225

> <PUBCHEM_CONFORMER_ID>
009F0C9C00000001

> <PUBCHEM_MMFF94_ENERGY>
68.4964

> <PUBCHEM_FEATURE_SELFOVERLAP>
45.734

> <PUBCHEM_SHAPE_FINGERPRINT>
10608611 8 18410571777580718853
10616163 171 18340208582574712943
10967382 1 18266740357967489092
1100329 8 16752966438595420499
11132069 177 18410849949722109440
11471102 20 18410007745543419942
11578080 2 17241868926972565412
11806522 49 18408603686179349359
12032990 46 18410577275228450567
12403259 226 18410286995447795148
13140716 1 18340487755438358161
13221675 6 18410572889950783822
13583140 156 14548739443876021395
14790565 3 17472147648866159013
14866123 147 17047118823435468258
15196674 1 18410856538186078086
15230672 131 13578752077561650427
15442244 35 18338798914283826216
15536298 74 18341894091208668922
16945 1 18194402418571570788
17492 89 18411138004584306619
17804303 29 18411985728032568821
1813 80 17385725798387742236
18186145 218 17749103383355987007
19591789 44 18410855451586128719
200 152 18202558497675116303
20510252 161 18343585118485522513
20645477 70 18410290345569635503
21267235 1 18410864269132901406
21501502 16 18410296891052094312
221490 88 18336553793123408218
2334 1 18410856589715129637
23366157 5 18113337544318224916
23402539 116 18341604932530327711
23463225 33 18410293614023566132
23559900 14 18340481180191431408
2748010 2 18410853261141888125
2871803 45 18334007307214076231
3286 77 18335137587839692646
335352 9 18194401078499589844
350125 39 18410858767459104329
4214541 1 18410573942275780609
474 4 17386575807223810252
5104073 3 18411980226374726754
7364860 26 18341331192926886408
77779 3 18410857641987411398
8809292 202 18334018263306454875
9709674 26 18410016549941832338
9981440 41 17614842246580917592

> <PUBCHEM_SHAPE_MULTIPOLES>
376.37
8.37
2.58
0.59
0.96
0.77
0
-2.32
0
-0.31
0
0
0
0

> <PUBCHEM_SHAPE_SELFOVERLAP>
853.908

> <PUBCHEM_SHAPE_VOLUME>
197.2

> <PUBCHEM_COORDINATE_TYPE>
2
5
10

$$$$
