REMARK  Name = 10423452
REMARK  4 active torsions:
REMARK  status: ('A' for Active; 'I' for Inactive)
REMARK    1  A    between atoms: C_9  and  O_17
REMARK    2  A    between atoms: C_11  and  O_19
REMARK    3  A    between atoms: C_12  and  O_21
REMARK    4  A    between atoms: C_16  and  O_23
REMARK                            x       y       z     vdW  Elec       q    Type
REMARK                         _______ _______ _______ _____ _____    ______ ____
ROOT
ATOM      1  O   UNL     1      -0.310  -1.676   0.000  0.00  0.00    -0.453 OA
ATOM      2  O   UNL     1      -0.160   2.413   0.002  0.00  0.00    -0.286 OA
ATOM      3  C   UNL     1       1.023   0.370   0.000  0.00  0.00    +0.073 A 
ATOM      4  C   UNL     1       0.895  -1.018   0.000  0.00  0.00    +0.151 A 
ATOM      5  C   UNL     1      -1.478   0.469   0.000  0.00  0.00    +0.107 A 
ATOM      6  C   UNL     1       2.286   0.967   0.000  0.00  0.00    +0.021 C 
ATOM      7  C   UNL     1      -0.197   1.192   0.000  0.00  0.00    +0.204 A 
ATOM      8  C   UNL     1      -1.460  -0.925   0.000  0.00  0.00    +0.154 A 
ATOM      9  C   UNL     1       3.427   0.163   0.000  0.00  0.00    +0.164 C 
ATOM     10  C   UNL     1       2.040  -1.818   0.000  0.00  0.00    +0.077 C 
ATOM     11  C   UNL     1      -2.691   1.164   0.000  0.00  0.00    +0.143 C 
ATOM     12  C   UNL     1       3.304  -1.226   0.000  0.00  0.00    +0.170 C 
ATOM     13  C   UNL     1      -2.665  -1.632   0.000  0.00  0.00    +0.074 C 
ATOM     14  C   UNL     1       2.488   2.450  -0.001  0.00  0.00    +0.035 C 
ATOM     15  C   UNL     1      -3.891   0.452   0.000  0.00  0.00    +0.073 C 
ATOM     16  C   UNL     1      -3.878  -0.943   0.000  0.00  0.00    +0.140 C 
ENDROOT
BRANCH   9  17
ATOM     17  O   UNL     1       4.670   0.727  -0.001  0.00  0.00    -0.503 OA
ATOM     18  H   UNL     1       4.761   1.659  -0.001  0.00  0.00    +0.292 HD
ENDBRANCH   9  17
BRANCH  11  19
ATOM     19  O   UNL     1      -2.763   2.524   0.000  0.00  0.00    -0.505 OA
ATOM     20  H   UNL     1      -1.977   3.035   0.000  0.00  0.00    +0.292 HD
ENDBRANCH  11  19
BRANCH  12  21
ATOM     21  O   UNL     1       4.412  -2.020   0.000  0.00  0.00    -0.503 OA
ATOM     22  H   UNL     1       5.265  -1.633   0.000  0.00  0.00    +0.292 HD
ENDBRANCH  12  21
BRANCH  16  23
ATOM     23  O   UNL     1      -5.052  -1.633   0.000  0.00  0.00    -0.505 OA
ATOM     24  H   UNL     1      -5.044  -2.570   0.000  0.00  0.00    +0.292 HD
ENDBRANCH  16  23
TORSDOF 4
