10434320
  -OEChem-03292013303D

 59 62  0     1  0  0  0  0  0999 V2000
   -2.5728    3.0919    4.3026 Cl  0  0  0  0  0  0  0  0  0  0  0  0
    2.7059   -0.1224    0.3253 O   0  0  0  0  0  0  0  0  0  0  0  0
   -0.1901   -2.3350   -0.2970 O   0  0  0  0  0  0  0  0  0  0  0  0
    1.5920   -3.4873    0.9848 O   0  0  0  0  0  0  0  0  0  0  0  0
    3.7413   -2.5351    1.2190 O   0  0  0  0  0  0  0  0  0  0  0  0
   -1.2338    0.4031   -0.8000 N   0  0  3  0  0  0  0  0  0  0  0  0
   -4.1021   -1.1567   -0.8399 N   0  0  0  0  0  0  0  0  0  0  0  0
    1.4230    4.4998   -2.4983 N   0  0  0  0  0  0  0  0  0  0  0  0
   -2.6517   -2.2642   -2.1057 N   0  0  0  0  0  0  0  0  0  0  0  0
    2.0061   -1.3480    0.0430 C   0  0  2  0  0  0  0  0  0  0  0  0
    0.4837   -1.1114   -0.0102 C   0  0  1  0  0  0  0  0  0  0  0  0
    0.1132   -0.0661   -1.0695 C   0  0  2  0  0  0  0  0  0  0  0  0
    1.0912    1.0816   -1.0625 C   0  0  0  0  0  0  0  0  0  0  0  0
    2.3380   -2.2899    1.2139 C   0  0  0  0  0  0  0  0  0  0  0  0
    2.5789   -1.9754   -1.2407 C   0  0  0  0  0  0  0  0  0  0  0  0
    2.3066    0.9866   -0.3725 C   0  0  0  0  0  0  0  0  0  0  0  0
   -2.2592    0.1829   -1.8156 C   0  0  0  0  0  0  0  0  0  0  0  0
    0.8204    2.2565   -1.7841 C   0  0  0  0  0  0  0  0  0  0  0  0
   -1.5506    1.0381    0.4040 C   0  0  0  0  0  0  0  0  0  0  0  0
    3.1990    2.0637   -0.3535 C   0  0  0  0  0  0  0  0  0  0  0  0
    1.7184    3.3251   -1.7756 C   0  0  0  0  0  0  0  0  0  0  0  0
    2.9042    3.2313   -1.0538 C   0  0  0  0  0  0  0  0  0  0  0  0
   -2.9877   -1.1132   -1.6067 C   0  0  0  0  0  0  0  0  0  0  0  0
   -1.9847    0.2915    1.5077 C   0  0  0  0  0  0  0  0  0  0  0  0
   -1.4377    2.4296    0.5247 C   0  0  0  0  0  0  0  0  0  0  0  0
    1.8143   -4.4485    2.0083 C   0  0  0  0  0  0  0  0  0  0  0  0
    4.5114   -1.3506    1.3730 C   0  0  0  0  0  0  0  0  0  0  0  0
   -2.3002    0.9248    2.7099 C   0  0  0  0  0  0  0  0  0  0  0  0
   -1.7530    3.0629    1.7268 C   0  0  0  0  0  0  0  0  0  0  0  0
   -2.1844    2.3107    2.8194 C   0  0  0  0  0  0  0  0  0  0  0  0
   -4.5251   -2.4561   -0.8444 C   0  0  0  0  0  0  0  0  0  0  0  0
   -3.6146   -3.1200   -1.6324 C   0  0  0  0  0  0  0  0  0  0  0  0
    0.1968   -0.8002    0.9964 H   0  0  0  0  0  0  0  0  0  0  0  0
    0.1582   -0.5278   -2.0649 H   0  0  0  0  0  0  0  0  0  0  0  0
    2.0434   -1.8491    2.1759 H   0  0  0  0  0  0  0  0  0  0  0  0
    3.6706   -2.0530   -1.2207 H   0  0  0  0  0  0  0  0  0  0  0  0
    2.1747   -2.9731   -1.4394 H   0  0  0  0  0  0  0  0  0  0  0  0
    2.3609   -1.3568   -2.1179 H   0  0  0  0  0  0  0  0  0  0  0  0
   -2.9729    1.0174   -1.8220 H   0  0  0  0  0  0  0  0  0  0  0  0
   -1.8108    0.1761   -2.8171 H   0  0  0  0  0  0  0  0  0  0  0  0
   -0.0931    2.3349   -2.3705 H   0  0  0  0  0  0  0  0  0  0  0  0
   -0.0285   -2.5668   -1.2267 H   0  0  0  0  0  0  0  0  0  0  0  0
    4.1339    1.9926    0.1967 H   0  0  0  0  0  0  0  0  0  0  0  0
    3.6112    4.0566   -1.0353 H   0  0  0  0  0  0  0  0  0  0  0  0
   -2.0954   -0.7881    1.4425 H   0  0  0  0  0  0  0  0  0  0  0  0
   -1.1573    3.0524   -0.3170 H   0  0  0  0  0  0  0  0  0  0  0  0
    1.1664   -5.3079    1.8151 H   0  0  0  0  0  0  0  0  0  0  0  0
    1.5590   -4.0351    2.9888 H   0  0  0  0  0  0  0  0  0  0  0  0
    2.8525   -4.7931    2.0003 H   0  0  0  0  0  0  0  0  0  0  0  0
    4.0817   -0.6481    2.0951 H   0  0  0  0  0  0  0  0  0  0  0  0
    4.7894   -0.9046    0.4145 H   0  0  0  0  0  0  0  0  0  0  0  0
    5.4653   -1.6679    1.8110 H   0  0  0  0  0  0  0  0  0  0  0  0
   -4.5413   -0.3853   -0.3544 H   0  0  0  0  0  0  0  0  0  0  0  0
    2.0730    5.2745   -2.4925 H   0  0  0  0  0  0  0  0  0  0  0  0
    0.5603    4.5689   -3.0216 H   0  0  0  0  0  0  0  0  0  0  0  0
   -2.6375    0.3261    3.5520 H   0  0  0  0  0  0  0  0  0  0  0  0
   -1.6688    4.1445    1.7945 H   0  0  0  0  0  0  0  0  0  0  0  0
   -5.4042   -2.7768   -0.3045 H   0  0  0  0  0  0  0  0  0  0  0  0
   -3.6027   -4.1710   -1.8819 H   0  0  0  0  0  0  0  0  0  0  0  0
  1 30  1  0  0  0  0
  2 10  1  0  0  0  0
  2 16  1  0  0  0  0
  3 11  1  0  0  0  0
  3 42  1  0  0  0  0
  4 14  1  0  0  0  0
  4 26  1  0  0  0  0
  5 14  1  0  0  0  0
  5 27  1  0  0  0  0
  6 12  1  0  0  0  0
  6 17  1  0  0  0  0
  6 19  1  0  0  0  0
  7 23  1  0  0  0  0
  7 31  1  0  0  0  0
  7 53  1  0  0  0  0
  8 21  1  0  0  0  0
  8 54  1  0  0  0  0
  8 55  1  0  0  0  0
  9 23  2  0  0  0  0
  9 32  1  0  0  0  0
 10 11  1  0  0  0  0
 10 14  1  0  0  0  0
 10 15  1  0  0  0  0
 11 12  1  0  0  0  0
 11 33  1  0  0  0  0
 12 13  1  0  0  0  0
 12 34  1  0  0  0  0
 13 16  2  0  0  0  0
 13 18  1  0  0  0  0
 14 35  1  0  0  0  0
 15 36  1  0  0  0  0
 15 37  1  0  0  0  0
 15 38  1  0  0  0  0
 16 20  1  0  0  0  0
 17 23  1  0  0  0  0
 17 39  1  0  0  0  0
 17 40  1  0  0  0  0
 18 21  2  0  0  0  0
 18 41  1  0  0  0  0
 19 24  2  0  0  0  0
 19 25  1  0  0  0  0
 20 22  2  0  0  0  0
 20 43  1  0  0  0  0
 21 22  1  0  0  0  0
 22 44  1  0  0  0  0
 24 28  1  0  0  0  0
 24 45  1  0  0  0  0
 25 29  2  0  0  0  0
 25 46  1  0  0  0  0
 26 47  1  0  0  0  0
 26 48  1  0  0  0  0
 26 49  1  0  0  0  0
 27 50  1  0  0  0  0
 27 51  1  0  0  0  0
 27 52  1  0  0  0  0
 28 30  2  0  0  0  0
 28 56  1  0  0  0  0
 29 30  1  0  0  0  0
 29 57  1  0  0  0  0
 31 32  2  0  0  0  0
 31 58  1  0  0  0  0
 32 59  1  0  0  0  0
M  END
> <PUBCHEM_COMPOUND_CID>
10434320

> <PUBCHEM_CONFORMER_RMSD>
1

> <PUBCHEM_CONFORMER_DIVERSEORDER>
1
15
7
14
4
11
2
12
13
6
10
16
9
3
5
8

> <PUBCHEM_MMFF94_PARTIAL_CHARGES>
44
1 -0.18
10 0.28
11 0.28
12 0.51
13 -0.14
14 0.56
16 0.08
17 0.55
18 -0.15
19 0.1
2 -0.36
20 -0.15
21 0.1
22 -0.15
23 0.01
24 -0.15
25 -0.15
26 0.28
27 0.28
28 -0.15
29 -0.15
3 -0.68
30 0.18
31 -0.3
32 0.08
4 -0.56
41 0.15
42 0.4
43 0.15
44 0.15
45 0.15
46 0.15
5 -0.56
53 0.27
54 0.4
55 0.4
56 0.15
57 0.15
58 0.15
59 0.15
6 -0.84
7 0.03
8 -0.9
9 -0.57

> <PUBCHEM_EFFECTIVE_ROTOR_COUNT>
7.8

> <PUBCHEM_PHARMACOPHORE_FEATURES>
14
1 2 acceptor
1 3 acceptor
1 3 donor
1 4 acceptor
1 5 acceptor
1 6 cation
1 7 donor
1 8 cation
1 8 donor
3 7 9 23 cation
5 7 9 23 31 32 rings
6 13 16 18 20 21 22 rings
6 19 24 25 28 29 30 rings
6 2 10 11 12 13 16 rings

> <PUBCHEM_HEAVY_ATOM_COUNT>
32

> <PUBCHEM_ATOM_DEF_STEREO_COUNT>
3

> <PUBCHEM_ATOM_UDEF_STEREO_COUNT>
0

> <PUBCHEM_BOND_DEF_STEREO_COUNT>
0

> <PUBCHEM_BOND_UDEF_STEREO_COUNT>
0

> <PUBCHEM_ISOTOPIC_ATOM_COUNT>
0

> <PUBCHEM_COMPONENT_COUNT>
1

> <PUBCHEM_CACTVS_TAUTO_COUNT>
1

> <PUBCHEM_CONFORMER_ID>
009F371000000001

> <PUBCHEM_MMFF94_ENERGY>
142.7991

> <PUBCHEM_FEATURE_SELFOVERLAP>
71.141

> <PUBCHEM_SHAPE_FINGERPRINT>
11421498 54 18129105708843140471
11578080 2 17336404979441658397
12156800 1 15812481666022935949
12160290 23 16773529772058541169
12293681 160 17623301879901164068
12293681 25 16877943884003203275
12655364 131 18335413617599998464
12788726 201 17988373658317147675
13009979 54 18272082803658126526
133893 2 18187093879183228028
13965767 371 17624138200617807922
14028597 1 18126858315528848665
14068700 675 18268126782301883194
14787075 74 17623559152757936269
14932702 115 16749037398408158893
15420108 30 18126297337282121792
17138139 8 17478884347623424191
17974551 9 15981721832912802006
19319366 153 18049151473934938319
23558518 356 17979389608772907100
238 59 17823129206328930532
238918 7 15031170429844381499
3380486 145 17899413087009652380
35225 105 16916797210746467187
392239 28 17843093026164808882
394222 165 17390770525461372224
469060 322 18117256092158748994
57527452 28 17685741986086775280

> <PUBCHEM_SHAPE_MULTIPOLES>
617.01
6.71
5.75
3.26
0.57
0.07
-2.31
-3.33
-0.78
-0.73
-0.67
2.25
2.23
-6.86

> <PUBCHEM_SHAPE_SELFOVERLAP>
1332.759

> <PUBCHEM_SHAPE_VOLUME>
341

> <PUBCHEM_COORDINATE_TYPE>
2
5
10

$$$$
