REMARK  Name = 10431580
REMARK  6 active torsions:
REMARK  status: ('A' for Active; 'I' for Inactive)
REMARK    1  A    between atoms: C_7  and  O_23
REMARK    2  A    between atoms: C_7  and  C_30
REMARK    3  A    between atoms: C_11  and  O_25
REMARK    4  A    between atoms: C_15  and  O_27
REMARK    5  A    between atoms: C_30  and  C_31
REMARK    6  A    between atoms: C_31  and  O_32
REMARK                            x       y       z     vdW  Elec       q    Type
REMARK                         _______ _______ _______ _____ _____    ______ ____
ROOT
ATOM      1  F   UNL     1       1.261   0.532   1.333  0.00  0.00    -0.237 F 
ATOM      2  O   UNL     1       6.176   0.760   1.520  0.00  0.00    -0.287 OA
ATOM      3  C   UNL     1      -1.901   0.119  -0.179  0.00  0.00    +0.032 C 
ATOM      4  C   UNL     1      -0.962  -0.969   0.386  0.00  0.00    +0.005 C 
ATOM      5  C   UNL     1       0.429  -0.979  -0.269  0.00  0.00    +0.036 C 
ATOM      6  C   UNL     1       1.118   0.411  -0.042  0.00  0.00    +0.165 C 
ATOM      7  C   UNL     1      -3.199  -0.202   0.626  0.00  0.00    +0.141 C 
ATOM      8  C   UNL     1      -1.815  -2.232   0.311  0.00  0.00    +0.003 C 
ATOM      9  C   UNL     1      -1.243   1.483   0.113  0.00  0.00    +0.035 C 
ATOM     10  C   UNL     1      -3.219  -1.756   0.769  0.00  0.00    +0.032 C 
ATOM     11  C   UNL     1       0.195   1.603  -0.438  0.00  0.00    +0.141 C 
ATOM     12  C   UNL     1       2.587   0.443  -0.624  0.00  0.00    +0.066 C 
ATOM     13  C   UNL     1       1.281  -2.121   0.321  0.00  0.00    +0.036 C 
ATOM     14  C   UNL     1      -2.171  -0.033  -1.701  0.00  0.00    +0.003 C 
ATOM     15  C   UNL     1       2.716  -2.124  -0.197  0.00  0.00    +0.129 C 
ATOM     16  C   UNL     1       3.347  -0.759  -0.040  0.00  0.00    -0.009 C 
ATOM     17  C   UNL     1      -4.316  -2.503   0.017  0.00  0.00    +0.003 C 
ATOM     18  C   UNL     1       2.650   0.374  -2.168  0.00  0.00    +0.011 C 
ATOM     19  C   UNL     1       3.264   1.755  -0.248  0.00  0.00    -0.017 C 
ATOM     20  C   UNL     1       4.491  -0.643   0.654  0.00  0.00    +0.036 C 
ATOM     21  C   UNL     1       4.404   1.871   0.441  0.00  0.00    +0.038 C 
ATOM     22  C   UNL     1       5.113   0.670   0.916  0.00  0.00    +0.195 C 
ENDROOT
BRANCH   7  23
ATOM     23  O   UNL     1      -3.110   0.364   1.940  0.00  0.00    -0.380 OA
ATOM     24  H   UNL     1      -2.328   0.011   2.392  0.00  0.00    +0.211 HD
ENDBRANCH   7  23
BRANCH  11  25
ATOM     25  O   UNL     1       0.154   1.787  -1.845  0.00  0.00    -0.382 OA
ATOM     26  H   UNL     1       1.059   1.862  -2.187  0.00  0.00    +0.210 HD
ENDBRANCH  11  25
BRANCH  15  27
ATOM     27  O   UNL     1       2.723  -2.536  -1.561  0.00  0.00    -0.380 OA
ATOM     28  H   UNL     1       2.314  -3.413  -1.636  0.00  0.00    +0.211 HD
ENDBRANCH  15  27
BRANCH   7  30
ATOM     29  O   UNL     1      -5.427  -0.220  -0.220  0.00  0.00    -0.291 OA
ATOM     30  C   UNL     1      -4.441   0.447   0.090  0.00  0.00    +0.204 C 
BRANCH  30  31
ATOM     31  C   UNL     1      -4.407   1.955  -0.043  0.00  0.00    +0.204 C 
BRANCH  31  32
ATOM     32  O   UNL     1      -5.696   2.501   0.136  0.00  0.00    -0.375 OA
ATOM     33  H   UNL     1      -5.654   3.466   0.047  0.00  0.00    +0.211 HD
ENDBRANCH  31  32
ENDBRANCH  30  31
ENDBRANCH   7  30
TORSDOF 6
