REMARK  Name = 10431325
REMARK  4 active torsions:
REMARK  status: ('A' for Active; 'I' for Inactive)
REMARK    1  A    between atoms: C_7  and  C_26
REMARK    2  A    between atoms: C_8  and  O_23
REMARK    3  A    between atoms: C_9  and  O_27
REMARK    4  A    between atoms: O_27  and  C_29
REMARK                            x       y       z     vdW  Elec       q    Type
REMARK                         _______ _______ _______ _____ _____    ______ ____
ROOT
ATOM      1  O   UNL     1       0.460   0.720   2.417  0.00  0.00    -0.448 OA
ATOM      2  O   UNL     1       2.881   1.839  -0.795  0.00  0.00    -0.291 OA
ATOM      3  O   UNL     1       2.353   1.895   2.135  0.00  0.00    -0.250 OA
ATOM      4  C   UNL     1      -0.624  -0.128   0.343  0.00  0.00    +0.087 C 
ATOM      5  C   UNL     1       0.793  -0.561  -0.210  0.00  0.00    +0.051 C 
ATOM      6  C   UNL     1       1.974   0.054   0.627  0.00  0.00    +0.147 C 
ATOM      7  C   UNL     1      -0.944   1.376  -0.103  0.00  0.00    +0.072 C 
ATOM      8  C   UNL     1       1.020  -2.089  -0.463  0.00  0.00    +0.112 C 
ATOM      9  C   UNL     1      -1.789  -1.059  -0.125  0.00  0.00    +0.173 C 
ATOM     10  C   UNL     1       2.951  -1.020   1.168  0.00  0.00    +0.023 C 
ATOM     11  C   UNL     1      -1.511   1.595  -1.560  0.00  0.00    +0.007 C 
ATOM     12  C   UNL     1       3.540  -1.616  -0.111  0.00  0.00    +0.029 C 
ATOM     13  C   UNL     1      -0.481  -0.229   1.889  0.00  0.00    +0.212 C 
ATOM     14  C   UNL     1       2.473  -2.429  -0.867  0.00  0.00    +0.034 C 
ATOM     15  C   UNL     1      -2.162  -0.879  -1.596  0.00  0.00    +0.044 C 
ATOM     16  C   UNL     1      -2.593   0.552  -1.903  0.00  0.00    +0.004 C 
ATOM     17  C   UNL     1       2.918   0.688  -0.393  0.00  0.00    +0.178 C 
ATOM     18  C   UNL     1       1.615   0.984   1.768  0.00  0.00    +0.323 C 
ATOM     19  C   UNL     1       3.882  -0.352  -0.858  0.00  0.00    +0.013 C 
ATOM     20  C   UNL     1      -2.135   3.010  -1.707  0.00  0.00    +0.000 C 
ATOM     21  C   UNL     1      -0.395   1.542  -2.631  0.00  0.00    +0.000 C 
ATOM     22  C   UNL     1       4.871  -0.121  -1.722  0.00  0.00    -0.002 C 
ENDROOT
BRANCH   8  23
ATOM     23  O   UNL     1       0.679  -2.862   0.686  0.00  0.00    -0.384 OA
ATOM     24  H   UNL     1      -0.231  -2.659   0.953  0.00  0.00    +0.210 HD
ENDBRANCH   8  23
BRANCH   7  26
ATOM     25  O   UNL     1      -1.561   2.993   1.583  0.00  0.00    -0.288 OA
ATOM     26  C   UNL     1      -1.873   2.023   0.900  0.00  0.00    +0.207 C 
ENDBRANCH   7  26
BRANCH   9  27
ATOM     27  O   UNL     1      -2.963  -0.816   0.660  0.00  0.00    -0.452 OA
BRANCH  27  29
ATOM     28  O   UNL     1      -4.027  -2.715  -0.114  0.00  0.00    -0.250 OA
ATOM     29  C   UNL     1      -4.047  -1.580   0.343  0.00  0.00    +0.317 C 
ATOM     30  C   UNL     1      -5.301  -0.816   0.639  0.00  0.00    +0.121 C 
ENDBRANCH  27  29
ENDBRANCH   9  27
TORSDOF 4
