REMARK  Name = 10434578
REMARK  7 active torsions:
REMARK  status: ('A' for Active; 'I' for Inactive)
REMARK    1  A    between atoms: C_5  and  O_31
REMARK    2  A    between atoms: C_8  and  N_16
REMARK    3  A    between atoms: C_17  and  C_19
REMARK    4  A    between atoms: C_20  and  O_29
REMARK    5  A    between atoms: C_22  and  N_26
REMARK    6  A    between atoms: O_31  and  C_33
REMARK    7  A    between atoms: C_33  and  C_34
REMARK                            x       y       z     vdW  Elec       q    Type
REMARK                         _______ _______ _______ _____ _____    ______ ____
ROOT
ATOM      1  O   UNL     1       1.742   0.594  -1.141  0.00  0.00    -0.447 OA
ATOM      2  O   UNL     1       3.107   1.378   1.316  0.00  0.00    -0.450 OA
ATOM      3  O   UNL     1       1.353   0.082   2.067  0.00  0.00    -0.250 OA
ATOM      4  O   UNL     1       3.203   2.275  -1.735  0.00  0.00    -0.248 OA
ATOM      5  C   UNL     1       2.696  -1.494  -0.339  0.00  0.00    +0.219 C 
ATOM      6  C   UNL     1       3.282  -0.947   0.990  0.00  0.00    +0.143 C 
ATOM      7  C   UNL     1       2.654  -0.466  -1.498  0.00  0.00    +0.209 C 
ATOM      8  C   UNL     1       1.519   2.682  -0.041  0.00  0.00    +0.212 C 
ATOM      9  C   UNL     1       2.326   2.600   1.279  0.00  0.00    +0.198 C 
ATOM     10  C   UNL     1       2.458   0.202   1.557  0.00  0.00    +0.320 C 
ATOM     11  C   UNL     1       3.408  -2.030   2.063  0.00  0.00    +0.016 C 
ATOM     12  C   UNL     1       2.148  -1.079  -2.799  0.00  0.00    +0.051 C 
ATOM     13  C   UNL     1       2.216   1.874  -1.130  0.00  0.00    +0.339 C 
ATOM     14  C   UNL     1       3.324   3.749   1.381  0.00  0.00    +0.050 C 
ENDROOT
BRANCH   8  16
ATOM     15  O   UNL     1      -0.838   3.482  -1.470  0.00  0.00    -0.270 OA
ATOM     16  N   UNL     1       0.178   2.182   0.159  0.00  0.00    -0.290 N 
ATOM     17  C   UNL     1      -0.901   2.633  -0.585  0.00  0.00    +0.249 C 
ATOM     18  H   UNL     1       0.026   1.496   0.848  0.00  0.00    +0.150 HD
BRANCH  17  19
ATOM     19  C   UNL     1      -2.218   2.039  -0.241  0.00  0.00    +0.088 C 
ATOM     20  C   UNL     1      -2.435   0.665  -0.340  0.00  0.00    +0.151 C 
ATOM     21  C   UNL     1      -3.247   2.878   0.188  0.00  0.00    +0.008 C 
ATOM     22  C   UNL     1      -3.680   0.130  -0.011  0.00  0.00    +0.085 C 
ATOM     23  C   UNL     1      -4.492   2.343   0.517  0.00  0.00    +0.002 C 
ATOM     24  C   UNL     1      -4.709   0.969   0.417  0.00  0.00    +0.018 C 
BRANCH  22  26
ATOM     25  O   UNL     1      -6.165  -1.510   0.576  0.00  0.00    -0.265 OA
ATOM     26  N   UNL     1      -3.914  -1.245  -0.105  0.00  0.00    -0.274 N 
ATOM     27  C   UNL     1      -5.087  -1.933   0.182  0.00  0.00    +0.304 C 
ATOM     28  H   UNL     1      -3.156  -1.792  -0.412  0.00  0.00    +0.155 HD
ENDBRANCH  22  26
BRANCH  20  29
ATOM     29  O   UNL     1      -1.427  -0.155  -0.760  0.00  0.00    -0.504 OA
ATOM     30  H   UNL     1      -0.591   0.205  -0.980  0.00  0.00    +0.292 HD
ENDBRANCH  20  29
ENDBRANCH  17  19
ENDBRANCH   8  16
BRANCH   5  31
ATOM     31  O   UNL     1       1.383  -2.015  -0.132  0.00  0.00    -0.448 OA
BRANCH  31  33
ATOM     32  O   UNL     1       2.114  -4.113  -0.750  0.00  0.00    -0.250 OA
ATOM     33  C   UNL     1       1.231  -3.352  -0.376  0.00  0.00    +0.316 C 
BRANCH  33  34
ATOM     34  C   UNL     1      -0.212  -3.754  -0.126  0.00  0.00    +0.099 C 
ATOM     35  C   UNL     1      -0.625  -3.426   1.307  0.00  0.00    +0.012 C 
ATOM     36  C   UNL     1      -0.391  -5.239  -0.419  0.00  0.00    +0.012 C 
ENDBRANCH  33  34
ENDBRANCH  31  33
ENDBRANCH   5  31
TORSDOF 7
