REMARK  Name = 10431604
REMARK  9 active torsions:
REMARK  status: ('A' for Active; 'I' for Inactive)
REMARK    1  A    between atoms: S_1  and  C_3
REMARK    2  A    between atoms: S_1  and  S_14
REMARK    3  A    between atoms: C_3  and  N_4
REMARK    4  A    between atoms: C_5  and  C_11
REMARK    5  A    between atoms: C_11  and  O_12
REMARK    6  A    between atoms: S_14  and  C_16
REMARK    7  A    between atoms: C_16  and  N_17
REMARK    8  A    between atoms: C_18  and  C_24
REMARK    9  A    between atoms: C_24  and  O_25
REMARK                            x       y       z     vdW  Elec       q    Type
REMARK                         _______ _______ _______ _____ _____    ______ ____
ROOT
ATOM      1  S   UNL     1      -0.843  -2.943   0.139  0.00  0.00    -0.027 S 
ENDROOT
BRANCH   1   3
ATOM      2  S   UNL     1       0.242  -1.410   2.504  0.00  0.00    -0.027 S 
ATOM      3  C   UNL     1      -0.946  -1.701   1.371  0.00  0.00    +0.121 C 
BRANCH   3   4
ATOM      4  N   UNL     1      -2.082  -0.964   1.292  0.00  0.00    -0.297 N 
ATOM      5  C   UNL     1      -4.112   0.746   0.176  0.00  0.00    +0.102 C 
ATOM      6  C   UNL     1      -4.006  -0.732  -0.221  0.00  0.00    +0.033 C 
ATOM      7  C   UNL     1      -2.744   1.298   0.592  0.00  0.00    +0.033 C 
ATOM      8  C   UNL     1      -3.349  -1.556   0.883  0.00  0.00    +0.092 C 
ATOM      9  C   UNL     1      -2.109   0.440   1.683  0.00  0.00    +0.092 C 
BRANCH   5  11
ATOM     10  O   UNL     1      -4.493   1.290  -2.149  0.00  0.00    -0.250 OA
ATOM     11  C   UNL     1      -4.664   1.545  -0.966  0.00  0.00    +0.313 C 
BRANCH  11  12
ATOM     12  O   UNL     1      -5.382   2.600  -0.509  0.00  0.00    -0.480 OA
ATOM     13  H   UNL     1      -5.474   2.739   0.413  0.00  0.00    +0.295 HD
ENDBRANCH  11  12
ENDBRANCH   5  11
ENDBRANCH   3   4
ENDBRANCH   1   3
BRANCH   1  14
ATOM     14  S   UNL     1       0.112  -1.931  -1.382  0.00  0.00    -0.027 S 
BRANCH  14  16
ATOM     15  S   UNL     1       2.466  -3.780  -0.988  0.00  0.00    -0.027 S 
ATOM     16  C   UNL     1       1.793  -2.255  -1.013  0.00  0.00    +0.121 C 
BRANCH  16  17
ATOM     17  N   UNL     1       2.516  -1.129  -0.783  0.00  0.00    -0.297 N 
ATOM     18  C   UNL     1       4.050   1.338  -0.230  0.00  0.00    +0.102 C 
ATOM     19  C   UNL     1       3.889   0.193   0.781  0.00  0.00    +0.033 C 
ATOM     20  C   UNL     1       3.350   1.060  -1.570  0.00  0.00    +0.033 C 
ATOM     21  C   UNL     1       3.681  -1.151   0.094  0.00  0.00    +0.092 C 
ATOM     22  C   UNL     1       2.146   0.138  -1.406  0.00  0.00    +0.092 C 
BRANCH  18  24
ATOM     23  O   UNL     1       2.406   3.044   0.264  0.00  0.00    -0.250 OA
ATOM     24  C   UNL     1       3.545   2.618   0.374  0.00  0.00    +0.313 C 
BRANCH  24  25
ATOM     25  O   UNL     1       4.532   3.243   1.062  0.00  0.00    -0.480 OA
ATOM     26  H   UNL     1       5.386   2.861   1.108  0.00  0.00    +0.295 HD
ENDBRANCH  24  25
ENDBRANCH  18  24
ENDBRANCH  16  17
ENDBRANCH  14  16
ENDBRANCH   1  14
TORSDOF 9
