REMARK  Name = 10430430
REMARK  13 active torsions:
REMARK  status: ('A' for Active; 'I' for Inactive)
REMARK    1  A    between atoms: N_2  and  CA_21
REMARK    2  A    between atoms: C_3  and  CA_5
REMARK    3  A    between atoms: CA_5  and  N_7
REMARK    4  A    between atoms: CA_5  and  CB_14
REMARK    5  A    between atoms: C_8  and  C_10
REMARK    6  A    between atoms: C_10  and  C_11
REMARK    7  A    between atoms: CB_14  and  CG_15
REMARK    8  A    between atoms: CA_21  and  C_23
REMARK    9  A    between atoms: CA_21  and  CB_24
REMARK   10  A    between atoms: CB_24  and  CG_25
REMARK   11  A    between atoms: CG_25  and  CD_26
REMARK   12  A    between atoms: CD_26  and  NE_27
REMARK   13  A    between atoms: NE_27  and  CZ_30
REMARK                            x       y       z     vdW  Elec       q    Type
REMARK                         _______ _______ _______ _____ _____    ______ ____
ROOT
ATOM      1  O   UNL     1      -0.559  -1.015   2.340  0.00  0.00    -0.273 OA
ATOM      2  N   UNL     1      -1.226  -1.981   0.335  0.00  0.00    -0.298 N 
ATOM      3  C   UNL     1      -0.339  -1.312   1.167  0.00  0.00    +0.241 C 
ATOM      4  H   UNL     1      -0.948  -2.169  -0.590  0.00  0.00    +0.150 HD
ENDROOT
BRANCH   3   5
ATOM      5  CA  UNL     1       0.944  -0.925   0.440  0.00  0.00    +0.153 C 
BRANCH   5   7
ATOM      6  O   UNL     1       1.137   1.527  -1.064  0.00  0.00    -0.275 OA
ATOM      7  N   UNL     1       1.343   0.371   0.938  0.00  0.00    -0.298 N 
ATOM      8  C   ACE A   0       1.406   1.499   0.133  0.00  0.00    +0.223 C 
ATOM      9  H   UNL     1       1.581   0.457   1.890  0.00  0.00    +0.150 HD
BRANCH   8  10
ATOM     10  C   UNL     1       1.822   2.730   0.925  0.00  0.00    +0.085 C 
BRANCH  10  11
ATOM     11  C   UNL     1       2.519   3.805   0.077  0.00  0.00    +0.009 C 
ATOM     12  C   UNL     1       2.857   5.019   0.944  0.00  0.00    +0.001 C 
ATOM     13  C   UNL     1       3.794   3.263  -0.572  0.00  0.00    +0.001 C 
ENDBRANCH  10  11
ENDBRANCH   8  10
ENDBRANCH   5   7
BRANCH   5  14
ATOM     14  CB  UNL     1       2.024  -1.989   0.664  0.00  0.00    +0.055 C 
BRANCH  14  15
ATOM     15  CG  UNL     1       3.330  -1.645  -0.009  0.00  0.00    -0.020 C 
ATOM     16  CD1 UNL     1       3.572  -2.062  -1.318  0.00  0.00    -0.004 C 
ATOM     17  CD2 UNL     1       4.296  -0.909   0.677  0.00  0.00    -0.004 C 
ATOM     18  CE1 UNL     1       4.779  -1.743  -1.940  0.00  0.00    -0.000 C 
ATOM     19  CE2 UNL     1       5.503  -0.590   0.055  0.00  0.00    -0.000 C 
ATOM     20  CZ  UNL     1       5.745  -1.008  -1.254  0.00  0.00    -0.000 C 
ENDBRANCH  14  15
ENDBRANCH   5  14
ENDBRANCH   3   5
BRANCH   2  21
ATOM     21  CA  UNL     1      -2.537  -2.417   0.760  0.00  0.00    +0.137 C 
BRANCH  21  23
ATOM     22  O   UNL     1      -3.948  -4.175  -0.111  0.00  0.00    -0.286 OA
ATOM     23  C   UNL     1      -2.815  -3.740   0.080  0.00  0.00    +0.227 C 
ENDBRANCH  21  23
BRANCH  21  24
ATOM     24  CB  UNL     1      -3.628  -1.369   0.524  0.00  0.00    +0.030 C 
BRANCH  24  25
ATOM     25  CG  UNL     1      -3.822  -0.973  -0.947  0.00  0.00    +0.029 C 
BRANCH  25  26
ATOM     26  CD  UNL     1      -4.885   0.109  -1.119  0.00  0.00    +0.129 C 
BRANCH  26  27
ATOM     27  NE  UNL     1      -4.491   1.315  -0.388  0.00  0.00    -0.240 NA
BRANCH  27  30
ATOM     28  NH1 UNL     1      -6.508   2.402  -1.111  0.00  0.00    -0.370 N 
ATOM     29  NH2 UNL     1      -5.008   3.492   0.216  0.00  0.00    -0.370 N 
ATOM     30  CZ  UNL     1      -5.306   2.322  -0.444  0.00  0.00    +0.189 C 
ATOM     31 HH11 UNL     1      -6.838   1.630  -1.624  0.00  0.00    +0.159 HD
ATOM     32 HH12 UNL     1      -7.037   3.231  -1.074  0.00  0.00    +0.159 HD
ATOM     33 HH21 UNL     1      -4.174   3.567   0.733  0.00  0.00    +0.159 HD
ATOM     34 HH22 UNL     1      -5.630   4.254   0.171  0.00  0.00    +0.159 HD
ENDBRANCH  27  30
ENDBRANCH  26  27
ENDBRANCH  25  26
ENDBRANCH  24  25
ENDBRANCH  21  24
ENDBRANCH   2  21
TORSDOF 13
