REMARK  Name = 10434242
REMARK  4 active torsions:
REMARK  status: ('A' for Active; 'I' for Inactive)
REMARK    1  A    between atoms: N_2  and  C_28
REMARK    2  A    between atoms: C_29  and  O_34
REMARK    3  A    between atoms: C_30  and  O_36
REMARK    4  A    between atoms: C_31  and  O_38
REMARK                            x       y       z     vdW  Elec       q    Type
REMARK                         _______ _______ _______ _____ _____    ______ ____
ROOT
ATOM      1  O   UNL     1       3.405   3.921  -0.129  0.00  0.00    -0.270 OA
ATOM      2  N   UNL     1      -0.976   0.632   0.141  0.00  0.00    -0.302 N 
ATOM      3  N   UNL     1       0.299  -1.848   0.169  0.00  0.00    -0.352 N 
ATOM      4  N   UNL     1       4.859   2.079  -0.125  0.00  0.00    -0.297 N 
ATOM      5  C   UNL     1       0.372   0.545   0.092  0.00  0.00    +0.078 A 
ATOM      6  C   UNL     1       1.225   1.696   0.024  0.00  0.00    +0.023 A 
ATOM      7  C   UNL     1      -1.148   2.008   0.106  0.00  0.00    +0.062 A 
ATOM      8  C   UNL     1       1.010  -0.698   0.106  0.00  0.00    +0.072 A 
ATOM      9  C   UNL     1       0.124   2.671   0.037  0.00  0.00    +0.017 A 
ATOM     10  C   UNL     1       2.619   1.674  -0.028  0.00  0.00    +0.053 A 
ATOM     11  C   UNL     1       2.440  -0.677   0.051  0.00  0.00    +0.016 A 
ATOM     12  C   UNL     1       3.275   0.439  -0.015  0.00  0.00    +0.003 A 
ATOM     13  C   UNL     1       4.752   0.633  -0.076  0.00  0.00    +0.117 C 
ATOM     14  C   UNL     1       2.596  -2.135   0.091  0.00  0.00    +0.017 A 
ATOM     15  C   UNL     1       1.321  -2.787   0.160  0.00  0.00    +0.057 A 
ATOM     16  C   UNL     1       3.626   2.726  -0.099  0.00  0.00    +0.246 C 
ATOM     17  C   UNL     1      -2.355   2.724   0.131  0.00  0.00    +0.017 C 
ATOM     18  C   UNL     1       0.111   4.087  -0.005  0.00  0.00    +0.001 C 
ATOM     19  C   UNL     1       3.752  -2.951   0.073  0.00  0.00    +0.001 C 
ATOM     20  C   UNL     1      -2.311   4.117   0.088  0.00  0.00    +0.001 C 
ATOM     21  C   UNL     1      -1.099   4.790   0.020  0.00  0.00    +0.000 C 
ATOM     22  C   UNL     1       1.214  -4.185   0.207  0.00  0.00    +0.017 C 
ATOM     23  C   UNL     1       3.633  -4.343   0.120  0.00  0.00    +0.000 C 
ATOM     24  C   UNL     1       2.383  -4.948   0.187  0.00  0.00    +0.001 C 
ATOM     25  H   UNL     1      -0.675  -1.981   0.210  0.00  0.00    +0.166 HD
ATOM     26  H   UNL     1       5.719   2.556  -0.172  0.00  0.00    +0.150 HD
ENDROOT
BRANCH   2  28
ATOM     27  O   UNL     1      -3.118   0.242   0.980  0.00  0.00    -0.334 OA
ATOM     28  C   UNL     1      -2.070  -0.351   0.212  0.00  0.00    +0.235 C 
ATOM     29  C   UNL     1      -2.562  -0.755  -1.185  0.00  0.00    +0.189 C 
ATOM     30  C   UNL     1      -3.791  -1.668  -1.106  0.00  0.00    +0.171 C 
ATOM     31  C   UNL     1      -4.849  -1.077  -0.172  0.00  0.00    +0.167 C 
ATOM     32  C   UNL     1      -4.284  -0.568   1.165  0.00  0.00    +0.147 C 
ATOM     33  C   UNL     1      -4.030  -1.660   2.200  0.00  0.00    +0.035 C 
BRANCH  29  34
ATOM     34  O   UNL     1      -1.529  -1.401  -1.921  0.00  0.00    -0.378 OA
ATOM     35  H   UNL     1      -0.754  -0.820  -1.969  0.00  0.00    +0.211 HD
ENDBRANCH  29  34
BRANCH  30  36
ATOM     36  O   UNL     1      -3.448  -2.982  -0.673  0.00  0.00    -0.379 OA
ATOM     37  H   UNL     1      -2.777  -3.353  -1.268  0.00  0.00    +0.211 HD
ENDBRANCH  30  36
BRANCH  31  38
ATOM     38  O   UNL     1      -5.448   0.047  -0.827  0.00  0.00    -0.379 OA
ATOM     39  H   UNL     1      -5.818  -0.234  -1.678  0.00  0.00    +0.211 HD
ENDBRANCH  31  38
ENDBRANCH   2  28
TORSDOF 4
