10433808
  -OEChem-03292013303D

 68 71  0     1  0  0  0  0  0999 V2000
    3.0114   -2.0209    1.0884 O   0  0  0  0  0  0  0  0  0  0  0  0
    1.4794    0.4577    1.4994 O   0  0  0  0  0  0  0  0  0  0  0  0
    1.3575   -0.8513   -1.9646 O   0  0  0  0  0  0  0  0  0  0  0  0
    2.9803   -2.8210   -1.1493 O   0  0  0  0  0  0  0  0  0  0  0  0
    0.1913    1.8690   -1.3742 O   0  0  0  0  0  0  0  0  0  0  0  0
   -4.8214   -0.1563   -1.2070 O   0  0  0  0  0  0  0  0  0  0  0  0
   -6.2027   -1.9377   -1.6681 O   0  0  0  0  0  0  0  0  0  0  0  0
    2.7199    1.3281   -0.3607 C   0  0  1  0  0  0  0  0  0  0  0  0
    4.0200    0.6155    0.0478 C   0  0  1  0  0  0  0  0  0  0  0  0
    1.4992    0.4959    0.0747 C   0  0  1  0  0  0  0  0  0  0  0  0
    4.1576   -0.7477   -0.6356 C   0  0  2  0  0  0  0  0  0  0  0  0
    1.5656   -0.9459   -0.5465 C   0  0  2  0  0  0  0  0  0  0  0  0
    2.9430    2.7107    0.2883 C   0  0  1  0  0  0  0  0  0  0  0  0
    2.9383   -1.6590   -0.3006 C   0  0  2  0  0  0  0  0  0  0  0  0
    5.0885    1.6523   -0.2907 C   0  0  0  0  0  0  0  0  0  0  0  0
    4.4319    3.0025    0.0118 C   0  0  0  0  0  0  0  0  0  0  0  0
    0.2287    1.1864   -0.3505 C   0  0  0  0  0  0  0  0  0  0  0  0
    5.4975   -1.3902   -0.2271 C   0  0  0  0  0  0  0  0  0  0  0  0
    0.4467   -1.8100   -0.0025 C   0  0  0  0  0  0  0  0  0  0  0  0
    2.0504    3.8251   -0.2386 C   0  0  0  0  0  0  0  0  0  0  0  0
   -1.0007    0.9609    0.5253 C   0  0  2  0  0  0  0  0  0  0  0  0
    0.6670   -2.7602    0.9213 C   0  0  0  0  0  0  0  0  0  0  0  0
    2.0465   -3.0068    1.4744 C   0  0  0  0  0  0  0  0  0  0  0  0
   -2.3031    1.0265   -0.2876 C   0  0  0  0  0  0  0  0  0  0  0  0
   -1.0033    2.0110    1.6334 C   0  0  0  0  0  0  0  0  0  0  0  0
   -0.4312   -3.6291    1.4546 C   0  0  0  0  0  0  0  0  0  0  0  0
   -3.5457    0.8161    0.5830 C   0  0  0  0  0  0  0  0  0  0  0  0
   -4.8214    0.9062   -0.2402 C   0  0  2  0  0  0  0  0  0  0  0  0
   -6.0646    0.6659    0.5344 C   0  0  0  0  0  0  0  0  0  0  0  0
   -6.7093   -0.4098    0.0885 C   0  0  0  0  0  0  0  0  0  0  0  0
   -5.9180   -0.9460   -1.0193 C   0  0  0  0  0  0  0  0  0  0  0  0
   -6.4993    1.5622    1.6376 C   0  0  0  0  0  0  0  0  0  0  0  0
    2.7088    1.4496   -1.4547 H   0  0  0  0  0  0  0  0  0  0  0  0
    4.0408    0.4706    1.1379 H   0  0  0  0  0  0  0  0  0  0  0  0
    4.1881   -0.6080   -1.7250 H   0  0  0  0  0  0  0  0  0  0  0  0
    2.8066    2.6447    1.3758 H   0  0  0  0  0  0  0  0  0  0  0  0
    5.3616    1.6038   -1.3516 H   0  0  0  0  0  0  0  0  0  0  0  0
    6.0020    1.5112    0.2957 H   0  0  0  0  0  0  0  0  0  0  0  0
    4.8939    3.4775    0.8845 H   0  0  0  0  0  0  0  0  0  0  0  0
    4.5698    3.6798   -0.8388 H   0  0  0  0  0  0  0  0  0  0  0  0
    5.5887   -1.4782    0.8606 H   0  0  0  0  0  0  0  0  0  0  0  0
    5.5929   -2.3925   -0.6572 H   0  0  0  0  0  0  0  0  0  0  0  0
    6.3441   -0.7991   -0.5908 H   0  0  0  0  0  0  0  0  0  0  0  0
   -0.5543   -1.6768   -0.4037 H   0  0  0  0  0  0  0  0  0  0  0  0
    2.4131    4.7984    0.1108 H   0  0  0  0  0  0  0  0  0  0  0  0
    2.0387    3.8502   -1.3329 H   0  0  0  0  0  0  0  0  0  0  0  0
    1.0254    3.7262    0.1252 H   0  0  0  0  0  0  0  0  0  0  0  0
    2.0118   -0.2951    1.8028 H   0  0  0  0  0  0  0  0  0  0  0  0
    0.4517   -0.5415   -2.1332 H   0  0  0  0  0  0  0  0  0  0  0  0
   -0.9535   -0.0166    1.0066 H   0  0  0  0  0  0  0  0  0  0  0  0
    2.0822   -3.0653   -1.4237 H   0  0  0  0  0  0  0  0  0  0  0  0
    2.0143   -2.9996    2.5690 H   0  0  0  0  0  0  0  0  0  0  0  0
    2.4095   -3.9924    1.1617 H   0  0  0  0  0  0  0  0  0  0  0  0
   -2.2632    0.2660   -1.0775 H   0  0  0  0  0  0  0  0  0  0  0  0
   -2.3784    1.9957   -0.7977 H   0  0  0  0  0  0  0  0  0  0  0  0
   -0.0148    2.1941    2.0626 H   0  0  0  0  0  0  0  0  0  0  0  0
   -1.6551    1.7112    2.4605 H   0  0  0  0  0  0  0  0  0  0  0  0
   -1.3576    2.9780    1.2571 H   0  0  0  0  0  0  0  0  0  0  0  0
   -0.2139   -4.6825    1.2509 H   0  0  0  0  0  0  0  0  0  0  0  0
   -1.3999   -3.3938    1.0015 H   0  0  0  0  0  0  0  0  0  0  0  0
   -0.5286   -3.4965    2.5369 H   0  0  0  0  0  0  0  0  0  0  0  0
   -3.5869    1.5715    1.3742 H   0  0  0  0  0  0  0  0  0  0  0  0
   -3.4723   -0.1671    1.0656 H   0  0  0  0  0  0  0  0  0  0  0  0
   -4.8788    1.8588   -0.7795 H   0  0  0  0  0  0  0  0  0  0  0  0
   -7.6364   -0.8259    0.4434 H   0  0  0  0  0  0  0  0  0  0  0  0
   -5.7832    1.5354    2.4644 H   0  0  0  0  0  0  0  0  0  0  0  0
   -7.4768    1.2670    2.0333 H   0  0  0  0  0  0  0  0  0  0  0  0
   -6.5809    2.5937    1.2807 H   0  0  0  0  0  0  0  0  0  0  0  0
  1 14  1  0  0  0  0
  1 23  1  0  0  0  0
  2 10  1  0  0  0  0
  2 48  1  0  0  0  0
  3 12  1  0  0  0  0
  3 49  1  0  0  0  0
  4 14  1  0  0  0  0
  4 51  1  0  0  0  0
  5 17  2  0  0  0  0
  6 28  1  0  0  0  0
  6 31  1  0  0  0  0
  7 31  2  0  0  0  0
  8  9  1  0  0  0  0
  8 10  1  0  0  0  0
  8 13  1  0  0  0  0
  8 33  1  0  0  0  0
  9 11  1  0  0  0  0
  9 15  1  0  0  0  0
  9 34  1  0  0  0  0
 10 12  1  0  0  0  0
 10 17  1  0  0  0  0
 11 14  1  0  0  0  0
 11 18  1  0  0  0  0
 11 35  1  0  0  0  0
 12 14  1  0  0  0  0
 12 19  1  0  0  0  0
 13 16  1  0  0  0  0
 13 20  1  0  0  0  0
 13 36  1  0  0  0  0
 15 16  1  0  0  0  0
 15 37  1  0  0  0  0
 15 38  1  0  0  0  0
 16 39  1  0  0  0  0
 16 40  1  0  0  0  0
 17 21  1  0  0  0  0
 18 41  1  0  0  0  0
 18 42  1  0  0  0  0
 18 43  1  0  0  0  0
 19 22  2  0  0  0  0
 19 44  1  0  0  0  0
 20 45  1  0  0  0  0
 20 46  1  0  0  0  0
 20 47  1  0  0  0  0
 21 24  1  0  0  0  0
 21 25  1  0  0  0  0
 21 50  1  0  0  0  0
 22 23  1  0  0  0  0
 22 26  1  0  0  0  0
 23 52  1  0  0  0  0
 23 53  1  0  0  0  0
 24 27  1  0  0  0  0
 24 54  1  0  0  0  0
 24 55  1  0  0  0  0
 25 56  1  0  0  0  0
 25 57  1  0  0  0  0
 25 58  1  0  0  0  0
 26 59  1  0  0  0  0
 26 60  1  0  0  0  0
 26 61  1  0  0  0  0
 27 28  1  0  0  0  0
 27 62  1  0  0  0  0
 27 63  1  0  0  0  0
 28 29  1  0  0  0  0
 28 64  1  0  0  0  0
 29 30  2  0  0  0  0
 29 32  1  0  0  0  0
 30 31  1  0  0  0  0
 30 65  1  0  0  0  0
 32 66  1  0  0  0  0
 32 67  1  0  0  0  0
 32 68  1  0  0  0  0
M  END
> <PUBCHEM_COMPOUND_CID>
10433808

> <PUBCHEM_CONFORMER_RMSD>
0.8

> <PUBCHEM_CONFORMER_DIVERSEORDER>
1
7
14
10
2
3
15
12
13
11
8
9
6
4
5

> <PUBCHEM_MMFF94_PARTIAL_CHARGES>
26
1 -0.56
10 0.34
12 0.42
14 0.56
17 0.45
19 -0.29
2 -0.68
21 0.06
22 -0.28
23 0.42
26 0.14
28 0.42
29 -0.28
3 -0.68
30 -0.14
31 0.71
32 0.14
4 -0.68
44 0.15
48 0.4
49 0.4
5 -0.57
51 0.4
6 -0.43
65 0.15
7 -0.57

> <PUBCHEM_EFFECTIVE_ROTOR_COUNT>
6.8

> <PUBCHEM_PHARMACOPHORE_FEATURES>
14
1 1 acceptor
1 2 acceptor
1 2 donor
1 25 hydrophobe
1 3 acceptor
1 3 donor
1 4 acceptor
1 4 donor
1 5 acceptor
1 7 acceptor
5 6 28 29 30 31 rings
5 8 9 13 15 16 rings
6 1 12 14 19 22 23 rings
6 8 9 10 11 12 14 rings

> <PUBCHEM_HEAVY_ATOM_COUNT>
32

> <PUBCHEM_ATOM_DEF_STEREO_COUNT>
9

> <PUBCHEM_ATOM_UDEF_STEREO_COUNT>
0

> <PUBCHEM_BOND_DEF_STEREO_COUNT>
0

> <PUBCHEM_BOND_UDEF_STEREO_COUNT>
0

> <PUBCHEM_ISOTOPIC_ATOM_COUNT>
0

> <PUBCHEM_COMPONENT_COUNT>
1

> <PUBCHEM_CACTVS_TAUTO_COUNT>
2

> <PUBCHEM_CONFORMER_ID>
009F351000000001

> <PUBCHEM_MMFF94_ENERGY>
85.7344

> <PUBCHEM_FEATURE_SELFOVERLAP>
71.219

> <PUBCHEM_SHAPE_FINGERPRINT>
10090160 65 18409445929488154157
10411042 1 17977950086391952562
10595046 47 18272933860498071237
10930396 42 18189032271966875576
1100329 8 18408603661079660250
11135609 187 18342177829470517648
11421498 54 17632584816161472585
12107183 9 17767697061949539369
12156800 1 17906706439494248162
12236239 1 18131635582225426117
12730499 353 18260555527831193321
12788726 201 17561093458449738193
13140716 1 18409730686689680640
1361 2 18262799695509696309
13692114 37 18126833022683012306
13782708 43 17604424085712024250
14068700 675 18272088241028707976
14190465 44 17906727352350304128
14787075 74 18343301500383544793
15001296 14 18410853266223157139
15250474 111 18202272624842117287
15274700 147 15008976723614706701
15537594 2 18339082584690750387
16993438 75 18044099188394542243
17134984 74 18188479281542011467
17138139 8 17985814063925256167
17844677 252 18410579440578309189
18681886 176 18060133232963997370
19319366 153 18411127061060117767
20028762 73 18272086072102391638
20511986 3 18130780145299892545
21197605 99 18266745868764613831
21421861 104 18269845207596714665
22393880 68 18191023409165456573
23516275 137 17702131147681542111
23522609 53 17915767403799063601
23559900 14 18411139181542080384
239999 70 18342461404511409054
24771293 8 18343012294819337504
27425 322 16734109140333803504
3004659 81 18272369746418225441
3178227 256 18260838063986423648
335352 9 18409733993846426596
4073 2 18261681467120547009
4093350 32 17489593346655214934
4340502 62 18409448106962285048
439807 62 18270677680239711655
463206 1 18410576210651554747
484989 97 18263375818354447314
6669772 16 18040710403024838770
70251023 43 18051143492809707146

> <PUBCHEM_SHAPE_MULTIPOLES>
617.46
14.26
4.02
1.41
26.31
0.78
0.05
-1.67
-1.84
-4.17
1
1
0.5
-1.36

> <PUBCHEM_SHAPE_SELFOVERLAP>
1319.405

> <PUBCHEM_SHAPE_VOLUME>
341.3

> <PUBCHEM_COORDINATE_TYPE>
2
5
10

$$$$
