REMARK  Name = 10432616
REMARK  13 active torsions:
REMARK  status: ('A' for Active; 'I' for Inactive)
REMARK    1  A    between atoms: C_4  and  C_12
REMARK    2  A    between atoms: C_8  and  C_22
REMARK    3  A    between atoms: N_11  and  C_14
REMARK    4  A    between atoms: C_14  and  C_16
REMARK    5  A    between atoms: C_14  and  C_18
REMARK    6  A    between atoms: C_18  and  C_19
REMARK    7  A    between atoms: C_22  and  C_23
REMARK    8  A    between atoms: C_22  and  C_28
REMARK    9  A    between atoms: C_23  and  C_24
REMARK   10  A    between atoms: C_24  and  C_25
REMARK   11  A    between atoms: C_25  and  C_26
REMARK   12  A    between atoms: C_28  and  C_31
REMARK   13  A    between atoms: N_30  and  O_33
REMARK                            x       y       z     vdW  Elec       q    Type
REMARK                         _______ _______ _______ _____ _____    ______ ____
ROOT
ATOM      1  O   UNL     1      -0.793  -0.418  -1.800  0.00  0.00    -0.274 OA
ATOM      2  N   UNL     1      -0.646   1.310  -0.265  0.00  0.00    -0.217 N 
ATOM      3  N   UNL     1      -1.159   1.929   0.894  0.00  0.00    -0.226 NA
ATOM      4  C   UNL     1       0.681   1.756  -0.702  0.00  0.00    +0.167 C 
ATOM      5  C   UNL     1       0.810   3.278  -0.741  0.00  0.00    +0.032 C 
ATOM      6  C   UNL     1       0.176   3.943   0.479  0.00  0.00    +0.021 C 
ATOM      7  C   UNL     1      -1.220   3.381   0.727  0.00  0.00    +0.088 C 
ATOM      8  C   UNL     1      -1.285   0.229  -0.871  0.00  0.00    +0.239 C 
ATOM      9  H   UNL     1      -0.555   1.708   1.686  0.00  0.00    +0.145 HD
ENDROOT
BRANCH   4  12
ATOM     10  O   UNL     1       1.435   0.913   1.402  0.00  0.00    -0.273 OA
ATOM     11  N   UNL     1       2.876   0.836  -0.424  0.00  0.00    -0.298 N 
ATOM     12  C   UNL     1       1.683   1.120   0.217  0.00  0.00    +0.242 C 
ATOM     13  H   UNL     1       2.955   1.049  -1.382  0.00  0.00    +0.150 HD
BRANCH  11  14
ATOM     14  C   UNL     1       4.011   0.242   0.245  0.00  0.00    +0.129 C 
BRANCH  14  16
ATOM     15  O   UNL     1       5.277   2.059  -0.727  0.00  0.00    -0.294 OA
ATOM     16  C   UNL     1       5.132   1.272   0.209  0.00  0.00    +0.169 C 
ATOM     17  C   UNL     1       6.040   1.322   1.411  0.00  0.00    +0.074 C 
ENDBRANCH  14  16
BRANCH  14  18
ATOM     18  C   UNL     1       4.470  -1.056  -0.422  0.00  0.00    +0.027 C 
BRANCH  18  19
ATOM     19  C   UNL     1       3.399  -2.163  -0.490  0.00  0.00    +0.002 C 
ATOM     20  C   UNL     1       3.898  -3.414  -1.216  0.00  0.00    +0.000 C 
ATOM     21  C   UNL     1       2.949  -2.534   0.926  0.00  0.00    +0.000 C 
ENDBRANCH  18  19
ENDBRANCH  14  18
ENDBRANCH  11  14
ENDBRANCH   4  12
BRANCH   8  22
ATOM     22  C   UNL     1      -2.653  -0.154  -0.356  0.00  0.00    +0.087 C 
BRANCH  22  23
ATOM     23  C   UNL     1      -2.885  -1.664  -0.520  0.00  0.00    +0.010 C 
BRANCH  23  24
ATOM     24  C   UNL     1      -1.883  -2.498   0.288  0.00  0.00    +0.001 C 
BRANCH  24  25
ATOM     25  C   UNL     1      -2.129  -4.007   0.189  0.00  0.00    +0.000 C 
BRANCH  25  26
ATOM     26  C   UNL     1      -1.091  -4.844   0.936  0.00  0.00    +0.000 C 
ATOM     27  C   UNL     1      -1.388  -6.331   0.817  0.00  0.00    +0.000 C 
ENDBRANCH  25  26
ENDBRANCH  24  25
ENDBRANCH  23  24
ENDBRANCH  22  23
BRANCH  22  28
ATOM     28  C   UNL     1      -3.692   0.669  -1.127  0.00  0.00    +0.096 C 
BRANCH  28  31
ATOM     29  O   UNL     1      -5.894  -0.003  -0.446  0.00  0.00    -0.273 OA
ATOM     30  N   UNL     1      -4.988   1.914   0.476  0.00  0.00    -0.197 N 
ATOM     31  C   UNL     1      -4.977   0.808  -0.335  0.00  0.00    +0.245 C 
ATOM     32  H   UNL     1      -4.225   2.533   0.528  0.00  0.00    +0.182 HD
BRANCH  30  33
ATOM     33  O   UNL     1      -6.155   2.105   1.228  0.00  0.00    -0.295 OA
ATOM     34  H   UNL     1      -6.066   2.908   1.765  0.00  0.00    +0.241 HD
ENDBRANCH  30  33
ENDBRANCH  28  31
ENDBRANCH  22  28
ENDBRANCH   8  22
TORSDOF 13
