REMARK  Name = 10430346
REMARK  11 active torsions:
REMARK  status: ('A' for Active; 'I' for Inactive)
REMARK    1  A    between atoms: C_1  and  C_19
REMARK    2  A    between atoms: C_5  and  C_7
REMARK    3  A    between atoms: C_6  and  O_32
REMARK    4  A    between atoms: C_8  and  O_13
REMARK    5  A    between atoms: C_10  and  O_15
REMARK    6  A    between atoms: C_12  and  O_17
REMARK    7  A    between atoms: C_20  and  C_22
REMARK    8  A    between atoms: C_23  and  O_24
REMARK    9  A    between atoms: C_23  and  C_26
REMARK   10  A    between atoms: C_27  and  C_29
REMARK   11  A    between atoms: C_29  and  O_30
REMARK                            x       y       z     vdW  Elec       q    Type
REMARK                         _______ _______ _______ _____ _____    ______ ____
ROOT
ATOM      1  C   UNL     1       0.350  -2.503  -0.059  0.00  0.00    +0.078 C 
ATOM      2  C   UNL     1       0.686  -3.287   1.223  0.00  0.00    +0.012 C 
ATOM      3  C   UNL     1       1.043  -2.351   2.374  0.00  0.00    +0.006 C 
ATOM      4  C   UNL     1       2.253  -1.487   2.016  0.00  0.00    +0.029 C 
ATOM      5  C   UNL     1       2.211  -0.935   0.609  0.00  0.00    +0.011 C 
ATOM      6  C   UNL     1       1.355  -1.399  -0.326  0.00  0.00    +0.111 C 
ENDROOT
BRANCH   5   7
ATOM      7  C   UNL     1       3.186   0.136   0.308  0.00  0.00    +0.036 C 
ATOM      8  C   UNL     1       2.857   1.480   0.486  0.00  0.00    +0.137 C 
ATOM      9  C   UNL     1       4.450  -0.216  -0.163  0.00  0.00    +0.043 C 
ATOM     10  C   UNL     1       5.387   0.775  -0.456  0.00  0.00    +0.168 C 
ATOM     11  C   UNL     1       3.793   2.471   0.193  0.00  0.00    +0.076 C 
ATOM     12  C   UNL     1       5.058   2.119  -0.278  0.00  0.00    +0.171 C 
BRANCH   8  13
ATOM     13  O   UNL     1       1.628   1.851   0.944  0.00  0.00    -0.505 OA
ATOM     14  H   UNL     1       0.986   1.199   1.146  0.00  0.00    +0.292 HD
ENDBRANCH   8  13
BRANCH  10  15
ATOM     15  O   UNL     1       6.618   0.420  -0.917  0.00  0.00    -0.503 OA
ATOM     16  H   UNL     1       6.831  -0.485  -1.034  0.00  0.00    +0.292 HD
ENDBRANCH  10  15
BRANCH  12  17
ATOM     17  O   UNL     1       5.964   3.097  -0.559  0.00  0.00    -0.503 OA
ATOM     18  H   UNL     1       6.816   2.869  -0.876  0.00  0.00    +0.292 HD
ENDBRANCH  12  17
ENDBRANCH   5   7
BRANCH   1  19
ATOM     19  C   UNL     1      -1.049  -1.953  -0.001  0.00  0.00    -0.023 C 
ATOM     20  C   UNL     1      -2.091  -2.248  -0.802  0.00  0.00    -0.023 C 
ATOM     21  C   UNL     1      -2.049  -3.170  -1.988  0.00  0.00    +0.031 C 
BRANCH  20  22
ATOM     22  C   UNL     1      -3.390  -1.614  -0.604  0.00  0.00    +0.032 C 
ATOM     23  C   UNL     1      -3.650  -0.331  -0.284  0.00  0.00    +0.139 C 
BRANCH  23  24
ATOM     24  O   UNL     1      -2.612   0.578  -0.138  0.00  0.00    -0.471 OA
ATOM     25  C   UNL     1      -2.303   1.178  -1.378  0.00  0.00    +0.252 C 
ENDBRANCH  23  24
BRANCH  23  26
ATOM     26  C   UNL     1      -4.976   0.239  -0.100  0.00  0.00    +0.044 C 
ATOM     27  C   UNL     1      -5.227   1.518   0.219  0.00  0.00    +0.085 C 
BRANCH  27  29
ATOM     28  O   UNL     1      -7.626   1.291   0.235  0.00  0.00    -0.245 OA
ATOM     29  C   UNL     1      -6.624   1.971   0.372  0.00  0.00    +0.338 C 
BRANCH  29  30
ATOM     30  O   UNL     1      -6.620   3.285   0.697  0.00  0.00    -0.477 OA
ATOM     31  H   UNL     1      -5.808   3.744   0.786  0.00  0.00    +0.295 HD
ENDBRANCH  29  30
ENDBRANCH  27  29
ENDBRANCH  23  26
ENDBRANCH  20  22
ENDBRANCH   1  19
BRANCH   6  32
ATOM     32  O   UNL     1       1.379  -0.917  -1.625  0.00  0.00    -0.510 OA
ATOM     33  H   UNL     1       0.777  -1.251  -2.260  0.00  0.00    +0.292 HD
ENDBRANCH   6  32
TORSDOF 11
