10434242
  -OEChem-03292013303D

 57 63  0     1  0  0  0  0  0999 V2000
   -3.1181    0.2422    0.9804 O   0  0  0  0  0  0  0  0  0  0  0  0
   -1.5294   -1.4011   -1.9215 O   0  0  0  0  0  0  0  0  0  0  0  0
   -3.4481   -2.9822   -0.6735 O   0  0  0  0  0  0  0  0  0  0  0  0
   -5.4476    0.0471   -0.8270 O   0  0  0  0  0  0  0  0  0  0  0  0
    3.4049    3.9209   -0.1288 O   0  0  0  0  0  0  0  0  0  0  0  0
   -0.9756    0.6323    0.1410 N   0  0  0  0  0  0  0  0  0  0  0  0
    0.2993   -1.8477    0.1690 N   0  0  0  0  0  0  0  0  0  0  0  0
    4.8591    2.0792   -0.1250 N   0  0  0  0  0  0  0  0  0  0  0  0
   -2.0696   -0.3509    0.2118 C   0  0  2  0  0  0  0  0  0  0  0  0
   -2.5618   -0.7546   -1.1849 C   0  0  2  0  0  0  0  0  0  0  0  0
    0.3722    0.5448    0.0922 C   0  0  0  0  0  0  0  0  0  0  0  0
   -3.7912   -1.6680   -1.1057 C   0  0  2  0  0  0  0  0  0  0  0  0
    1.2250    1.6959    0.0243 C   0  0  0  0  0  0  0  0  0  0  0  0
   -4.8490   -1.0769   -0.1719 C   0  0  1  0  0  0  0  0  0  0  0  0
   -4.2838   -0.5676    1.1646 C   0  0  1  0  0  0  0  0  0  0  0  0
   -1.1480    2.0078    0.1062 C   0  0  0  0  0  0  0  0  0  0  0  0
    1.0100   -0.6979    0.1063 C   0  0  0  0  0  0  0  0  0  0  0  0
    0.1238    2.6713    0.0369 C   0  0  0  0  0  0  0  0  0  0  0  0
    2.6192    1.6740   -0.0281 C   0  0  0  0  0  0  0  0  0  0  0  0
    2.4402   -0.6768    0.0514 C   0  0  0  0  0  0  0  0  0  0  0  0
    3.2745    0.4388   -0.0148 C   0  0  0  0  0  0  0  0  0  0  0  0
    4.7519    0.6329   -0.0763 C   0  0  0  0  0  0  0  0  0  0  0  0
    2.5963   -2.1346    0.0909 C   0  0  0  0  0  0  0  0  0  0  0  0
    1.3212   -2.7868    0.1595 C   0  0  0  0  0  0  0  0  0  0  0  0
   -4.0297   -1.6596    2.2002 C   0  0  0  0  0  0  0  0  0  0  0  0
    3.6264    2.7260   -0.0986 C   0  0  0  0  0  0  0  0  0  0  0  0
   -2.3548    2.7235    0.1313 C   0  0  0  0  0  0  0  0  0  0  0  0
    0.1105    4.0866   -0.0054 C   0  0  0  0  0  0  0  0  0  0  0  0
    3.7520   -2.9507    0.0727 C   0  0  0  0  0  0  0  0  0  0  0  0
   -2.3112    4.1175    0.0879 C   0  0  0  0  0  0  0  0  0  0  0  0
   -1.0986    4.7903    0.0204 C   0  0  0  0  0  0  0  0  0  0  0  0
    1.2138   -4.1846    0.2072 C   0  0  0  0  0  0  0  0  0  0  0  0
    3.6330   -4.3431    0.1205 C   0  0  0  0  0  0  0  0  0  0  0  0
    2.3831   -4.9480    0.1867 C   0  0  0  0  0  0  0  0  0  0  0  0
   -1.7534   -1.1483    0.8696 H   0  0  0  0  0  0  0  0  0  0  0  0
   -2.8403    0.1489   -1.7415 H   0  0  0  0  0  0  0  0  0  0  0  0
   -4.2006   -1.7843   -2.1161 H   0  0  0  0  0  0  0  0  0  0  0  0
   -5.6463   -1.8036    0.0222 H   0  0  0  0  0  0  0  0  0  0  0  0
   -5.0267    0.1101    1.6041 H   0  0  0  0  0  0  0  0  0  0  0  0
    5.2581    0.2681    0.8206 H   0  0  0  0  0  0  0  0  0  0  0  0
    5.1903    0.2124   -0.9844 H   0  0  0  0  0  0  0  0  0  0  0  0
   -0.6613   -2.0899    0.0499 H   0  0  0  0  0  0  0  0  0  0  0  0
   -3.6792   -1.2105    3.1363 H   0  0  0  0  0  0  0  0  0  0  0  0
   -4.9470   -2.2187    2.4096 H   0  0  0  0  0  0  0  0  0  0  0  0
   -3.2594   -2.3714    1.8985 H   0  0  0  0  0  0  0  0  0  0  0  0
   -3.3324    2.2582    0.1241 H   0  0  0  0  0  0  0  0  0  0  0  0
    1.0368    4.6492   -0.0592 H   0  0  0  0  0  0  0  0  0  0  0  0
    5.7450    2.5723   -0.1744 H   0  0  0  0  0  0  0  0  0  0  0  0
   -1.5967   -2.3594   -1.7741 H   0  0  0  0  0  0  0  0  0  0  0  0
   -2.7308   -2.9254   -0.0230 H   0  0  0  0  0  0  0  0  0  0  0  0
   -5.8615   -0.2773   -1.6449 H   0  0  0  0  0  0  0  0  0  0  0  0
    4.7404   -2.5014    0.0214 H   0  0  0  0  0  0  0  0  0  0  0  0
   -3.2397    4.6827    0.0934 H   0  0  0  0  0  0  0  0  0  0  0  0
   -1.0861    5.8765   -0.0160 H   0  0  0  0  0  0  0  0  0  0  0  0
    0.2427   -4.6679    0.2588 H   0  0  0  0  0  0  0  0  0  0  0  0
    4.5292   -4.9578    0.1056 H   0  0  0  0  0  0  0  0  0  0  0  0
    2.3129   -6.0322    0.2230 H   0  0  0  0  0  0  0  0  0  0  0  0
  1  9  1  0  0  0  0
  1 15  1  0  0  0  0
  2 10  1  0  0  0  0
  2 49  1  0  0  0  0
  3 12  1  0  0  0  0
  3 50  1  0  0  0  0
  4 14  1  0  0  0  0
  4 51  1  0  0  0  0
  5 26  2  0  0  0  0
  6  9  1  0  0  0  0
  6 11  1  0  0  0  0
  6 16  1  0  0  0  0
  7 17  1  0  0  0  0
  7 24  1  0  0  0  0
  7 42  1  0  0  0  0
  8 22  1  0  0  0  0
  8 26  1  0  0  0  0
  8 48  1  0  0  0  0
  9 10  1  0  0  0  0
  9 35  1  0  0  0  0
 10 12  1  0  0  0  0
 10 36  1  0  0  0  0
 11 13  1  0  0  0  0
 11 17  2  0  0  0  0
 12 14  1  0  0  0  0
 12 37  1  0  0  0  0
 13 18  1  0  0  0  0
 13 19  2  0  0  0  0
 14 15  1  0  0  0  0
 14 38  1  0  0  0  0
 15 25  1  0  0  0  0
 15 39  1  0  0  0  0
 16 18  1  0  0  0  0
 16 27  2  0  0  0  0
 17 20  1  0  0  0  0
 18 28  2  0  0  0  0
 19 21  1  0  0  0  0
 19 26  1  0  0  0  0
 20 21  2  0  0  0  0
 20 23  1  0  0  0  0
 21 22  1  0  0  0  0
 22 40  1  0  0  0  0
 22 41  1  0  0  0  0
 23 24  1  0  0  0  0
 23 29  2  0  0  0  0
 24 32  2  0  0  0  0
 25 43  1  0  0  0  0
 25 44  1  0  0  0  0
 25 45  1  0  0  0  0
 27 30  1  0  0  0  0
 27 46  1  0  0  0  0
 28 31  1  0  0  0  0
 28 47  1  0  0  0  0
 29 33  1  0  0  0  0
 29 52  1  0  0  0  0
 30 31  2  0  0  0  0
 30 53  1  0  0  0  0
 31 54  1  0  0  0  0
 32 34  1  0  0  0  0
 32 55  1  0  0  0  0
 33 34  2  0  0  0  0
 33 56  1  0  0  0  0
 34 57  1  0  0  0  0
M  END
> <PUBCHEM_COMPOUND_CID>
10434242

> <PUBCHEM_CONFORMER_RMSD>
0.8

> <PUBCHEM_CONFORMER_DIVERSEORDER>
1
3
2

> <PUBCHEM_MMFF94_PARTIAL_CHARGES>
44
1 -0.56
10 0.28
11 -0.05
12 0.28
13 -0.01
14 0.28
15 0.28
16 -0.15
17 -0.05
19 0.09
2 -0.68
20 -0.01
21 -0.14
22 0.44
24 -0.15
26 0.54
27 -0.15
28 -0.15
29 -0.15
3 -0.68
30 -0.15
31 -0.15
32 -0.15
33 -0.15
34 -0.15
4 -0.68
42 0.27
46 0.15
47 0.15
48 0.37
49 0.4
5 -0.57
50 0.4
51 0.4
52 0.15
53 0.15
54 0.15
55 0.15
56 0.15
57 0.15
6 -0.04
7 -0.05
8 -0.73
9 0.54

> <PUBCHEM_EFFECTIVE_ROTOR_COUNT>
2.6

> <PUBCHEM_PHARMACOPHORE_FEATURES>
19
1 1 acceptor
1 2 acceptor
1 2 donor
1 3 acceptor
1 3 donor
1 4 acceptor
1 4 donor
1 5 acceptor
1 6 cation
1 7 cation
1 7 donor
1 8 donor
5 6 11 13 16 18 rings
5 7 17 20 23 24 rings
5 8 19 21 22 26 rings
6 1 9 10 12 14 15 rings
6 11 13 17 19 20 21 rings
6 16 18 27 28 30 31 rings
6 23 24 29 32 33 34 rings

> <PUBCHEM_HEAVY_ATOM_COUNT>
34

> <PUBCHEM_ATOM_DEF_STEREO_COUNT>
5

> <PUBCHEM_ATOM_UDEF_STEREO_COUNT>
0

> <PUBCHEM_BOND_DEF_STEREO_COUNT>
0

> <PUBCHEM_BOND_UDEF_STEREO_COUNT>
0

> <PUBCHEM_ISOTOPIC_ATOM_COUNT>
0

> <PUBCHEM_COMPONENT_COUNT>
1

> <PUBCHEM_CACTVS_TAUTO_COUNT>
5

> <PUBCHEM_CONFORMER_ID>
009F36C200000001

> <PUBCHEM_MMFF94_ENERGY>
144.821

> <PUBCHEM_FEATURE_SELFOVERLAP>
96.905

> <PUBCHEM_SHAPE_FINGERPRINT>
10190108 129 18120970327624877440
10411042 1 18122060906127541194
10622 236 17844501462475613895
1100329 8 17762335121286417160
11135926 11 18410004472630452717
11227688 84 18339084894761267959
11578080 2 17486178198661192353
12058002 1 17386873688701485972
12553582 1 18339355378847375001
12788726 201 18262788584909044729
13140716 1 17979641456680198568
1361 2 18122624126393948195
138480 1 18338515236131700722
13911987 19 18118122700062604628
13965767 371 17699885897644809081
140371 6 18114760316258893681
14178342 30 18195225751466003680
14790565 3 18122065565728928220
14955137 171 18120390992460918329
15320467 1 18410854382096658263
16112460 7 17982741766402599609
17492 89 18266176141104704346
19311894 1 18126562555924142990
19591789 44 18050005798510764818
20028762 73 18199747123626113382
20101258 96 18050857615349255866
20775438 99 17688258544627136949
21133410 171 17397207913104167155
21421861 104 18336548218055222890
21703447 108 18338787910641086762
23559900 14 18122053217956161880
283562 15 18341614862537511656
3178227 256 17977112576179325899
3383291 50 18409727401098053010
3737641 26 18411710880222291150
3882209 13 17759761950228628947
4616759 239 17336159587329312394
469060 322 18338808895656694704
5265222 85 15313800182013171950
5309563 4 18337400421604144595
59755656 215 18409449189489118868
70251023 43 18337946771519587787
9709674 26 18193276282410014969

> <PUBCHEM_SHAPE_MULTIPOLES>
655.41
9.01
6.98
1.01
1.75
2.03
-0.09
-4.33
-0.26
-3.47
-0.1
1.28
-0.72
-0.39

> <PUBCHEM_SHAPE_SELFOVERLAP>
1504.04

> <PUBCHEM_SHAPE_VOLUME>
336.9

> <PUBCHEM_COORDINATE_TYPE>
2
5
10

$$$$
