REMARK  Name = 10432424
REMARK  8 active torsions:
REMARK  status: ('A' for Active; 'I' for Inactive)
REMARK    1  A    between atoms: C_2  and  O_22
REMARK    2  A    between atoms: C_6  and  N_17
REMARK    3  A    between atoms: C_8  and  O_24
REMARK    4  A    between atoms: C_9  and  C_26
REMARK    5  A    between atoms: C_18  and  O_20
REMARK    6  A    between atoms: C_26  and  S_27
REMARK    7  A    between atoms: S_27  and  S_28
REMARK    8  A    between atoms: S_28  and  S_29
REMARK                            x       y       z     vdW  Elec       q    Type
REMARK                         _______ _______ _______ _____ _____    ______ ____
ROOT
ATOM      1  O   UNL     1      -1.249  -2.157  -2.001  0.00  0.00    -0.290 OA
ATOM      2  C   UNL     1       0.368   1.167  -1.775  0.00  0.00    +0.168 C 
ATOM      3  C   UNL     1       1.034   0.789  -0.448  0.00  0.00    +0.011 C 
ATOM      4  C   UNL     1      -0.128  -0.104  -2.470  0.00  0.00    +0.114 C 
ATOM      5  C   UNL     1       0.166   0.007   0.468  0.00  0.00    +0.032 C 
ATOM      6  C   UNL     1      -0.655  -0.932  -0.060  0.00  0.00    +0.087 C 
ATOM      7  C   UNL     1      -0.716  -1.147  -1.540  0.00  0.00    +0.190 C 
ATOM      8  C   UNL     1       0.059   0.428   1.948  0.00  0.00    +0.199 C 
ATOM      9  C   UNL     1       2.317   1.082  -0.171  0.00  0.00    -0.015 C 
ATOM     10  C   UNL     1      -0.721   2.126  -1.487  0.00  0.00    -0.056 C 
ATOM     11  C   UNL     1      -0.761   1.652   2.001  0.00  0.00    -0.053 C 
ATOM     12  C   UNL     1      -1.514   2.900  -1.021  0.00  0.00    -0.061 C 
ATOM     13  C   UNL     1      -2.312   3.732  -0.181  0.00  0.00    +0.058 C 
ATOM     14  C   UNL     1      -1.471   2.594   1.771  0.00  0.00    -0.060 C 
ATOM     15  C   UNL     1      -2.279   3.597   1.158  0.00  0.00    +0.058 C 
ENDROOT
BRANCH   6  17
ATOM     16  O   UNL     1      -3.161  -2.012  -0.947  0.00  0.00    -0.226 OA
ATOM     17  N   UNL     1      -1.516  -1.708   0.667  0.00  0.00    -0.247 N 
ATOM     18  C   UNL     1      -2.709  -2.196   0.179  0.00  0.00    +0.406 C 
ATOM     19  H   UNL     1      -1.269  -1.930   1.593  0.00  0.00    +0.158 HD
BRANCH  18  20
ATOM     20  O   UNL     1      -3.330  -2.931   1.151  0.00  0.00    -0.430 OA
ATOM     21  C   UNL     1      -4.590  -3.507   0.789  0.00  0.00    +0.257 C 
ENDBRANCH  18  20
ENDBRANCH   6  17
BRANCH   2  22
ATOM     22  O   UNL     1       1.285   1.787  -2.683  0.00  0.00    -0.371 OA
ATOM     23  H   UNL     1       2.007   1.171  -2.884  0.00  0.00    +0.212 HD
ENDBRANCH   2  22
BRANCH   8  24
ATOM     24  O   UNL     1       1.315   0.657   2.570  0.00  0.00    -0.369 OA
ATOM     25  H   UNL     1       1.848  -0.152   2.530  0.00  0.00    +0.212 HD
ENDBRANCH   8  24
BRANCH   9  26
ATOM     26  C   UNL     1       3.010   0.658   1.080  0.00  0.00    +0.095 C 
BRANCH  26  27
ATOM     27  S   UNL     1       4.784   0.453   0.769  0.00  0.00    -0.067 S 
BRANCH  27  28
ATOM     28  S   UNL     1       4.786  -1.001  -0.681  0.00  0.00    -0.023 S 
BRANCH  28  29
ATOM     29  S   UNL     1       4.870  -2.781   0.340  0.00  0.00    -0.071 S 
ATOM     30  C   UNL     1       3.116  -3.154   0.575  0.00  0.00    +0.082 C 
ENDBRANCH  28  29
ENDBRANCH  27  28
ENDBRANCH  26  27
ENDBRANCH   9  26
TORSDOF 8
