REMARK  Name = 10435926
REMARK  9 active torsions:
REMARK  status: ('A' for Active; 'I' for Inactive)
REMARK    1  A    between atoms: C_1  and  C_5
REMARK    2  A    between atoms: C_1  and  N_16
REMARK    3  A    between atoms: C_1  and  C_30
REMARK    4  A    between atoms: N_4  and  C_7
REMARK    5  A    between atoms: C_7  and  C_10
REMARK    6  A    between atoms: C_17  and  O_19
REMARK    7  A    between atoms: O_19  and  C_20
REMARK    8  A    between atoms: C_20  and  C_22
REMARK    9  A    between atoms: C_30  and  C_32
REMARK                            x       y       z     vdW  Elec       q    Type
REMARK                         _______ _______ _______ _____ _____    ______ ____
ROOT
ATOM      1  C   UNL     1       1.592  -0.973   0.458  0.00  0.00    +0.132 C 
ATOM      2  C   UNL     1       2.223  -1.834   1.563  0.00  0.00    +0.029 C 
ENDROOT
BRANCH   1   5
ATOM      3  O   UNL     1       2.399  -1.087  -1.839  0.00  0.00    -0.273 OA
ATOM      4  N   UNL     1       3.768  -0.091  -0.266  0.00  0.00    -0.301 N 
ATOM      5  C   UNL     1       2.613  -0.741  -0.677  0.00  0.00    +0.239 C 
ATOM      6  H   UNL     1       3.861   0.152   0.683  0.00  0.00    +0.150 HD
BRANCH   4   7
ATOM      7  C   UNL     1       4.839   0.244  -1.177  0.00  0.00    +0.094 C 
ATOM      8  C   UNL     1       4.547   1.563  -1.888  0.00  0.00    +0.026 C 
BRANCH   7  10
ATOM      9  N   UNL     1       8.651   0.261   0.832  0.00  0.00    -0.242 NA
ATOM     10  C   UNL     1       6.178   0.249  -0.471  0.00  0.00    -0.001 C 
ATOM     11  C   UNL     1       6.431   1.172   0.538  0.00  0.00    +0.018 C 
ATOM     12  C   UNL     1       7.159  -0.667  -0.829  0.00  0.00    +0.018 C 
ATOM     13  C   UNL     1       7.672   1.137   1.153  0.00  0.00    +0.099 C 
ATOM     14  C   UNL     1       8.368  -0.621  -0.153  0.00  0.00    +0.099 C 
ENDBRANCH   7  10
ENDBRANCH   4   7
ENDBRANCH   1   5
BRANCH   1  16
ATOM     15  O   UNL     1      -0.821  -1.913   1.774  0.00  0.00    -0.226 OA
ATOM     16  N   UNL     1       0.500  -1.735  -0.124  0.00  0.00    -0.266 N 
ATOM     17  C   UNL     1      -0.607  -2.135   0.586  0.00  0.00    +0.402 C 
ATOM     18  H   UNL     1       0.555  -1.977  -1.077  0.00  0.00    +0.153 HD
BRANCH  17  19
ATOM     19  O   UNL     1      -1.448  -2.829  -0.237  0.00  0.00    -0.426 OA
BRANCH  19  20
ATOM     20  C   UNL     1      -2.653  -3.313   0.366  0.00  0.00    +0.274 C 
BRANCH  20  22
ATOM     21  O   UNL     1      -3.763  -1.664  -1.024  0.00  0.00    -0.454 OA
ATOM     22  C   UNL     1      -3.686  -2.242   0.203  0.00  0.00    +0.167 C 
ATOM     23  C   UNL     1      -4.613  -1.693   1.059  0.00  0.00    +0.040 C 
ATOM     24  C   UNL     1      -5.312  -0.708   0.313  0.00  0.00    +0.037 C 
ATOM     25  C   UNL     1      -4.752  -0.729  -0.960  0.00  0.00    +0.145 C 
ATOM     26  C   UNL     1      -6.355   0.199   0.573  0.00  0.00    +0.003 C 
ATOM     27  C   UNL     1      -5.159   0.096  -2.007  0.00  0.00    +0.037 C 
ATOM     28  C   UNL     1      -6.786   1.042  -0.460  0.00  0.00    +0.000 C 
ATOM     29  C   UNL     1      -6.197   0.990  -1.726  0.00  0.00    +0.003 C 
ENDBRANCH  20  22
ENDBRANCH  19  20
ENDBRANCH  17  19
ENDBRANCH   1  16
BRANCH   1  30
ATOM     30  C   UNL     1       1.072   0.355   1.062  0.00  0.00    +0.055 C 
BRANCH  30  32
ATOM     31  N   UNL     1      -1.152   1.885  -1.442  0.00  0.00    -0.312 N 
ATOM     32  C   UNL     1      -0.007   1.040   0.262  0.00  0.00    -0.004 C 
ATOM     33  C   UNL     1      -1.206   1.611   0.771  0.00  0.00    +0.011 C 
ATOM     34  C   UNL     1      -0.002   1.224  -1.102  0.00  0.00    +0.058 C 
ATOM     35  C   UNL     1      -1.906   2.134  -0.318  0.00  0.00    +0.048 C 
ATOM     36  C   UNL     1      -1.765   1.734   2.059  0.00  0.00    +0.001 C 
ATOM     37  C   UNL     1      -3.142   2.776  -0.184  0.00  0.00    +0.015 C 
ATOM     38  C   UNL     1      -3.001   2.374   2.209  0.00  0.00    +0.000 C 
ATOM     39  C   UNL     1      -3.677   2.887   1.103  0.00  0.00    +0.001 C 
ATOM     40  H   UNL     1      -1.402   2.144  -2.358  0.00  0.00    +0.152 HD
ENDBRANCH  30  32
ENDBRANCH   1  30
TORSDOF 9
