10434578
  -OEChem-03292013303D

 61 62  0     1  0  0  0  0  0999 V2000
    1.7417    0.5937   -1.1414 O   0  0  0  0  0  0  0  0  0  0  0  0
    1.3827   -2.0147   -0.1320 O   0  0  0  0  0  0  0  0  0  0  0  0
    3.1073    1.3781    1.3160 O   0  0  0  0  0  0  0  0  0  0  0  0
    1.3528    0.0820    2.0670 O   0  0  0  0  0  0  0  0  0  0  0  0
    3.2027    2.2751   -1.7354 O   0  0  0  0  0  0  0  0  0  0  0  0
    2.1137   -4.1133   -0.7495 O   0  0  0  0  0  0  0  0  0  0  0  0
   -0.8383    3.4824   -1.4702 O   0  0  0  0  0  0  0  0  0  0  0  0
   -1.4274   -0.1551   -0.7597 O   0  0  0  0  0  0  0  0  0  0  0  0
   -6.1651   -1.5098    0.5756 O   0  0  0  0  0  0  0  0  0  0  0  0
    0.1785    2.1824    0.1586 N   0  0  0  0  0  0  0  0  0  0  0  0
   -3.9141   -1.2446   -0.1048 N   0  0  0  0  0  0  0  0  0  0  0  0
    2.6959   -1.4938   -0.3394 C   0  0  2  0  0  0  0  0  0  0  0  0
    3.2820   -0.9472    0.9899 C   0  0  1  0  0  0  0  0  0  0  0  0
    2.6536   -0.4662   -1.4976 C   0  0  1  0  0  0  0  0  0  0  0  0
    1.5194    2.6821   -0.0406 C   0  0  1  0  0  0  0  0  0  0  0  0
    2.3262    2.5996    1.2791 C   0  0  2  0  0  0  0  0  0  0  0  0
    2.4583    0.2018    1.5567 C   0  0  0  0  0  0  0  0  0  0  0  0
    3.4079   -2.0300    2.0627 C   0  0  0  0  0  0  0  0  0  0  0  0
    2.1484   -1.0792   -2.7988 C   0  0  0  0  0  0  0  0  0  0  0  0
    2.2162    1.8737   -1.1299 C   0  0  0  0  0  0  0  0  0  0  0  0
    3.3243    3.7494    1.3811 C   0  0  0  0  0  0  0  0  0  0  0  0
    1.2307   -3.3518   -0.3764 C   0  0  0  0  0  0  0  0  0  0  0  0
   -0.2122   -3.7538   -0.1260 C   0  0  0  0  0  0  0  0  0  0  0  0
   -0.9008    2.6331   -0.5851 C   0  0  0  0  0  0  0  0  0  0  0  0
   -0.6246   -3.4260    1.3067 C   0  0  0  0  0  0  0  0  0  0  0  0
   -0.3909   -5.2387   -0.4190 C   0  0  0  0  0  0  0  0  0  0  0  0
   -2.2183    2.0394   -0.2407 C   0  0  0  0  0  0  0  0  0  0  0  0
   -2.4348    0.6650   -0.3399 C   0  0  0  0  0  0  0  0  0  0  0  0
   -3.2471    2.8784    0.1877 C   0  0  0  0  0  0  0  0  0  0  0  0
   -3.6802    0.1295   -0.0110 C   0  0  0  0  0  0  0  0  0  0  0  0
   -4.4922    2.3430    0.5166 C   0  0  0  0  0  0  0  0  0  0  0  0
   -4.7089    0.9686    0.4173 C   0  0  0  0  0  0  0  0  0  0  0  0
   -5.0873   -1.9334    0.1825 C   0  0  0  0  0  0  0  0  0  0  0  0
    3.3905   -2.2792   -0.6656 H   0  0  0  0  0  0  0  0  0  0  0  0
    4.2956   -0.5749    0.7891 H   0  0  0  0  0  0  0  0  0  0  0  0
    3.6672   -0.0778   -1.6551 H   0  0  0  0  0  0  0  0  0  0  0  0
    1.4281    3.7182   -0.3861 H   0  0  0  0  0  0  0  0  0  0  0  0
    1.6712    2.6417    2.1587 H   0  0  0  0  0  0  0  0  0  0  0  0
    3.8674   -1.6227    2.9701 H   0  0  0  0  0  0  0  0  0  0  0  0
    4.0325   -2.8566    1.7088 H   0  0  0  0  0  0  0  0  0  0  0  0
    2.4317   -2.4371    2.3466 H   0  0  0  0  0  0  0  0  0  0  0  0
    2.7605   -1.9343   -3.1003 H   0  0  0  0  0  0  0  0  0  0  0  0
    2.1763   -0.3334   -3.6008 H   0  0  0  0  0  0  0  0  0  0  0  0
    1.1047   -1.4003   -2.7138 H   0  0  0  0  0  0  0  0  0  0  0  0
    3.9058    3.6658    2.3058 H   0  0  0  0  0  0  0  0  0  0  0  0
    2.8160    4.7184    1.3774 H   0  0  0  0  0  0  0  0  0  0  0  0
    4.0444    3.7254    0.5563 H   0  0  0  0  0  0  0  0  0  0  0  0
    0.0326    1.4510    0.8488 H   0  0  0  0  0  0  0  0  0  0  0  0
   -0.8369   -3.1889   -0.8285 H   0  0  0  0  0  0  0  0  0  0  0  0
   -0.5794   -2.3483    1.4970 H   0  0  0  0  0  0  0  0  0  0  0  0
   -1.6514   -3.7530    1.5012 H   0  0  0  0  0  0  0  0  0  0  0  0
    0.0354   -3.9161    2.0309 H   0  0  0  0  0  0  0  0  0  0  0  0
   -1.4353   -5.5385   -0.2823 H   0  0  0  0  0  0  0  0  0  0  0  0
   -0.1090   -5.4727   -1.4515 H   0  0  0  0  0  0  0  0  0  0  0  0
    0.2278   -5.8556    0.2424 H   0  0  0  0  0  0  0  0  0  0  0  0
   -3.0907    3.9508    0.2713 H   0  0  0  0  0  0  0  0  0  0  0  0
   -5.2924    2.9973    0.8506 H   0  0  0  0  0  0  0  0  0  0  0  0
   -5.6986    0.6293    0.6894 H   0  0  0  0  0  0  0  0  0  0  0  0
   -3.1257   -1.8048   -0.4214 H   0  0  0  0  0  0  0  0  0  0  0  0
   -0.6441    0.3606   -1.0092 H   0  0  0  0  0  0  0  0  0  0  0  0
   -4.9337   -3.0115    0.0037 H   0  0  0  0  0  0  0  0  0  0  0  0
  1 14  1  0  0  0  0
  1 20  1  0  0  0  0
  2 12  1  0  0  0  0
  2 22  1  0  0  0  0
  3 16  1  0  0  0  0
  3 17  1  0  0  0  0
  4 17  2  0  0  0  0
  5 20  2  0  0  0  0
  6 22  2  0  0  0  0
  7 24  2  0  0  0  0
  8 28  1  0  0  0  0
  8 60  1  0  0  0  0
  9 33  2  0  0  0  0
 10 15  1  0  0  0  0
 10 24  1  0  0  0  0
 10 48  1  0  0  0  0
 11 30  1  0  0  0  0
 11 33  1  0  0  0  0
 11 59  1  0  0  0  0
 12 13  1  0  0  0  0
 12 14  1  0  0  0  0
 12 34  1  0  0  0  0
 13 17  1  0  0  0  0
 13 18  1  0  0  0  0
 13 35  1  0  0  0  0
 14 19  1  0  0  0  0
 14 36  1  0  0  0  0
 15 16  1  0  0  0  0
 15 20  1  0  0  0  0
 15 37  1  0  0  0  0
 16 21  1  0  0  0  0
 16 38  1  0  0  0  0
 18 39  1  0  0  0  0
 18 40  1  0  0  0  0
 18 41  1  0  0  0  0
 19 42  1  0  0  0  0
 19 43  1  0  0  0  0
 19 44  1  0  0  0  0
 21 45  1  0  0  0  0
 21 46  1  0  0  0  0
 21 47  1  0  0  0  0
 22 23  1  0  0  0  0
 23 25  1  0  0  0  0
 23 26  1  0  0  0  0
 23 49  1  0  0  0  0
 24 27  1  0  0  0  0
 25 50  1  0  0  0  0
 25 51  1  0  0  0  0
 25 52  1  0  0  0  0
 26 53  1  0  0  0  0
 26 54  1  0  0  0  0
 26 55  1  0  0  0  0
 27 28  2  0  0  0  0
 27 29  1  0  0  0  0
 28 30  1  0  0  0  0
 29 31  2  0  0  0  0
 29 56  1  0  0  0  0
 30 32  2  0  0  0  0
 31 32  1  0  0  0  0
 31 57  1  0  0  0  0
 32 58  1  0  0  0  0
 33 61  1  0  0  0  0
M  END
> <PUBCHEM_COMPOUND_CID>
10434578

> <PUBCHEM_CONFORMER_RMSD>
1.2

> <PUBCHEM_CONFORMER_DIVERSEORDER>
1
227
78
316
184
107
495
57
106
146
398
3
82
52
229
137
147
440
64
446
339
139
302
176
310
368
12
33
369
47
330
345
80
413
192
243
280
349
260
30
129
37
161
121
224
22
223
159
201
24
485
193
153
181
381
5
132
454
156
62
83
91
296
401
90
27
20
384
394
171
331
165
145
420
501
461
138
297
48
217
41
248
95
249
29
23
87
151
306
28
214
130
50
305
211
75
252
53
172
452
359
247
238
150
68
32
448
173
281
13
239
140
185
196
54
34
438
11
177
6
93
61
85
79
244
101
458
164
59
31
55
436
21
10
73
71
16
267
46
187
198
499
98
133
174
40
63
105
169
404
426
228
125
338
67
9
225
301
220
209
17
498
66
467
8
4
449
128
163
14
18
70
245
189
119
315
342
56
102
298
35
2
97
437
259
118
497
69
320
49
65
103
36
397
194

> <PUBCHEM_MMFF94_PARTIAL_CHARGES>
35
1 -0.43
10 -0.73
11 -0.55
12 0.28
13 0.06
14 0.28
15 0.36
16 0.28
17 0.66
2 -0.43
20 0.66
22 0.66
23 0.06
24 0.54
27 0.09
28 0.08
29 -0.15
3 -0.43
30 0.12
31 -0.15
32 -0.15
33 0.57
4 -0.57
48 0.37
5 -0.57
56 0.15
57 0.15
58 0.15
59 0.37
6 -0.57
60 0.45
61 0.06
7 -0.57
8 -0.53
9 -0.57

> <PUBCHEM_EFFECTIVE_ROTOR_COUNT>
9.4

> <PUBCHEM_PHARMACOPHORE_FEATURES>
10
1 10 donor
1 11 donor
1 4 acceptor
1 5 acceptor
1 6 acceptor
1 7 acceptor
1 8 donor
1 9 acceptor
3 23 25 26 hydrophobe
6 27 28 29 30 31 32 rings

> <PUBCHEM_HEAVY_ATOM_COUNT>
33

> <PUBCHEM_ATOM_DEF_STEREO_COUNT>
0

> <PUBCHEM_ATOM_UDEF_STEREO_COUNT>
5

> <PUBCHEM_BOND_DEF_STEREO_COUNT>
0

> <PUBCHEM_BOND_UDEF_STEREO_COUNT>
0

> <PUBCHEM_ISOTOPIC_ATOM_COUNT>
0

> <PUBCHEM_COMPONENT_COUNT>
1

> <PUBCHEM_CACTVS_TAUTO_COUNT>
14

> <PUBCHEM_CONFORMER_ID>
009F381200000001

> <PUBCHEM_MMFF94_ENERGY>
86.1023

> <PUBCHEM_FEATURE_SELFOVERLAP>
50.753

> <PUBCHEM_SHAPE_FINGERPRINT>
12156800 1 17543930343532226612
12539773 59 9333066957800019782
12788726 201 16965765421304810532
13122387 1 18338238279576629991
13140716 1 18411976928077719529
1361 2 18267022950490934363
14178342 30 18266452114428327099
14725015 67 18261099752144202083
17093844 170 18196095662209758797
20764821 26 18409446990534701047
20775438 99 18057879350018283007
20775530 9 17545039299597855007
23559900 14 18267862779589066973
463206 1 17977675212310016499
5776283 40 18268448965394895942
6287921 2 18410576158789979569
6823239 73 18130236947341565412

> <PUBCHEM_SHAPE_MULTIPOLES>
616.34
8.61
6.26
1.78
12.84
4.54
-0.28
-0.53
1.99
-1.51
0.05
-2.3
-0.13
0.71

> <PUBCHEM_SHAPE_SELFOVERLAP>
1284.168

> <PUBCHEM_SHAPE_VOLUME>
343.3

> <PUBCHEM_COORDINATE_TYPE>
2
5
10

$$$$
