REMARK  Name = 10432334
REMARK  13 active torsions:
REMARK  status: ('A' for Active; 'I' for Inactive)
REMARK    1  A    between atoms: C_3  and  C_13
REMARK    2  A    between atoms: C_4  and  N_24
REMARK    3  A    between atoms: N_12  and  C_15
REMARK    4  A    between atoms: C_15  and  C_17
REMARK    5  A    between atoms: C_15  and  C_20
REMARK    6  A    between atoms: C_17  and  O_18
REMARK    7  A    between atoms: C_20  and  C_21
REMARK    8  A    between atoms: C_21  and  S_22
REMARK    9  A    between atoms: N_24  and  C_26
REMARK   10  A    between atoms: C_26  and  C_27
REMARK   11  A    between atoms: C_27  and  N_28
REMARK   12  A    between atoms: C_27  and  C_32
REMARK   13  A    between atoms: C_32  and  S_33
REMARK                            x       y       z     vdW  Elec       q    Type
REMARK                         _______ _______ _______ _____ _____    ______ ____
ROOT
ATOM      1  C   UNL     1       0.297   1.570  -0.178  0.00  0.00    +0.004 C 
ATOM      2  C   UNL     1       1.280   2.354   0.471  0.00  0.00    +0.001 C 
ATOM      3  C   UNL     1      -0.979   2.102  -0.331  0.00  0.00    +0.053 C 
ATOM      4  C   UNL     1       2.895   0.562   0.165  0.00  0.00    +0.045 C 
ATOM      5  C   UNL     1       2.574   1.836   0.635  0.00  0.00    +0.014 C 
ATOM      6  C   UNL     1       0.637   0.290  -0.645  0.00  0.00    +0.001 C 
ATOM      7  C   UNL     1       1.929  -0.210  -0.473  0.00  0.00    +0.014 C 
ATOM      8  C   UNL     1       0.939   3.635   0.938  0.00  0.00    +0.000 C 
ATOM      9  C   UNL     1      -1.319   3.363   0.128  0.00  0.00    +0.005 C 
ATOM     10  C   UNL     1      -0.352   4.134   0.766  0.00  0.00    +0.000 C 
ENDROOT
BRANCH   3  13
ATOM     11  O   UNL     1      -2.204   1.437  -2.216  0.00  0.00    -0.270 OA
ATOM     12  N   UNL     1      -2.843   0.539  -0.175  0.00  0.00    -0.293 N 
ATOM     13  C   UNL     1      -2.065   1.340  -1.000  0.00  0.00    +0.246 C 
ATOM     14  H   UNL     1      -2.653   0.529   0.791  0.00  0.00    +0.150 HD
BRANCH  12  15
ATOM     15  C   UNL     1      -3.918  -0.279  -0.679  0.00  0.00    +0.173 C 
BRANCH  15  17
ATOM     16  O   UNL     1      -4.986   0.134   1.450  0.00  0.00    -0.248 OA
ATOM     17  C   UNL     1      -5.054  -0.367   0.332  0.00  0.00    +0.335 C 
BRANCH  17  18
ATOM     18  O   UNL     1      -6.125  -1.058  -0.150  0.00  0.00    -0.443 OA
ATOM     19  C   UNL     1      -7.236  -1.188   0.743  0.00  0.00    +0.256 C 
ENDBRANCH  17  18
ENDBRANCH  15  17
BRANCH  15  20
ATOM     20  C   UNL     1      -3.427  -1.685  -1.045  0.00  0.00    +0.043 C 
BRANCH  20  21
ATOM     21  C   UNL     1      -2.938  -2.462   0.178  0.00  0.00    +0.060 C 
BRANCH  21  22
ATOM     22  S   UNL     1      -2.366  -4.118  -0.302  0.00  0.00    -0.139 S 
ATOM     23  C   UNL     1      -1.832  -4.692   1.327  0.00  0.00    +0.069 C 
ENDBRANCH  21  22
ENDBRANCH  20  21
ENDBRANCH  15  20
ENDBRANCH  12  15
ENDBRANCH   3  13
BRANCH   4  24
ATOM     24  N   UNL     1       4.200   0.055   0.338  0.00  0.00    -0.335 N 
ATOM     25  H   UNL     1       4.867   0.618   0.792  0.00  0.00    +0.147 HD
BRANCH  24  26
ATOM     26  C   UNL     1       4.596  -1.241  -0.119  0.00  0.00    +0.066 C 
BRANCH  26  27
ATOM     27  C   UNL     1       6.048  -1.554   0.277  0.00  0.00    -0.035 C 
BRANCH  27  28
ATOM     28  N   UNL     1       6.358  -2.908  -0.206  0.00  0.00    +0.383 N 
ATOM     29  H   UNL     1       5.687  -3.570   0.184  0.00  0.00    -0.089 HD
ATOM     30  H   UNL     1       7.300  -3.166   0.087  0.00  0.00    -0.089 HD
ATOM     31  H   UNL     1       6.301  -2.927  -1.224  0.00  0.00    -0.089 HD
ENDBRANCH  27  28
BRANCH  27  32
ATOM     32  C   UNL     1       7.087  -0.601  -0.341  0.00  0.00    +0.033 C 
BRANCH  32  33
ATOM     33  S   UNL     1       8.806  -0.987   0.111  0.00  0.00    -0.170 S 
ATOM     34  H   UNL     1       9.642  -0.093  -0.482  0.00  0.00    +0.102 HD
ENDBRANCH  32  33
ENDBRANCH  27  32
ENDBRANCH  26  27
ENDBRANCH  24  26
ENDBRANCH   4  24
TORSDOF 13
