REMARK  Name = 10434320
REMARK  9 active torsions:
REMARK  status: ('A' for Active; 'I' for Inactive)
REMARK    1  A    between atoms: C_2  and  C_33
REMARK    2  A    between atoms: C_3  and  O_15
REMARK    3  A    between atoms: C_4  and  N_17
REMARK    4  A    between atoms: C_10  and  N_12
REMARK    5  A    between atoms: N_17  and  C_19
REMARK    6  A    between atoms: N_17  and  C_25
REMARK    7  A    between atoms: C_25  and  C_28
REMARK    8  A    between atoms: C_33  and  O_34
REMARK    9  A    between atoms: C_33  and  O_36
REMARK                            x       y       z     vdW  Elec       q    Type
REMARK                         _______ _______ _______ _____ _____    ______ ____
ROOT
ATOM      1  O   UNL     1       2.706  -0.122   0.325  0.00  0.00    -0.475 OA
ATOM      2  C   UNL     1       2.006  -1.348   0.043  0.00  0.00    +0.211 C 
ATOM      3  C   UNL     1       0.484  -1.111  -0.010  0.00  0.00    +0.174 C 
ATOM      4  C   UNL     1       0.113  -0.066  -1.069  0.00  0.00    +0.129 C 
ATOM      5  C   UNL     1       1.091   1.082  -1.063  0.00  0.00    +0.033 C 
ATOM      6  C   UNL     1       2.579  -1.975  -1.241  0.00  0.00    +0.052 C 
ATOM      7  C   UNL     1       2.307   0.987  -0.372  0.00  0.00    +0.136 C 
ATOM      8  C   UNL     1       0.820   2.256  -1.784  0.00  0.00    +0.014 C 
ATOM      9  C   UNL     1       3.199   2.064  -0.353  0.00  0.00    +0.038 C 
ATOM     10  C   UNL     1       1.718   3.325  -1.776  0.00  0.00    +0.041 C 
ATOM     11  C   UNL     1       2.904   3.231  -1.054  0.00  0.00    +0.017 C 
ENDROOT
BRANCH  10  12
ATOM     12  N   UNL     1       1.423   4.500  -2.498  0.00  0.00    -0.357 N 
ATOM     13  H   UNL     1       0.584   4.566  -3.009  0.00  0.00    +0.142 HD
ATOM     14  H   UNL     1       2.056   5.254  -2.492  0.00  0.00    +0.142 HD
ENDBRANCH  10  12
BRANCH   3  15
ATOM     15  O   UNL     1      -0.190  -2.335  -0.297  0.00  0.00    -0.379 OA
ATOM     16  H   UNL     1       0.043  -2.997   0.372  0.00  0.00    +0.211 HD
ENDBRANCH   3  15
BRANCH   4  17
ATOM     17  N   UNL     1      -1.234   0.403  -0.800  0.00  0.00    -0.300 N 
BRANCH  17  19
ATOM     18 CL   UNL     1      -2.573   3.092   4.303  0.00  0.00    -0.082 Cl
ATOM     19  C   UNL     1      -1.551   1.038   0.404  0.00  0.00    +0.048 C 
ATOM     20  C   UNL     1      -1.985   0.291   1.508  0.00  0.00    +0.015 C 
ATOM     21  C   UNL     1      -1.438   2.430   0.525  0.00  0.00    +0.015 C 
ATOM     22  C   UNL     1      -2.300   0.925   2.710  0.00  0.00    +0.013 C 
ATOM     23  C   UNL     1      -1.753   3.063   1.727  0.00  0.00    +0.013 C 
ATOM     24  C   UNL     1      -2.184   2.311   2.819  0.00  0.00    +0.058 C 
ENDBRANCH  17  19
BRANCH  17  25
ATOM     25  C   UNL     1      -2.259   0.183  -1.816  0.00  0.00    +0.132 C 
BRANCH  25  28
ATOM     26  N   UNL     1      -4.102  -1.157  -0.840  0.00  0.00    -0.316 N 
ATOM     27  N   UNL     1      -2.652  -2.264  -2.106  0.00  0.00    -0.316 N 
ATOM     28  C   UNL     1      -2.988  -1.113  -1.607  0.00  0.00    +0.164 C 
ATOM     29  C   UNL     1      -4.525  -2.456  -0.844  0.00  0.00    +0.075 C 
ATOM     30  C   UNL     1      -3.615  -3.120  -1.632  0.00  0.00    +0.075 C 
ATOM     31  H   UNL     1      -4.525  -0.401  -0.371  0.00  0.00    +0.148 HD
ATOM     32  H   UNL     1      -1.886  -2.474  -2.687  0.00  0.00    +0.148 HD
ENDBRANCH  25  28
ENDBRANCH  17  25
ENDBRANCH   4  17
BRANCH   2  33
ATOM     33  C   UNL     1       2.338  -2.290   1.214  0.00  0.00    +0.276 C 
BRANCH  33  34
ATOM     34  O   UNL     1       1.592  -3.487   0.985  0.00  0.00    -0.325 OA
ATOM     35  C   UNL     1       1.814  -4.449   2.008  0.00  0.00    +0.177 C 
ENDBRANCH  33  34
BRANCH  33  36
ATOM     36  O   UNL     1       3.741  -2.535   1.219  0.00  0.00    -0.325 OA
ATOM     37  C   UNL     1       4.511  -1.351   1.373  0.00  0.00    +0.177 C 
ENDBRANCH  33  36
ENDBRANCH   2  33
TORSDOF 9
