REMARK  Name = 10432339
REMARK  5 active torsions:
REMARK  status: ('A' for Active; 'I' for Inactive)
REMARK    1  A    between atoms: C_1  and  C_6
REMARK    2  A    between atoms: C_1  and  C_13
REMARK    3  A    between atoms: C_1  and  C_23
REMARK    4  A    between atoms: C_18  and  S_19
REMARK    5  A    between atoms: C_23  and  C_25
REMARK                            x       y       z     vdW  Elec       q    Type
REMARK                         _______ _______ _______ _____ _____    ______ ____
ROOT
ATOM      1  C   UNL     1      -0.384  -1.123   0.103  0.00  0.00    +0.099 C 
ENDROOT
BRANCH   1   6
ATOM      2  O   UNL     1      -2.068  -0.692   1.782  0.00  0.00    -0.274 OA
ATOM      3  N   UNL     1      -2.616  -0.391  -0.480  0.00  0.00    -0.268 N 
ATOM      4  N   UNL     1      -4.604   0.311  -1.569  0.00  0.00    -0.226 NA
ATOM      5  N   UNL     1      -5.822   0.571   0.944  0.00  0.00    -0.238 NA
ATOM      6  C   UNL     1      -1.784  -0.718   0.588  0.00  0.00    +0.231 C 
ATOM      7  C   UNL     1      -3.962   0.041  -0.424  0.00  0.00    +0.154 C 
ATOM      8  C   UNL     1      -4.545   0.164   0.809  0.00  0.00    +0.133 C 
ATOM      9  C   UNL     1      -5.881   0.718  -1.434  0.00  0.00    +0.121 C 
ATOM     10  C   UNL     1      -6.480   0.846  -0.200  0.00  0.00    +0.120 C 
ATOM     11  H   UNL     1      -2.221  -0.469  -1.378  0.00  0.00    +0.156 HD
ENDBRANCH   1   6
BRANCH   1  13
ATOM     12 CL   UNL     1       1.969   2.874   2.406  0.00  0.00    -0.081 Cl
ATOM     13  C   UNL     1       0.503   0.105  -0.028  0.00  0.00    -0.013 C 
ATOM     14  C   UNL     1       0.799   0.841   1.102  0.00  0.00    +0.009 C 
ATOM     15  C   UNL     1       0.987   0.449  -1.275  0.00  0.00    -0.002 C 
ATOM     16  C   UNL     1       1.612   1.968   0.981  0.00  0.00    +0.074 C 
ATOM     17  C   UNL     1       1.800   1.576  -1.396  0.00  0.00    +0.019 C 
ATOM     18  C   UNL     1       2.113   2.335  -0.269  0.00  0.00    +0.116 C 
BRANCH  18  19
ATOM     19  S   UNL     1       3.140   3.739  -0.482  0.00  0.00    +0.011 S 
ATOM     20  O   UNL     1       3.388   3.893  -1.906  0.00  0.00    -0.169 OA
ATOM     21  O   UNL     1       2.583   4.844   0.283  0.00  0.00    -0.169 OA
ATOM     22  C   UNL     1       4.670   3.281   0.298  0.00  0.00    +0.182 C 
ENDBRANCH  18  19
ENDBRANCH   1  13
BRANCH   1  23
ATOM     23  C   UNL     1       0.228  -2.201   1.024  0.00  0.00    +0.014 C 
BRANCH  23  25
ATOM     24  O   UNL     1       3.151  -4.854  -1.784  0.00  0.00    -0.296 OA
ATOM     25  C   UNL     1       1.579  -2.703   0.542  0.00  0.00    +0.009 C 
ATOM     26  C   UNL     1       2.159  -3.800   1.436  0.00  0.00    +0.008 C 
ATOM     27  C   UNL     1       1.513  -3.352  -0.842  0.00  0.00    +0.065 C 
ATOM     28  C   UNL     1       3.255  -4.436   0.591  0.00  0.00    +0.065 C 
ATOM     29  C   UNL     1       2.696  -4.285  -0.800  0.00  0.00    +0.151 C 
ENDBRANCH  23  25
ENDBRANCH   1  23
TORSDOF 5
