REMARK  Name = 10432257
REMARK  6 active torsions:
REMARK  status: ('A' for Active; 'I' for Inactive)
REMARK    1  A    between atoms: C_5  and  C_28
REMARK    2  A    between atoms: C_7  and  O_22
REMARK    3  A    between atoms: C_11  and  O_24
REMARK    4  A    between atoms: C_15  and  O_26
REMARK    5  A    between atoms: C_29  and  C_30
REMARK    6  A    between atoms: C_30  and  O_33
REMARK                            x       y       z     vdW  Elec       q    Type
REMARK                         _______ _______ _______ _____ _____    ______ ____
ROOT
ATOM      1  O   UNL     1      -3.235  -1.799   1.173  0.00  0.00    -0.346 OA
ATOM      2  O   UNL     1      -3.146   0.163  -1.005  0.00  0.00    -0.337 OA
ATOM      3  O   UNL     1       4.257  -0.392  -0.520  0.00  0.00    -0.343 OA
ATOM      4  O   UNL     1       2.696  -2.495  -2.374  0.00  0.00    -0.289 OA
ATOM      5  C   UNL     1      -0.992   0.044   0.042  0.00  0.00    +0.076 C 
ATOM      6  C   UNL     1      -0.190  -0.520   1.245  0.00  0.00    +0.045 C 
ATOM      7  C   UNL     1      -2.483   0.406   0.267  0.00  0.00    +0.215 C 
ATOM      8  C   UNL     1      -3.170  -0.383   1.346  0.00  0.00    +0.196 C 
ATOM      9  C   UNL     1      -1.127  -1.059  -1.020  0.00  0.00    +0.055 C 
ATOM     10  C   UNL     1      -2.398  -1.314   2.241  0.00  0.00    +0.174 C 
ATOM     11  C   UNL     1      -0.952  -1.626   2.020  0.00  0.00    +0.141 C 
ATOM     12  C   UNL     1       1.215  -1.095   0.764  0.00  0.00    +0.057 C 
ATOM     13  C   UNL     1      -2.272  -0.561  -1.913  0.00  0.00    +0.099 C 
ATOM     14  C   UNL     1       1.264  -1.525  -0.708  0.00  0.00    +0.013 C 
ATOM     15  C   UNL     1       2.386  -0.132   1.078  0.00  0.00    +0.145 C 
ATOM     16  C   UNL     1       0.202  -1.508  -1.537  0.00  0.00    -0.025 C 
ATOM     17  C   UNL     1       3.695  -0.783   0.739  0.00  0.00    +0.177 C 
ATOM     18  C   UNL     1       3.754  -1.733  -0.427  0.00  0.00    +0.205 C 
ATOM     19  C   UNL     1       2.570  -1.970  -1.277  0.00  0.00    +0.198 C 
ATOM     20  C   UNL     1      -3.073  -1.732  -2.495  0.00  0.00    +0.030 C 
ATOM     21  C   UNL     1      -1.885   0.378  -3.059  0.00  0.00    +0.030 C 
ENDROOT
BRANCH   7  22
ATOM     22  O   UNL     1      -2.605   1.791   0.614  0.00  0.00    -0.362 OA
ATOM     23  H   UNL     1      -2.172   2.334  -0.063  0.00  0.00    +0.213 HD
ENDBRANCH   7  22
BRANCH  11  24
ATOM     24  O   UNL     1      -0.318  -1.820   3.289  0.00  0.00    -0.382 OA
ATOM     25  H   UNL     1       0.621  -2.023   3.153  0.00  0.00    +0.210 HD
ENDBRANCH  11  24
BRANCH  15  26
ATOM     26  O   UNL     1       2.377   0.176   2.472  0.00  0.00    -0.382 OA
ATOM     27  H   UNL     1       1.535   0.598   2.704  0.00  0.00    +0.210 HD
ENDBRANCH  15  26
BRANCH   5  28
ATOM     28  C   UNL     1      -0.240   1.275  -0.458  0.00  0.00    -0.024 C 
ATOM     29  C   UNL     1      -0.003   2.359   0.297  0.00  0.00    -0.005 C 
BRANCH  29  30
ATOM     30  C   UNL     1       0.730   3.618  -0.115  0.00  0.00    +0.107 C 
ATOM     31  C   UNL     1       1.254   3.640  -1.555  0.00  0.00    +0.034 C 
ATOM     32  C   UNL     1      -0.173   4.831   0.121  0.00  0.00    +0.034 C 
BRANCH  30  33
ATOM     33  O   UNL     1       1.859   3.765   0.755  0.00  0.00    -0.383 OA
ATOM     34  H   UNL     1       2.460   3.012   0.636  0.00  0.00    +0.211 HD
ENDBRANCH  30  33
ENDBRANCH  29  30
ENDBRANCH   5  28
TORSDOF 6
