REMARK  Name = 10433808
REMARK  8 active torsions:
REMARK  status: ('A' for Active; 'I' for Inactive)
REMARK    1  A    between atoms: C_4  and  O_17
REMARK    2  A    between atoms: C_4  and  C_24
REMARK    3  A    between atoms: C_6  and  O_19
REMARK    4  A    between atoms: C_8  and  O_21
REMARK    5  A    between atoms: C_24  and  C_25
REMARK    6  A    between atoms: C_25  and  C_27
REMARK    7  A    between atoms: C_27  and  C_28
REMARK    8  A    between atoms: C_28  and  C_31
REMARK                            x       y       z     vdW  Elec       q    Type
REMARK                         _______ _______ _______ _____ _____    ______ ____
ROOT
ATOM      1  O   UNL     1       3.011  -2.021   1.088  0.00  0.00    -0.328 OA
ATOM      2  C   UNL     1       2.720   1.328  -0.361  0.00  0.00    +0.034 C 
ATOM      3  C   UNL     1       4.020   0.616   0.048  0.00  0.00    +0.008 C 
ATOM      4  C   UNL     1       1.499   0.496   0.075  0.00  0.00    +0.169 C 
ATOM      5  C   UNL     1       4.158  -0.748  -0.636  0.00  0.00    +0.054 C 
ATOM      6  C   UNL     1       1.566  -0.946  -0.546  0.00  0.00    +0.181 C 
ATOM      7  C   UNL     1       2.943   2.711   0.288  0.00  0.00    +0.003 C 
ATOM      8  C   UNL     1       2.938  -1.659  -0.301  0.00  0.00    +0.213 C 
ATOM      9  C   UNL     1       5.088   1.652  -0.291  0.00  0.00    +0.000 C 
ATOM     10  C   UNL     1       4.432   3.002   0.012  0.00  0.00    +0.000 C 
ATOM     11  C   UNL     1       5.497  -1.390  -0.227  0.00  0.00    +0.005 C 
ATOM     12  C   UNL     1       0.447  -1.810  -0.003  0.00  0.00    +0.001 C 
ATOM     13  C   UNL     1       2.050   3.825  -0.239  0.00  0.00    +0.000 C 
ATOM     14  C   UNL     1       0.667  -2.760   0.921  0.00  0.00    -0.016 C 
ATOM     15  C   UNL     1       2.046  -3.007   1.474  0.00  0.00    +0.167 C 
ATOM     16  C   UNL     1      -0.431  -3.629   1.455  0.00  0.00    +0.029 C 
ENDROOT
BRANCH   4  17
ATOM     17  O   UNL     1       1.479   0.458   1.499  0.00  0.00    -0.377 OA
ATOM     18  H   UNL     1       2.282   0.019   1.822  0.00  0.00    +0.211 HD
ENDBRANCH   4  17
BRANCH   6  19
ATOM     19  O   UNL     1       1.357  -0.851  -1.965  0.00  0.00    -0.376 OA
ATOM     20  H   UNL     1       2.055  -0.304  -2.358  0.00  0.00    +0.211 HD
ENDBRANCH   6  19
BRANCH   8  21
ATOM     21  O   UNL     1       2.980  -2.821  -1.149  0.00  0.00    -0.362 OA
ATOM     22  H   UNL     1       3.822  -3.286  -1.020  0.00  0.00    +0.213 HD
ENDBRANCH   8  21
BRANCH   4  24
ATOM     23  O   UNL     1       0.191   1.869  -1.374  0.00  0.00    -0.294 OA
ATOM     24  C   UNL     1       0.229   1.186  -0.350  0.00  0.00    +0.177 C 
BRANCH  24  25
ATOM     25  C   UNL     1      -1.001   0.961   0.525  0.00  0.00    +0.060 C 
ATOM     26  C   UNL     1      -1.003   2.011   1.633  0.00  0.00    +0.008 C 
BRANCH  25  27
ATOM     27  C   UNL     1      -2.303   1.026  -0.288  0.00  0.00    +0.011 C 
BRANCH  27  28
ATOM     28  C   UNL     1      -3.546   0.816   0.583  0.00  0.00    +0.048 C 
BRANCH  28  31
ATOM     29  O   UNL     1      -4.821  -0.156  -1.207  0.00  0.00    -0.445 OA
ATOM     30  O   UNL     1      -6.203  -1.938  -1.668  0.00  0.00    -0.245 OA
ATOM     31  C   UNL     1      -4.821   0.906  -0.240  0.00  0.00    +0.188 C 
ATOM     32  C   UNL     1      -6.065   0.666   0.534  0.00  0.00    +0.002 C 
ATOM     33  C   UNL     1      -6.709  -0.410   0.088  0.00  0.00    +0.077 C 
ATOM     34  C   UNL     1      -5.918  -0.946  -1.019  0.00  0.00    +0.341 C 
ATOM     35  C   UNL     1      -6.499   1.562   1.638  0.00  0.00    +0.030 C 
ENDBRANCH  28  31
ENDBRANCH  27  28
ENDBRANCH  25  27
ENDBRANCH  24  25
ENDBRANCH   4  24
TORSDOF 8
