10432257
  -OEChem-03292013303D

 58 63  0     1  0  0  0  0  0999 V2000
   -3.2353   -1.7989    1.1731 O   0  0  0  0  0  0  0  0  0  0  0  0
   -3.1461    0.1628   -1.0049 O   0  0  0  0  0  0  0  0  0  0  0  0
   -2.6050    1.7910    0.6142 O   0  0  0  0  0  0  0  0  0  0  0  0
    4.2573   -0.3916   -0.5203 O   0  0  0  0  0  0  0  0  0  0  0  0
   -0.3175   -1.8202    3.2886 O   0  0  0  0  0  0  0  0  0  0  0  0
    2.3772    0.1758    2.4717 O   0  0  0  0  0  0  0  0  0  0  0  0
    2.6962   -2.4950   -2.3745 O   0  0  0  0  0  0  0  0  0  0  0  0
    1.8592    3.7648    0.7552 O   0  0  0  0  0  0  0  0  0  0  0  0
   -0.9916    0.0437    0.0423 C   0  0  2  0  0  0  0  0  0  0  0  0
   -0.1902   -0.5202    1.2453 C   0  0  1  0  0  0  0  0  0  0  0  0
   -2.4831    0.4063    0.2666 C   0  0  2  0  0  0  0  0  0  0  0  0
   -3.1696   -0.3833    1.3464 C   0  0  2  0  0  0  0  0  0  0  0  0
   -1.1268   -1.0588   -1.0204 C   0  0  1  0  0  0  0  0  0  0  0  0
   -2.3982   -1.3144    2.2413 C   0  0  2  0  0  0  0  0  0  0  0  0
   -0.9519   -1.6256    2.0201 C   0  0  2  0  0  0  0  0  0  0  0  0
    1.2152   -1.0954    0.7639 C   0  0  1  0  0  0  0  0  0  0  0  0
   -2.2721   -0.5606   -1.9127 C   0  0  0  0  0  0  0  0  0  0  0  0
    1.2638   -1.5251   -0.7079 C   0  0  0  0  0  0  0  0  0  0  0  0
    2.3863   -0.1318    1.0776 C   0  0  2  0  0  0  0  0  0  0  0  0
    0.2022   -1.5081   -1.5373 C   0  0  0  0  0  0  0  0  0  0  0  0
   -0.2397    1.2753   -0.4581 C   0  0  0  0  0  0  0  0  0  0  0  0
    3.6953   -0.7831    0.7385 C   0  0  1  0  0  0  0  0  0  0  0  0
    3.7538   -1.7326   -0.4266 C   0  0  1  0  0  0  0  0  0  0  0  0
    2.5703   -1.9696   -1.2766 C   0  0  0  0  0  0  0  0  0  0  0  0
   -3.0731   -1.7320   -2.4947 C   0  0  0  0  0  0  0  0  0  0  0  0
   -1.8849    0.3783   -3.0587 C   0  0  0  0  0  0  0  0  0  0  0  0
   -0.0033    2.3594    0.2967 C   0  0  0  0  0  0  0  0  0  0  0  0
    0.7302    3.6176   -0.1149 C   0  0  0  0  0  0  0  0  0  0  0  0
    1.2543    3.6400   -1.5551 C   0  0  0  0  0  0  0  0  0  0  0  0
   -0.1731    4.8314    0.1214 C   0  0  0  0  0  0  0  0  0  0  0  0
   -0.0170    0.2729    1.9832 H   0  0  0  0  0  0  0  0  0  0  0  0
   -4.0652    0.0870    1.7317 H   0  0  0  0  0  0  0  0  0  0  0  0
   -1.5200   -1.9675   -0.5459 H   0  0  0  0  0  0  0  0  0  0  0  0
   -2.7479   -1.4856    3.2501 H   0  0  0  0  0  0  0  0  0  0  0  0
   -0.8825   -2.5874    1.4975 H   0  0  0  0  0  0  0  0  0  0  0  0
    1.4133   -2.0123    1.3360 H   0  0  0  0  0  0  0  0  0  0  0  0
    2.2982    0.8089    0.5313 H   0  0  0  0  0  0  0  0  0  0  0  0
    0.2677   -1.8434   -2.5670 H   0  0  0  0  0  0  0  0  0  0  0  0
    0.1525    1.2558   -1.4688 H   0  0  0  0  0  0  0  0  0  0  0  0
    4.3693   -0.9341    1.5699 H   0  0  0  0  0  0  0  0  0  0  0  0
    4.4805   -2.5351   -0.3788 H   0  0  0  0  0  0  0  0  0  0  0  0
   -3.5124    1.9554    0.9203 H   0  0  0  0  0  0  0  0  0  0  0  0
   -2.4643   -2.3359   -3.1751 H   0  0  0  0  0  0  0  0  0  0  0  0
   -3.4580   -2.3820   -1.7009 H   0  0  0  0  0  0  0  0  0  0  0  0
   -3.9538   -1.3725   -3.0392 H   0  0  0  0  0  0  0  0  0  0  0  0
   -2.7469    0.5519   -3.7151 H   0  0  0  0  0  0  0  0  0  0  0  0
   -1.6046    1.3757   -2.7131 H   0  0  0  0  0  0  0  0  0  0  0  0
   -1.0806   -0.0340   -3.6748 H   0  0  0  0  0  0  0  0  0  0  0  0
    0.5268   -2.2772    3.1436 H   0  0  0  0  0  0  0  0  0  0  0  0
   -0.3460    2.3686    1.3303 H   0  0  0  0  0  0  0  0  0  0  0  0
    2.4075   -0.6617    2.9651 H   0  0  0  0  0  0  0  0  0  0  0  0
    1.8100    4.5651   -1.7499 H   0  0  0  0  0  0  0  0  0  0  0  0
    1.9612    2.8212   -1.7342 H   0  0  0  0  0  0  0  0  0  0  0  0
    0.4426    3.5692   -2.2868 H   0  0  0  0  0  0  0  0  0  0  0  0
   -0.4908    4.8924    1.1694 H   0  0  0  0  0  0  0  0  0  0  0  0
   -1.0686    4.7987   -0.5090 H   0  0  0  0  0  0  0  0  0  0  0  0
    0.3635    5.7642   -0.0882 H   0  0  0  0  0  0  0  0  0  0  0  0
    2.4970    3.0613    0.5459 H   0  0  0  0  0  0  0  0  0  0  0  0
  1 12  1  0  0  0  0
  1 14  1  0  0  0  0
  2 11  1  0  0  0  0
  2 17  1  0  0  0  0
  3 11  1  0  0  0  0
  3 42  1  0  0  0  0
  4 22  1  0  0  0  0
  4 23  1  0  0  0  0
  5 15  1  0  0  0  0
  5 49  1  0  0  0  0
  6 19  1  0  0  0  0
  6 51  1  0  0  0  0
  7 24  2  0  0  0  0
  8 28  1  0  0  0  0
  8 58  1  0  0  0  0
  9 10  1  0  0  0  0
  9 11  1  0  0  0  0
  9 13  1  0  0  0  0
  9 21  1  0  0  0  0
 10 15  1  0  0  0  0
 10 16  1  0  0  0  0
 10 31  1  0  0  0  0
 11 12  1  0  0  0  0
 12 14  1  0  0  0  0
 12 32  1  0  0  0  0
 13 17  1  0  0  0  0
 13 20  1  0  0  0  0
 13 33  1  0  0  0  0
 14 15  1  0  0  0  0
 14 34  1  0  0  0  0
 15 35  1  0  0  0  0
 16 18  1  0  0  0  0
 16 19  1  0  0  0  0
 16 36  1  0  0  0  0
 17 25  1  0  0  0  0
 17 26  1  0  0  0  0
 18 20  2  0  0  0  0
 18 24  1  0  0  0  0
 19 22  1  0  0  0  0
 19 37  1  0  0  0  0
 20 38  1  0  0  0  0
 21 27  2  0  0  0  0
 21 39  1  0  0  0  0
 22 23  1  0  0  0  0
 22 40  1  0  0  0  0
 23 24  1  0  0  0  0
 23 41  1  0  0  0  0
 25 43  1  0  0  0  0
 25 44  1  0  0  0  0
 25 45  1  0  0  0  0
 26 46  1  0  0  0  0
 26 47  1  0  0  0  0
 26 48  1  0  0  0  0
 27 28  1  0  0  0  0
 27 50  1  0  0  0  0
 28 29  1  0  0  0  0
 28 30  1  0  0  0  0
 29 52  1  0  0  0  0
 29 53  1  0  0  0  0
 29 54  1  0  0  0  0
 30 55  1  0  0  0  0
 30 56  1  0  0  0  0
 30 57  1  0  0  0  0
M  END
> <PUBCHEM_COMPOUND_CID>
10432257

> <PUBCHEM_CONFORMER_RMSD>
0.8

> <PUBCHEM_CONFORMER_DIVERSEORDER>
1
2
4
3

> <PUBCHEM_MMFF94_PARTIAL_CHARGES>
36
1 -0.3
11 0.65
12 -0.05
13 0.14
14 -0.05
15 0.38
16 0.14
17 0.28
18 -0.12
19 0.38
2 -0.56
20 -0.29
21 -0.29
22 -0.05
23 0.05
24 0.56
27 -0.29
28 0.42
3 -0.68
32 0.1
34 0.1
38 0.15
39 0.15
4 -0.3
40 0.1
41 0.1
42 0.4
49 0.4
5 -0.68
50 0.15
51 0.4
58 0.4
6 -0.68
7 -0.57
8 -0.68
9 0.14

> <PUBCHEM_EFFECTIVE_ROTOR_COUNT>
3.2

> <PUBCHEM_PHARMACOPHORE_FEATURES>
18
1 1 acceptor
1 2 acceptor
1 3 acceptor
1 3 donor
1 4 acceptor
1 5 acceptor
1 5 donor
1 6 acceptor
1 6 donor
1 7 acceptor
1 8 acceptor
1 8 donor
3 17 25 26 hydrophobe
3 28 29 30 hydrophobe
5 2 9 11 13 17 rings
6 9 10 13 16 18 20 rings
7 1 9 10 11 12 14 15 rings
7 4 16 18 19 22 23 24 rings

> <PUBCHEM_HEAVY_ATOM_COUNT>
30

> <PUBCHEM_ATOM_DEF_STEREO_COUNT>
11

> <PUBCHEM_ATOM_UDEF_STEREO_COUNT>
0

> <PUBCHEM_BOND_DEF_STEREO_COUNT>
1

> <PUBCHEM_BOND_UDEF_STEREO_COUNT>
0

> <PUBCHEM_ISOTOPIC_ATOM_COUNT>
0

> <PUBCHEM_COMPONENT_COUNT>
1

> <PUBCHEM_CACTVS_TAUTO_COUNT>
5

> <PUBCHEM_CONFORMER_ID>
009F2F0100000001

> <PUBCHEM_MMFF94_ENERGY>
107.9489

> <PUBCHEM_FEATURE_SELFOVERLAP>
91.682

> <PUBCHEM_SHAPE_FINGERPRINT>
10006869 2 17542782015412042153
10165383 225 16392429970710734764
11244481 83 17896324799317912360
11578080 2 16951119711367910709
12035759 4 17553478484895096358
12156800 1 15957885533039468672
12160290 23 17832973963109536376
12403814 3 17915461601372557695
12788726 201 18120085079194360752
13149001 5 18041272270398632859
133893 2 18194111047937625317
13681431 1 18336542806655321308
14713325 29 17475827267538486094
14955137 171 18126589996411498612
16945 1 18337935883465924715
17980427 26 16237229871222192679
1813 80 18343589524937397230
20600515 1 17895187754203117004
21304303 282 17393861991529066548
23419403 2 17969786482832284783
238 59 17831838506599468389
3493558 16 13957457175950977836
35225 105 17393047235895580604
394222 165 17327416691217337953
46194498 28 17619575498140559631
469060 322 18201707471032604158
5845 1 8353406078775355140
6287921 2 17988639769911036100
81228 2 18120932802680546344

> <PUBCHEM_SHAPE_MULTIPOLES>
570.43
5.38
4.25
2.8
2.15
7.6
-0.07
-3.12
-0.62
1.74
-0.4
-1.35
-1.78
0.73

> <PUBCHEM_SHAPE_SELFOVERLAP>
1253.762

> <PUBCHEM_SHAPE_VOLUME>
303.4

> <PUBCHEM_COORDINATE_TYPE>
2
5
10

$$$$
