REMARK  Name = 10444353
REMARK  5 active torsions:
REMARK  status: ('A' for Active; 'I' for Inactive)
REMARK    1  A    between atoms: C_2  and  O_15
REMARK    2  A    between atoms: C_4  and  O_9
REMARK    3  A    between atoms: CA_5  and  C_12
REMARK    4  A    between atoms: C_12  and  O_13
REMARK    5  A    between atoms: O_15  and  S_16
REMARK                            x       y       z     vdW  Elec       q    Type
REMARK                         _______ _______ _______ _____ _____    ______ ____
ROOT
ATOM      1  N   UNL     1       2.395   0.735   0.992  0.00  0.00    +0.394 N 
ATOM      2  C   UNL     1      -0.328   0.534  -0.099  0.00  0.00    +0.170 C 
ATOM      3  C   UNL     1       0.224  -0.501   0.883  0.00  0.00    +0.024 C 
ATOM      4  C   UNL     1       0.385   1.874   0.070  0.00  0.00    +0.119 C 
ATOM      5  CA  UNL     1       1.750  -0.576   0.879  0.00  0.00    +0.042 C 
ATOM      6  C   UNL     1       1.902   1.700   0.008  0.00  0.00    -0.048 C 
ATOM      7  H1  UNL     1       3.399   0.616   0.857  0.00  0.00    -0.084 HD
ATOM      8  H2  UNL     1       2.177   1.104   1.918  0.00  0.00    -0.084 HD
ENDROOT
BRANCH   4   9
ATOM      9  O   UNL     1      -0.027   2.741  -0.985  0.00  0.00    -0.384 OA
ATOM     10  H   UNL     1      -0.990   2.856  -0.952  0.00  0.00    +0.210 HD
ENDBRANCH   4   9
BRANCH   5  12
ATOM     11  OXT UNL     1       1.609  -1.694  -1.259  0.00  0.00    -0.253 OA
ATOM     12  C   UNL     1       2.288  -1.263  -0.339  0.00  0.00    +0.294 C 
BRANCH  12  13
ATOM     13  O   UNL     1       3.640  -1.347  -0.283  0.00  0.00    -0.482 OA
ATOM     14  H   UNL     1       4.101  -0.996   0.453  0.00  0.00    +0.295 HD
ENDBRANCH  12  13
ENDBRANCH   5  12
BRANCH   2  15
ATOM     15  O   UNL     1      -1.720   0.718   0.148  0.00  0.00    -0.201 OA
BRANCH  15  16
ATOM     16  S   UNL     1      -2.739  -0.550   0.013  0.00  0.00    +0.239 S 
ATOM     17  O   UNL     1      -4.214   0.120   0.198  0.00  0.00    -0.116 OA
ATOM     18  O   UNL     1      -2.648  -1.036  -1.351  0.00  0.00    -0.116 OA
ATOM     19  O   UNL     1      -2.517  -1.456   1.125  0.00  0.00    -0.022 OA
ENDBRANCH  15  16
ENDBRANCH   2  15
TORSDOF 5
