10449544
  -OEChem-03292013303D

 43 45  0     0  0  0  0  0  0999 V2000
    3.5575    0.9591   -1.6375 O   0  0  0  0  0  0  0  0  0  0  0  0
    1.2122   -0.7748    0.5561 O   0  0  0  0  0  0  0  0  0  0  0  0
   -5.3482   -2.0485   -0.0380 N   0  0  0  0  0  0  0  0  0  0  0  0
   -0.4521    0.8495    0.4213 N   0  0  0  0  0  0  0  0  0  0  0  0
    3.1781    1.0640    0.6491 N   0  0  0  0  0  0  0  0  0  0  0  0
    4.4660   -2.0259   -0.2988 N   0  0  0  0  0  0  0  0  0  0  0  0
   -5.3303    0.1823   -0.0212 C   0  0  0  0  0  0  0  0  0  0  0  0
   -6.1596   -0.9384   -0.1032 C   0  0  0  0  0  0  0  0  0  0  0  0
   -3.9945   -0.2945    0.0954 C   0  0  0  0  0  0  0  0  0  0  0  0
   -4.0381   -1.6695    0.0821 C   0  0  0  0  0  0  0  0  0  0  0  0
   -5.9151    1.4634   -0.0649 C   0  0  0  0  0  0  0  0  0  0  0  0
   -7.5502   -0.8413   -0.2272 C   0  0  0  0  0  0  0  0  0  0  0  0
   -2.8089    0.4645    0.2072 C   0  0  0  0  0  0  0  0  0  0  0  0
   -7.3047    1.5758   -0.1889 C   0  0  0  0  0  0  0  0  0  0  0  0
   -8.1077    0.4398   -0.2685 C   0  0  0  0  0  0  0  0  0  0  0  0
   -1.5286    0.0202    0.3190 C   0  0  0  0  0  0  0  0  0  0  0  0
    5.3095    0.2649   -0.2422 C   0  0  0  0  0  0  0  0  0  0  0  0
    1.8349    1.5592    0.5796 C   0  0  0  0  0  0  0  0  0  0  0  0
    5.5210   -1.0968   -0.1598 C   0  0  0  0  0  0  0  0  0  0  0  0
    3.9443    0.7993   -0.4828 C   0  0  0  0  0  0  0  0  0  0  0  0
    0.8589    0.4018    0.5342 C   0  0  0  0  0  0  0  0  0  0  0  0
    6.3393    1.1758   -0.1068 C   0  0  0  0  0  0  0  0  0  0  0  0
    6.8141   -1.5678    0.0675 C   0  0  0  0  0  0  0  0  0  0  0  0
    7.6324    0.7049    0.1205 C   0  0  0  0  0  0  0  0  0  0  0  0
    7.8698   -0.6669    0.2078 C   0  0  0  0  0  0  0  0  0  0  0  0
   -5.6735   -3.0048   -0.0738 H   0  0  0  0  0  0  0  0  0  0  0  0
   -3.2659   -2.4241    0.1462 H   0  0  0  0  0  0  0  0  0  0  0  0
   -5.3063    2.3610   -0.0042 H   0  0  0  0  0  0  0  0  0  0  0  0
   -8.1762   -1.7250   -0.2894 H   0  0  0  0  0  0  0  0  0  0  0  0
   -2.9385    1.5466    0.2030 H   0  0  0  0  0  0  0  0  0  0  0  0
   -7.7613    2.5615   -0.2232 H   0  0  0  0  0  0  0  0  0  0  0  0
   -9.1849    0.5503   -0.3644 H   0  0  0  0  0  0  0  0  0  0  0  0
   -1.3056   -1.0415    0.3317 H   0  0  0  0  0  0  0  0  0  0  0  0
    1.6471    2.1585    1.4755 H   0  0  0  0  0  0  0  0  0  0  0  0
    1.7088    2.1820   -0.3118 H   0  0  0  0  0  0  0  0  0  0  0  0
    3.5743    0.8811    1.5668 H   0  0  0  0  0  0  0  0  0  0  0  0
   -0.6299    1.8509    0.4100 H   0  0  0  0  0  0  0  0  0  0  0  0
    6.1619    2.2452   -0.1736 H   0  0  0  0  0  0  0  0  0  0  0  0
    7.0134   -2.6341    0.1376 H   0  0  0  0  0  0  0  0  0  0  0  0
    8.4545    1.4063    0.2296 H   0  0  0  0  0  0  0  0  0  0  0  0
    8.8767   -1.0334    0.3848 H   0  0  0  0  0  0  0  0  0  0  0  0
    4.6571   -3.0170   -0.2318 H   0  0  0  0  0  0  0  0  0  0  0  0
    3.5191   -1.7104   -0.4590 H   0  0  0  0  0  0  0  0  0  0  0  0
  1 20  2  0  0  0  0
  2 21  2  0  0  0  0
  3  8  1  0  0  0  0
  3 10  1  0  0  0  0
  3 26  1  0  0  0  0
  4 16  1  0  0  0  0
  4 21  1  0  0  0  0
  4 37  1  0  0  0  0
  5 18  1  0  0  0  0
  5 20  1  0  0  0  0
  5 36  1  0  0  0  0
  6 19  1  0  0  0  0
  6 42  1  0  0  0  0
  6 43  1  0  0  0  0
  7  8  1  0  0  0  0
  7  9  1  0  0  0  0
  7 11  2  0  0  0  0
  8 12  2  0  0  0  0
  9 10  2  0  0  0  0
  9 13  1  0  0  0  0
 10 27  1  0  0  0  0
 11 14  1  0  0  0  0
 11 28  1  0  0  0  0
 12 15  1  0  0  0  0
 12 29  1  0  0  0  0
 13 16  2  0  0  0  0
 13 30  1  0  0  0  0
 14 15  2  0  0  0  0
 14 31  1  0  0  0  0
 15 32  1  0  0  0  0
 16 33  1  0  0  0  0
 17 19  1  0  0  0  0
 17 20  1  0  0  0  0
 17 22  2  0  0  0  0
 18 21  1  0  0  0  0
 18 34  1  0  0  0  0
 18 35  1  0  0  0  0
 19 23  2  0  0  0  0
 22 24  1  0  0  0  0
 22 38  1  0  0  0  0
 23 25  1  0  0  0  0
 23 39  1  0  0  0  0
 24 25  2  0  0  0  0
 24 40  1  0  0  0  0
 25 41  1  0  0  0  0
M  END
> <PUBCHEM_COMPOUND_CID>
10449544

> <PUBCHEM_CONFORMER_RMSD>
0.8

> <PUBCHEM_CONFORMER_DIVERSEORDER>
1
95
27
53
41
91
52
85
32
72
7
68
63
82
30
38
16
100
20
6
87
80
17
39
5
70
29
34
71
54
31
2
97
23
8
77
55
102
49
37
45
46
19
92
78
48
22
86
13
26
60
43
58
4
3
51
56
9
57
36
21
79
24
59
44
14
83
65
89
74
96
69
64
28
35
18
75
81
98
84
10
33
25
93
15
90
12
62
88
61
66
40
99
94
11
76
67
101
73
50
47
42

> <PUBCHEM_MMFF94_PARTIAL_CHARGES>
40
1 -0.57
10 -0.3
11 -0.15
12 -0.15
13 -0.1
14 -0.15
15 -0.15
16 -0.04
17 0.09
18 0.36
19 0.1
2 -0.57
20 0.54
21 0.57
22 -0.15
23 -0.15
24 -0.15
25 -0.15
26 0.27
27 0.15
28 0.15
29 0.15
3 0.03
30 0.15
31 0.15
32 0.15
33 0.15
36 0.37
37 0.37
38 0.15
39 0.15
4 -0.54
40 0.15
41 0.15
42 0.4
43 0.4
5 -0.73
6 -0.9
8 -0.15
9 -0.05

> <PUBCHEM_EFFECTIVE_ROTOR_COUNT>
7

> <PUBCHEM_PHARMACOPHORE_FEATURES>
11
1 1 acceptor
1 2 acceptor
1 3 cation
1 3 donor
1 4 donor
1 5 donor
1 6 cation
1 6 donor
5 3 7 8 9 10 rings
6 17 19 22 23 24 25 rings
6 7 8 11 12 14 15 rings

> <PUBCHEM_HEAVY_ATOM_COUNT>
25

> <PUBCHEM_ATOM_DEF_STEREO_COUNT>
0

> <PUBCHEM_ATOM_UDEF_STEREO_COUNT>
0

> <PUBCHEM_BOND_DEF_STEREO_COUNT>
1

> <PUBCHEM_BOND_UDEF_STEREO_COUNT>
0

> <PUBCHEM_ISOTOPIC_ATOM_COUNT>
0

> <PUBCHEM_COMPONENT_COUNT>
1

> <PUBCHEM_CACTVS_TAUTO_COUNT>
6

> <PUBCHEM_CONFORMER_ID>
009F728800000001

> <PUBCHEM_MMFF94_ENERGY>
70.9774

> <PUBCHEM_FEATURE_SELFOVERLAP>
55.913

> <PUBCHEM_SHAPE_FINGERPRINT>
100830 39 18338797810989823993
10299344 5 18333449841833463827
106641 1 11455884771695590117
11135609 127 18262237854501921668
11315181 36 17918277567480234865
11524674 6 16988841700955265663
11719270 70 18060420201236015846
11991303 11 14057012645166089704
12082328 90 18409165524458791303
13177829 20 10375868580449752017
13885169 127 18412262814038428337
14123256 10 15068619387758660612
14251752 14 18410573977036335201
14251764 18 17846784004862557160
14251764 46 18186801379499994393
14933364 13 18408885144282275801
15183329 4 18411700971917128681
15352257 5 18411698785636674655
15419008 91 18270098180865254008
18006028 8 16988843882265882169
19841028 212 18336544903312025234
21267235 1 18335703888743161641
21315763 28 18410011070296506413
22224240 67 13039185905429519652
22956985 138 16698950903806511462
23559900 14 18200304542025608993
249057 3 16660368107814348992
28498 318 18413106143308424436
29717793 49 18040721376777172740
3004659 81 18334292067566228234
34797466 226 12613037162960759322
4073 2 18041284369205786562
4098825 35 18333729096164727213
4325135 7 18333731316514892367
4339292 15 16558174026585575983
439807 62 18413107243400262136
5283156 175 18410294700729517224
58083652 198 16916786331683809217
59682541 35 13542456579756216830
59755656 520 16732983146164216131
99344 41 18410573976847139310

> <PUBCHEM_SHAPE_MULTIPOLES>
482.83
28.71
1.77
0.77
2.19
0.44
-0.11
2.09
-2.47
0.21
-0.03
-0.4
-0.12
0

> <PUBCHEM_SHAPE_SELFOVERLAP>
1050.334

> <PUBCHEM_SHAPE_VOLUME>
262.9

> <PUBCHEM_COORDINATE_TYPE>
2
5
10

$$$$
