REMARK  Name = 10445825
REMARK  7 active torsions:
REMARK  status: ('A' for Active; 'I' for Inactive)
REMARK    1  A    between atoms: C_1  and  N_3
REMARK    2  A    between atoms: C_1  and  C_13
REMARK    3  A    between atoms: C_1  and  C_16
REMARK    4  A    between atoms: C_4  and  CA_6
REMARK    5  A    between atoms: CA_6  and  N_8
REMARK    6  A    between atoms: C_13  and  O_14
REMARK    7  A    between atoms: C_16  and  C_20
REMARK                            x       y       z     vdW  Elec       q    Type
REMARK                         _______ _______ _______ _____ _____    ______ ____
ROOT
ATOM      1  C   UNK A   2       1.243  -1.262   0.205  0.00  0.00    +0.171 C 
ENDROOT
BRANCH   1   3
ATOM      2  O   ALA A   1       1.595   1.321   1.426  0.00  0.00    -0.277 OA
ATOM      3  N   UNK A   2       1.720  -0.061  -0.433  0.00  0.00    -0.298 N 
ATOM      4  C   ALA A   1       1.859   1.149   0.238  0.00  0.00    +0.202 C 
ATOM      5  H   UNK A   2       1.958  -0.099  -1.388  0.00  0.00    +0.150 HD
BRANCH   4   6
ATOM      6  CA  ALA A   1       2.368   2.257  -0.675  0.00  0.00    +0.013 C 
ATOM      7  CB  ALA A   1       3.889   2.323  -0.629  0.00  0.00    -0.015 C 
BRANCH   6   8
ATOM      8  N   ALA A   1       1.794   3.522  -0.224  0.00  0.00    +0.387 N 
ATOM      9  H1  ALA A   1       0.776   3.465  -0.259  0.00  0.00    -0.089 HD
ATOM     10  H2  ALA A   1       2.113   4.276  -0.832  0.00  0.00    -0.089 HD
ATOM     11  H3  ALA A   1       2.091   3.708   0.734  0.00  0.00    -0.089 HD
ENDBRANCH   6   8
ENDBRANCH   4   6
ENDBRANCH   1   3
BRANCH   1  13
ATOM     12  O   UNK A   2       2.161  -3.419   0.820  0.00  0.00    -0.248 OA
ATOM     13  C   UNK A   2       2.306  -2.345   0.247  0.00  0.00    +0.332 C 
BRANCH  13  14
ATOM     14  O   UNK A   2       3.436  -2.015  -0.424  0.00  0.00    -0.479 OA
ATOM     15  H   UNK A   2       3.502  -1.182  -0.847  0.00  0.00    +0.295 HD
ENDBRANCH  13  14
ENDBRANCH   1  13
BRANCH   1  16
ATOM     16  C   UNK A   2      -0.058  -1.759  -0.427  0.00  0.00    +0.034 C 
BRANCH  16  20
ATOM     17  O   UNK A   2      -1.844   1.217   0.878  0.00  0.00    -0.346 OA
ATOM     18  O   UNK A   2      -5.030   0.831   0.173  0.00  0.00    -0.293 OA
ATOM     19  C   UNK A   2      -1.530  -0.183   0.839  0.00  0.00    +0.150 C 
ATOM     20  C   UNK A   2      -1.154  -0.699  -0.524  0.00  0.00    +0.033 C 
ATOM     21  C   UNK A   2      -2.932   0.308   1.085  0.00  0.00    +0.199 C 
ATOM     22  C   UNK A   2      -2.395  -1.277  -1.220  0.00  0.00    +0.010 C 
ATOM     23  C   UNK A   2      -3.499  -0.231  -1.346  0.00  0.00    +0.067 C 
ATOM     24  C   UNK A   2      -3.929   0.324  -0.007  0.00  0.00    +0.180 C 
ENDBRANCH  16  20
ENDBRANCH   1  16
TORSDOF 7
