10446940
  -OEChem-03292013303D

 34 35  0     0  0  0  0  0  0999 V2000
    2.4724    1.4708    1.4550 S   0  0  0  0  0  0  0  0  0  0  0  0
   -3.2984    2.3565    0.3955 O   0  0  0  0  0  0  0  0  0  0  0  0
   -1.4684   -0.4315    0.6173 N   0  0  0  0  0  0  0  0  0  0  0  0
   -4.4207    0.4249   -0.2593 N   0  0  0  0  0  0  0  0  0  0  0  0
    2.1349   -0.7670    0.2056 N   0  0  0  0  0  0  0  0  0  0  0  0
    4.3876   -0.0524    0.4717 N   0  0  0  0  0  0  0  0  0  0  0  0
    6.2563    0.4499   -0.9784 N   0  0  0  0  0  0  0  0  0  0  0  0
    4.1453    1.1086   -1.5369 N   0  0  0  0  0  0  0  0  0  0  0  0
   -2.5974   -1.0988    0.3061 C   0  0  0  0  0  0  0  0  0  0  0  0
   -3.8855   -0.4649    0.7456 C   0  0  0  0  0  0  0  0  0  0  0  0
   -0.3111   -1.0064    0.2198 C   0  0  0  0  0  0  0  0  0  0  0  0
   -2.6393   -2.2998   -0.3744 C   0  0  0  0  0  0  0  0  0  0  0  0
    0.8863   -0.2898    0.5533 C   0  0  0  0  0  0  0  0  0  0  0  0
   -0.2376   -2.2072   -0.4678 C   0  0  0  0  0  0  0  0  0  0  0  0
   -1.4285   -2.8599   -0.7667 C   0  0  0  0  0  0  0  0  0  0  0  0
    0.8671    0.9090    1.2347 C   0  0  0  0  0  0  0  0  0  0  0  0
   -4.0779    1.7634   -0.3456 C   0  0  0  0  0  0  0  0  0  0  0  0
    3.0464    0.0797    0.6301 C   0  0  0  0  0  0  0  0  0  0  0  0
   -4.7589    2.4530   -1.4973 C   0  0  0  0  0  0  0  0  0  0  0  0
    4.9273    0.4618   -0.6084 C   0  0  0  0  0  0  0  0  0  0  0  0
   -4.6451   -1.2252    0.9588 H   0  0  0  0  0  0  0  0  0  0  0  0
   -3.7213    0.0996    1.6710 H   0  0  0  0  0  0  0  0  0  0  0  0
   -3.5740   -2.7995   -0.6037 H   0  0  0  0  0  0  0  0  0  0  0  0
    0.7034   -2.6499   -0.7775 H   0  0  0  0  0  0  0  0  0  0  0  0
   -1.4132   -3.8029   -1.3048 H   0  0  0  0  0  0  0  0  0  0  0  0
   -5.0593    0.0322   -0.9451 H   0  0  0  0  0  0  0  0  0  0  0  0
    0.0301    1.4815    1.6104 H   0  0  0  0  0  0  0  0  0  0  0  0
   -4.6415    3.5358   -1.3993 H   0  0  0  0  0  0  0  0  0  0  0  0
   -4.3063    2.1250   -2.4370 H   0  0  0  0  0  0  0  0  0  0  0  0
   -5.8268    2.2167   -1.5047 H   0  0  0  0  0  0  0  0  0  0  0  0
    6.9580    0.0088   -0.3939 H   0  0  0  0  0  0  0  0  0  0  0  0
    6.5702    0.8809   -1.8410 H   0  0  0  0  0  0  0  0  0  0  0  0
    4.5613    1.5059   -2.3728 H   0  0  0  0  0  0  0  0  0  0  0  0
    3.1423    1.2210   -1.4437 H   0  0  0  0  0  0  0  0  0  0  0  0
  1 16  1  0  0  0  0
  1 18  1  0  0  0  0
  2 17  2  0  0  0  0
  3  9  2  0  0  0  0
  3 11  1  0  0  0  0
  4 10  1  0  0  0  0
  4 17  1  0  0  0  0
  4 26  1  0  0  0  0
  5 13  1  0  0  0  0
  5 18  2  0  0  0  0
  6 18  1  0  0  0  0
  6 20  2  0  0  0  0
  7 20  1  0  0  0  0
  7 31  1  0  0  0  0
  7 32  1  0  0  0  0
  8 20  1  0  0  0  0
  8 33  1  0  0  0  0
  8 34  1  0  0  0  0
  9 10  1  0  0  0  0
  9 12  1  0  0  0  0
 10 21  1  0  0  0  0
 10 22  1  0  0  0  0
 11 13  1  0  0  0  0
 11 14  2  0  0  0  0
 12 15  2  0  0  0  0
 12 23  1  0  0  0  0
 13 16  2  0  0  0  0
 14 15  1  0  0  0  0
 14 24  1  0  0  0  0
 15 25  1  0  0  0  0
 16 27  1  0  0  0  0
 17 19  1  0  0  0  0
 19 28  1  0  0  0  0
 19 29  1  0  0  0  0
 19 30  1  0  0  0  0
M  END
> <PUBCHEM_COMPOUND_CID>
10446940

> <PUBCHEM_CONFORMER_RMSD>
0.8

> <PUBCHEM_CONFORMER_DIVERSEORDER>
2
35
62
59
27
50
43
7
55
13
66
68
19
34
9
24
45
61
33
37
53
56
51
52
67
39
16
20
18
31
47
6
38
36
42
29
32
12
41
64
17
10
54
65
49
14
4
58
11
48
25
57
28
8
23
60
63
46
44
30
26
1
5
15
3
40
22
21

> <PUBCHEM_MMFF94_PARTIAL_CHARGES>
29
1 -0.08
10 0.44
11 0.36
12 -0.15
13 0.17
14 -0.15
15 -0.15
16 -0.11
17 0.57
18 0.5
19 0.06
2 -0.57
20 0.55
23 0.15
24 0.15
25 0.15
26 0.37
27 0.15
3 -0.62
31 0.4
32 0.4
33 0.4
34 0.4
4 -0.73
5 -0.57
6 -0.58
7 -0.85
8 -0.85
9 0.17

> <PUBCHEM_EFFECTIVE_ROTOR_COUNT>
5

> <PUBCHEM_PHARMACOPHORE_FEATURES>
8
1 2 acceptor
1 3 acceptor
1 4 donor
1 7 donor
1 8 donor
4 6 7 8 20 cation
5 1 5 13 16 18 rings
6 3 9 11 12 14 15 rings

> <PUBCHEM_HEAVY_ATOM_COUNT>
20

> <PUBCHEM_ATOM_DEF_STEREO_COUNT>
0

> <PUBCHEM_ATOM_UDEF_STEREO_COUNT>
0

> <PUBCHEM_BOND_DEF_STEREO_COUNT>
0

> <PUBCHEM_BOND_UDEF_STEREO_COUNT>
0

> <PUBCHEM_ISOTOPIC_ATOM_COUNT>
0

> <PUBCHEM_COMPONENT_COUNT>
1

> <PUBCHEM_CACTVS_TAUTO_COUNT>
6

> <PUBCHEM_CONFORMER_ID>
009F685C00000002

> <PUBCHEM_MMFF94_ENERGY>
50.1115

> <PUBCHEM_FEATURE_SELFOVERLAP>
40.652

> <PUBCHEM_SHAPE_FINGERPRINT>
105312 117 18412543193550227855
10591671 39 18333730235048193375
10615611 76 17386872580515658341
10759866 29 18187642440763839434
10803635 8 18342461452294177774
11370993 144 14274281550352505489
11552529 35 16879077544742214891
12403259 415 18273208725303452809
12500047 106 18341888610466720643
12596602 18 16370728136608429713
13134695 92 15841551929049192072
13690498 29 17984427596742371454
14251752 14 18409731742966837582
14251757 5 18340493360481331984
14508225 48 17768513243180189463
15099037 51 18131355223750133026
15163728 17 18267313032249264157
1601671 61 18334012770407383956
16079462 125 17703499004807537312
167882 2 18196371412159289447
17349148 13 13398633878747282532
17834072 8 17988927790375727450
17959699 21 18261400017892963044
18186145 218 17846216695596451971
200 152 14908188559623664186
20645477 56 18341898506614657275
20645477 70 16486980643563735148
21065201 7 18200305666848214938
21069387 34 14189573061292701586
21279426 13 18272095946638166190
21315764 371 12319455425331151078
23402539 116 15482680069289814842
23559900 14 17632296826494489594
3004659 81 18411989040597624950
32948 21 18412263943783183978
5283173 99 18271525394645332960
559249 180 18412824677671345218
59755656 215 18131354133256110711
59755656 520 17274556368859604051
6327066 14 18188483567718842061
633830 44 17530962484403651538
9709674 26 17556575779539963778

> <PUBCHEM_SHAPE_MULTIPOLES>
379.68
11.3
2.72
1.25
8.2
0.5
0.15
-6.55
4.29
-3.93
0.76
0.55
-0.59
0.77

> <PUBCHEM_SHAPE_SELFOVERLAP>
793.669

> <PUBCHEM_SHAPE_VOLUME>
218.7

> <PUBCHEM_COORDINATE_TYPE>
2
5
10

$$$$
