REMARK  Name = 10449544
REMARK  6 active torsions:
REMARK  status: ('A' for Active; 'I' for Inactive)
REMARK    1  A    between atoms: N_2  and  C_6
REMARK    2  A    between atoms: C_3  and  C_17
REMARK    3  A    between atoms: C_5  and  C_10
REMARK    4  A    between atoms: C_17  and  N_19
REMARK    5  A    between atoms: C_20  and  C_22
REMARK    6  A    between atoms: C_23  and  N_28
REMARK                            x       y       z     vdW  Elec       q    Type
REMARK                         _______ _______ _______ _____ _____    ______ ____
ROOT
ATOM      1  O   UNL     1       1.212  -0.775   0.556  0.00  0.00    -0.273 OA
ATOM      2  N   UNL     1      -0.452   0.850   0.421  0.00  0.00    -0.282 N 
ATOM      3  C   UNL     1       0.859   0.402   0.534  0.00  0.00    +0.246 C 
ATOM      4  H   UNL     1      -0.612   1.821   0.415  0.00  0.00    +0.155 HD
ENDROOT
BRANCH   2   6
ATOM      5  C   UNL     1      -2.809   0.465   0.207  0.00  0.00    +0.017 C 
ATOM      6  C   UNL     1      -1.529   0.020   0.319  0.00  0.00    +0.064 C 
BRANCH   5  10
ATOM      7  N   UNL     1      -5.348  -2.049  -0.038  0.00  0.00    -0.312 N 
ATOM      8  C   UNL     1      -5.330   0.182  -0.021  0.00  0.00    +0.015 C 
ATOM      9  C   UNL     1      -6.160  -0.938  -0.103  0.00  0.00    +0.048 C 
ATOM     10  C   UNL     1      -3.994  -0.294   0.095  0.00  0.00    +0.017 C 
ATOM     11  C   UNL     1      -4.038  -1.669   0.082  0.00  0.00    +0.062 C 
ATOM     12  C   UNL     1      -5.915   1.463  -0.065  0.00  0.00    +0.001 C 
ATOM     13  C   UNL     1      -7.550  -0.841  -0.227  0.00  0.00    +0.015 C 
ATOM     14  C   UNL     1      -7.305   1.576  -0.189  0.00  0.00    +0.000 C 
ATOM     15  C   UNL     1      -8.108   0.440  -0.269  0.00  0.00    +0.001 C 
ATOM     16  H   UNL     1      -5.664  -2.980  -0.073  0.00  0.00    +0.152 HD
ENDBRANCH   5  10
ENDBRANCH   2   6
BRANCH   3  17
ATOM     17  C   UNL     1       1.835   1.559   0.580  0.00  0.00    +0.176 C 
BRANCH  17  19
ATOM     18  O   UNL     1       3.558   0.959  -1.637  0.00  0.00    -0.270 OA
ATOM     19  N   UNL     1       3.178   1.064   0.649  0.00  0.00    -0.293 N 
ATOM     20  C   UNL     1       3.944   0.799  -0.483  0.00  0.00    +0.247 C 
ATOM     21  H   UNL     1       3.576   0.904   1.535  0.00  0.00    +0.150 HD
BRANCH  20  22
ATOM     22  C   UNL     1       5.309   0.265  -0.242  0.00  0.00    +0.066 C 
ATOM     23  C   UNL     1       5.521  -1.097  -0.160  0.00  0.00    +0.046 C 
ATOM     24  C   UNL     1       6.339   1.176  -0.107  0.00  0.00    +0.006 C 
ATOM     25  C   UNL     1       6.814  -1.568   0.068  0.00  0.00    +0.014 C 
ATOM     26  C   UNL     1       7.632   0.705   0.120  0.00  0.00    +0.000 C 
ATOM     27  C   UNL     1       7.870  -0.667   0.208  0.00  0.00    +0.001 C 
BRANCH  23  28
ATOM     28  N   UNL     1       4.466  -2.026  -0.299  0.00  0.00    -0.357 N 
ATOM     29  H   UNL     1       3.548  -1.708  -0.460  0.00  0.00    +0.142 HD
ATOM     30  H   UNL     1       4.649  -2.991  -0.235  0.00  0.00    +0.142 HD
ENDBRANCH  23  28
ENDBRANCH  20  22
ENDBRANCH  17  19
ENDBRANCH   3  17
TORSDOF 6
