10448569
  -OEChem-03292013303D

 44 43  0     1  0  0  0  0  0999 V2000
   -0.6864    2.1710    1.3251 O   0  0  0  0  0  0  0  0  0  0  0  0
   -1.6845   -1.2304    1.0364 O   0  0  0  0  0  0  0  0  0  0  0  0
    0.9594   -0.6476   -1.6282 O   0  0  0  0  0  0  0  0  0  0  0  0
    2.9992   -0.0251    0.9099 O   0  0  0  0  0  0  0  0  0  0  0  0
   -2.6924    0.6316    1.9367 O   0  0  0  0  0  0  0  0  0  0  0  0
   -2.8995    1.2967   -1.2318 O   0  0  0  0  0  0  0  0  0  0  0  0
   -1.2932   -1.0904   -1.8379 O   0  0  0  0  0  0  0  0  0  0  0  0
    2.1318    2.0974    0.6716 O   0  0  0  0  0  0  0  0  0  0  0  0
   -0.5473    0.8439    0.7823 C   0  0  1  0  0  0  0  0  0  0  0  0
   -0.5407    0.9693   -0.7689 C   0  0  2  0  0  0  0  0  0  0  0  0
    0.7244    0.2610    1.4289 C   0  0  0  0  0  0  0  0  0  0  0  0
   -1.7720    0.1009    1.3263 C   0  0  0  0  0  0  0  0  0  0  0  0
   -1.7500    1.7253   -1.3302 C   0  0  0  0  0  0  0  0  0  0  0  0
   -0.3696   -0.3757   -1.4703 C   0  0  0  0  0  0  0  0  0  0  0  0
    2.0119    0.9168    0.9692 C   0  0  0  0  0  0  0  0  0  0  0  0
   -1.4639    2.9965   -2.0888 C   0  0  0  0  0  0  0  0  0  0  0  0
   -2.7717   -2.0382    1.4977 C   0  0  0  0  0  0  0  0  0  0  0  0
    1.2629   -1.8828   -2.2837 C   0  0  0  0  0  0  0  0  0  0  0  0
    4.2724    0.4445    0.4555 C   0  0  0  0  0  0  0  0  0  0  0  0
   -2.5216   -3.4766    1.0974 C   0  0  0  0  0  0  0  0  0  0  0  0
    1.3810   -2.9767   -1.2441 C   0  0  0  0  0  0  0  0  0  0  0  0
    5.2498   -0.7114    0.4469 C   0  0  0  0  0  0  0  0  0  0  0  0
    0.3179    1.5870   -1.0650 H   0  0  0  0  0  0  0  0  0  0  0  0
    0.7913   -0.8105    1.2034 H   0  0  0  0  0  0  0  0  0  0  0  0
    0.6926    0.3581    2.5213 H   0  0  0  0  0  0  0  0  0  0  0  0
   -0.6392    2.1151    2.2949 H   0  0  0  0  0  0  0  0  0  0  0  0
   -0.9169    3.6915   -1.4467 H   0  0  0  0  0  0  0  0  0  0  0  0
   -2.4047    3.4661   -2.3889 H   0  0  0  0  0  0  0  0  0  0  0  0
   -0.8793    2.7655   -2.9824 H   0  0  0  0  0  0  0  0  0  0  0  0
   -3.7054   -1.6855    1.0456 H   0  0  0  0  0  0  0  0  0  0  0  0
   -2.8442   -1.9647    2.5884 H   0  0  0  0  0  0  0  0  0  0  0  0
    2.2228   -1.7508   -2.7933 H   0  0  0  0  0  0  0  0  0  0  0  0
    0.5211   -2.1321   -3.0508 H   0  0  0  0  0  0  0  0  0  0  0  0
    4.6336    1.2300    1.1286 H   0  0  0  0  0  0  0  0  0  0  0  0
    4.1708    0.8505   -0.5571 H   0  0  0  0  0  0  0  0  0  0  0  0
   -1.5805   -3.8373    1.5255 H   0  0  0  0  0  0  0  0  0  0  0  0
   -2.4288   -3.5628    0.0097 H   0  0  0  0  0  0  0  0  0  0  0  0
   -3.3353   -4.1243    1.4354 H   0  0  0  0  0  0  0  0  0  0  0  0
    1.6650   -3.9252   -1.7085 H   0  0  0  0  0  0  0  0  0  0  0  0
    2.1319   -2.7144   -0.4913 H   0  0  0  0  0  0  0  0  0  0  0  0
    0.4343   -3.1174   -0.7124 H   0  0  0  0  0  0  0  0  0  0  0  0
    6.2360   -0.3875    0.1028 H   0  0  0  0  0  0  0  0  0  0  0  0
    5.3481   -1.1406    1.4494 H   0  0  0  0  0  0  0  0  0  0  0  0
    4.8921   -1.5128   -0.2082 H   0  0  0  0  0  0  0  0  0  0  0  0
  1  9  1  0  0  0  0
  1 26  1  0  0  0  0
  2 12  1  0  0  0  0
  2 17  1  0  0  0  0
  3 14  1  0  0  0  0
  3 18  1  0  0  0  0
  4 15  1  0  0  0  0
  4 19  1  0  0  0  0
  5 12  2  0  0  0  0
  6 13  2  0  0  0  0
  7 14  2  0  0  0  0
  8 15  2  0  0  0  0
  9 10  1  0  0  0  0
  9 11  1  0  0  0  0
  9 12  1  0  0  0  0
 10 13  1  0  0  0  0
 10 14  1  0  0  0  0
 10 23  1  0  0  0  0
 11 15  1  0  0  0  0
 11 24  1  0  0  0  0
 11 25  1  0  0  0  0
 13 16  1  0  0  0  0
 16 27  1  0  0  0  0
 16 28  1  0  0  0  0
 16 29  1  0  0  0  0
 17 20  1  0  0  0  0
 17 30  1  0  0  0  0
 17 31  1  0  0  0  0
 18 21  1  0  0  0  0
 18 32  1  0  0  0  0
 18 33  1  0  0  0  0
 19 22  1  0  0  0  0
 19 34  1  0  0  0  0
 19 35  1  0  0  0  0
 20 36  1  0  0  0  0
 20 37  1  0  0  0  0
 20 38  1  0  0  0  0
 21 39  1  0  0  0  0
 21 40  1  0  0  0  0
 21 41  1  0  0  0  0
 22 42  1  0  0  0  0
 22 43  1  0  0  0  0
 22 44  1  0  0  0  0
M  END
> <PUBCHEM_COMPOUND_CID>
10448569

> <PUBCHEM_CONFORMER_RMSD>
1

> <PUBCHEM_CONFORMER_DIVERSEORDER>
1
66
6
95
131
49
206
33
48
197
111
113
182
16
128
178
198
150
119
144
92
143
159
170
140
77
53
201
157
208
155
204
115
188
46
88
10
114
93
185
184
45
122
187
121
52
168
162
194
2
186
107
153
183
189
147
152
75
156
139
15
23
141
87
175
137
210
112
109
29
180
203
195
70
196
215
172
98
56
69
96
13
118
40
126
216
161
91
36
123
148
149
62
110
94
151
205
22
50
57
138
191
79
218
176
173
97
212
37
132
60
177
24
209
42
130
72
193
25
134
120
64
166
207
100
192
85
74
101
108
38
135
67
217
164
61
58
167
117
27
219
99
211
202
102
19
142
31
65
105
136
18
129
51
158
160
44
174
78
133
179
165
34
28
43
127
199
21
171
73
181
71
169
32
54
213
84
47
68
3
12
59
8
41
14
83
200
124
104
125
163
154
11
35
90
86
145
89
39
55
116
5
190
82
76
17
214
26
9
80
7
63
30
103
4
146
106
20
81

> <PUBCHEM_MMFF94_PARTIAL_CHARGES>
20
1 -0.68
10 0.12
11 0.06
12 0.66
13 0.45
14 0.66
15 0.66
16 0.06
17 0.28
18 0.28
19 0.28
2 -0.43
26 0.4
3 -0.43
4 -0.43
5 -0.57
6 -0.57
7 -0.57
8 -0.57
9 0.34

> <PUBCHEM_EFFECTIVE_ROTOR_COUNT>
12

> <PUBCHEM_PHARMACOPHORE_FEATURES>
7
1 1 acceptor
1 1 donor
1 10 anion
1 5 acceptor
1 6 acceptor
1 7 acceptor
1 8 acceptor

> <PUBCHEM_HEAVY_ATOM_COUNT>
22

> <PUBCHEM_ATOM_DEF_STEREO_COUNT>
0

> <PUBCHEM_ATOM_UDEF_STEREO_COUNT>
2

> <PUBCHEM_BOND_DEF_STEREO_COUNT>
0

> <PUBCHEM_BOND_UDEF_STEREO_COUNT>
0

> <PUBCHEM_ISOTOPIC_ATOM_COUNT>
0

> <PUBCHEM_COMPONENT_COUNT>
1

> <PUBCHEM_CACTVS_TAUTO_COUNT>
5

> <PUBCHEM_CONFORMER_ID>
009F6EB900000001

> <PUBCHEM_MMFF94_ENERGY>
27.9798

> <PUBCHEM_FEATURE_SELFOVERLAP>
35.539

> <PUBCHEM_SHAPE_FINGERPRINT>
11578080 2 17903949689107963180
12173636 292 17605253121906261744
12592029 89 18057301938787597094
12633257 1 18340786891367952834
13583140 156 18336813244203897736
16945 1 18126034656871055441
17357779 13 14779542443994856570
17980427 26 17406562407439677505
22112679 90 15720258100775930916
229495 10 17979907538415258936
23419403 2 17910410389504978365
57100710 210 18040716991541807906
5845 1 14942489628843740305

> <PUBCHEM_SHAPE_MULTIPOLES>
405.8
5.76
3.34
2.39
8.16
1.28
0.88
1.36
-2.18
-2.62
0.92
-0.71
0.18
2.14

> <PUBCHEM_SHAPE_SELFOVERLAP>
796.575

> <PUBCHEM_SHAPE_VOLUME>
242

> <PUBCHEM_COORDINATE_TYPE>
2
5
10

$$$$
