REMARK  Name = 10448566
REMARK  4 active torsions:
REMARK  status: ('A' for Active; 'I' for Inactive)
REMARK    1  A    between atoms: C_2  and  N_13
REMARK    2  A    between atoms: C_3  and  C_22
REMARK    3  A    between atoms: C_10  and  N_20
REMARK    4  A    between atoms: C_22  and  O_23
REMARK                            x       y       z     vdW  Elec       q    Type
REMARK                         _______ _______ _______ _____ _____    ______ ____
ROOT
ATOM      1  O   UNL     1       1.412  -2.068   0.097  0.00  0.00    -0.468 OA
ATOM      2  C   UNL     1       0.655   0.701   0.296  0.00  0.00    +0.056 C 
ATOM      3  C   UNL     1       2.374  -1.092   0.510  0.00  0.00    +0.240 C 
ATOM      4  C   UNL     1      -0.344  -0.369   0.160  0.00  0.00    +0.049 C 
ATOM      5  C   UNL     1       1.933   0.341   0.469  0.00  0.00    +0.039 C 
ATOM      6  C   UNL     1       0.095  -1.698   0.070  0.00  0.00    +0.141 C 
ATOM      7  C   UNL     1       2.904  -1.482   1.887  0.00  0.00    +0.060 C 
ATOM      8  C   UNL     1      -1.726  -0.124   0.109  0.00  0.00    +0.028 C 
ATOM      9  C   UNL     1      -0.819  -2.747  -0.088  0.00  0.00    +0.039 C 
ATOM     10  C   UNL     1      -2.637  -1.174  -0.038  0.00  0.00    +0.143 C 
ATOM     11  C   UNL     1      -2.184  -2.485  -0.139  0.00  0.00    +0.027 C 
ENDROOT
BRANCH   2  13
ATOM     12  O   UNL     1       0.479   2.461  -2.054  0.00  0.00    -0.275 OA
ATOM     13  N   UNL     1       0.306   2.018   0.259  0.00  0.00    -0.259 N 
ATOM     14  C   UNL     1       0.013   2.782   1.447  0.00  0.00    +0.099 C 
ATOM     15  C   UNL     1      -0.715   3.999   0.909  0.00  0.00    +0.031 C 
ATOM     16  C   UNL     1      -0.110   4.200  -0.474  0.00  0.00    +0.087 C 
ATOM     17  C   UNL     1       0.248   2.795  -0.901  0.00  0.00    +0.229 C 
ENDBRANCH   2  13
BRANCH  10  20
ATOM     18  O   UNL     1      -4.832  -1.856  -0.223  0.00  0.00    -0.126 OA
ATOM     19  O   UNL     1      -4.420   0.288   0.006  0.00  0.00    -0.126 OA
ATOM     20  N   UNL     1      -4.030  -0.901  -0.087  0.00  0.00    +0.058 N 
ENDBRANCH  10  20
BRANCH   3  22
ATOM     21  O   UNL     1       3.432  -1.968  -1.482  0.00  0.00    -0.246 OA
ATOM     22  C   UNL     1       3.464  -1.223  -0.514  0.00  0.00    +0.354 C 
BRANCH  22  23
ATOM     23  O   UNL     1       4.499  -0.399  -0.220  0.00  0.00    -0.478 OA
ATOM     24  H   UNL     1       4.461   0.148   0.540  0.00  0.00    +0.295 HD
ENDBRANCH  22  23
ENDBRANCH   3  22
TORSDOF 4
