10444353
  -OEChem-03292013303D

 26 26  0     1  0  0  0  0  0999 V2000
   -2.7386   -0.5504    0.0130 S   0  0  0  0  0  0  0  0  0  0  0  0
   -1.7202    0.7182    0.1478 O   0  0  0  0  0  0  0  0  0  0  0  0
   -0.0274    2.7415   -0.9851 O   0  0  0  0  0  0  0  0  0  0  0  0
    3.6397   -1.3469   -0.2831 O   0  0  0  0  0  0  0  0  0  0  0  0
    1.6092   -1.6939   -1.2592 O   0  0  0  0  0  0  0  0  0  0  0  0
   -4.2140    0.1204    0.1984 O   0  0  0  0  0  0  0  0  0  0  0  0
   -2.6477   -1.0365   -1.3512 O   0  0  0  0  0  0  0  0  0  0  0  0
   -2.5169   -1.4555    1.1255 O   0  0  0  0  0  0  0  0  0  0  0  0
    2.3947    0.7350    0.9920 N   0  0  0  0  0  0  0  0  0  0  0  0
   -0.3277    0.5338   -0.0987 C   0  0  2  0  0  0  0  0  0  0  0  0
    0.2240   -0.5011    0.8826 C   0  0  0  0  0  0  0  0  0  0  0  0
    0.3851    1.8741    0.0697 C   0  0  1  0  0  0  0  0  0  0  0  0
    1.7498   -0.5759    0.8787 C   0  0  1  0  0  0  0  0  0  0  0  0
    1.9020    1.7003    0.0084 C   0  0  0  0  0  0  0  0  0  0  0  0
    2.2880   -1.2631   -0.3388 C   0  0  0  0  0  0  0  0  0  0  0  0
   -0.2169    0.1876   -1.1333 H   0  0  0  0  0  0  0  0  0  0  0  0
   -0.1682   -1.4973    0.6527 H   0  0  0  0  0  0  0  0  0  0  0  0
   -0.1212   -0.2573    1.8966 H   0  0  0  0  0  0  0  0  0  0  0  0
    0.0874    2.3504    1.0113 H   0  0  0  0  0  0  0  0  0  0  0  0
    2.0499   -1.1893    1.7378 H   0  0  0  0  0  0  0  0  0  0  0  0
    2.2164    1.4151   -1.0039 H   0  0  0  0  0  0  0  0  0  0  0  0
    2.3776    2.6707    0.1948 H   0  0  0  0  0  0  0  0  0  0  0  0
    3.4067    0.6416    0.9147 H   0  0  0  0  0  0  0  0  0  0  0  0
    0.2398    2.3393   -1.8292 H   0  0  0  0  0  0  0  0  0  0  0  0
    4.0119   -1.7944   -1.0727 H   0  0  0  0  0  0  0  0  0  0  0  0
   -4.3043    0.7346    0.9644 H   0  0  0  0  0  0  0  0  0  0  0  0
  1  2  1  0  0  0  0
  1  6  1  0  0  0  0
  1  7  2  0  0  0  0
  1  8  2  0  0  0  0
  2 10  1  0  0  0  0
  3 12  1  0  0  0  0
  3 24  1  0  0  0  0
  4 15  1  0  0  0  0
  4 25  1  0  0  0  0
  5 15  2  0  0  0  0
  6 26  1  0  0  0  0
  9 13  1  0  0  0  0
  9 14  1  0  0  0  0
  9 23  1  0  0  0  0
 10 11  1  0  0  0  0
 10 12  1  0  0  0  0
 10 16  1  0  0  0  0
 11 13  1  0  0  0  0
 11 17  1  0  0  0  0
 11 18  1  0  0  0  0
 12 14  1  0  0  0  0
 12 19  1  0  0  0  0
 13 15  1  0  0  0  0
 13 20  1  0  0  0  0
 14 21  1  0  0  0  0
 14 22  1  0  0  0  0
M  END
> <PUBCHEM_COMPOUND_CID>
10444353

> <PUBCHEM_CONFORMER_RMSD>
0.6

> <PUBCHEM_CONFORMER_DIVERSEORDER>
1
11
17
6
8
10
9
4
13
16
3
2
12
7
15
5
14

> <PUBCHEM_MMFF94_PARTIAL_CHARGES>
18
1 1.67
10 0.28
12 0.28
13 0.33
14 0.27
15 0.66
2 -0.46
23 0.36
24 0.4
25 0.5
26 0.5
3 -0.68
4 -0.65
5 -0.57
6 -0.68
7 -0.65
8 -0.65
9 -0.9

> <PUBCHEM_EFFECTIVE_ROTOR_COUNT>
4.2

> <PUBCHEM_PHARMACOPHORE_FEATURES>
12
1 3 acceptor
1 3 donor
1 4 acceptor
1 5 acceptor
1 6 acceptor
1 7 acceptor
1 8 acceptor
1 9 cation
1 9 donor
3 4 5 15 anion
4 1 6 7 8 anion
6 9 10 11 12 13 14 rings

> <PUBCHEM_HEAVY_ATOM_COUNT>
15

> <PUBCHEM_ATOM_DEF_STEREO_COUNT>
3

> <PUBCHEM_ATOM_UDEF_STEREO_COUNT>
0

> <PUBCHEM_BOND_DEF_STEREO_COUNT>
0

> <PUBCHEM_BOND_UDEF_STEREO_COUNT>
0

> <PUBCHEM_ISOTOPIC_ATOM_COUNT>
0

> <PUBCHEM_COMPONENT_COUNT>
1

> <PUBCHEM_CACTVS_TAUTO_COUNT>
1

> <PUBCHEM_CONFORMER_ID>
009F5E4100000001

> <PUBCHEM_MMFF94_ENERGY>
18.7311

> <PUBCHEM_FEATURE_SELFOVERLAP>
61.012

> <PUBCHEM_SHAPE_FINGERPRINT>
1 1 17905333175272561556
10353120 184 18114181891427060817
10922523 26 18413105048608806541
116883 192 18339922593682521197
12138202 78 18410294731074012552
12138202 97 17760078515446292268
12346645 6 18271524298721510980
12932764 1 16950271936579669267
13296908 3 18335422400153906147
15501101 241 18202558488642148104
15775835 57 17346596438860907395
161256 15 18410289181897222800
16945 1 18196650919919042104
17990270 104 18263645232862010851
18186145 218 18186792587585888467
20201158 50 18412546474705190739
20339313 130 18409737269983190225
20511035 2 17467912312821698240
20645477 70 18264478663240438951
20711985 344 18118677717000290169
20871998 22 18410854317904361472
20871999 31 18190181183074197629
21524375 3 17033599760635800757
22721475 48 18270404884273268642
23402539 116 18115870707423666398
23419403 2 12654038316691171400
23557571 272 18197221343743052606
23559900 14 17475784357217226346
2748010 2 18335969913630952956
449060 23 18341327812354997323
7364860 26 18270120243853205793
81228 2 18191870011349089009

> <PUBCHEM_SHAPE_MULTIPOLES>
266.48
5.29
2.19
1.07
3.36
1.13
0.08
-2.18
0.01
-0.98
0.58
0.04
-0.26
0.4

> <PUBCHEM_SHAPE_SELFOVERLAP>
526.946

> <PUBCHEM_SHAPE_VOLUME>
158.2

> <PUBCHEM_COORDINATE_TYPE>
2
5
10

$$$$
