REMARK  Name = 10448569
REMARK  13 active torsions:
REMARK  status: ('A' for Active; 'I' for Inactive)
REMARK    1  A    between atoms: C_1  and  O_2
REMARK    2  A    between atoms: C_1  and  C_5
REMARK    3  A    between atoms: C_1  and  C_9
REMARK    4  A    between atoms: C_1  and  C_18
REMARK    5  A    between atoms: C_5  and  O_6
REMARK    6  A    between atoms: O_6  and  C_7
REMARK    7  A    between atoms: C_9  and  C_11
REMARK    8  A    between atoms: C_9  and  C_14
REMARK    9  A    between atoms: C_14  and  O_15
REMARK   10  A    between atoms: O_15  and  C_16
REMARK   11  A    between atoms: C_18  and  C_20
REMARK   12  A    between atoms: C_20  and  O_21
REMARK   13  A    between atoms: O_21  and  C_22
REMARK                            x       y       z     vdW  Elec       q    Type
REMARK                         _______ _______ _______ _____ _____    ______ ____
ROOT
ATOM      1  C   UNL     1      -0.547   0.844   0.782  0.00  0.00    +0.204 C 
ENDROOT
BRANCH   1   2
ATOM      2  O   UNL     1      -0.686   2.171   1.325  0.00  0.00    -0.375 OA
ATOM      3  H   UNL     1       0.056   2.721   1.029  0.00  0.00    +0.211 HD
ENDBRANCH   1   2
BRANCH   1   5
ATOM      4  O   UNL     1      -2.692   0.632   1.937  0.00  0.00    -0.247 OA
ATOM      5  C   UNL     1      -1.772   0.101   1.326  0.00  0.00    +0.343 C 
BRANCH   5   6
ATOM      6  O   UNL     1      -1.685  -1.230   1.036  0.00  0.00    -0.447 OA
BRANCH   6   7
ATOM      7  C   UNL     1      -2.772  -2.038   1.498  0.00  0.00    +0.209 C 
ATOM      8  C   UNL     1      -2.522  -3.477   1.097  0.00  0.00    +0.051 C 
ENDBRANCH   6   7
ENDBRANCH   5   6
ENDBRANCH   1   5
BRANCH   1   9
ATOM      9  C   UNL     1      -0.541   0.969  -0.769  0.00  0.00    +0.191 C 
BRANCH   9  11
ATOM     10  O   UNL     1      -2.900   1.297  -1.232  0.00  0.00    -0.295 OA
ATOM     11  C   UNL     1      -1.750   1.725  -1.330  0.00  0.00    +0.164 C 
ATOM     12  C   UNL     1      -1.464   2.997  -2.089  0.00  0.00    +0.073 C 
ENDBRANCH   9  11
BRANCH   9  14
ATOM     13  O   UNL     1      -1.293  -1.090  -1.838  0.00  0.00    -0.250 OA
ATOM     14  C   UNL     1      -0.370  -0.376  -1.470  0.00  0.00    +0.327 C 
BRANCH  14  15
ATOM     15  O   UNL     1       0.959  -0.648  -1.628  0.00  0.00    -0.448 OA
BRANCH  15  16
ATOM     16  C   UNL     1       1.263  -1.883  -2.284  0.00  0.00    +0.209 C 
ATOM     17  C   UNL     1       1.381  -2.977  -1.244  0.00  0.00    +0.051 C 
ENDBRANCH  15  16
ENDBRANCH  14  15
ENDBRANCH   9  14
ENDBRANCH   1   9
BRANCH   1  18
ATOM     18  C   UNL     1       0.724   0.261   1.429  0.00  0.00    +0.148 C 
BRANCH  18  20
ATOM     19  O   UNL     1       2.132   2.097   0.672  0.00  0.00    -0.250 OA
ATOM     20  C   UNL     1       2.012   0.917   0.969  0.00  0.00    +0.320 C 
BRANCH  20  21
ATOM     21  O   UNL     1       2.999  -0.025   0.910  0.00  0.00    -0.448 OA
BRANCH  21  22
ATOM     22  C   UNL     1       4.272   0.445   0.456  0.00  0.00    +0.209 C 
ATOM     23  C   UNL     1       5.250  -0.711   0.447  0.00  0.00    +0.051 C 
ENDBRANCH  21  22
ENDBRANCH  20  21
ENDBRANCH  18  20
ENDBRANCH   1  18
TORSDOF 13
