REMARK  Name = 10446940
REMARK  5 active torsions:
REMARK  status: ('A' for Active; 'I' for Inactive)
REMARK    1  A    between atoms: C_3  and  C_16
REMARK    2  A    between atoms: C_5  and  N_6
REMARK    3  A    between atoms: N_6  and  C_9
REMARK    4  A    between atoms: C_15  and  C_20
REMARK    5  A    between atoms: C_20  and  N_22
REMARK                            x       y       z     vdW  Elec       q    Type
REMARK                         _______ _______ _______ _____ _____    ______ ____
ROOT
ATOM      1  S   UNL     1       2.472   1.471   1.455  0.00  0.00    -0.055 S 
ATOM      2  N   UNL     1       2.135  -0.767   0.206  0.00  0.00    -0.378 NA
ATOM      3  C   UNL     1       0.886  -0.290   0.553  0.00  0.00    +0.148 C 
ATOM      4  C   UNL     1       0.867   0.909   1.235  0.00  0.00    +0.127 C 
ATOM      5  C   UNL     1       3.046   0.080   0.630  0.00  0.00    +0.244 C 
ENDROOT
BRANCH   3   8
ATOM      6  N   UNL     1      -1.468  -0.431   0.617  0.00  0.00    -0.406 NA
ATOM      7  C   UNL     1      -2.597  -1.099   0.306  0.00  0.00    +0.128 C 
ATOM      8  C   UNL     1      -0.311  -1.006   0.220  0.00  0.00    +0.139 C 
ATOM      9  C   UNL     1      -2.639  -2.300  -0.374  0.00  0.00    +0.025 C 
ATOM     10  C   UNL     1      -0.238  -2.207  -0.468  0.00  0.00    +0.087 C 
ATOM     11  C   UNL     1      -1.429  -2.860  -0.767  0.00  0.00    -0.016 C 
BRANCH   7  12
ATOM     12  C   UNL     1      -3.885  -0.465   0.746  0.00  0.00    +0.149 C 
BRANCH  12  14
ATOM     13  O   UNL     1      -3.298   2.357   0.396  0.00  0.00    -0.275 OA
ATOM     14  N   UNL     1      -4.421   0.425  -0.259  0.00  0.00    -0.298 N 
ATOM     15  C   UNL     1      -4.078   1.763  -0.346  0.00  0.00    +0.223 C 
ATOM     16  C   UNL     1      -4.759   2.453  -1.497  0.00  0.00    +0.095 C 
ATOM     17  H   UNL     1      -5.060   0.062  -0.914  0.00  0.00    +0.150 HD
ENDBRANCH  12  14
ENDBRANCH   7  12
ENDBRANCH   3   8
BRANCH   5  18
ATOM     18  N   UNL     1       4.388  -0.052   0.472  0.00  0.00    -0.178 NA
BRANCH  18  21
ATOM     19  N   UNL     1       6.256   0.450  -0.978  0.00  0.00    -0.370 N 
ATOM     20  N   UNL     1       4.145   1.109  -1.537  0.00  0.00    -0.370 N 
ATOM     21  C   UNL     1       4.927   0.462  -0.608  0.00  0.00    +0.196 C 
ATOM     22  H   UNL     1       6.925   0.017  -0.399  0.00  0.00    +0.159 HD
ATOM     23  H   UNL     1       6.536   0.874  -1.821  0.00  0.00    +0.159 HD
ATOM     24  H   UNL     1       3.175   1.188  -1.393  0.00  0.00    +0.159 HD
ATOM     25  H   UNL     1       4.556   1.492  -2.345  0.00  0.00    +0.159 HD
ENDBRANCH  18  21
ENDBRANCH   5  18
TORSDOF 5
