REMARK  Name = 10448726
REMARK  6 active torsions:
REMARK  status: ('A' for Active; 'I' for Inactive)
REMARK    1  A    between atoms: C_6  and  O_17
REMARK    2  A    between atoms: C_8  and  C_23
REMARK    3  A    between atoms: C_11  and  O_19
REMARK    4  A    between atoms: C_14  and  C_22
REMARK    5  A    between atoms: C_23  and  O_24
REMARK    6  A    between atoms: O_24  and  C_27
REMARK                            x       y       z     vdW  Elec       q    Type
REMARK                         _______ _______ _______ _____ _____    ______ ____
ROOT
ATOM      1  O   UNL     1       0.486  -1.689  -1.252  0.00  0.00    -0.236 OA
ATOM      2  N   UNL     1       0.778  -3.546   1.047  0.00  0.00    +0.388 N 
ATOM      3  N   UNL     1      -0.884  -1.591  -0.932  0.00  0.00    -0.239 N 
ATOM      4  C   UNL     1       0.787  -2.086   1.136  0.00  0.00    -0.024 C 
ATOM      5  C   UNL     1      -0.511  -2.863   1.079  0.00  0.00    -0.051 C 
ATOM      6  C   UNL     1       1.224  -1.278  -0.079  0.00  0.00    +0.196 C 
ATOM      7  C   UNL     1      -1.321  -2.772  -0.182  0.00  0.00    +0.109 C 
ATOM      8  C   UNL     1       1.001   0.255   0.122  0.00  0.00    +0.122 C 
ATOM      9  C   UNL     1      -0.486   0.585   0.076  0.00  0.00    +0.037 C 
ATOM     10  C   UNL     1      -1.387  -0.355  -0.465  0.00  0.00    +0.081 C 
ATOM     11  C   UNL     1      -0.969   1.800   0.581  0.00  0.00    +0.131 C 
ATOM     12  C   UNL     1      -2.757  -0.059  -0.489  0.00  0.00    +0.022 C 
ATOM     13  C   UNL     1      -2.334   2.083   0.545  0.00  0.00    +0.040 C 
ATOM     14  C   UNL     1      -3.226   1.156   0.010  0.00  0.00    +0.047 C 
ATOM     15  H   UNL     1       1.074  -4.101   1.850  0.00  0.00    -0.084 HD
ATOM     16  H   UNL     1       1.207  -4.219   0.411  0.00  0.00    -0.084 HD
ENDROOT
BRANCH   6  17
ATOM     17  O   UNL     1       2.615  -1.557  -0.272  0.00  0.00    -0.363 OA
ATOM     18  H   UNL     1       2.739  -2.511  -0.395  0.00  0.00    +0.213 HD
ENDBRANCH   6  17
BRANCH  11  19
ATOM     19  O   UNL     1      -0.128   2.719   1.135  0.00  0.00    -0.506 OA
ATOM     20  H   UNL     1       0.793   2.550   1.170  0.00  0.00    +0.292 HD
ENDBRANCH  11  19
BRANCH  14  22
ATOM     21  O   UNL     1      -5.489   0.675  -0.481  0.00  0.00    -0.283 OA
ATOM     22  C   UNL     1      -4.649   1.454  -0.024  0.00  0.00    +0.234 C 
ENDBRANCH  14  22
BRANCH   8  23
ATOM     23  C   UNL     1       1.711   1.073  -0.976  0.00  0.00    +0.219 C 
BRANCH  23  24
ATOM     24  O   UNL     1       3.088   0.771  -0.920  0.00  0.00    -0.434 OA
BRANCH  24  27
ATOM     25  O   UNL     1       3.424   2.493   0.570  0.00  0.00    -0.227 OA
ATOM     26  N   UNL     1       5.173   1.173  -0.129  0.00  0.00    -0.295 N 
ATOM     27  C   UNL     1       3.856   1.561  -0.101  0.00  0.00    +0.398 C 
ATOM     28  H   UNL     1       5.450   0.415  -0.692  0.00  0.00    +0.148 HD
ATOM     29  H   UNL     1       5.839   1.654   0.413  0.00  0.00    +0.148 HD
ENDBRANCH  24  27
ENDBRANCH  23  24
ENDBRANCH   8  23
TORSDOF 6
