10448726
  -OEChem-03292013303D

 38 41  0     1  0  0  0  0  0999 V2000
    0.4856   -1.6888   -1.2521 O   0  0  0  0  0  0  0  0  0  0  0  0
    2.6145   -1.5572   -0.2719 O   0  0  0  0  0  0  0  0  0  0  0  0
    3.0877    0.7709   -0.9205 O   0  0  0  0  0  0  0  0  0  0  0  0
   -0.1279    2.7191    1.1346 O   0  0  0  0  0  0  0  0  0  0  0  0
   -5.4895    0.6746   -0.4807 O   0  0  0  0  0  0  0  0  0  0  0  0
    3.4244    2.4925    0.5704 O   0  0  0  0  0  0  0  0  0  0  0  0
    0.7779   -3.5459    1.0469 N   0  0  0  0  0  0  0  0  0  0  0  0
   -0.8840   -1.5908   -0.9321 N   0  0  1  0  0  0  0  0  0  0  0  0
    5.1728    1.1733   -0.1294 N   0  0  0  0  0  0  0  0  0  0  0  0
    0.7872   -2.0863    1.1359 C   0  0  2  0  0  0  0  0  0  0  0  0
   -0.5112   -2.8634    1.0793 C   0  0  1  0  0  0  0  0  0  0  0  0
    1.2243   -1.2780   -0.0792 C   0  0  2  0  0  0  0  0  0  0  0  0
   -1.3215   -2.7722   -0.1819 C   0  0  0  0  0  0  0  0  0  0  0  0
    1.0009    0.2554    0.1218 C   0  0  2  0  0  0  0  0  0  0  0  0
   -0.4859    0.5851    0.0757 C   0  0  0  0  0  0  0  0  0  0  0  0
   -1.3873   -0.3551   -0.4646 C   0  0  0  0  0  0  0  0  0  0  0  0
    1.7107    1.0727   -0.9761 C   0  0  0  0  0  0  0  0  0  0  0  0
   -0.9693    1.7997    0.5814 C   0  0  0  0  0  0  0  0  0  0  0  0
   -2.7569   -0.0595   -0.4891 C   0  0  0  0  0  0  0  0  0  0  0  0
   -2.3339    2.0830    0.5453 C   0  0  0  0  0  0  0  0  0  0  0  0
   -3.2257    1.1560    0.0104 C   0  0  0  0  0  0  0  0  0  0  0  0
   -4.6489    1.4539   -0.0235 C   0  0  0  0  0  0  0  0  0  0  0  0
    3.8561    1.5612   -0.1007 C   0  0  0  0  0  0  0  0  0  0  0  0
    1.1285   -1.6859    2.0812 H   0  0  0  0  0  0  0  0  0  0  0  0
   -1.0982   -2.9877    1.9780 H   0  0  0  0  0  0  0  0  0  0  0  0
    0.9801   -3.9507    1.9605 H   0  0  0  0  0  0  0  0  0  0  0  0
   -1.1679   -3.6672   -0.7972 H   0  0  0  0  0  0  0  0  0  0  0  0
   -2.3915   -2.7382    0.0525 H   0  0  0  0  0  0  0  0  0  0  0  0
    1.4226    0.5089    1.1027 H   0  0  0  0  0  0  0  0  0  0  0  0
    1.5326    2.1514   -0.8976 H   0  0  0  0  0  0  0  0  0  0  0  0
    1.3499    0.7823   -1.9703 H   0  0  0  0  0  0  0  0  0  0  0  0
    3.1302   -0.9192    0.2477 H   0  0  0  0  0  0  0  0  0  0  0  0
   -3.4499   -0.7854   -0.9089 H   0  0  0  0  0  0  0  0  0  0  0  0
   -2.6946    3.0293    0.9423 H   0  0  0  0  0  0  0  0  0  0  0  0
    0.7829    2.3925    1.1715 H   0  0  0  0  0  0  0  0  0  0  0  0
   -4.9608    2.4297    0.3861 H   0  0  0  0  0  0  0  0  0  0  0  0
    5.4814    0.3941   -0.7010 H   0  0  0  0  0  0  0  0  0  0  0  0
    5.8772    1.6529    0.4211 H   0  0  0  0  0  0  0  0  0  0  0  0
  1  8  1  0  0  0  0
  1 12  1  0  0  0  0
  2 12  1  0  0  0  0
  2 32  1  0  0  0  0
  3 17  1  0  0  0  0
  3 23  1  0  0  0  0
  4 18  1  0  0  0  0
  4 35  1  0  0  0  0
  5 22  2  0  0  0  0
  6 23  2  0  0  0  0
  7 10  1  0  0  0  0
  7 11  1  0  0  0  0
  7 26  1  0  0  0  0
  8 13  1  0  0  0  0
  8 16  1  0  0  0  0
  9 23  1  0  0  0  0
  9 37  1  0  0  0  0
  9 38  1  0  0  0  0
 10 11  1  0  0  0  0
 10 12  1  0  0  0  0
 10 24  1  0  0  0  0
 11 13  1  0  0  0  0
 11 25  1  0  0  0  0
 12 14  1  0  0  0  0
 13 27  1  0  0  0  0
 13 28  1  0  0  0  0
 14 15  1  0  0  0  0
 14 17  1  0  0  0  0
 14 29  1  0  0  0  0
 15 16  2  0  0  0  0
 15 18  1  0  0  0  0
 16 19  1  0  0  0  0
 17 30  1  0  0  0  0
 17 31  1  0  0  0  0
 18 20  2  0  0  0  0
 19 21  2  0  0  0  0
 19 33  1  0  0  0  0
 20 21  1  0  0  0  0
 20 34  1  0  0  0  0
 21 22  1  0  0  0  0
 22 36  1  0  0  0  0
M  END
> <PUBCHEM_COMPOUND_CID>
10448726

> <PUBCHEM_CONFORMER_RMSD>
0.8

> <PUBCHEM_CONFORMER_DIVERSEORDER>
1
6
3
20
17
19
14
7
18
11
13
10
21
15
4
22
16
5
9
12
2
8

> <PUBCHEM_MMFF94_PARTIAL_CHARGES>
33
1 -0.26
10 -0.04
11 -0.04
12 0.65
13 0.46
14 0.14
15 -0.14
16 0.1
17 0.28
18 0.08
19 -0.15
2 -0.68
20 -0.15
21 0.09
22 0.42
23 0.78
24 0.1
25 0.1
26 0.36
3 -0.43
32 0.4
33 0.15
34 0.15
35 0.45
36 0.06
37 0.37
38 0.37
4 -0.53
5 -0.57
6 -0.57
7 -0.68
8 -0.49
9 -0.8

> <PUBCHEM_EFFECTIVE_ROTOR_COUNT>
4.8

> <PUBCHEM_PHARMACOPHORE_FEATURES>
11
1 2 acceptor
1 2 donor
1 4 donor
1 5 acceptor
1 6 acceptor
1 7 cation
1 7 donor
1 9 donor
6 1 8 12 14 15 16 rings
6 15 16 18 19 20 21 rings
7 1 7 8 10 11 12 13 rings

> <PUBCHEM_HEAVY_ATOM_COUNT>
23

> <PUBCHEM_ATOM_DEF_STEREO_COUNT>
0

> <PUBCHEM_ATOM_UDEF_STEREO_COUNT>
4

> <PUBCHEM_BOND_DEF_STEREO_COUNT>
0

> <PUBCHEM_BOND_UDEF_STEREO_COUNT>
0

> <PUBCHEM_ISOTOPIC_ATOM_COUNT>
0

> <PUBCHEM_COMPONENT_COUNT>
1

> <PUBCHEM_CACTVS_TAUTO_COUNT>
6

> <PUBCHEM_CONFORMER_ID>
009F6F5600000001

> <PUBCHEM_MMFF94_ENERGY>
82.5746

> <PUBCHEM_FEATURE_SELFOVERLAP>
56.463

> <PUBCHEM_SHAPE_FINGERPRINT>
10090160 65 18333730204598534037
10411042 1 17472133973616396539
10863032 1 18410296916969721135
10948715 1 18410856576851404807
10967382 1 18412827958319107317
1100329 8 18337103471649373810
12293681 160 18202565064037216209
12592029 89 18261110738190250193
12716301 132 18122052362998830801
12788726 201 17539709296775718230
13052359 8 18262523726617015298
13083527 12 18046330938804062081
13140716 1 18335417958767611330
13583140 156 16733539541306784361
146900 427 18342466898597604665
14787075 74 18413385462760152717
14790565 3 18272094838521013289
14955137 171 17189854171346587906
16945 1 18055624272969820615
17980427 23 17407089094635785773
19591789 44 18194685002203608489
19765921 60 18411133636849674445
19784866 34 18410006637558025525
19784866 9 18408599236709463777
20510252 161 18050573133958111442
20602899 9 15985112932856856310
21421861 104 17835536925067070305
21524375 3 18412268311306222156
22393880 68 18194407684518318813
23402539 116 18202277043772751052
23559900 14 17624697856568670543
2748010 2 18191331366662866899
298252 57 17917711322422020038
34934 24 18273210894240993949
350125 39 18194403294929853420
3759504 43 18187648058639220725
394222 165 18335700481889928667
404807 14 15618942314152010406
4340502 62 18259991470361518465
474 4 18260271845299438012
5104073 3 18262809437318054473
59755656 215 18342464707968884076
59755656 520 18333728048313877286
70251023 43 17840039446562612463
7364860 26 18195247719806900022
81228 2 18049745188643414328
84936 182 18268429040482842992
9709674 26 18272098253071949326
9981440 41 18197489843676446298
9999458 23 18189337874740805398

> <PUBCHEM_SHAPE_MULTIPOLES>
423.17
7.1
3.68
1.02
1.19
2.31
0.04
-6.14
-1
-0.95
1.27
-0.12
0.25
-0.35

> <PUBCHEM_SHAPE_SELFOVERLAP>
931.253

> <PUBCHEM_SHAPE_VOLUME>
224.3

> <PUBCHEM_COORDINATE_TYPE>
2
5
10

$$$$
