REMARK  Name = 10445498
REMARK  7 active torsions:
REMARK  status: ('A' for Active; 'I' for Inactive)
REMARK    1  A    between atoms: C_2  and  O_7
REMARK    2  A    between atoms: C_3  and  O_9
REMARK    3  A    between atoms: C_4  and  O_11
REMARK    4  A    between atoms: C_5  and  C_20
REMARK    5  A    between atoms: C_6  and  O_13
REMARK    6  A    between atoms: O_13  and  C_16
REMARK    7  A    between atoms: C_20  and  O_21
REMARK                            x       y       z     vdW  Elec       q    Type
REMARK                         _______ _______ _______ _____ _____    ______ ____
ROOT
ATOM      1  O   UNL     1       0.677   0.821  -0.086  0.00  0.00    -0.326 OA
ATOM      2  C   UNL     1       2.562  -1.343   0.030  0.00  0.00    +0.172 C 
ATOM      3  C   UNL     1       1.063  -1.576  -0.161  0.00  0.00    +0.196 C 
ATOM      4  C   UNL     1       2.961   0.070  -0.395  0.00  0.00    +0.169 C 
ATOM      5  C   UNL     1       2.037   1.110   0.243  0.00  0.00    +0.176 C 
ATOM      6  C   UNL     1       0.243  -0.433   0.437  0.00  0.00    +0.266 C 
ENDROOT
BRANCH   2   7
ATOM      7  O   UNL     1       3.293  -2.269  -0.776  0.00  0.00    -0.379 OA
ATOM      8  H   UNL     1       3.055  -3.175  -0.523  0.00  0.00    +0.211 HD
ENDBRANCH   2   7
BRANCH   3   9
ATOM      9  O   UNL     1       0.685  -2.787   0.493  0.00  0.00    -0.378 OA
ATOM     10  H   UNL     1       1.196  -3.526   0.127  0.00  0.00    +0.211 HD
ENDBRANCH   3   9
BRANCH   4  11
ATOM     11  O   UNL     1       4.304   0.322   0.010  0.00  0.00    -0.379 OA
ATOM     12  H   UNL     1       4.892  -0.336  -0.393  0.00  0.00    +0.211 HD
ENDBRANCH   4  11
BRANCH   6  13
ATOM     13  O   UNL     1      -1.126  -0.649   0.096  0.00  0.00    -0.327 OA
BRANCH  13  16
ATOM     14  O   UNL     1      -4.082  -0.581   0.561  0.00  0.00    -0.446 OA
ATOM     15  O   UNL     1      -4.728   0.079  -1.537  0.00  0.00    -0.250 OA
ATOM     16  C   UNL     1      -1.958   0.385   0.615  0.00  0.00    +0.173 C 
ATOM     17  C   UNL     1      -2.731   1.006  -0.524  0.00  0.00    +0.143 C 
ATOM     18  C   UNL     1      -3.041  -0.214   1.478  0.00  0.00    +0.238 C 
ATOM     19  C   UNL     1      -3.949   0.131  -0.598  0.00  0.00    +0.320 C 
ENDBRANCH  13  16
ENDBRANCH   6  13
BRANCH   5  20
ATOM     20  C   UNL     1       2.341   2.519  -0.257  0.00  0.00    +0.169 C 
BRANCH  20  21
ATOM     21  O   UNL     1       1.447   3.410   0.369  0.00  0.00    -0.379 OA
ATOM     22  H   UNL     1       1.624   4.313   0.064  0.00  0.00    +0.211 HD
ENDBRANCH  20  21
ENDBRANCH   5  20
TORSDOF 7
