REMARK  Name = 10448504
REMARK  7 active torsions:
REMARK  status: ('A' for Active; 'I' for Inactive)
REMARK    1  A    between atoms: C_2  and  C_17
REMARK    2  A    between atoms: C_3  and  N_7
REMARK    3  A    between atoms: C_8  and  C_10
REMARK    4  A    between atoms: C_17  and  C_18
REMARK    5  A    between atoms: C_18  and  C_20
REMARK    6  A    between atoms: C_20  and  C_22
REMARK    7  A    between atoms: C_22  and  O_23
REMARK                            x       y       z     vdW  Elec       q    Type
REMARK                         _______ _______ _______ _____ _____    ______ ____
ROOT
ATOM      1  S   UNL     1       0.198  -1.149  -0.095  0.00  0.00    -0.069 S 
ATOM      2  C   UNL     1       1.557  -0.111  -0.010  0.00  0.00    +0.066 C 
ATOM      3  C   UNL     1      -0.855   0.176   0.044  0.00  0.00    +0.081 C 
ATOM      4  C   UNL     1       1.191   1.210   0.122  0.00  0.00    +0.011 C 
ATOM      5  C   UNL     1      -0.224   1.373   0.153  0.00  0.00    +0.022 C 
ENDROOT
BRANCH   3   7
ATOM      6  O   UNL     1      -3.169   2.028   0.180  0.00  0.00    -0.270 OA
ATOM      7  N   UNL     1      -2.222  -0.119   0.030  0.00  0.00    -0.275 N 
ATOM      8  C   UNL     1      -3.283   0.794   0.097  0.00  0.00    +0.250 C 
ATOM      9  H   UNL     1      -2.466  -1.070  -0.033  0.00  0.00    +0.156 HD
BRANCH   8  10
ATOM     10  C   UNL     1      -4.616   0.216   0.034  0.00  0.00    +0.054 C 
ATOM     11  C   UNL     1      -5.680   0.968  -0.464  0.00  0.00    +0.005 C 
ATOM     12  C   UNL     1      -4.830  -1.092   0.470  0.00  0.00    +0.005 C 
ATOM     13  C   UNL     1      -6.958   0.413  -0.526  0.00  0.00    +0.000 C 
ATOM     14  C   UNL     1      -6.108  -1.647   0.408  0.00  0.00    +0.000 C 
ATOM     15  C   UNL     1      -7.172  -0.894  -0.089  0.00  0.00    +0.000 C 
ENDBRANCH   8  10
ENDBRANCH   3   7
BRANCH   2  17
ATOM     16  O   UNL     1       3.092  -1.904  -0.214  0.00  0.00    -0.290 OA
ATOM     17  C   UNL     1       2.866  -0.675  -0.078  0.00  0.00    +0.187 C 
BRANCH  17  18
ATOM     18  C   UNL     1       4.098   0.256  -0.002  0.00  0.00    +0.146 C 
BRANCH  18  20
ATOM     19  O   UNL     1       5.703  -1.580  -0.136  0.00  0.00    -0.284 OA
ATOM     20  C   UNL     1       5.465  -0.384  -0.053  0.00  0.00    +0.255 C 
BRANCH  20  22
ATOM     21  O   UNL     1       6.518   1.747   0.079  0.00  0.00    -0.242 OA
ATOM     22  C   UNL     1       6.646   0.540   0.039  0.00  0.00    +0.374 C 
BRANCH  22  23
ATOM     23  O   UNL     1       7.783  -0.165   0.011  0.00  0.00    -0.475 OA
ATOM     24  H   UNL     1       7.753  -1.101  -0.019  0.00  0.00    +0.295 HD
ENDBRANCH  22  23
ENDBRANCH  20  22
ENDBRANCH  18  20
ENDBRANCH  17  18
ENDBRANCH   2  17
TORSDOF 7
