10454451
  -OEChem-03292013303D

 52 55  0     1  0  0  0  0  0999 V2000
    0.1869   -1.5757   -0.8864 O   0  0  0  0  0  0  0  0  0  0  0  0
    1.5069   -4.5080    0.5357 O   0  0  0  0  0  0  0  0  0  0  0  0
   -1.2161   -4.8239    0.1465 O   0  0  0  0  0  0  0  0  0  0  0  0
   -0.2016    0.6365   -0.0001 O   0  0  0  0  0  0  0  0  0  0  0  0
    4.2297   -1.0819   -0.2250 O   0  0  0  0  0  0  0  0  0  0  0  0
    3.6260    3.6098    0.0726 O   0  0  0  0  0  0  0  0  0  0  0  0
    1.1512    4.4748    0.1895 O   0  0  0  0  0  0  0  0  0  0  0  0
   -6.5118    0.2516    0.1326 O   0  0  0  0  0  0  0  0  0  0  0  0
    1.4343   -1.6154   -0.1825 C   0  0  2  0  0  0  0  0  0  0  0  0
    0.5926   -3.5907    1.1378 C   0  0  1  0  0  0  0  0  0  0  0  0
    1.2445   -2.2114    1.2217 C   0  0  0  0  0  0  0  0  0  0  0  0
   -0.6818   -3.5142    0.2924 C   0  0  1  0  0  0  0  0  0  0  0  0
   -0.3953   -2.8716   -1.0723 C   0  0  1  0  0  0  0  0  0  0  0  0
    1.9987   -0.2129   -0.1117 C   0  0  0  0  0  0  0  0  0  0  0  0
   -1.6635   -2.6787   -1.8976 C   0  0  0  0  0  0  0  0  0  0  0  0
    1.1468    0.8881   -0.0215 C   0  0  0  0  0  0  0  0  0  0  0  0
    3.3803   -0.0205   -0.1381 C   0  0  0  0  0  0  0  0  0  0  0  0
    1.6769    2.1757    0.0413 C   0  0  0  0  0  0  0  0  0  0  0  0
    3.9092    1.2694   -0.0749 C   0  0  0  0  0  0  0  0  0  0  0  0
    3.0595    2.3726    0.0150 C   0  0  0  0  0  0  0  0  0  0  0  0
    0.7558    3.3186    0.1340 C   0  0  0  0  0  0  0  0  0  0  0  0
   -1.0726    1.7111    0.0958 C   0  0  0  0  0  0  0  0  0  0  0  0
   -0.6851    2.9950    0.1561 C   0  0  0  0  0  0  0  0  0  0  0  0
   -2.4988    1.3283    0.1049 C   0  0  0  0  0  0  0  0  0  0  0  0
    5.6259   -0.7930   -0.2460 C   0  0  0  0  0  0  0  0  0  0  0  0
   -3.4597    2.1870   -0.4346 C   0  0  0  0  0  0  0  0  0  0  0  0
   -2.8937    0.1057    0.6537 C   0  0  0  0  0  0  0  0  0  0  0  0
   -4.8069    1.8255   -0.4253 C   0  0  0  0  0  0  0  0  0  0  0  0
   -4.2408   -0.2559    0.6629 C   0  0  0  0  0  0  0  0  0  0  0  0
   -5.1975    0.6039    0.1234 C   0  0  0  0  0  0  0  0  0  0  0  0
    2.1113   -2.2429   -0.7760 H   0  0  0  0  0  0  0  0  0  0  0  0
    0.3719   -3.9708    2.1413 H   0  0  0  0  0  0  0  0  0  0  0  0
    2.2142   -2.2831    1.7288 H   0  0  0  0  0  0  0  0  0  0  0  0
    0.6001   -1.5574    1.8232 H   0  0  0  0  0  0  0  0  0  0  0  0
   -1.4208   -2.9069    0.8291 H   0  0  0  0  0  0  0  0  0  0  0  0
    0.2903   -3.4954   -1.6600 H   0  0  0  0  0  0  0  0  0  0  0  0
   -2.3832   -2.0431   -1.3731 H   0  0  0  0  0  0  0  0  0  0  0  0
   -1.4301   -2.1749   -2.8420 H   0  0  0  0  0  0  0  0  0  0  0  0
   -2.1432   -3.6355   -2.1241 H   0  0  0  0  0  0  0  0  0  0  0  0
    1.0520   -5.3643    0.4611 H   0  0  0  0  0  0  0  0  0  0  0  0
   -1.3915   -5.1710    1.0377 H   0  0  0  0  0  0  0  0  0  0  0  0
    4.9726    1.4846   -0.0914 H   0  0  0  0  0  0  0  0  0  0  0  0
   -1.3675    3.8322    0.2435 H   0  0  0  0  0  0  0  0  0  0  0  0
    6.1509   -1.7514   -0.3180 H   0  0  0  0  0  0  0  0  0  0  0  0
    5.9558   -0.3215    0.6861 H   0  0  0  0  0  0  0  0  0  0  0  0
    5.9058   -0.2124   -1.1316 H   0  0  0  0  0  0  0  0  0  0  0  0
    2.9425    4.2944    0.1349 H   0  0  0  0  0  0  0  0  0  0  0  0
   -3.1940    3.1369   -0.8909 H   0  0  0  0  0  0  0  0  0  0  0  0
   -2.1703   -0.5765    1.0925 H   0  0  0  0  0  0  0  0  0  0  0  0
   -5.5473    2.4971   -0.8513 H   0  0  0  0  0  0  0  0  0  0  0  0
   -4.5321   -1.2093    1.0955 H   0  0  0  0  0  0  0  0  0  0  0  0
   -6.6007   -0.6230    0.5489 H   0  0  0  0  0  0  0  0  0  0  0  0
  1  9  1  0  0  0  0
  1 13  1  0  0  0  0
  2 10  1  0  0  0  0
  2 40  1  0  0  0  0
  3 12  1  0  0  0  0
  3 41  1  0  0  0  0
  4 16  1  0  0  0  0
  4 22  1  0  0  0  0
  5 17  1  0  0  0  0
  5 25  1  0  0  0  0
  6 20  1  0  0  0  0
  6 47  1  0  0  0  0
  7 21  2  0  0  0  0
  8 30  1  0  0  0  0
  8 52  1  0  0  0  0
  9 11  1  0  0  0  0
  9 14  1  0  0  0  0
  9 31  1  0  0  0  0
 10 11  1  0  0  0  0
 10 12  1  0  0  0  0
 10 32  1  0  0  0  0
 11 33  1  0  0  0  0
 11 34  1  0  0  0  0
 12 13  1  0  0  0  0
 12 35  1  0  0  0  0
 13 15  1  0  0  0  0
 13 36  1  0  0  0  0
 14 16  1  0  0  0  0
 14 17  2  0  0  0  0
 15 37  1  0  0  0  0
 15 38  1  0  0  0  0
 15 39  1  0  0  0  0
 16 18  2  0  0  0  0
 17 19  1  0  0  0  0
 18 20  1  0  0  0  0
 18 21  1  0  0  0  0
 19 20  2  0  0  0  0
 19 42  1  0  0  0  0
 21 23  1  0  0  0  0
 22 23  2  0  0  0  0
 22 24  1  0  0  0  0
 23 43  1  0  0  0  0
 24 26  2  0  0  0  0
 24 27  1  0  0  0  0
 25 44  1  0  0  0  0
 25 45  1  0  0  0  0
 25 46  1  0  0  0  0
 26 28  1  0  0  0  0
 26 48  1  0  0  0  0
 27 29  2  0  0  0  0
 27 49  1  0  0  0  0
 28 30  2  0  0  0  0
 28 50  1  0  0  0  0
 29 30  1  0  0  0  0
 29 51  1  0  0  0  0
M  END
> <PUBCHEM_COMPOUND_CID>
10454451

> <PUBCHEM_CONFORMER_RMSD>
0.8

> <PUBCHEM_CONFORMER_DIVERSEORDER>
1
9
5
10
8
11
2
6
3
4
7
12

> <PUBCHEM_MMFF94_PARTIAL_CHARGES>
38
1 -0.56
10 0.28
12 0.28
13 0.28
14 -0.14
16 0.08
17 0.08
18 0.09
19 -0.15
2 -0.68
20 0.08
21 0.47
22 0.05
23 -0.14
24 0.03
25 0.28
26 -0.15
27 -0.15
28 -0.15
29 -0.15
3 -0.68
30 0.08
4 -0.16
40 0.4
41 0.4
42 0.15
43 0.15
47 0.45
48 0.15
49 0.15
5 -0.36
50 0.15
51 0.15
52 0.45
6 -0.53
7 -0.57
8 -0.53
9 0.42

> <PUBCHEM_EFFECTIVE_ROTOR_COUNT>
4.2

> <PUBCHEM_PHARMACOPHORE_FEATURES>
14
1 1 acceptor
1 2 acceptor
1 2 donor
1 3 acceptor
1 3 donor
1 4 acceptor
1 5 acceptor
1 6 donor
1 7 acceptor
1 8 donor
6 1 9 10 11 12 13 rings
6 14 16 17 18 19 20 rings
6 24 26 27 28 29 30 rings
6 4 16 18 21 22 23 rings

> <PUBCHEM_HEAVY_ATOM_COUNT>
30

> <PUBCHEM_ATOM_DEF_STEREO_COUNT>
4

> <PUBCHEM_ATOM_UDEF_STEREO_COUNT>
0

> <PUBCHEM_BOND_DEF_STEREO_COUNT>
0

> <PUBCHEM_BOND_UDEF_STEREO_COUNT>
0

> <PUBCHEM_ISOTOPIC_ATOM_COUNT>
0

> <PUBCHEM_COMPONENT_COUNT>
1

> <PUBCHEM_CACTVS_TAUTO_COUNT>
21

> <PUBCHEM_CONFORMER_ID>
009F85B300000001

> <PUBCHEM_MMFF94_ENERGY>
102.4144

> <PUBCHEM_FEATURE_SELFOVERLAP>
71.118

> <PUBCHEM_SHAPE_FINGERPRINT>
10050765 1 17905328778202691532
10411042 1 17905890271280958763
1100329 8 18411134766552602410
11421498 54 17274548603125677323
11578080 2 16373532823003223063
11607047 403 15833907183499035971
12788726 201 17688860260838638114
13140716 1 18339354279704759098
13402501 40 18335143077092915233
1361 2 18337950199330426473
138480 1 18049440336275918491
13911987 19 18190201051846305028
140371 6 16969128247252353364
14117953 113 18270962324205824821
14790565 3 18410300194214936484
14866123 147 18338226180780403434
14955137 171 18119236273898896642
15483637 11 18049442844906584683
15927050 60 18266741479629361980
16728300 4 17390201769070922162
17138139 8 17557116692490385103
18681886 176 18408881811604172696
19319366 153 18040158405575995706
19591789 44 18410294726393702472
19930381 70 18265050228850659793
20028762 73 18272367559742185246
20905425 154 17908145373987025190
21197605 99 18195538206385224803
21421861 104 17690856566064986281
22113638 7 18411414020635887500
22311459 1 18267305507763175208
23558518 356 17613150085010522864
23559900 14 17976529516956870337
283562 15 18125447415073640488
3178227 256 18337402568771041353
3298306 158 18335980879067302381
338550 245 18263646328010340069
463206 1 18341611568613444021
484985 159 14139709878176618899
5171179 24 16908343391963249776
5309563 4 18339361851743216421
57527358 35 15504664877227909926
6438718 38 17771915101352739735
653340 110 17476353276351912232
9777508 108 17907293604447000729
9896288 288 17694776325698171448

> <PUBCHEM_SHAPE_MULTIPOLES>
570.43
9.12
6.09
0.95
6.85
3.36
-0.17
-3.66
-0.14
-2.19
0.45
0.24
0.81
-0.26

> <PUBCHEM_SHAPE_SELFOVERLAP>
1255.82

> <PUBCHEM_SHAPE_VOLUME>
305.6

> <PUBCHEM_COORDINATE_TYPE>
2
5
10

$$$$
