10456222
  -OEChem-03292013303D

 59 61  0     1  0  0  0  0  0999 V2000
   -2.2716    0.4808    2.1433 O   0  0  0  0  0  0  0  0  0  0  0  0
    1.9204   -0.6692   -0.0436 O   0  0  0  0  0  0  0  0  0  0  0  0
   -6.0401    2.5777    0.0954 O   0  0  0  0  0  0  0  0  0  0  0  0
    0.3342   -1.0198   -1.6673 O   0  0  0  0  0  0  0  0  0  0  0  0
    2.3273    4.2784    0.0686 O   0  0  0  0  0  0  0  0  0  0  0  0
   -2.9869    0.7995   -0.0432 N   0  0  0  0  0  0  0  0  0  0  0  0
   -0.2223   -0.9299    0.5837 N   0  0  0  0  0  0  0  0  0  0  0  0
   -1.6421   -1.1435    0.4579 C   0  0  1  0  0  0  0  0  0  0  0  0
   -2.1148   -2.3717    1.2443 C   0  0  0  0  0  0  0  0  0  0  0  0
   -3.6819    2.0498    0.1631 C   0  0  1  0  0  0  0  0  0  0  0  0
   -3.1618    3.1642   -0.7459 C   0  0  0  0  0  0  0  0  0  0  0  0
   -2.3346    0.1137    0.9720 C   0  0  0  0  0  0  0  0  0  0  0  0
   -1.8362   -3.6684    0.5243 C   0  0  0  0  0  0  0  0  0  0  0  0
   -1.6981    3.4609   -0.5276 C   0  0  0  0  0  0  0  0  0  0  0  0
   -5.1442    1.7593   -0.0970 C   0  0  0  0  0  0  0  0  0  0  0  0
   -0.6294   -4.3365    0.7321 C   0  0  0  0  0  0  0  0  0  0  0  0
   -2.7854   -4.1987   -0.3497 C   0  0  0  0  0  0  0  0  0  0  0  0
   -1.3123    4.4186    0.4104 C   0  0  0  0  0  0  0  0  0  0  0  0
   -0.7312    2.7780   -1.2653 C   0  0  0  0  0  0  0  0  0  0  0  0
    0.6467   -0.8859   -0.4887 C   0  0  0  0  0  0  0  0  0  0  0  0
   -0.3719   -5.5349    0.0662 C   0  0  0  0  0  0  0  0  0  0  0  0
   -2.5279   -5.3971   -1.0155 C   0  0  0  0  0  0  0  0  0  0  0  0
    0.0404    4.6933    0.6107 C   0  0  0  0  0  0  0  0  0  0  0  0
    0.6218    3.0527   -1.0650 C   0  0  0  0  0  0  0  0  0  0  0  0
   -1.3213   -6.0651   -0.8076 C   0  0  0  0  0  0  0  0  0  0  0  0
    1.0074    4.0105   -0.1271 C   0  0  0  0  0  0  0  0  0  0  0  0
    2.9319   -0.6002   -1.0551 C   0  0  0  0  0  0  0  0  0  0  0  0
    4.2614   -0.3598   -0.4026 C   0  0  0  0  0  0  0  0  0  0  0  0
    4.7078    0.9445   -0.1887 C   0  0  0  0  0  0  0  0  0  0  0  0
    5.0510   -1.4404   -0.0092 C   0  0  0  0  0  0  0  0  0  0  0  0
    5.9437    1.1681    0.4181 C   0  0  0  0  0  0  0  0  0  0  0  0
    6.2869   -1.2166    0.5978 C   0  0  0  0  0  0  0  0  0  0  0  0
    6.7332    0.0877    0.8113 C   0  0  0  0  0  0  0  0  0  0  0  0
   -1.8837   -1.2830   -0.6026 H   0  0  0  0  0  0  0  0  0  0  0  0
   -3.1956   -2.3043    1.4297 H   0  0  0  0  0  0  0  0  0  0  0  0
   -1.6533   -2.3980    2.2408 H   0  0  0  0  0  0  0  0  0  0  0  0
   -3.5919    2.3425    1.2156 H   0  0  0  0  0  0  0  0  0  0  0  0
   -3.7468    4.0804   -0.5900 H   0  0  0  0  0  0  0  0  0  0  0  0
   -3.3218    2.8999   -1.8005 H   0  0  0  0  0  0  0  0  0  0  0  0
   -3.0051    0.4061   -0.9797 H   0  0  0  0  0  0  0  0  0  0  0  0
    0.1624   -0.7760    1.5112 H   0  0  0  0  0  0  0  0  0  0  0  0
   -5.3908    0.7629   -0.5044 H   0  0  0  0  0  0  0  0  0  0  0  0
    0.1185   -3.9339    1.4100 H   0  0  0  0  0  0  0  0  0  0  0  0
   -3.7281   -3.6863   -0.5220 H   0  0  0  0  0  0  0  0  0  0  0  0
   -2.0567    4.9555    0.9924 H   0  0  0  0  0  0  0  0  0  0  0  0
   -1.0174    2.0303   -2.0002 H   0  0  0  0  0  0  0  0  0  0  0  0
    0.5677   -6.0549    0.2276 H   0  0  0  0  0  0  0  0  0  0  0  0
   -3.2666   -5.8096   -1.6965 H   0  0  0  0  0  0  0  0  0  0  0  0
    0.3348    5.4398    1.3432 H   0  0  0  0  0  0  0  0  0  0  0  0
    1.3652    2.5136   -1.6456 H   0  0  0  0  0  0  0  0  0  0  0  0
   -1.1207   -6.9979   -1.3263 H   0  0  0  0  0  0  0  0  0  0  0  0
    2.7014    0.2122   -1.7553 H   0  0  0  0  0  0  0  0  0  0  0  0
    2.9529   -1.5395   -1.6217 H   0  0  0  0  0  0  0  0  0  0  0  0
    4.1017    1.7934   -0.4910 H   0  0  0  0  0  0  0  0  0  0  0  0
    4.7133   -2.4610   -0.1682 H   0  0  0  0  0  0  0  0  0  0  0  0
    2.8519    3.7420   -0.5498 H   0  0  0  0  0  0  0  0  0  0  0  0
    6.2910    2.1837    0.5844 H   0  0  0  0  0  0  0  0  0  0  0  0
    6.9016   -2.0578    0.9047 H   0  0  0  0  0  0  0  0  0  0  0  0
    7.6954    0.2618    1.2840 H   0  0  0  0  0  0  0  0  0  0  0  0
  1 12  2  0  0  0  0
  2 20  1  0  0  0  0
  2 27  1  0  0  0  0
  3 15  2  0  0  0  0
  4 20  2  0  0  0  0
  5 26  1  0  0  0  0
  5 56  1  0  0  0  0
  6 10  1  0  0  0  0
  6 12  1  0  0  0  0
  6 40  1  0  0  0  0
  7  8  1  0  0  0  0
  7 20  1  0  0  0  0
  7 41  1  0  0  0  0
  8  9  1  0  0  0  0
  8 12  1  0  0  0  0
  8 34  1  0  0  0  0
  9 13  1  0  0  0  0
  9 35  1  0  0  0  0
  9 36  1  0  0  0  0
 10 11  1  0  0  0  0
 10 15  1  0  0  0  0
 10 37  1  0  0  0  0
 11 14  1  0  0  0  0
 11 38  1  0  0  0  0
 11 39  1  0  0  0  0
 13 16  2  0  0  0  0
 13 17  1  0  0  0  0
 14 18  2  0  0  0  0
 14 19  1  0  0  0  0
 15 42  1  0  0  0  0
 16 21  1  0  0  0  0
 16 43  1  0  0  0  0
 17 22  2  0  0  0  0
 17 44  1  0  0  0  0
 18 23  1  0  0  0  0
 18 45  1  0  0  0  0
 19 24  2  0  0  0  0
 19 46  1  0  0  0  0
 21 25  2  0  0  0  0
 21 47  1  0  0  0  0
 22 25  1  0  0  0  0
 22 48  1  0  0  0  0
 23 26  2  0  0  0  0
 23 49  1  0  0  0  0
 24 26  1  0  0  0  0
 24 50  1  0  0  0  0
 25 51  1  0  0  0  0
 27 28  1  0  0  0  0
 27 52  1  0  0  0  0
 27 53  1  0  0  0  0
 28 29  2  0  0  0  0
 28 30  1  0  0  0  0
 29 31  1  0  0  0  0
 29 54  1  0  0  0  0
 30 32  2  0  0  0  0
 30 55  1  0  0  0  0
 31 33  2  0  0  0  0
 31 57  1  0  0  0  0
 32 33  1  0  0  0  0
 32 58  1  0  0  0  0
 33 59  1  0  0  0  0
M  END
> <PUBCHEM_COMPOUND_CID>
10456222

> <PUBCHEM_CONFORMER_RMSD>
1.2

> <PUBCHEM_CONFORMER_DIVERSEORDER>
1
61
88
125
38
127
7
33
9
19
77
140
44
91
16
10
114
151
20
112
115
148
29
142
55
154
58
15
150
22
89
40
126
70
49
99
86
95
18
32
108
63
96
94
122
92
12
81
37
17
76
78
93
121
52
82
14
79
103
105
8
153
26
146
4
90
111
83
131
59
64
60
31
45
117
143
68
30
107
65
13
147
134
11
41
34
57
46
110
87
73
53
136
133
28
106
3
56
85
21
39
102
109
66
69
129
113
36
42
51
120
35
137
47
116
75
149
6
23
50
139
27
43
104
25
124
141
152
97
80
119
54
72
48
118
2
123
98
128
62
138
132
74
135
144
5
71
84
100
130
67
24
101
145

> <PUBCHEM_MMFF94_PARTIAL_CHARGES>
51
1 -0.57
10 0.36
11 0.14
12 0.57
13 -0.14
14 -0.14
15 0.45
16 -0.15
17 -0.15
18 -0.15
19 -0.15
2 -0.43
20 0.78
21 -0.15
22 -0.15
23 -0.15
24 -0.15
25 -0.15
26 0.08
27 0.42
28 -0.14
29 -0.15
3 -0.57
30 -0.15
31 -0.15
32 -0.15
33 -0.15
4 -0.57
40 0.37
41 0.37
42 0.06
43 0.15
44 0.15
45 0.15
46 0.15
47 0.15
48 0.15
49 0.15
5 -0.53
50 0.15
51 0.15
54 0.15
55 0.15
56 0.45
57 0.15
58 0.15
59 0.15
6 -0.73
7 -0.73
8 0.36
9 0.14

> <PUBCHEM_EFFECTIVE_ROTOR_COUNT>
13

> <PUBCHEM_PHARMACOPHORE_FEATURES>
9
1 1 acceptor
1 3 acceptor
1 4 acceptor
1 5 donor
1 6 donor
1 7 donor
6 13 16 17 21 22 25 rings
6 14 18 19 23 24 26 rings
6 28 29 30 31 32 33 rings

> <PUBCHEM_HEAVY_ATOM_COUNT>
33

> <PUBCHEM_ATOM_DEF_STEREO_COUNT>
2

> <PUBCHEM_ATOM_UDEF_STEREO_COUNT>
0

> <PUBCHEM_BOND_DEF_STEREO_COUNT>
0

> <PUBCHEM_BOND_UDEF_STEREO_COUNT>
0

> <PUBCHEM_ISOTOPIC_ATOM_COUNT>
0

> <PUBCHEM_COMPONENT_COUNT>
1

> <PUBCHEM_CACTVS_TAUTO_COUNT>
16

> <PUBCHEM_CONFORMER_ID>
009F8C9E00000001

> <PUBCHEM_MMFF94_ENERGY>
78.286

> <PUBCHEM_FEATURE_SELFOVERLAP>
45.672

> <PUBCHEM_SHAPE_FINGERPRINT>
10074138 170 18267559408911649978
10290309 65 18119525427691238676
1100329 8 18409168826709042701
12717326 68 17690821777225547336
13402501 40 18338233752549750900
14725015 67 18267295435510647024
14747282 125 17982415310385931034
14844126 61 18334296495772761530
15876981 60 18189336930507065292
16728300 4 17388525026158807170
18393751 57 18339370651893582681
20101258 96 18193566794383064242
20775438 99 17550066662334674543
23559900 14 17762328524101015418
25019877 29 18341618066772655359
255183 313 18270701838993278955
3383291 50 18410288077832379504
3882209 13 17763433486194705498
392239 28 18195249918999759728
6700243 42 17840344256212785494
9981440 41 18119252757413244193

> <PUBCHEM_SHAPE_MULTIPOLES>
639.82
11.12
9.74
1.17
18.89
6.6
-0.06
-0.42
-1.82
-10.64
1.37
-0.32
0.16
-0.42

> <PUBCHEM_SHAPE_SELFOVERLAP>
1354.597

> <PUBCHEM_SHAPE_VOLUME>
354.8

> <PUBCHEM_COORDINATE_TYPE>
2
5
10

$$$$
