10455912
  -OEChem-03292013303D

 56 58  0     0  0  0  0  0  0999 V2000
   -3.7305   -1.5148   -0.1871 O   0  0  0  0  0  0  0  0  0  0  0  0
   -3.3783    1.4799    0.5023 O   0  0  0  0  0  0  0  0  0  0  0  0
    3.4579   -2.0840    0.2197 O   0  0  0  0  0  0  0  0  0  0  0  0
    3.7566    1.9446   -0.3446 O   0  0  0  0  0  0  0  0  0  0  0  0
   -2.9815   -1.9714   -2.3192 O   0  0  0  0  0  0  0  0  0  0  0  0
   -2.4991    1.7891    2.6083 O   0  0  0  0  0  0  0  0  0  0  0  0
    2.6932   -1.7114    2.3620 O   0  0  0  0  0  0  0  0  0  0  0  0
    2.8452    1.8074   -2.4563 O   0  0  0  0  0  0  0  0  0  0  0  0
   -5.3540    0.0401   -1.1469 C   0  0  0  0  0  0  0  0  0  0  0  0
   -5.6979    1.0465   -0.0406 C   0  0  0  0  0  0  0  0  0  0  0  0
    5.2323   -0.4711    0.6058 C   0  0  0  0  0  0  0  0  0  0  0  0
    5.2496    0.1019   -0.8198 C   0  0  0  0  0  0  0  0  0  0  0  0
   -5.0888   -1.3788   -0.6465 C   0  0  0  0  0  0  0  0  0  0  0  0
   -4.6637    1.1923    1.0698 C   0  0  0  0  0  0  0  0  0  0  0  0
    4.8342   -1.9454    0.6274 C   0  0  0  0  0  0  0  0  0  0  0  0
    5.0756    1.6199   -0.8263 C   0  0  0  0  0  0  0  0  0  0  0  0
   -1.4434   -1.8596   -0.5081 C   0  0  0  0  0  0  0  0  0  0  0  0
    1.1549   -1.9182    0.5571 C   0  0  0  0  0  0  0  0  0  0  0  0
   -1.0851    1.8519    0.6923 C   0  0  0  0  0  0  0  0  0  0  0  0
    1.4346    1.9546   -0.5425 C   0  0  0  0  0  0  0  0  0  0  0  0
   -2.7906   -1.8044   -1.1245 C   0  0  0  0  0  0  0  0  0  0  0  0
   -2.3847    1.7235    1.3943 C   0  0  0  0  0  0  0  0  0  0  0  0
    2.5057   -1.8958    1.1695 C   0  0  0  0  0  0  0  0  0  0  0  0
    2.7409    1.9122   -1.2444 C   0  0  0  0  0  0  0  0  0  0  0  0
   -0.3300   -1.8690   -1.3567 C   0  0  0  0  0  0  0  0  0  0  0  0
    0.9634   -1.8953   -0.8282 C   0  0  0  0  0  0  0  0  0  0  0  0
    0.0804    1.8851    1.4660 C   0  0  0  0  0  0  0  0  0  0  0  0
    1.3347    1.9348    0.8529 C   0  0  0  0  0  0  0  0  0  0  0  0
   -1.2530   -1.8938    0.8766 C   0  0  0  0  0  0  0  0  0  0  0  0
    0.0411   -1.9205    1.4055 C   0  0  0  0  0  0  0  0  0  0  0  0
   -0.9873    1.9002   -0.7022 C   0  0  0  0  0  0  0  0  0  0  0  0
    0.2676    1.9495   -1.3155 C   0  0  0  0  0  0  0  0  0  0  0  0
   -6.2078    0.0101   -1.8348 H   0  0  0  0  0  0  0  0  0  0  0  0
   -4.4948    0.4109   -1.7177 H   0  0  0  0  0  0  0  0  0  0  0  0
   -5.8320    2.0241   -0.5209 H   0  0  0  0  0  0  0  0  0  0  0  0
   -6.6626    0.7796    0.4073 H   0  0  0  0  0  0  0  0  0  0  0  0
    6.2278   -0.3527    1.0490 H   0  0  0  0  0  0  0  0  0  0  0  0
    4.5317    0.0946    1.2301 H   0  0  0  0  0  0  0  0  0  0  0  0
    6.1982   -0.1627   -1.3009 H   0  0  0  0  0  0  0  0  0  0  0  0
    4.4474   -0.3498   -1.4144 H   0  0  0  0  0  0  0  0  0  0  0  0
   -5.7505   -1.6338    0.1879 H   0  0  0  0  0  0  0  0  0  0  0  0
   -5.2844   -2.1084   -1.4414 H   0  0  0  0  0  0  0  0  0  0  0  0
   -4.9624    2.0129    1.7327 H   0  0  0  0  0  0  0  0  0  0  0  0
   -4.6001    0.2717    1.6606 H   0  0  0  0  0  0  0  0  0  0  0  0
    5.4456   -2.5235   -0.0734 H   0  0  0  0  0  0  0  0  0  0  0  0
    4.9801   -2.3777    1.6239 H   0  0  0  0  0  0  0  0  0  0  0  0
    5.7993    2.0982   -0.1583 H   0  0  0  0  0  0  0  0  0  0  0  0
    5.2306    2.0312   -1.8301 H   0  0  0  0  0  0  0  0  0  0  0  0
   -0.4470   -1.8394   -2.4373 H   0  0  0  0  0  0  0  0  0  0  0  0
    1.8002   -1.8798   -1.5210 H   0  0  0  0  0  0  0  0  0  0  0  0
    0.0362    1.8469    2.5516 H   0  0  0  0  0  0  0  0  0  0  0  0
    2.2145    1.9310    1.4902 H   0  0  0  0  0  0  0  0  0  0  0  0
   -2.0912   -1.8947    1.5678 H   0  0  0  0  0  0  0  0  0  0  0  0
    0.1586   -1.9356    2.4862 H   0  0  0  0  0  0  0  0  0  0  0  0
   -1.8682    1.8816   -1.3379 H   0  0  0  0  0  0  0  0  0  0  0  0
    0.3127    1.9625   -2.4017 H   0  0  0  0  0  0  0  0  0  0  0  0
  1 13  1  0  0  0  0
  1 21  1  0  0  0  0
  2 14  1  0  0  0  0
  2 22  1  0  0  0  0
  3 15  1  0  0  0  0
  3 23  1  0  0  0  0
  4 16  1  0  0  0  0
  4 24  1  0  0  0  0
  5 21  2  0  0  0  0
  6 22  2  0  0  0  0
  7 23  2  0  0  0  0
  8 24  2  0  0  0  0
  9 10  1  0  0  0  0
  9 13  1  0  0  0  0
  9 33  1  0  0  0  0
  9 34  1  0  0  0  0
 10 14  1  0  0  0  0
 10 35  1  0  0  0  0
 10 36  1  0  0  0  0
 11 12  1  0  0  0  0
 11 15  1  0  0  0  0
 11 37  1  0  0  0  0
 11 38  1  0  0  0  0
 12 16  1  0  0  0  0
 12 39  1  0  0  0  0
 12 40  1  0  0  0  0
 13 41  1  0  0  0  0
 13 42  1  0  0  0  0
 14 43  1  0  0  0  0
 14 44  1  0  0  0  0
 15 45  1  0  0  0  0
 15 46  1  0  0  0  0
 16 47  1  0  0  0  0
 16 48  1  0  0  0  0
 17 21  1  0  0  0  0
 17 25  2  0  0  0  0
 17 29  1  0  0  0  0
 18 23  1  0  0  0  0
 18 26  2  0  0  0  0
 18 30  1  0  0  0  0
 19 22  1  0  0  0  0
 19 27  2  0  0  0  0
 19 31  1  0  0  0  0
 20 24  1  0  0  0  0
 20 28  2  0  0  0  0
 20 32  1  0  0  0  0
 25 26  1  0  0  0  0
 25 49  1  0  0  0  0
 26 50  1  0  0  0  0
 27 28  1  0  0  0  0
 27 51  1  0  0  0  0
 28 52  1  0  0  0  0
 29 30  2  0  0  0  0
 29 53  1  0  0  0  0
 30 54  1  0  0  0  0
 31 32  2  0  0  0  0
 31 55  1  0  0  0  0
 32 56  1  0  0  0  0
M  END
> <PUBCHEM_COMPOUND_CID>
10455912

> <PUBCHEM_CONFORMER_RMSD>
0.8

> <PUBCHEM_CONFORMER_DIVERSEORDER>
1
15
9
5
18
20
6
2
14
17
3
4
12
7
10
8
19
16
13
11

> <PUBCHEM_MMFF94_PARTIAL_CHARGES>
36
1 -0.43
13 0.28
14 0.28
15 0.28
16 0.28
17 0.09
18 0.09
19 0.09
2 -0.43
20 0.09
21 0.63
22 0.63
23 0.63
24 0.63
25 -0.15
26 -0.15
27 -0.15
28 -0.15
29 -0.15
3 -0.43
30 -0.15
31 -0.15
32 -0.15
4 -0.43
49 0.15
5 -0.57
50 0.15
51 0.15
52 0.15
53 0.15
54 0.15
55 0.15
56 0.15
6 -0.57
7 -0.57
8 -0.57

> <PUBCHEM_EFFECTIVE_ROTOR_COUNT>
2.4

> <PUBCHEM_PHARMACOPHORE_FEATURES>
6
1 5 acceptor
1 6 acceptor
1 7 acceptor
1 8 acceptor
6 17 18 25 26 29 30 rings
6 19 20 27 28 31 32 rings

> <PUBCHEM_HEAVY_ATOM_COUNT>
32

> <PUBCHEM_ATOM_DEF_STEREO_COUNT>
0

> <PUBCHEM_ATOM_UDEF_STEREO_COUNT>
0

> <PUBCHEM_BOND_DEF_STEREO_COUNT>
0

> <PUBCHEM_BOND_UDEF_STEREO_COUNT>
0

> <PUBCHEM_ISOTOPIC_ATOM_COUNT>
0

> <PUBCHEM_COMPONENT_COUNT>
1

> <PUBCHEM_CACTVS_TAUTO_COUNT>
1

> <PUBCHEM_CONFORMER_ID>
009F8B6800000001

> <PUBCHEM_MMFF94_ENERGY>
79.2016

> <PUBCHEM_FEATURE_SELFOVERLAP>
30.449

> <PUBCHEM_SHAPE_FINGERPRINT>
11135609 187 18116995688186922236
11479125 193 15072042292748757526
11513181 2 17774444858823753967
11578080 2 17416951989352635226
12035759 4 18411701010339738312
12422481 6 18339081488555886780
12467345 10 18411136930809918222
12788726 201 17917159380533283129
13111901 25 18343028775114799763
13111901 51 18127132979273620145
13165054 235 18341317908276484559
13642711 20 16081361994640821864
13947920 75 18131358514011495548
14295343 760 17560254509576444054
14394314 77 18411421717228546169
14464042 87 18342457062473513382
14790565 3 18409728456483438903
14840074 17 18335148548401332293
15001296 14 18410855486040708780
15274700 147 13926154604095342516
15297060 5 17703514281225766635
15420108 30 17909845240159757617
15484559 13 16315521339485942044
15664445 248 15378498769920952517
17138139 8 18270677713390992277
18336668 15 18337103471506533121
20511986 3 18411691101866439620
20691752 17 17821726134865353491
23559900 14 17845654892352507841
338550 245 18260550008851192916
463206 1 18335144210463309944
469060 322 17969205755845727762
513532 50 17201059646469079279
581034 39 17704072884709454567
5895379 119 17917159290523137777
6034566 193 16954810858102933508
6287921 2 17339580193102375106

> <PUBCHEM_SHAPE_MULTIPOLES>
611.59
11.05
3.5
1.94
1.15
0.16
0.15
-0.16
-1.52
-0.79
0.04
0.18
-0.18
-2.97

> <PUBCHEM_SHAPE_SELFOVERLAP>
1296.899

> <PUBCHEM_SHAPE_VOLUME>
337.5

> <PUBCHEM_COORDINATE_TYPE>
2
5
10

$$$$
