REMARK  Name = 10458156
REMARK  5 active torsions:
REMARK  status: ('A' for Active; 'I' for Inactive)
REMARK    1  A    between atoms: C_4  and  O_16
REMARK    2  A    between atoms: C_4  and  C_18
REMARK    3  A    between atoms: C_7  and  C_37
REMARK    4  A    between atoms: C_18  and  C_24
REMARK    5  A    between atoms: C_37  and  C_38
REMARK                            x       y       z     vdW  Elec       q    Type
REMARK                         _______ _______ _______ _____ _____    ______ ____
ROOT
ATOM      1  O   UNL     1       4.239  -1.827   1.917  0.00  0.00    -0.277 OA
ATOM      2  N   UNL     1       3.261  -0.185   0.550  0.00  0.00    -0.279 N 
ATOM      3  N   UNL     1       1.645  -1.387  -0.462  0.00  0.00    +0.405 N 
ATOM      4  C   UNL     1       1.704   1.245  -0.529  0.00  0.00    +0.109 C 
ATOM      5  C   UNL     1       2.390  -0.142  -0.592  0.00  0.00    +0.052 C 
ATOM      6  C   UNL     1       2.652   1.980   0.408  0.00  0.00    +0.015 C 
ATOM      7  C   UNL     1       2.577  -2.342   0.195  0.00  0.00    +0.020 C 
ATOM      8  C   UNL     1       3.517   1.078   1.047  0.00  0.00    +0.050 C 
ATOM      9  C   UNL     1       3.501  -1.452   1.021  0.00  0.00    +0.208 C 
ATOM     10  C   UNL     1       2.685   3.325   0.734  0.00  0.00    -0.001 C 
ATOM     11  C   UNL     1       4.393   1.467   2.040  0.00  0.00    +0.015 C 
ATOM     12  C   UNL     1       3.589   3.746   1.714  0.00  0.00    -0.000 C 
ATOM     13  C   UNL     1       4.431   2.825   2.364  0.00  0.00    +0.001 C 
ATOM     14  H   UNL     1       1.367  -1.734  -1.380  0.00  0.00    -0.081 HD
ATOM     15  H   UNL     1       0.790  -1.260   0.080  0.00  0.00    -0.081 HD
ENDROOT
BRANCH   4  16
ATOM     16  O   UNL     1       1.694   1.829  -1.826  0.00  0.00    -0.383 OA
ATOM     17  H   UNL     1       1.082   1.339  -2.397  0.00  0.00    +0.211 HD
ENDBRANCH   4  16
BRANCH   4  18
ATOM     18  C   UNL     1       0.286   1.220   0.013  0.00  0.00    +0.060 C 
BRANCH  18  24
ATOM     19  O   UNL     1       0.092   0.890  -3.169  0.00  0.00    -0.273 OA
ATOM     20  O   UNL     1      -1.468  -1.771   0.616  0.00  0.00    -0.269 OA
ATOM     21  N   UNL     1      -2.002   0.290  -0.352  0.00  0.00    -0.226 N 
ATOM     22  N   UNL     1      -1.788   1.996  -2.439  0.00  0.00    -0.298 N 
ATOM     23  N   UNL     1      -4.153   1.247  -0.002  0.00  0.00    -0.393 NA
ATOM     24  C   UNL     1      -0.653   0.461  -0.916  0.00  0.00    +0.161 C 
ATOM     25  C   UNL     1      -0.750   1.096  -2.296  0.00  0.00    +0.241 C 
ATOM     26  C   UNL     1      -2.958   1.297  -0.502  0.00  0.00    +0.184 C 
ATOM     27  C   UNL     1      -2.503   2.516  -1.289  0.00  0.00    +0.139 C 
ATOM     28  C   UNL     1      -2.269  -0.868   0.392  0.00  0.00    +0.257 C 
ATOM     29  C   UNL     1      -3.651   3.416  -1.726  0.00  0.00    +0.030 C 
ATOM     30  C   UNL     1      -3.639  -0.957   0.943  0.00  0.00    +0.080 C 
ATOM     31  C   UNL     1      -4.521   0.105   0.723  0.00  0.00    +0.119 C 
ATOM     32  C   UNL     1      -4.039  -2.081   1.673  0.00  0.00    +0.006 C 
ATOM     33  C   UNL     1      -5.817   0.025   1.246  0.00  0.00    +0.085 C 
ATOM     34  C   UNL     1      -5.333  -2.146   2.187  0.00  0.00    -0.004 C 
ATOM     35  C   UNL     1      -6.221  -1.095   1.974  0.00  0.00    -0.019 C 
ATOM     36  H   UNL     1      -2.049   2.290  -3.342  0.00  0.00    +0.150 HD
ENDBRANCH  18  24
ENDBRANCH   4  18
BRANCH   7  37
ATOM     37  C   UNL     1       3.367  -3.171  -0.806  0.00  0.00    -0.012 C 
BRANCH  37  38
ATOM     38  C   UNL     1       2.498  -4.148  -1.618  0.00  0.00    -0.002 C 
ATOM     39  C   UNL     1       1.718  -5.114  -0.725  0.00  0.00    -0.000 C 
ATOM     40  C   UNL     1       1.528  -3.367  -2.506  0.00  0.00    -0.000 C 
ENDBRANCH  37  38
ENDBRANCH   7  37
TORSDOF 5
