REMARK  Name = 10456222
REMARK  12 active torsions:
REMARK  status: ('A' for Active; 'I' for Inactive)
REMARK    1  A    between atoms: CA_1  and  C_4
REMARK    2  A    between atoms: CA_1  and  N_19
REMARK    3  A    between atoms: CA_1  and  CB_30
REMARK    4  A    between atoms: N_3  and  CA_6
REMARK    5  A    between atoms: CA_6  and  C_8
REMARK    6  A    between atoms: CA_6  and  CB_9
REMARK    7  A    between atoms: CB_9  and  CG_10
REMARK    8  A    between atoms: CZ_15  and  OH_16
REMARK    9  A    between atoms: C_20  and  O_22
REMARK   10  A    between atoms: O_22  and  C_23
REMARK   11  A    between atoms: C_23  and  C_24
REMARK   12  A    between atoms: CB_30  and  CG_31
REMARK                            x       y       z     vdW  Elec       q    Type
REMARK                         _______ _______ _______ _____ _____    ______ ____
ROOT
ATOM      1  CA  UNL     1      -1.642  -1.143   0.458  0.00  0.00    +0.155 C 
ENDROOT
BRANCH   1   4
ATOM      2  O   UNL     1      -2.272   0.481   2.143  0.00  0.00    -0.273 OA
ATOM      3  N   UNL     1      -2.987   0.799  -0.043  0.00  0.00    -0.298 N 
ATOM      4  C   UNL     1      -2.335   0.114   0.972  0.00  0.00    +0.241 C 
ATOM      5  H   UNL     1      -2.976   0.415  -0.949  0.00  0.00    +0.150 HD
BRANCH   3   6
ATOM      6  CA  UNL     1      -3.682   2.050   0.163  0.00  0.00    +0.141 C 
BRANCH   6   8
ATOM      7  O   UNL     1      -6.040   2.578   0.095  0.00  0.00    -0.286 OA
ATOM      8  C   UNL     1      -5.144   1.759  -0.097  0.00  0.00    +0.227 C 
ENDBRANCH   6   8
BRANCH   6   9
ATOM      9  CB  UNL     1      -3.162   3.164  -0.746  0.00  0.00    +0.054 C 
BRANCH   9  10
ATOM     10  CG  UNL     1      -1.698   3.461  -0.528  0.00  0.00    -0.020 C 
ATOM     11  CD1 UNL     1      -1.312   4.419   0.410  0.00  0.00    -0.001 C 
ATOM     12  CD2 UNL     1      -0.731   2.778  -1.265  0.00  0.00    -0.001 C 
ATOM     13  CE1 UNL     1       0.040   4.693   0.611  0.00  0.00    +0.036 C 
ATOM     14  CE2 UNL     1       0.622   3.053  -1.065  0.00  0.00    +0.036 C 
ATOM     15  CZ  UNL     1       1.007   4.011  -0.127  0.00  0.00    +0.134 C 
BRANCH  15  16
ATOM     16  OH  UNL     1       2.327   4.278   0.069  0.00  0.00    -0.506 OA
ATOM     17  HH  UNL     1       2.586   4.922   0.699  0.00  0.00    +0.292 HD
ENDBRANCH  15  16
ENDBRANCH   9  10
ENDBRANCH   6   9
ENDBRANCH   3   6
ENDBRANCH   1   4
BRANCH   1  19
ATOM     18  O   UNL     1       0.334  -1.020  -1.667  0.00  0.00    -0.226 OA
ATOM     19  N   UNL     1      -0.222  -0.930   0.584  0.00  0.00    -0.264 N 
ATOM     20  C   ACE A   0       0.647  -0.886  -0.489  0.00  0.00    +0.402 C 
ATOM     21  H   UNL     1       0.150  -0.808   1.487  0.00  0.00    +0.153 HD
BRANCH  20  22
ATOM     22  O   UNL     1       1.920  -0.669  -0.044  0.00  0.00    -0.430 OA
BRANCH  22  23
ATOM     23  C   UNL     1       2.932  -0.600  -1.055  0.00  0.00    +0.237 C 
BRANCH  23  24
ATOM     24  C   UNL     1       4.261  -0.360  -0.403  0.00  0.00    +0.021 C 
ATOM     25  C   UNL     1       4.708   0.945  -0.189  0.00  0.00    -0.001 C 
ATOM     26  C   UNL     1       5.051  -1.440  -0.009  0.00  0.00    -0.001 C 
ATOM     27  C   UNL     1       5.944   1.168   0.418  0.00  0.00    -0.000 C 
ATOM     28  C   UNL     1       6.287  -1.217   0.598  0.00  0.00    -0.000 C 
ATOM     29  C   UNL     1       6.733   0.088   0.811  0.00  0.00    -0.000 C 
ENDBRANCH  23  24
ENDBRANCH  22  23
ENDBRANCH  20  22
ENDBRANCH   1  19
BRANCH   1  30
ATOM     30  CB  UNL     1      -2.115  -2.372   1.244  0.00  0.00    +0.055 C 
BRANCH  30  31
ATOM     31  CG  UNL     1      -1.836  -3.668   0.524  0.00  0.00    -0.020 C 
ATOM     32  CD1 UNL     1      -0.629  -4.337   0.732  0.00  0.00    -0.004 C 
ATOM     33  CD2 UNL     1      -2.785  -4.199  -0.350  0.00  0.00    -0.004 C 
ATOM     34  CE1 UNL     1      -0.372  -5.535   0.066  0.00  0.00    -0.000 C 
ATOM     35  CE2 UNL     1      -2.528  -5.397  -1.016  0.00  0.00    -0.000 C 
ATOM     36  CZ  UNL     1      -1.321  -6.065  -0.808  0.00  0.00    -0.000 C 
ENDBRANCH  30  31
ENDBRANCH   1  30
TORSDOF 12
