REMARK  Name = 10457506
REMARK  9 active torsions:
REMARK  status: ('A' for Active; 'I' for Inactive)
REMARK    1  A    between atoms: N_2  and  C_21
REMARK    2  A    between atoms: C_4  and  C_9
REMARK    3  A    between atoms: C_6  and  N_16
REMARK    4  A    between atoms: C_17  and  O_19
REMARK    5  A    between atoms: C_21  and  C_24
REMARK    6  A    between atoms: N_23  and  C_26
REMARK    7  A    between atoms: C_26  and  C_27
REMARK    8  A    between atoms: C_26  and  C_31
REMARK    9  A    between atoms: C_31  and  C_35
REMARK                            x       y       z     vdW  Elec       q    Type
REMARK                         _______ _______ _______ _____ _____    ______ ____
ROOT
ATOM      1  O   UNL     1      -2.672  -2.034  -1.188  0.00  0.00    -0.268 OA
ATOM      2  N   UNL     1      -1.498  -0.041  -0.825  0.00  0.00    -0.230 N 
ATOM      3  N   UNL     1      -2.577   1.756   0.320  0.00  0.00    -0.227 NA
ATOM      4  C   UNL     1      -1.531   1.242  -0.254  0.00  0.00    +0.138 C 
ATOM      5  C   UNL     1      -2.616  -0.883  -0.759  0.00  0.00    +0.269 C 
ATOM      6  C   UNL     1      -3.800  -0.271  -0.101  0.00  0.00    +0.127 C 
ATOM      7  C   UNL     1      -3.696   0.974   0.373  0.00  0.00    +0.120 C 
ENDROOT
BRANCH   4   9
ATOM      8  F   UNL     1       3.110   4.377  -0.432  0.00  0.00    -0.204 F 
ATOM      9  C   UNL     1      -0.310   2.067  -0.301  0.00  0.00    +0.032 C 
ATOM     10  C   UNL     1       0.621   1.995   0.736  0.00  0.00    +0.005 C 
ATOM     11  C   UNL     1      -0.086   2.920  -1.381  0.00  0.00    +0.005 C 
ATOM     12  C   UNL     1       1.776   2.775   0.691  0.00  0.00    +0.030 C 
ATOM     13  C   UNL     1       1.070   3.701  -1.426  0.00  0.00    +0.030 C 
ATOM     14  C   UNL     1       2.001   3.628  -0.389  0.00  0.00    +0.140 C 
ENDBRANCH   4   9
BRANCH   6  16
ATOM     15  O   UNL     1      -6.279   0.555   1.084  0.00  0.00    -0.226 OA
ATOM     16  N   UNL     1      -4.945  -1.004  -0.010  0.00  0.00    -0.245 N 
ATOM     17  C   UNL     1      -6.111  -0.549   0.575  0.00  0.00    +0.406 C 
ATOM     18  H   UNL     1      -4.941  -1.914  -0.384  0.00  0.00    +0.158 HD
BRANCH  17  19
ATOM     19  O   UNL     1      -7.069  -1.522   0.504  0.00  0.00    -0.430 OA
ATOM     20  C   UNL     1      -8.340  -1.190   1.074  0.00  0.00    +0.257 C 
ENDBRANCH  17  19
ENDBRANCH   6  16
BRANCH   2  21
ATOM     21  C   UNL     1      -0.311  -0.550  -1.515  0.00  0.00    +0.185 C 
BRANCH  21  24
ATOM     22  O   UNL     1       0.167  -1.792   0.501  0.00  0.00    -0.273 OA
ATOM     23  N   UNL     1       1.923  -1.188  -0.897  0.00  0.00    -0.298 N 
ATOM     24  C   UNL     1       0.586  -1.261  -0.524  0.00  0.00    +0.243 C 
ATOM     25  H   UNL     1       2.147  -0.737  -1.743  0.00  0.00    +0.150 HD
BRANCH  23  26
ATOM     26  C   UNL     1       2.998  -1.737  -0.111  0.00  0.00    +0.138 C 
BRANCH  26  27
ATOM     27  C   UNL     1       3.824  -2.802  -0.857  0.00  0.00    +0.025 C 
ATOM     28  C   UNL     1       4.563  -2.184  -2.048  0.00  0.00    +0.002 C 
ATOM     29  C   UNL     1       2.994  -3.999  -1.329  0.00  0.00    +0.002 C 
ENDBRANCH  26  27
BRANCH  26  31
ATOM     30  O   UNL     1       4.047   0.434  -0.310  0.00  0.00    -0.286 OA
ATOM     31  C   UNL     1       3.854  -0.572   0.373  0.00  0.00    +0.262 C 
BRANCH  31  35
ATOM     32  F   UNL     1       4.080  -1.846   2.363  0.00  0.00    -0.163 F 
ATOM     33  F   UNL     1       4.008   0.322   2.563  0.00  0.00    -0.163 F 
ATOM     34  F   UNL     1       5.787  -0.640   1.747  0.00  0.00    -0.163 F 
ATOM     35  C   UNL     1       4.431  -0.683   1.756  0.00  0.00    +0.453 C 
ENDBRANCH  31  35
ENDBRANCH  26  31
ENDBRANCH  23  26
ENDBRANCH  21  24
ENDBRANCH   2  21
TORSDOF 9
