REMARK  Name = 10454451
REMARK  7 active torsions:
REMARK  status: ('A' for Active; 'I' for Inactive)
REMARK    1  A    between atoms: C_3  and  C_13
REMARK    2  A    between atoms: C_5  and  O_31
REMARK    3  A    between atoms: C_8  and  O_33
REMARK    4  A    between atoms: C_10  and  C_23
REMARK    5  A    between atoms: C_14  and  O_19
REMARK    6  A    between atoms: C_16  and  O_21
REMARK    7  A    between atoms: C_28  and  O_29
REMARK                            x       y       z     vdW  Elec       q    Type
REMARK                         _______ _______ _______ _____ _____    ______ ____
ROOT
ATOM      1  O   UNL     1      -0.202   0.636   0.000  0.00  0.00    -0.453 OA
ATOM      2  O   UNL     1       1.151   4.475   0.190  0.00  0.00    -0.286 OA
ATOM      3  C   UNL     1       1.999  -0.213  -0.112  0.00  0.00    +0.073 C 
ATOM      4  C   UNL     1       1.147   0.888  -0.021  0.00  0.00    +0.152 C 
ATOM      5  C   UNL     1       3.380  -0.021  -0.138  0.00  0.00    +0.143 C 
ATOM      6  C   UNL     1       1.677   2.176   0.041  0.00  0.00    +0.107 C 
ATOM      7  C   UNL     1       3.909   1.269  -0.075  0.00  0.00    +0.074 C 
ATOM      8  C   UNL     1       3.059   2.373   0.015  0.00  0.00    +0.143 C 
ATOM      9  C   UNL     1       0.756   3.319   0.134  0.00  0.00    +0.205 C 
ATOM     10  C   UNL     1      -1.073   1.711   0.096  0.00  0.00    +0.148 C 
ATOM     11  C   UNL     1      -0.685   2.995   0.156  0.00  0.00    +0.080 C 
ENDROOT
BRANCH   3  13
ATOM     12  O   UNL     1       0.187  -1.576  -0.886  0.00  0.00    -0.351 OA
ATOM     13  C   UNL     1       1.434  -1.615  -0.182  0.00  0.00    +0.146 C 
ATOM     14  C   UNL     1       0.593  -3.591   1.138  0.00  0.00    +0.142 C 
ATOM     15  C   UNL     1       1.244  -2.211   1.222  0.00  0.00    +0.066 C 
ATOM     16  C   UNL     1      -0.682  -3.514   0.292  0.00  0.00    +0.164 C 
ATOM     17  C   UNL     1      -0.395  -2.872  -1.072  0.00  0.00    +0.145 C 
ATOM     18  C   UNL     1      -1.663  -2.679  -1.898  0.00  0.00    +0.035 C 
BRANCH  14  19
ATOM     19  O   UNL     1       1.507  -4.508   0.536  0.00  0.00    -0.382 OA
ATOM     20  H   UNL     1       2.315  -4.557   1.070  0.00  0.00    +0.210 HD
ENDBRANCH  14  19
BRANCH  16  21
ATOM     21  O   UNL     1      -1.216  -4.824   0.146  0.00  0.00    -0.380 OA
ATOM     22  H   UNL     1      -1.386  -5.203   1.023  0.00  0.00    +0.211 HD
ENDBRANCH  16  21
ENDBRANCH   3  13
BRANCH  10  23
ATOM     23  C   UNL     1      -2.499   1.328   0.105  0.00  0.00    +0.035 C 
ATOM     24  C   UNL     1      -3.460   2.187  -0.435  0.00  0.00    +0.006 C 
ATOM     25  C   UNL     1      -2.894   0.106   0.654  0.00  0.00    +0.006 C 
ATOM     26  C   UNL     1      -4.807   1.825  -0.425  0.00  0.00    +0.037 C 
ATOM     27  C   UNL     1      -4.241  -0.256   0.663  0.00  0.00    +0.037 C 
ATOM     28  C   UNL     1      -5.197   0.604   0.123  0.00  0.00    +0.134 C 
BRANCH  28  29
ATOM     29  O   UNL     1      -6.512   0.252   0.133  0.00  0.00    -0.506 OA
ATOM     30  H   UNL     1      -7.154   0.829  -0.230  0.00  0.00    +0.292 HD
ENDBRANCH  28  29
ENDBRANCH  10  23
BRANCH   5  31
ATOM     31  O   UNL     1       4.230  -1.082  -0.225  0.00  0.00    -0.471 OA
ATOM     32  C   UNL     1       5.626  -0.793  -0.246  0.00  0.00    +0.252 C 
ENDBRANCH   5  31
BRANCH   8  33
ATOM     33  O   UNL     1       3.626   3.610   0.073  0.00  0.00    -0.505 OA
ATOM     34  H   UNL     1       3.083   4.371   0.133  0.00  0.00    +0.292 HD
ENDBRANCH   8  33
TORSDOF 7
