REMARK  Name = 10455912
REMARK  0 active torsions:
REMARK  status: ('A' for Active; 'I' for Inactive)
REMARK                            x       y       z     vdW  Elec       q    Type
REMARK                         _______ _______ _______ _____ _____    ______ ____
ROOT
ATOM      1  O   UNL     1      -3.731  -1.515  -0.187  0.00  0.00    -0.445 OA
ATOM      2  O   UNL     1      -3.378   1.480   0.502  0.00  0.00    -0.445 OA
ATOM      3  O   UNL     1       3.458  -2.084   0.220  0.00  0.00    -0.445 OA
ATOM      4  O   UNL     1       3.757   1.945  -0.345  0.00  0.00    -0.445 OA
ATOM      5  O   UNL     1      -2.982  -1.971  -2.319  0.00  0.00    -0.245 OA
ATOM      6  O   UNL     1      -2.499   1.789   2.608  0.00  0.00    -0.245 OA
ATOM      7  O   UNL     1       2.693  -1.711   2.362  0.00  0.00    -0.245 OA
ATOM      8  O   UNL     1       2.845   1.807  -2.456  0.00  0.00    -0.245 OA
ATOM      9  C   UNL     1      -5.354   0.040  -1.147  0.00  0.00    +0.051 C 
ATOM     10  C   UNL     1      -5.698   1.046  -0.041  0.00  0.00    +0.051 C 
ATOM     11  C   UNL     1       5.232  -0.471   0.606  0.00  0.00    +0.051 C 
ATOM     12  C   UNL     1       5.250   0.102  -0.820  0.00  0.00    +0.051 C 
ATOM     13  C   UNL     1      -5.089  -1.379  -0.646  0.00  0.00    +0.209 C 
ATOM     14  C   UNL     1      -4.664   1.192   1.070  0.00  0.00    +0.209 C 
ATOM     15  C   UNL     1       4.834  -1.945   0.627  0.00  0.00    +0.209 C 
ATOM     16  C   UNL     1       5.076   1.620  -0.826  0.00  0.00    +0.209 C 
ATOM     17  C   UNL     1      -1.443  -1.860  -0.508  0.00  0.00    +0.076 C 
ATOM     18  C   UNL     1       1.155  -1.918   0.557  0.00  0.00    +0.076 C 
ATOM     19  C   UNL     1      -1.085   1.852   0.692  0.00  0.00    +0.076 C 
ATOM     20  C   UNL     1       1.435   1.955  -0.542  0.00  0.00    +0.076 C 
ATOM     21  C   UNL     1      -2.791  -1.804  -1.125  0.00  0.00    +0.341 C 
ATOM     22  C   UNL     1      -2.385   1.724   1.394  0.00  0.00    +0.341 C 
ATOM     23  C   UNL     1       2.506  -1.896   1.169  0.00  0.00    +0.341 C 
ATOM     24  C   UNL     1       2.741   1.912  -1.244  0.00  0.00    +0.341 C 
ATOM     25  C   UNL     1      -0.330  -1.869  -1.357  0.00  0.00    +0.007 C 
ATOM     26  C   UNL     1       0.963  -1.895  -0.828  0.00  0.00    +0.007 C 
ATOM     27  C   UNL     1       0.080   1.885   1.466  0.00  0.00    +0.007 C 
ATOM     28  C   UNL     1       1.335   1.935   0.853  0.00  0.00    +0.007 C 
ATOM     29  C   UNL     1      -1.253  -1.894   0.877  0.00  0.00    +0.007 C 
ATOM     30  C   UNL     1       0.041  -1.921   1.405  0.00  0.00    +0.007 C 
ATOM     31  C   UNL     1      -0.987   1.900  -0.702  0.00  0.00    +0.007 C 
ATOM     32  C   UNL     1       0.268   1.950  -1.315  0.00  0.00    +0.007 C 
ENDROOT
TORSDOF 0
