REMARK  Name = 10458124
REMARK  4 active torsions:
REMARK  status: ('A' for Active; 'I' for Inactive)
REMARK    1  A    between atoms: C_9  and  C_24
REMARK    2  A    between atoms: C_9  and  O_35
REMARK    3  A    between atoms: C_16  and  O_37
REMARK    4  A    between atoms: C_29  and  O_33
REMARK                            x       y       z     vdW  Elec       q    Type
REMARK                         _______ _______ _______ _____ _____    ______ ____
ROOT
ATOM      1  O   UNL     1       4.640   1.757   0.214  0.00  0.00    -0.353 OA
ATOM      2  O   UNL     1       3.249  -2.950   0.097  0.00  0.00    -0.291 OA
ATOM      3  C   UNL     1      -0.512   0.846   0.681  0.00  0.00    +0.023 C 
ATOM      4  C   UNL     1       1.904   1.201  -0.141  0.00  0.00    +0.003 C 
ATOM      5  C   UNL     1       0.404   1.348  -0.451  0.00  0.00    +0.002 C 
ATOM      6  C   UNL     1       2.241  -0.300   0.126  0.00  0.00    +0.009 C 
ATOM      7  C   UNL     1       4.726   0.394  -0.271  0.00  0.00    +0.152 C 
ATOM      8  C   UNL     1       3.777  -0.583   0.448  0.00  0.00    +0.083 C 
ATOM      9  C   UNL     1      -1.914   1.230   0.113  0.00  0.00    +0.091 C 
ATOM     10  C   UNL     1       4.187   1.528  -1.116  0.00  0.00    +0.143 C 
ATOM     11  C   UNL     1       2.733   1.728  -1.317  0.00  0.00    +0.032 C 
ATOM     12  C   UNL     1      -0.225  -0.651   0.869  0.00  0.00    +0.002 C 
ATOM     13  C   UNL     1       1.260  -0.905   1.180  0.00  0.00    +0.001 C 
ATOM     14  C   UNL     1      -0.143   2.739  -0.759  0.00  0.00    +0.002 C 
ATOM     15  C   UNL     1      -1.662   2.617  -0.538  0.00  0.00    +0.027 C 
ATOM     16  C   UNL     1       6.162  -0.028  -0.491  0.00  0.00    +0.160 C 
ATOM     17  C   UNL     1      -0.285   1.582   2.034  0.00  0.00    +0.002 C 
ATOM     18  C   UNL     1       4.061  -0.533   1.966  0.00  0.00    +0.010 C 
ATOM     19  C   UNL     1       4.073  -2.040  -0.006  0.00  0.00    +0.174 C 
ATOM     20  C   UNL     1       6.359  -1.487  -0.718  0.00  0.00    +0.008 C 
ATOM     21  C   UNL     1       5.413  -2.405  -0.525  0.00  0.00    +0.035 C 
ENDROOT
BRANCH   9  24
ATOM     22  O   UNL     1      -4.727   1.220  -0.499  0.00  0.00    -0.451 OA
ATOM     23  O   UNL     1      -5.638   0.995   1.553  0.00  0.00    -0.248 OA
ATOM     24  C   UNL     1      -2.503   0.249  -0.909  0.00  0.00    +0.065 C 
ATOM     25  C   UNL     1      -2.761  -1.155  -0.331  0.00  0.00    +0.009 C 
ATOM     26  C   UNL     1      -3.857   0.656  -1.506  0.00  0.00    +0.171 C 
ATOM     27  C   UNL     1      -4.215  -1.515  -0.762  0.00  0.00    +0.036 C 
ATOM     28  C   UNL     1      -4.411  -0.660  -2.019  0.00  0.00    +0.046 C 
ATOM     29  C   UNL     1      -5.237  -1.040   0.310  0.00  0.00    +0.177 C 
ATOM     30  C   UNL     1      -4.321  -3.012  -1.066  0.00  0.00    +0.003 C 
ATOM     31  C   UNL     1      -5.205   0.470   0.530  0.00  0.00    +0.341 C 
ATOM     32  C   UNL     1      -6.697  -1.397  -0.020  0.00  0.00    +0.041 C 
BRANCH  29  33
ATOM     33  O   UNL     1      -4.988  -1.664   1.569  0.00  0.00    -0.376 OA
ATOM     34  H   UNL     1      -4.076  -1.481   1.846  0.00  0.00    +0.211 HD
ENDBRANCH  29  33
ENDBRANCH   9  24
BRANCH   9  35
ATOM     35  O   UNL     1      -2.873   1.354   1.161  0.00  0.00    -0.387 OA
ATOM     36  H   UNL     1      -3.026   0.485   1.563  0.00  0.00    +0.210 HD
ENDBRANCH   9  35
BRANCH  16  37
ATOM     37  O   UNL     1       6.986   0.407   0.593  0.00  0.00    -0.378 OA
ATOM     38  H   UNL     1       6.854   1.358   0.737  0.00  0.00    +0.211 HD
ENDBRANCH  16  37
TORSDOF 4
