REMARK  Name = 10453870
REMARK  8 active torsions:
REMARK  status: ('A' for Active; 'I' for Inactive)
REMARK    1  A    between atoms: C_2  and  C_12
REMARK    2  A    between atoms: C_5  and  C_23
REMARK    3  A    between atoms: C_9  and  O_14
REMARK    4  A    between atoms: C_10  and  O_16
REMARK    5  A    between atoms: C_11  and  O_18
REMARK    6  A    between atoms: C_13  and  C_20
REMARK    7  A    between atoms: C_20  and  O_21
REMARK    8  A    between atoms: C_23  and  C_25
REMARK                            x       y       z     vdW  Elec       q    Type
REMARK                         _______ _______ _______ _____ _____    ______ ____
ROOT
ATOM      1  F   UNL     1      -1.804   3.711   0.443  0.00  0.00    -0.204 F 
ATOM      2  C   UNL     1       1.481   1.221   0.671  0.00  0.00    +0.007 C 
ATOM      3  C   UNL     1       0.525   1.017  -0.323  0.00  0.00    -0.004 C 
ATOM      4  C   UNL     1       1.329   2.262   1.585  0.00  0.00    +0.000 C 
ATOM      5  C   UNL     1      -0.586   1.857  -0.403  0.00  0.00    +0.010 C 
ATOM      6  C   UNL     1       0.218   3.102   1.505  0.00  0.00    +0.029 C 
ATOM      7  C   UNL     1      -0.740   2.899   0.511  0.00  0.00    +0.136 C 
ENDROOT
BRANCH   2  12
ATOM      8  O   UNL     1       3.443   0.470  -0.447  0.00  0.00    -0.347 OA
ATOM      9  C   UNL     1       2.285  -1.160   0.957  0.00  0.00    +0.171 C 
ATOM     10  C   UNL     1       3.508  -2.079   0.881  0.00  0.00    +0.169 C 
ATOM     11  C   UNL     1       4.359  -1.772  -0.351  0.00  0.00    +0.169 C 
ATOM     12  C   UNL     1       2.688   0.309   0.758  0.00  0.00    +0.167 C 
ATOM     13  C   UNL     1       4.661  -0.275  -0.442  0.00  0.00    +0.174 C 
BRANCH   9  14
ATOM     14  O   UNL     1       1.681  -1.298   2.243  0.00  0.00    -0.379 OA
ATOM     15  H   UNL     1       1.421  -2.222   2.381  0.00  0.00    +0.211 HD
ENDBRANCH   9  14
BRANCH  10  16
ATOM     16  O   UNL     1       3.076  -3.438   0.791  0.00  0.00    -0.379 OA
ATOM     17  H   UNL     1       2.533  -3.657   1.564  0.00  0.00    +0.211 HD
ENDBRANCH  10  16
BRANCH  11  18
ATOM     18  O   UNL     1       5.584  -2.495  -0.269  0.00  0.00    -0.379 OA
ATOM     19  H   UNL     1       5.396  -3.445  -0.211  0.00  0.00    +0.211 HD
ENDBRANCH  11  18
BRANCH  13  20
ATOM     20  C   UNL     1       5.416   0.072  -1.721  0.00  0.00    +0.169 C 
BRANCH  20  21
ATOM     21  O   UNL     1       5.650   1.469  -1.742  0.00  0.00    -0.379 OA
ATOM     22  H   UNL     1       6.130   1.704  -2.551  0.00  0.00    +0.211 HD
ENDBRANCH  20  21
ENDBRANCH  13  20
ENDBRANCH   2  12
BRANCH   5  23
ATOM     23  C   UNL     1      -1.608   1.637  -1.467  0.00  0.00    +0.061 C 
BRANCH  23  25
ATOM     24  S   UNL     1      -2.537  -0.951  -1.337  0.00  0.00    -0.091 S 
ATOM     25  C   UNL     1      -2.724   0.701  -1.049  0.00  0.00    +0.012 C 
ATOM     26  C   UNL     1      -3.891   1.034  -0.454  0.00  0.00    +0.003 C 
ATOM     27  C   UNL     1      -4.707  -0.119  -0.204  0.00  0.00    +0.006 C 
ATOM     28  C   UNL     1      -4.079  -1.289  -0.643  0.00  0.00    +0.029 C 
ATOM     29  C   UNL     1      -5.987  -0.230   0.392  0.00  0.00    +0.001 C 
ATOM     30  C   UNL     1      -4.691  -2.550  -0.504  0.00  0.00    +0.006 C 
ATOM     31  C   UNL     1      -6.596  -1.480   0.531  0.00  0.00    +0.000 C 
ATOM     32  C   UNL     1      -5.953  -2.627   0.087  0.00  0.00    +0.001 C 
ENDBRANCH  23  25
ENDBRANCH   5  23
TORSDOF 8
