REMARK  Name = 10455205
REMARK  11 active torsions:
REMARK  status: ('A' for Active; 'I' for Inactive)
REMARK    1  A    between atoms: C_1  and  C_22
REMARK    2  A    between atoms: C_6  and  C_9
REMARK    3  A    between atoms: N_8  and  CA_11
REMARK    4  A    between atoms: CA_11  and  C_13
REMARK    5  A    between atoms: CA_11  and  CB_16
REMARK    6  A    between atoms: C_13  and  O_14
REMARK    7  A    between atoms: CB_16  and  CG_17
REMARK    8  A    between atoms: CG_17  and  CD_19
REMARK    9  A    between atoms: CD_19  and  OE1_20
REMARK   10  A    between atoms: C_22  and  C_23
REMARK   11  A    between atoms: C_23  and  C_28
REMARK                            x       y       z     vdW  Elec       q    Type
REMARK                         _______ _______ _______ _____ _____    ______ ____
ROOT
ATOM      1  C   UNL     1       0.687   2.124  -0.440  0.00  0.00    -0.022 C 
ATOM      2  C   UNL     1      -0.112   1.997   0.696  0.00  0.00    -0.004 C 
ATOM      3  C   UNL     1       0.116   2.033  -1.709  0.00  0.00    -0.004 C 
ATOM      4  C   UNL     1      -1.484   1.779   0.563  0.00  0.00    +0.004 C 
ATOM      5  C   UNL     1      -1.256   1.815  -1.842  0.00  0.00    +0.004 C 
ATOM      6  C   UNL     1      -2.055   1.688  -0.706  0.00  0.00    +0.053 C 
ENDROOT
BRANCH   6   9
ATOM      7  O   UNL     1      -4.088   1.838  -1.865  0.00  0.00    -0.270 OA
ATOM      8  N   UNL     1      -4.126   0.785   0.200  0.00  0.00    -0.293 N 
ATOM      9  C   ACE A   0      -3.485   1.460  -0.845  0.00  0.00    +0.246 C 
ATOM     10  H   UNL     1      -3.587   0.514   0.978  0.00  0.00    +0.150 HD
BRANCH   8  11
ATOM     11  CA  UNL     1      -5.535   0.464   0.198  0.00  0.00    +0.172 C 
BRANCH  11  13
ATOM     12  OXT UNL     1      -5.324   0.759   2.607  0.00  0.00    -0.248 OA
ATOM     13  C   UNL     1      -6.032   0.575   1.625  0.00  0.00    +0.332 C 
BRANCH  13  14
ATOM     14  O   UNL     1      -7.386   0.486   1.699  0.00  0.00    -0.479 OA
ATOM     15  H   UNL     1      -7.889   0.345   0.921  0.00  0.00    +0.295 HD
ENDBRANCH  13  14
ENDBRANCH  11  13
BRANCH  11  16
ATOM     16  CB  UNL     1      -5.833  -0.891  -0.457  0.00  0.00    +0.043 C 
BRANCH  16  17
ATOM     17  CG  UNL     1      -5.215  -2.116   0.230  0.00  0.00    +0.112 C 
BRANCH  17  19
ATOM     18  OE2 UNL     1      -6.196  -3.549  -1.478  0.00  0.00    -0.250 OA
ATOM     19  CD  UNL     1      -5.528  -3.425  -0.461  0.00  0.00    +0.314 C 
BRANCH  19  20
ATOM     20  OE1 UNL     1      -5.005  -4.483   0.212  0.00  0.00    -0.480 OA
ATOM     21  HE1 UNL     1      -4.499  -4.341   0.988  0.00  0.00    +0.295 HD
ENDBRANCH  19  20
ENDBRANCH  17  19
ENDBRANCH  16  17
ENDBRANCH  11  16
ENDBRANCH   8  11
ENDBRANCH   6   9
BRANCH   1  22
ATOM     22  C   UNL     1       2.169   2.361  -0.296  0.00  0.00    +0.026 C 
BRANCH  22  23
ATOM     23  C   UNL     1       2.947   1.046  -0.242  0.00  0.00    +0.006 C 
BRANCH  23  28
ATOM     24  N   UNL     1       6.362  -1.417   1.456  0.00  0.00    -0.337 NA
ATOM     25  N   UNL     1       6.269  -1.966  -0.906  0.00  0.00    -0.318 NA
ATOM     26  N   UNL     1       5.172  -0.545  -2.451  0.00  0.00    -0.335 N 
ATOM     27  N   UNL     1       7.384  -3.359   0.624  0.00  0.00    -0.283 N 
ATOM     28  C   UNL     1       4.446   1.294  -0.124  0.00  0.00    +0.015 C 
ATOM     29  C   UNL     1       4.843   1.879   1.250  0.00  0.00    +0.008 C 
ATOM     30  C   UNL     1       5.227   0.022  -0.114  0.00  0.00    +0.116 C 
ATOM     31  C   UNL     1       5.188   0.691   2.164  0.00  0.00    +0.056 C 
ATOM     32  C   UNL     1       5.660  -0.316   1.157  0.00  0.00    +0.108 C 
ATOM     33  C   UNL     1       5.556  -0.841  -1.127  0.00  0.00    +0.173 C 
ATOM     34  C   UNL     1       6.633  -2.188   0.382  0.00  0.00    +0.196 C 
ATOM     35  H   UNL     1       5.406  -1.162  -3.181  0.00  0.00    +0.144 HD
ATOM     36  H   UNL     1       4.669   0.279  -2.645  0.00  0.00    +0.144 HD
ATOM     37  H   UNL     1       7.677  -3.575   1.539  0.00  0.00    +0.156 HD
ATOM     38  H   UNL     1       7.614  -3.959  -0.121  0.00  0.00    +0.156 HD
ENDBRANCH  23  28
ENDBRANCH  22  23
ENDBRANCH   1  22
TORSDOF 11
