REMARK  Name = 104545
REMARK  10 active torsions:
REMARK  status: ('A' for Active; 'I' for Inactive)
REMARK    1  A    between atoms: N_2  and  C_5
REMARK    2  A    between atoms: C_3  and  C_18
REMARK    3  A    between atoms: C_7  and  C_15
REMARK    4  A    between atoms: C_9  and  N_13
REMARK    5  A    between atoms: C_15  and  O_16
REMARK    6  A    between atoms: C_18  and  C_19
REMARK    7  A    between atoms: C_19  and  CA_20
REMARK    8  A    between atoms: CA_20  and  N_21
REMARK    9  A    between atoms: CA_20  and  C_26
REMARK   10  A    between atoms: C_26  and  O_27
REMARK                            x       y       z     vdW  Elec       q    Type
REMARK                         _______ _______ _______ _____ _____    ______ ____
ROOT
ATOM      1  O   UNL     1       1.980  -1.938   0.569  0.00  0.00    -0.275 OA
ATOM      2  N   UNL     1       0.866   0.076   1.032  0.00  0.00    -0.284 N 
ATOM      3  C   UNL     1       1.953  -0.793   1.008  0.00  0.00    +0.226 C 
ATOM      4  H   UNL     1       1.034   0.973   1.402  0.00  0.00    +0.155 HD
ENDROOT
BRANCH   2   5
ATOM      5  C   UNL     1      -0.452  -0.179   0.586  0.00  0.00    +0.051 C 
ATOM      6  C   UNL     1      -1.408   0.818   0.688  0.00  0.00    +0.023 C 
ATOM      7  C   UNL     1      -2.707   0.566   0.249  0.00  0.00    +0.099 C 
ATOM      8  C   UNL     1      -0.759  -1.422   0.056  0.00  0.00    +0.016 C 
ATOM      9  C   UNL     1      -3.033  -0.680  -0.287  0.00  0.00    +0.149 C 
ATOM     10  C   UNL     1      -2.059  -1.674  -0.384  0.00  0.00    +0.026 C 
BRANCH   9  13
ATOM     11  O   UNL     1      -4.596  -2.097  -1.218  0.00  0.00    -0.126 OA
ATOM     12  O   UNL     1      -5.226  -0.071  -0.656  0.00  0.00    -0.126 OA
ATOM     13  N   UNL     1      -4.350  -0.963  -0.743  0.00  0.00    +0.058 N 
ENDBRANCH   9  13
BRANCH   7  15
ATOM     14  O   UNL     1      -4.428   1.817   1.342  0.00  0.00    -0.245 OA
ATOM     15  C   UNL     1      -3.698   1.629   0.367  0.00  0.00    +0.340 C 
BRANCH  15  16
ATOM     16  O   UNL     1      -3.741   2.420  -0.739  0.00  0.00    -0.477 OA
ATOM     17  H   UNL     1      -3.170   2.247  -1.461  0.00  0.00    +0.295 HD
ENDBRANCH  15  16
ENDBRANCH   7  15
ENDBRANCH   2   5
BRANCH   3  18
ATOM     18  C   UNL     1       3.193  -0.120   1.583  0.00  0.00    +0.084 C 
BRANCH  18  19
ATOM     19  C   UNL     1       4.507  -0.627   0.984  0.00  0.00    -0.001 C 
BRANCH  19  20
ATOM     20  CA  UNL     1       4.646  -0.380  -0.525  0.00  0.00    +0.036 C 
BRANCH  20  21
ATOM     21  N   UNL     1       5.960  -0.834  -0.991  0.00  0.00    +0.389 N 
ATOM     22  H1  UNL     1       6.068  -1.827  -0.788  0.00  0.00    -0.088 HD
ATOM     23  H2  UNL     1       6.691  -0.307  -0.513  0.00  0.00    -0.088 HD
ATOM     24  H3  UNL     1       6.035  -0.683  -1.997  0.00  0.00    -0.088 HD
ENDBRANCH  20  21
BRANCH  20  26
ATOM     25  OXT UNL     1       5.497   1.883  -0.836  0.00  0.00    -0.253 OA
ATOM     26  C   UNL     1       4.556   1.098  -0.860  0.00  0.00    +0.293 C 
BRANCH  26  27
ATOM     27  O   UNL     1       3.301   1.470  -1.224  0.00  0.00    -0.482 OA
ATOM     28  H   UNL     1       2.608   0.838  -1.229  0.00  0.00    +0.295 HD
ENDBRANCH  26  27
ENDBRANCH  20  26
ENDBRANCH  19  20
ENDBRANCH  18  19
ENDBRANCH   3  18
TORSDOF 10
