REMARK  Name = 10468589
REMARK  12 active torsions:
REMARK  status: ('A' for Active; 'I' for Inactive)
REMARK    1  A    between atoms: C_1  and  C_4
REMARK    2  A    between atoms: C_1  and  O_14
REMARK    3  A    between atoms: C_1  and  C_16
REMARK    4  A    between atoms: N_3  and  CA_6
REMARK    5  A    between atoms: CA_6  and  CB_7
REMARK    6  A    between atoms: CA_6  and  C_11
REMARK    7  A    between atoms: C_11  and  O_12
REMARK    8  A    between atoms: C_16  and  N_17
REMARK    9  A    between atoms: C_16  and  C_21
REMARK   10  A    between atoms: C_21  and  C_22
REMARK   11  A    between atoms: C_22  and  C_23
REMARK   12  A    between atoms: C_23  and  C_24
REMARK                            x       y       z     vdW  Elec       q    Type
REMARK                         _______ _______ _______ _____ _____    ______ ____
ROOT
ATOM      1  C   UNL     1       0.484   1.882  -0.591  0.00  0.00    +0.166 C 
ENDROOT
BRANCH   1   4
ATOM      2  O   UNL     1      -0.161   0.090  -2.080  0.00  0.00    -0.273 OA
ATOM      3  N   UNL     1      -1.460   0.490  -0.197  0.00  0.00    -0.295 N 
ATOM      4  C   ACE A   0      -0.393   0.721  -1.051  0.00  0.00    +0.248 C 
ATOM      5  H   UNL     1      -1.551   1.057   0.603  0.00  0.00    +0.150 HD
BRANCH   3   6
ATOM      6  CA  UNL     1      -2.446  -0.542  -0.423  0.00  0.00    +0.171 C 
BRANCH   6   7
ATOM      7  CB  UNL     1      -1.982  -1.871   0.210  0.00  0.00    +0.029 C 
ATOM      8  CG1 UNL     1      -2.878  -3.047  -0.189  0.00  0.00    +0.002 C 
ATOM      9  CG2 UNL     1      -1.849  -1.800   1.734  0.00  0.00    +0.002 C 
ENDBRANCH   6   7
BRANCH   6  11
ATOM     10  OXT UNL     1      -4.855  -0.722  -0.167  0.00  0.00    -0.248 OA
ATOM     11  C   UNL     1      -3.829  -0.079   0.026  0.00  0.00    +0.332 C 
BRANCH  11  12
ATOM     12  O   UNL     1      -3.851   1.140   0.619  0.00  0.00    -0.479 OA
ATOM     13  H   UNL     1      -3.051   1.609   0.754  0.00  0.00    +0.295 HD
ENDBRANCH  11  12
ENDBRANCH   6  11
ENDBRANCH   3   6
ENDBRANCH   1   4
BRANCH   1  14
ATOM     14  O   UNL     1      -0.288   3.072  -0.606  0.00  0.00    -0.377 OA
ATOM     15  H   UNL     1       0.260   3.817  -0.315  0.00  0.00    +0.211 HD
ENDBRANCH   1  14
BRANCH   1  16
ATOM     16  C   UNL     1       1.091   1.635   0.806  0.00  0.00    -0.029 C 
BRANCH  16  17
ATOM     17  N   UNL     1       1.838   2.821   1.244  0.00  0.00    +0.384 N 
ATOM     18  H   UNL     1       2.236   2.649   2.168  0.00  0.00    -0.089 HD
ATOM     19  H   UNL     1       1.209   3.622   1.289  0.00  0.00    -0.089 HD
ATOM     20  H   UNL     1       2.589   3.014   0.581  0.00  0.00    -0.089 HD
ENDBRANCH  16  17
BRANCH  16  21
ATOM     21  C   UNL     1       1.971   0.373   0.948  0.00  0.00    -0.019 C 
BRANCH  21  22
ATOM     22  C   UNL     1       3.213   0.289   0.054  0.00  0.00    -0.002 C 
BRANCH  22  23
ATOM     23  C   UNL     1       4.028  -0.971   0.367  0.00  0.00    -0.000 C 
BRANCH  23  24
ATOM     24  C   UNL     1       5.296  -1.099  -0.480  0.00  0.00    -0.000 C 
ATOM     25  C   UNL     1       6.072  -2.382  -0.223  0.00  0.00    -0.000 C 
ENDBRANCH  23  24
ENDBRANCH  22  23
ENDBRANCH  21  22
ENDBRANCH  16  21
ENDBRANCH   1  16
TORSDOF 12
