REMARK  Name = 10469765
REMARK  5 active torsions:
REMARK  status: ('A' for Active; 'I' for Inactive)
REMARK    1  A    between atoms: N_1  and  C1*_15
REMARK    2  A    between atoms: C2*_14  and  O2*_18
REMARK    3  A    between atoms: C3*_16  and  O3*_20
REMARK    4  A    between atoms: C4*_17  and  C5*_22
REMARK    5  A    between atoms: C5*_22  and  O5*_23
REMARK                            x       y       z     vdW  Elec       q    Type
REMARK                         _______ _______ _______ _____ _____    ______ ____
ROOT
ATOM      1  N   UNL     1       0.220   1.067  -0.335  0.00  0.00    -0.247 N 
ATOM      2  N   UNL     1      -1.874   1.848  -0.334  0.00  0.00    -0.242 NA
ATOM      3  N   UNL     1      -0.225  -1.295   0.026  0.00  0.00    -0.228 NA
ATOM      4  N   UNL     1      -4.259   0.003   0.054  0.00  0.00    -0.289 N 
ATOM      5  N   UNL     1      -2.619  -1.732   0.216  0.00  0.00    -0.228 NA
ATOM      6  C   UNL     1      -0.595  -0.016  -0.137  0.00  0.00    +0.152 C 
ATOM      7  C   UNL     1      -0.600   2.163  -0.447  0.00  0.00    +0.223 C 
ATOM      8  C   UNL     1      -1.885   0.490  -0.140  0.00  0.00    +0.140 C 
ATOM      9  C   UNL     1      -2.919  -0.422   0.045  0.00  0.00    +0.149 C 
ATOM     10  C   UNL     1      -1.310  -2.082   0.196  0.00  0.00    +0.253 C 
ATOM     11  C   UNL     1      -4.677   1.153  -0.717  0.00  0.00    +0.114 C 
ATOM     12  C   UNL     1      -5.256  -0.702   0.830  0.00  0.00    +0.114 C 
ENDROOT
BRANCH   1  15
ATOM     13  O4* UNL     1       2.149  -0.139  -1.037  0.00  0.00    -0.333 OA
ATOM     14  C2* UNL     1       2.409   1.188   0.919  0.00  0.00    +0.187 C 
ATOM     15  C1* UNL     1       1.676   1.068  -0.413  0.00  0.00    +0.225 C 
ATOM     16  C3* UNL     1       3.757   0.587   0.577  0.00  0.00    +0.171 C 
ATOM     17  C4* UNL     1       3.420  -0.492  -0.454  0.00  0.00    +0.175 C 
BRANCH  14  18
ATOM     18  O2* UNL     1       1.782   0.401   1.924  0.00  0.00    -0.378 OA
ATOM     19  H2* UNL     1       0.919   0.785   2.144  0.00  0.00    +0.211 HD
ENDBRANCH  14  18
BRANCH  16  20
ATOM     20  O3* UNL     1       4.554   1.596  -0.040  0.00  0.00    -0.379 OA
ATOM     21  H3* UNL     1       4.769   2.281   0.612  0.00  0.00    +0.211 HD
ENDBRANCH  16  20
BRANCH  17  22
ATOM     22  C5* UNL     1       3.287  -1.883   0.150  0.00  0.00    +0.169 C 
BRANCH  22  23
ATOM     23  O5* UNL     1       2.965  -2.798  -0.883  0.00  0.00    -0.379 OA
ATOM     24  H5* UNL     1       2.878  -3.689  -0.510  0.00  0.00    +0.211 HD
ENDBRANCH  22  23
ENDBRANCH  17  22
ENDBRANCH   1  15
TORSDOF 5
