10468589
  -OEChem-03292013303D

 45 44  0     1  0  0  0  0  0999 V2000
   -0.2885    3.0718   -0.6056 O   0  0  0  0  0  0  0  0  0  0  0  0
   -0.1611    0.0905   -2.0805 O   0  0  0  0  0  0  0  0  0  0  0  0
   -3.8510    1.1398    0.6188 O   0  0  0  0  0  0  0  0  0  0  0  0
   -4.8551   -0.7224   -0.1667 O   0  0  0  0  0  0  0  0  0  0  0  0
   -1.4601    0.4900   -0.1972 N   0  0  0  0  0  0  0  0  0  0  0  0
    1.8383    2.8205    1.2444 N   0  0  0  0  0  0  0  0  0  0  0  0
    1.0911    1.6353    0.8059 C   0  0  2  0  0  0  0  0  0  0  0  0
    1.9707    0.3729    0.9481 C   0  0  0  0  0  0  0  0  0  0  0  0
    0.4837    1.8823   -0.5911 C   0  0  1  0  0  0  0  0  0  0  0  0
    3.2129    0.2888    0.0537 C   0  0  0  0  0  0  0  0  0  0  0  0
   -2.4463   -0.5419   -0.4234 C   0  0  1  0  0  0  0  0  0  0  0  0
   -1.9817   -1.8711    0.2096 C   0  0  0  0  0  0  0  0  0  0  0  0
    4.0283   -0.9707    0.3671 C   0  0  0  0  0  0  0  0  0  0  0  0
   -0.3928    0.7209   -1.0510 C   0  0  0  0  0  0  0  0  0  0  0  0
    5.2960   -1.0992   -0.4803 C   0  0  0  0  0  0  0  0  0  0  0  0
   -2.8779   -3.0468   -0.1891 C   0  0  0  0  0  0  0  0  0  0  0  0
   -1.8488   -1.7995    1.7341 C   0  0  0  0  0  0  0  0  0  0  0  0
   -3.8294   -0.0793    0.0261 C   0  0  0  0  0  0  0  0  0  0  0  0
    6.0716   -2.3819   -0.2228 C   0  0  0  0  0  0  0  0  0  0  0  0
    0.2730    1.5329    1.5297 H   0  0  0  0  0  0  0  0  0  0  0  0
    2.2881    0.2916    1.9971 H   0  0  0  0  0  0  0  0  0  0  0  0
    1.3463   -0.5107    0.7630 H   0  0  0  0  0  0  0  0  0  0  0  0
    1.2881    2.0102   -1.3256 H   0  0  0  0  0  0  0  0  0  0  0  0
    2.9135    0.2745   -1.0002 H   0  0  0  0  0  0  0  0  0  0  0  0
    3.8431    1.1729    0.2023 H   0  0  0  0  0  0  0  0  0  0  0  0
   -2.5200   -0.6727   -1.5112 H   0  0  0  0  0  0  0  0  0  0  0  0
   -0.9802   -2.0926   -0.1853 H   0  0  0  0  0  0  0  0  0  0  0  0
    3.3984   -1.8546    0.2064 H   0  0  0  0  0  0  0  0  0  0  0  0
    4.3082   -0.9699    1.4279 H   0  0  0  0  0  0  0  0  0  0  0  0
   -1.5856    1.0889    0.6131 H   0  0  0  0  0  0  0  0  0  0  0  0
    5.9509   -0.2416   -0.2856 H   0  0  0  0  0  0  0  0  0  0  0  0
    5.0275   -1.0589   -1.5427 H   0  0  0  0  0  0  0  0  0  0  0  0
    2.1493    2.6946    2.2067 H   0  0  0  0  0  0  0  0  0  0  0  0
    1.2222    3.6324    1.2428 H   0  0  0  0  0  0  0  0  0  0  0  0
   -3.8590   -2.9987    0.2925 H   0  0  0  0  0  0  0  0  0  0  0  0
   -2.4161   -3.9940    0.1112 H   0  0  0  0  0  0  0  0  0  0  0  0
   -3.0237   -3.0799   -1.2737 H   0  0  0  0  0  0  0  0  0  0  0  0
   -2.8126   -1.5938    2.2112 H   0  0  0  0  0  0  0  0  0  0  0  0
   -1.4747   -2.7489    2.1326 H   0  0  0  0  0  0  0  0  0  0  0  0
   -1.1454   -1.0172    2.0366 H   0  0  0  0  0  0  0  0  0  0  0  0
   -0.5450    3.2443   -1.5277 H   0  0  0  0  0  0  0  0  0  0  0  0
    6.3882   -2.4425    0.8232 H   0  0  0  0  0  0  0  0  0  0  0  0
    5.4587   -3.2604   -0.4478 H   0  0  0  0  0  0  0  0  0  0  0  0
    6.9656   -2.4191   -0.8530 H   0  0  0  0  0  0  0  0  0  0  0  0
   -4.7601    1.4084    0.8711 H   0  0  0  0  0  0  0  0  0  0  0  0
  1  9  1  0  0  0  0
  1 41  1  0  0  0  0
  2 14  2  0  0  0  0
  3 18  1  0  0  0  0
  3 45  1  0  0  0  0
  4 18  2  0  0  0  0
  5 11  1  0  0  0  0
  5 14  1  0  0  0  0
  5 30  1  0  0  0  0
  6  7  1  0  0  0  0
  6 33  1  0  0  0  0
  6 34  1  0  0  0  0
  7  8  1  0  0  0  0
  7  9  1  0  0  0  0
  7 20  1  0  0  0  0
  8 10  1  0  0  0  0
  8 21  1  0  0  0  0
  8 22  1  0  0  0  0
  9 14  1  0  0  0  0
  9 23  1  0  0  0  0
 10 13  1  0  0  0  0
 10 24  1  0  0  0  0
 10 25  1  0  0  0  0
 11 12  1  0  0  0  0
 11 18  1  0  0  0  0
 11 26  1  0  0  0  0
 12 16  1  0  0  0  0
 12 17  1  0  0  0  0
 12 27  1  0  0  0  0
 13 15  1  0  0  0  0
 13 28  1  0  0  0  0
 13 29  1  0  0  0  0
 15 19  1  0  0  0  0
 15 31  1  0  0  0  0
 15 32  1  0  0  0  0
 16 35  1  0  0  0  0
 16 36  1  0  0  0  0
 16 37  1  0  0  0  0
 17 38  1  0  0  0  0
 17 39  1  0  0  0  0
 17 40  1  0  0  0  0
 19 42  1  0  0  0  0
 19 43  1  0  0  0  0
 19 44  1  0  0  0  0
M  END
> <PUBCHEM_COMPOUND_CID>
10468589

> <PUBCHEM_CONFORMER_RMSD>
1

> <PUBCHEM_CONFORMER_DIVERSEORDER>
2
65
8
88
73
39
48
62
15
28
21
44
85
23
10
86
46
4
32
70
13
83
77
37
87
79
54
29
35
78
36
42
53
68
11
67
74
9
22
40
12
5
6
71
60
38
26
34
31
66
47
59
69
63
25
33
57
84
80
7
20
52
14
55
75
16
17
43
51
82
30
76
56
18
61
45
58
24
49
19
81
3
41
64
27
50
72
1

> <PUBCHEM_MMFF94_PARTIAL_CHARGES>
16
1 -0.68
11 0.36
14 0.57
18 0.66
2 -0.57
3 -0.65
30 0.37
33 0.36
34 0.36
4 -0.57
41 0.4
45 0.5
5 -0.73
6 -0.99
7 0.27
9 0.34

> <PUBCHEM_EFFECTIVE_ROTOR_COUNT>
10

> <PUBCHEM_PHARMACOPHORE_FEATURES>
12
1 1 acceptor
1 1 donor
1 19 hydrophobe
1 2 acceptor
1 3 acceptor
1 4 acceptor
1 5 donor
1 6 cation
1 6 donor
3 12 16 17 hydrophobe
3 3 4 18 anion
4 8 10 13 15 hydrophobe

> <PUBCHEM_HEAVY_ATOM_COUNT>
19

> <PUBCHEM_ATOM_DEF_STEREO_COUNT>
3

> <PUBCHEM_ATOM_UDEF_STEREO_COUNT>
0

> <PUBCHEM_BOND_DEF_STEREO_COUNT>
0

> <PUBCHEM_BOND_UDEF_STEREO_COUNT>
0

> <PUBCHEM_ISOTOPIC_ATOM_COUNT>
0

> <PUBCHEM_COMPONENT_COUNT>
1

> <PUBCHEM_CACTVS_TAUTO_COUNT>
2

> <PUBCHEM_CONFORMER_ID>
009FBCED00000002

> <PUBCHEM_MMFF94_ENERGY>
17.6831

> <PUBCHEM_FEATURE_SELFOVERLAP>
60.964

> <PUBCHEM_SHAPE_FINGERPRINT>
12011746 2 18336257960218694215
12553582 1 18261659407598906338
12555020 224 18410282628083279511
12596602 18 14620498031250222862
12633257 1 18130520685697560179
12760667 363 18269835329219607742
12788726 201 18189613831206416650
13533116 47 18198899413082662959
13583140 156 17057515122086732017
14251731 5 18336829796597036058
14251740 79 18042409028531842162
14251757 5 18335423409455162570
14251764 30 18041290910509628202
14866123 147 18196374715009518281
15061688 2 9079111172595411764
17492 89 18123748926974630063
17804303 29 18411138039069840061
1813 80 17385998498894148452
192875 21 13326570782661135075
19784866 135 18337103463180453128
20403669 9 18342178822108707038
20600515 1 18339377274548576004
20871999 31 17822284631127794724
21069387 34 18198893898307738623
22950370 63 18410859858723279748
23559900 14 18339634667701621297
59755656 215 18262228933859401511
7097593 13 18124029298101839557
9709674 26 17974003152763780499

> <PUBCHEM_SHAPE_MULTIPOLES>
357.57
10.06
3.19
1.25
10.53
0.33
-0.01
-8.36
-0.35
0.33
0.32
-0.11
0.12
0.79

> <PUBCHEM_SHAPE_SELFOVERLAP>
678.75

> <PUBCHEM_SHAPE_VOLUME>
220.1

> <PUBCHEM_COORDINATE_TYPE>
2
5
10

$$$$
