REMARK  Name = 10477786
REMARK  11 active torsions:
REMARK  status: ('A' for Active; 'I' for Inactive)
REMARK    1  A    between atoms: C_9  and  O_22
REMARK    2  A    between atoms: C_13  and  C_15
REMARK    3  A    between atoms: C_16  and  C_17
REMARK    4  A    between atoms: C_18  and  C_19
REMARK    5  A    between atoms: O_22  and  C_24
REMARK    6  A    between atoms: C_24  and  C_25
REMARK    7  A    between atoms: C_25  and  C_26
REMARK    8  A    between atoms: C_26  and  O_27
REMARK    9  A    between atoms: C_26  and  C_29
REMARK   10  A    between atoms: C_29  and  C_30
REMARK   11  A    between atoms: C_30  and  O_32
REMARK                            x       y       z     vdW  Elec       q    Type
REMARK                         _______ _______ _______ _____ _____    ______ ____
ROOT
ATOM      1  O   UNL     1       1.186   2.361  -0.046  0.00  0.00    -0.305 OA
ATOM      2  O   UNL     1       3.056   0.884  -0.512  0.00  0.00    -0.450 OA
ATOM      3  O   UNL     1      -1.021   1.253  -1.848  0.00  0.00    -0.289 OA
ATOM      4  O   UNL     1      -2.646  -0.241   2.232  0.00  0.00    -0.287 OA
ATOM      5  C   UNL     1       0.538   1.078  -0.072  0.00  0.00    +0.233 C 
ATOM      6  C   UNL     1       1.758   1.373  -0.915  0.00  0.00    +0.325 C 
ATOM      7  C   UNL     1       0.671   0.091   1.010  0.00  0.00    +0.021 C 
ATOM      8  C   UNL     1      -0.832   1.160  -0.641  0.00  0.00    +0.228 C 
ATOM      9  C   UNL     1      -1.944   1.155   0.393  0.00  0.00    +0.243 C 
ATOM     10  C   UNL     1      -0.347  -0.339   1.775  0.00  0.00    +0.040 C 
ATOM     11  C   UNL     1      -1.724   0.159   1.523  0.00  0.00    +0.216 C 
ATOM     12  C   UNL     1       2.007  -0.438   1.221  0.00  0.00    +0.036 C 
ATOM     13  C   UNL     1       3.075  -0.056   0.501  0.00  0.00    +0.141 C 
ATOM     14  C   UNL     1      -2.104   2.555   0.978  0.00  0.00    +0.060 C 
ENDROOT
BRANCH  13  15
ATOM     15  C   UNL     1       4.388  -0.592   0.745  0.00  0.00    +0.037 C 
ATOM     16  C   UNL     1       5.470  -0.229   0.044  0.00  0.00    +0.003 C 
BRANCH  16  17
ATOM     17  C   UNL     1       6.787  -0.772   0.296  0.00  0.00    +0.000 C 
ATOM     18  C   UNL     1       7.873  -0.411  -0.405  0.00  0.00    -0.000 C 
BRANCH  18  19
ATOM     19  C   UNL     1       9.188  -0.958  -0.148  0.00  0.00    -0.005 C 
ATOM     20  C   UNL     1      10.325  -0.659  -0.793  0.00  0.00    -0.026 C 
ATOM     21  C   UNL     1      11.698  -1.200  -0.558  0.00  0.00    +0.031 C 
ENDBRANCH  18  19
ENDBRANCH  16  17
ENDBRANCH  13  15
BRANCH   9  22
ATOM     22  O   UNL     1      -3.159   0.818  -0.253  0.00  0.00    -0.441 OA
BRANCH  22  24
ATOM     23  O   UNL     1      -2.324  -1.268  -0.783  0.00  0.00    -0.250 OA
ATOM     24  C   UNL     1      -3.220  -0.434  -0.805  0.00  0.00    +0.320 C 
BRANCH  24  25
ATOM     25  C   UNL     1      -4.548  -0.649  -1.489  0.00  0.00    +0.139 C 
BRANCH  25  26
ATOM     26  C   UNL     1      -5.700  -0.467  -0.501  0.00  0.00    +0.124 C 
BRANCH  26  27
ATOM     27  O   UNL     1      -5.909   0.928  -0.281  0.00  0.00    -0.384 OA
ATOM     28  H   UNL     1      -5.093   1.328   0.057  0.00  0.00    +0.210 HD
ENDBRANCH  26  27
BRANCH  26  29
ATOM     29  C   UNL     1      -6.994  -1.099  -1.037  0.00  0.00    +0.059 C 
BRANCH  29  30
ATOM     30  C   UNL     1      -8.188  -0.917  -0.092  0.00  0.00    +0.113 C 
ATOM     31  C   UNL     1      -9.454  -1.525  -0.683  0.00  0.00    +0.032 C 
BRANCH  30  32
ATOM     32  O   UNL     1      -7.905  -1.562   1.147  0.00  0.00    -0.384 OA
ATOM     33  H   UNL     1      -7.100  -1.182   1.532  0.00  0.00    +0.210 HD
ENDBRANCH  30  32
ENDBRANCH  29  30
ENDBRANCH  26  29
ENDBRANCH  25  26
ENDBRANCH  24  25
ENDBRANCH  22  24
ENDBRANCH   9  22
TORSDOF 11
