REMARK  Name = 10474730
REMARK  9 active torsions:
REMARK  status: ('A' for Active; 'I' for Inactive)
REMARK    1  A    between atoms: N_2  and  C_18
REMARK    2  A    between atoms: C_3  and  C_5
REMARK    3  A    between atoms: C_6  and  C_11
REMARK    4  A    between atoms: C_18  and  C_19
REMARK    5  A    between atoms: C_18  and  C_26
REMARK    6  A    between atoms: C_19  and  S_20
REMARK    7  A    between atoms: S_20  and  C_22
REMARK    8  A    between atoms: C_22  and  S_23
REMARK    9  A    between atoms: C_26  and  O_27
REMARK                            x       y       z     vdW  Elec       q    Type
REMARK                         _______ _______ _______ _____ _____    ______ ____
ROOT
ATOM      1  O   UNK A   0      -0.044   2.113   1.595  0.00  0.00    -0.270 OA
ATOM      2  N   UNK A   1      -1.190   1.317  -0.262  0.00  0.00    -0.299 N 
ATOM      3  C   UNK A   0      -0.090   1.438   0.571  0.00  0.00    +0.246 C 
ATOM      4  H   UNK A   1      -1.121   0.747  -1.062  0.00  0.00    +0.150 HD
ENDROOT
BRANCH   3   5
ATOM      5  C   UNK A   0       1.070   0.645   0.078  0.00  0.00    +0.058 C 
ATOM      6  C   UNK A   0       2.214   0.651   0.764  0.00  0.00    +0.011 C 
BRANCH   6  11
ATOM      7  O   UNK A   0       4.674   1.912   0.180  0.00  0.00    -0.267 OA
ATOM      8  O   UNK A   0       6.772  -2.035  -0.872  0.00  0.00    -0.247 OA
ATOM      9  N   UNK A   0       4.570  -2.073  -0.224  0.00  0.00    -0.310 N 
ATOM     10  N   UNK A   0       5.727  -0.056  -0.343  0.00  0.00    -0.275 N 
ATOM     11  C   UNK A   0       3.379  -0.094   0.344  0.00  0.00    +0.068 A 
ATOM     12  C   UNK A   0       3.417  -1.435   0.188  0.00  0.00    +0.042 A 
ATOM     13  C   UNK A   0       4.632   0.689   0.060  0.00  0.00    +0.262 A 
ATOM     14  C   UNK A   0       2.275  -2.388   0.426  0.00  0.00    +0.050 C 
ATOM     15  C   UNK A   0       5.761  -1.434  -0.506  0.00  0.00    +0.327 A 
ATOM     16  H   UNK A   0       4.541  -3.052  -0.323  0.00  0.00    +0.170 HD
ATOM     17  H   UNK A   0       6.558   0.438  -0.533  0.00  0.00    +0.173 HD
ENDBRANCH   6  11
ENDBRANCH   3   5
BRANCH   2  18
ATOM     18  C   UNK A   1      -2.436   1.998   0.005  0.00  0.00    +0.114 C 
BRANCH  18  19
ATOM     19  C   UNK A   1      -3.618   1.188  -0.529  0.00  0.00    +0.115 C 
BRANCH  19  20
ATOM     20  S   UNK A   1      -4.018  -0.215   0.566  0.00  0.00    +0.057 S 
ATOM     21  O   UNK A   1      -4.642   0.362   1.797  0.00  0.00    -0.255 OA
BRANCH  20  22
ATOM     22  C   UNK A   1      -5.347  -0.870  -0.483  0.00  0.00    +0.183 C 
BRANCH  22  23
ATOM     23  S   UNK A   1      -6.088  -2.372   0.222  0.00  0.00    +0.056 S 
ATOM     24  O   UNK A   1      -5.067  -3.468   0.134  0.00  0.00    -0.255 OA
ATOM     25  C   UNK A   1      -7.275  -2.631  -1.118  0.00  0.00    +0.107 C 
ENDBRANCH  22  23
ENDBRANCH  20  22
ENDBRANCH  19  20
ENDBRANCH  18  19
BRANCH  18  26
ATOM     26  C   UNK A   1      -2.400   3.408  -0.589  0.00  0.00    +0.158 C 
BRANCH  26  27
ATOM     27  O   UNK A   1      -2.275   3.351  -2.004  0.00  0.00    -0.380 OA
ATOM     28  H   UNK A   1      -2.254   4.252  -2.363  0.00  0.00    +0.211 HD
ENDBRANCH  26  27
ENDBRANCH  18  26
ENDBRANCH   2  18
TORSDOF 9
