REMARK  Name = 10479502
REMARK  5 active torsions:
REMARK  status: ('A' for Active; 'I' for Inactive)
REMARK    1  A    between atoms: C_2  and  S_22
REMARK    2  A    between atoms: C_3  and  O_33
REMARK    3  A    between atoms: C_5  and  N_9
REMARK    4  A    between atoms: N_10  and  C_16
REMARK    5  A    between atoms: S_22  and  N_25
REMARK                            x       y       z     vdW  Elec       q    Type
REMARK                         _______ _______ _______ _____ _____    ______ ____
ROOT
ATOM      1 CL   UNL     1       4.233   2.523  -0.435  0.00  0.00    -0.081 Cl
ATOM      2  C   UNL     1       2.504   0.437  -0.815  0.00  0.00    +0.167 C 
ATOM      3  C   UNL     1       1.239  -0.141  -0.802  0.00  0.00    +0.167 C 
ATOM      4  C   UNL     1       2.682   1.762  -0.434  0.00  0.00    +0.079 C 
ATOM      5  C   UNL     1       0.138   0.617  -0.403  0.00  0.00    +0.087 C 
ATOM      6  C   UNL     1       1.581   2.520  -0.035  0.00  0.00    +0.014 C 
ATOM      7  C   UNL     1       0.309   1.948  -0.019  0.00  0.00    +0.019 C 
ENDROOT
BRANCH   5   9
ATOM      8  O   UNL     1      -2.479   1.832   0.368  0.00  0.00    -0.252 OA
ATOM      9  N   UNL     1      -1.143   0.060  -0.380  0.00  0.00    -0.266 N 
ATOM     10  N   UNL     1      -3.416  -0.252  -0.131  0.00  0.00    -0.267 N 
ATOM     11  C   UNL     1      -2.364   0.670  -0.007  0.00  0.00    +0.308 C 
ATOM     12  H   UNL     1      -1.204  -0.882  -0.660  0.00  0.00    +0.157 HD
ATOM     13  H   UNL     1      -3.168  -1.151  -0.445  0.00  0.00    +0.156 HD
BRANCH  10  16
ATOM     14 CL   UNL     1      -5.238  -2.638  -0.585  0.00  0.00    -0.079 Cl
ATOM     15  F   UNL     1      -7.970  -1.802   0.087  0.00  0.00    -0.203 F 
ATOM     16  C   UNL     1      -4.790  -0.047   0.140  0.00  0.00    +0.064 C 
ATOM     17  C   UNL     1      -5.710  -1.069  -0.033  0.00  0.00    +0.098 C 
ATOM     18  C   UNL     1      -5.184   1.207   0.584  0.00  0.00    +0.016 C 
ATOM     19  C   UNL     1      -7.056  -0.834   0.245  0.00  0.00    +0.152 C 
ATOM     20  C   UNL     1      -6.530   1.442   0.862  0.00  0.00    +0.004 C 
ATOM     21  C   UNL     1      -7.466   0.422   0.692  0.00  0.00    +0.031 C 
ENDBRANCH  10  16
ENDBRANCH   5   9
BRANCH   2  22
ATOM     22  S   UNL     1       3.878  -0.547  -1.325  0.00  0.00    +0.067 S 
ATOM     23  O   UNL     1       3.405  -1.902  -1.515  0.00  0.00    -0.153 OA
ATOM     24  O   UNL     1       4.563   0.159  -2.386  0.00  0.00    -0.153 OA
BRANCH  22  25
ATOM     25  N   UNL     1       4.835  -0.483   0.094  0.00  0.00    -0.160 NA
ATOM     26  N   UNL     1       6.411  -1.160   2.400  0.00  0.00    +0.386 N 
ATOM     27  C   UNL     1       4.193  -1.028   1.326  0.00  0.00    +0.072 C 
ATOM     28  C   UNL     1       6.236  -0.973  -0.054  0.00  0.00    +0.072 C 
ATOM     29  C   UNL     1       5.040  -0.667   2.543  0.00  0.00    -0.062 C 
ATOM     30  C   UNL     1       7.036  -0.613   1.194  0.00  0.00    -0.062 C 
ATOM     31  H   UNL     1       6.396  -2.178   2.336  0.00  0.00    -0.084 HD
ATOM     32  H   UNL     1       6.952  -0.863   3.212  0.00  0.00    -0.084 HD
ENDBRANCH  22  25
ENDBRANCH   2  22
BRANCH   3  33
ATOM     33  O   UNL     1       1.064  -1.442  -1.174  0.00  0.00    -0.503 OA
ATOM     34  H   UNL     1       1.800  -1.956  -1.443  0.00  0.00    +0.292 HD
ENDBRANCH   3  33
TORSDOF 5
