REMARK  Name = 10475888
REMARK  9 active torsions:
REMARK  status: ('A' for Active; 'I' for Inactive)
REMARK    1  A    between atoms: O_1  and  C_3
REMARK    2  A    between atoms: O_1  and  C_16
REMARK    3  A    between atoms: C_4  and  C_13
REMARK    4  A    between atoms: C_7  and  O_10
REMARK    5  A    between atoms: C_13  and  O_14
REMARK    6  A    between atoms: C_17  and  C_27
REMARK    7  A    between atoms: C_18  and  O_22
REMARK    8  A    between atoms: C_21  and  O_24
REMARK    9  A    between atoms: C_27  and  O_28
REMARK                            x       y       z     vdW  Elec       q    Type
REMARK                         _______ _______ _______ _____ _____    ______ ____
ROOT
ATOM      1  O   UNL     1      -0.233  -0.057  -0.923  0.00  0.00    -0.450 OA
ENDROOT
BRANCH   1   3
ATOM      2 CL   UNL     1       4.557   2.185   1.657  0.00  0.00    -0.079 Cl
ATOM      3  C   UNL     1       0.902   0.458  -0.322  0.00  0.00    +0.154 C 
ATOM      4  C   UNL     1       2.123  -0.176  -0.480  0.00  0.00    +0.144 C 
ATOM      5  C   UNL     1       1.911   2.148   1.048  0.00  0.00    -0.005 C 
ATOM      6  C   UNL     1       0.779   1.612   0.433  0.00  0.00    +0.034 C 
ATOM      7  C   UNL     1       3.255   0.360   0.135  0.00  0.00    +0.153 C 
ATOM      8  C   UNL     1       3.149   1.522   0.899  0.00  0.00    +0.088 C 
ATOM      9  C   UNL     1       1.751   3.395   1.858  0.00  0.00    +0.032 C 
BRANCH   7  10
ATOM     10  O   UNL     1       4.461  -0.261  -0.017  0.00  0.00    -0.504 OA
ATOM     11  H   UNL     1       4.525  -1.041  -0.531  0.00  0.00    +0.292 HD
ENDBRANCH   7  10
BRANCH   4  13
ATOM     12  O   UNL     1       3.056  -2.288  -1.075  0.00  0.00    -0.245 OA
ATOM     13  C   UNL     1       2.230  -1.392  -1.279  0.00  0.00    +0.347 C 
BRANCH  13  14
ATOM     14  O   UNL     1       1.299  -1.415  -2.279  0.00  0.00    -0.441 OA
ATOM     15  C   UNL     1       1.302  -2.563  -3.135  0.00  0.00    +0.256 C 
ENDBRANCH  13  14
ENDBRANCH   4  13
ENDBRANCH   1   3
BRANCH   1  16
ATOM     16  C   UNL     1      -1.268  -0.418  -0.112  0.00  0.00    +0.185 C 
ATOM     17  C   UNL     1      -2.517   0.188  -0.252  0.00  0.00    +0.116 C 
ATOM     18  C   UNL     1      -1.074  -1.399   0.861  0.00  0.00    +0.176 C 
ATOM     19  C   UNL     1      -3.571  -0.188   0.580  0.00  0.00    +0.046 C 
ATOM     20  C   UNL     1      -2.129  -1.775   1.693  0.00  0.00    +0.077 C 
ATOM     21  C   UNL     1      -3.378  -1.169   1.552  0.00  0.00    +0.137 C 
BRANCH  18  22
ATOM     22  O   UNL     1       0.140  -2.000   1.008  0.00  0.00    -0.468 OA
ATOM     23  C   UNL     1       0.252  -2.993   2.026  0.00  0.00    +0.253 C 
ENDBRANCH  18  22
BRANCH  21  24
ATOM     24  O   UNL     1      -4.407  -1.536   2.364  0.00  0.00    -0.505 OA
ATOM     25  H   UNL     1      -5.246  -1.129   2.270  0.00  0.00    +0.292 HD
ENDBRANCH  21  24
BRANCH  17  27
ATOM     26  O   UNL     1      -2.144   1.272  -2.343  0.00  0.00    -0.245 OA
ATOM     27  C   UNL     1      -2.741   1.214  -1.261  0.00  0.00    +0.345 C 
BRANCH  27  28
ATOM     28  O   UNL     1      -3.697   2.107  -0.863  0.00  0.00    -0.441 OA
ATOM     29  C   UNL     1      -4.009   3.167  -1.773  0.00  0.00    +0.256 C 
ENDBRANCH  27  28
ENDBRANCH  17  27
ENDBRANCH   1  16
TORSDOF 9
