REMARK  Name = 10476327
REMARK  8 active torsions:
REMARK  status: ('A' for Active; 'I' for Inactive)
REMARK    1  A    between atoms: C_3  and  C_17
REMARK    2  A    between atoms: C_3  and  O_23
REMARK    3  A    between atoms: C_10  and  O_25
REMARK    4  A    between atoms: C_11  and  O_27
REMARK    5  A    between atoms: C_13  and  O_31
REMARK    6  A    between atoms: C_14  and  O_33
REMARK    7  A    between atoms: C_15  and  O_29
REMARK    8  A    between atoms: C_17  and  C_21
REMARK                            x       y       z     vdW  Elec       q    Type
REMARK                         _______ _______ _______ _____ _____    ______ ____
ROOT
ATOM      1  O   UNL     1      -1.875  -2.575   1.225  0.00  0.00    -0.288 OA
ATOM      2  O   UNL     1      -1.895   2.018   1.242  0.00  0.00    -0.288 OA
ATOM      3  C   UNL     1      -2.155  -0.277   0.605  0.00  0.00    +0.204 C 
ATOM      4  C   UNL     1      -1.357  -1.551   0.789  0.00  0.00    +0.207 C 
ATOM      5  C   UNL     1      -1.368   1.002   0.800  0.00  0.00    +0.207 C 
ATOM      6  C   UNL     1       0.712  -0.265   0.232  0.00  0.00    +0.015 A 
ATOM      7  C   UNL     1       0.072  -1.510   0.407  0.00  0.00    +0.074 A 
ATOM      8  C   UNL     1       0.064   0.974   0.420  0.00  0.00    +0.075 A 
ATOM      9  C   UNL     1       2.082  -0.258  -0.131  0.00  0.00    +0.036 A 
ATOM     10  C   UNL     1       0.764  -2.713   0.233  0.00  0.00    +0.170 A 
ATOM     11  C   UNL     1       0.748   2.184   0.259  0.00  0.00    +0.174 A 
ATOM     12  C   UNL     1       2.760  -1.474  -0.311  0.00  0.00    +0.018 A 
ATOM     13  C   UNL     1       2.752   0.964  -0.298  0.00  0.00    +0.171 A 
ATOM     14  C   UNL     1       2.106  -2.691  -0.130  0.00  0.00    +0.164 A 
ATOM     15  C   UNL     1       2.090   2.175  -0.103  0.00  0.00    +0.206 A 
ATOM     16  C   UNL     1       4.207  -1.560  -0.701  0.00  0.00    +0.034 C 
ENDROOT
BRANCH   3  17
ATOM     17  C   UNL     1      -2.778  -0.282  -0.793  0.00  0.00    +0.087 C 
ATOM     18  C   UNL     1      -1.662  -0.331  -1.847  0.00  0.00    +0.011 C 
ATOM     19  C   UNL     1      -3.680  -1.519  -0.929  0.00  0.00    +0.011 C 
BRANCH  17  21
ATOM     20  O   UNL     1      -3.329   1.805  -1.907  0.00  0.00    -0.296 OA
ATOM     21  C   UNL     1      -3.598   1.009  -1.003  0.00  0.00    +0.153 C 
ATOM     22  C   UNL     1      -4.768   1.284  -0.089  0.00  0.00    +0.072 C 
ENDBRANCH  17  21
ENDBRANCH   3  17
BRANCH   3  23
ATOM     23  O   UNL     1      -3.193  -0.298   1.573  0.00  0.00    -0.373 OA
ATOM     24  H   UNL     1      -3.715  -1.109   1.471  0.00  0.00    +0.211 HD
ENDBRANCH   3  23
BRANCH  10  25
ATOM     25  O   UNL     1       0.159  -3.928   0.383  0.00  0.00    -0.503 OA
ATOM     26  H   UNL     1      -0.744  -3.974   0.627  0.00  0.00    +0.292 HD
ENDBRANCH  10  25
BRANCH  11  27
ATOM     27  O   UNL     1       0.136   3.393   0.421  0.00  0.00    -0.503 OA
ATOM     28  H   UNL     1      -0.768   3.431   0.665  0.00  0.00    +0.292 HD
ENDBRANCH  11  27
BRANCH  15  29
ATOM     29  O   UNL     1       2.757   3.354  -0.270  0.00  0.00    -0.465 OA
ATOM     30  C   UNL     1       3.406   3.896   0.877  0.00  0.00    +0.253 C 
ENDBRANCH  15  29
BRANCH  13  31
ATOM     31  O   UNL     1       4.071   1.044  -0.651  0.00  0.00    -0.503 OA
ATOM     32  H   UNL     1       4.566   0.262  -0.795  0.00  0.00    +0.292 HD
ENDBRANCH  13  31
BRANCH  14  33
ATOM     33  O   UNL     1       2.774  -3.869  -0.305  0.00  0.00    -0.503 OA
ATOM     34  H   UNL     1       2.328  -4.684  -0.182  0.00  0.00    +0.292 HD
ENDBRANCH  14  33
TORSDOF 8
