10476217
  -OEChem-03292013303D

 62 62  0     1  0  0  0  0  0999 V2000
    4.9885   -1.7750   -1.2729 O   0  0  0  0  0  0  0  0  0  0  0  0
    2.2804   -2.0094   -1.8230 O   0  0  0  0  0  0  0  0  0  0  0  0
    2.9891    1.7086   -0.2027 O   0  0  0  0  0  0  0  0  0  0  0  0
   -0.4706    0.6350    0.1927 O   0  0  0  0  0  0  0  0  0  0  0  0
    4.1058   -0.9886    2.1837 O   0  0  0  0  0  0  0  0  0  0  0  0
    3.3186    1.8269    2.0724 O   0  0  0  0  0  0  0  0  0  0  0  0
   -1.4406    0.4567   -1.8968 O   0  0  0  0  0  0  0  0  0  0  0  0
   -5.9261    1.9351   -0.2430 O   0  0  0  0  0  0  0  0  0  0  0  0
    4.0552   -1.6627   -0.1755 C   0  0  2  0  0  0  0  0  0  0  0  0
    2.7537   -1.0952   -0.8176 C   0  0  2  0  0  0  0  0  0  0  0  0
    1.5629   -0.7373    0.1259 C   0  0  1  0  0  0  0  0  0  0  0  0
    4.7501   -0.7911    0.9211 C   0  0  1  0  0  0  0  0  0  0  0  0
    0.8326    0.5486   -0.3910 C   0  0  2  0  0  0  0  0  0  0  0  0
    4.9659    0.7291    0.6900 C   0  0  2  0  0  0  0  0  0  0  0  0
    1.5672    1.8795   -0.0763 C   0  0  2  0  0  0  0  0  0  0  0  0
    3.8573   -3.0985    0.3471 C   0  0  0  0  0  0  0  0  0  0  0  0
    0.5624   -1.8984    0.2740 C   0  0  0  0  0  0  0  0  0  0  0  0
    3.6918    1.5189    0.9456 C   0  0  0  0  0  0  0  0  0  0  0  0
    5.6557    1.0906   -0.6214 C   0  0  0  0  0  0  0  0  0  0  0  0
    1.1586    2.9879   -1.0430 C   0  0  0  0  0  0  0  0  0  0  0  0
   -1.5102    0.5749   -0.6837 C   0  0  0  0  0  0  0  0  0  0  0  0
   -2.7619    0.6805    0.0965 C   0  0  0  0  0  0  0  0  0  0  0  0
   -3.9457    0.6492   -0.5303 C   0  0  0  0  0  0  0  0  0  0  0  0
   -5.2621    0.7491    0.1902 C   0  0  2  0  0  0  0  0  0  0  0  0
   -6.1416   -0.4774   -0.0874 C   0  0  0  0  0  0  0  0  0  0  0  0
   -7.5052   -0.3762    0.6053 C   0  0  0  0  0  0  0  0  0  0  0  0
   -8.3834   -1.5849    0.2800 C   0  0  0  0  0  0  0  0  0  0  0  0
   -9.7485   -1.4759    0.9403 C   0  0  0  0  0  0  0  0  0  0  0  0
    3.0502   -0.2245   -1.4062 H   0  0  0  0  0  0  0  0  0  0  0  0
    1.9140   -0.5152    1.1329 H   0  0  0  0  0  0  0  0  0  0  0  0
    5.7587   -1.2072    1.0532 H   0  0  0  0  0  0  0  0  0  0  0  0
    0.7764    0.4524   -1.4830 H   0  0  0  0  0  0  0  0  0  0  0  0
    5.6437    1.0741    1.4860 H   0  0  0  0  0  0  0  0  0  0  0  0
    1.2985    2.2139    0.9337 H   0  0  0  0  0  0  0  0  0  0  0  0
    3.4967   -3.7673   -0.4420 H   0  0  0  0  0  0  0  0  0  0  0  0
    4.8123   -3.5214    0.6819 H   0  0  0  0  0  0  0  0  0  0  0  0
    3.1604   -3.1423    1.1879 H   0  0  0  0  0  0  0  0  0  0  0  0
   -0.1522   -1.6952    1.0791 H   0  0  0  0  0  0  0  0  0  0  0  0
   -0.0098   -2.0631   -0.6451 H   0  0  0  0  0  0  0  0  0  0  0  0
    1.0631   -2.8348    0.5304 H   0  0  0  0  0  0  0  0  0  0  0  0
    5.8073   -2.1768   -0.9360 H   0  0  0  0  0  0  0  0  0  0  0  0
    5.0528    0.8462   -1.4997 H   0  0  0  0  0  0  0  0  0  0  0  0
    6.6148    0.5701   -0.7101 H   0  0  0  0  0  0  0  0  0  0  0  0
    5.8543    2.1676   -0.6625 H   0  0  0  0  0  0  0  0  0  0  0  0
    1.5800   -1.5586   -2.3248 H   0  0  0  0  0  0  0  0  0  0  0  0
    1.6941    3.9137   -0.8062 H   0  0  0  0  0  0  0  0  0  0  0  0
    0.0840    3.1866   -0.9951 H   0  0  0  0  0  0  0  0  0  0  0  0
    1.4236    2.7275   -2.0736 H   0  0  0  0  0  0  0  0  0  0  0  0
    3.4797   -0.2730    2.3660 H   0  0  0  0  0  0  0  0  0  0  0  0
   -2.6952    0.7772    1.1748 H   0  0  0  0  0  0  0  0  0  0  0  0
   -3.9910    0.5570   -1.6129 H   0  0  0  0  0  0  0  0  0  0  0  0
   -5.1098    0.8401    1.2726 H   0  0  0  0  0  0  0  0  0  0  0  0
   -6.3116   -0.5676   -1.1686 H   0  0  0  0  0  0  0  0  0  0  0  0
   -5.6266   -1.3892    0.2400 H   0  0  0  0  0  0  0  0  0  0  0  0
   -8.0213    0.5373    0.2869 H   0  0  0  0  0  0  0  0  0  0  0  0
   -7.3609   -0.3050    1.6901 H   0  0  0  0  0  0  0  0  0  0  0  0
   -8.5163   -1.6682   -0.8050 H   0  0  0  0  0  0  0  0  0  0  0  0
   -7.8911   -2.5040    0.6183 H   0  0  0  0  0  0  0  0  0  0  0  0
   -5.3586    2.6916   -0.0158 H   0  0  0  0  0  0  0  0  0  0  0  0
  -10.3586   -2.3511    0.6961 H   0  0  0  0  0  0  0  0  0  0  0  0
   -9.6539   -1.4208    2.0295 H   0  0  0  0  0  0  0  0  0  0  0  0
  -10.2811   -0.5837    0.5957 H   0  0  0  0  0  0  0  0  0  0  0  0
  1  9  1  0  0  0  0
  1 41  1  0  0  0  0
  2 10  1  0  0  0  0
  2 45  1  0  0  0  0
  3 15  1  0  0  0  0
  3 18  1  0  0  0  0
  4 13  1  0  0  0  0
  4 21  1  0  0  0  0
  5 12  1  0  0  0  0
  5 49  1  0  0  0  0
  6 18  2  0  0  0  0
  7 21  2  0  0  0  0
  8 24  1  0  0  0  0
  8 59  1  0  0  0  0
  9 10  1  0  0  0  0
  9 12  1  0  0  0  0
  9 16  1  0  0  0  0
 10 11  1  0  0  0  0
 10 29  1  0  0  0  0
 11 13  1  0  0  0  0
 11 17  1  0  0  0  0
 11 30  1  0  0  0  0
 12 14  1  0  0  0  0
 12 31  1  0  0  0  0
 13 15  1  0  0  0  0
 13 32  1  0  0  0  0
 14 18  1  0  0  0  0
 14 19  1  0  0  0  0
 14 33  1  0  0  0  0
 15 20  1  0  0  0  0
 15 34  1  0  0  0  0
 16 35  1  0  0  0  0
 16 36  1  0  0  0  0
 16 37  1  0  0  0  0
 17 38  1  0  0  0  0
 17 39  1  0  0  0  0
 17 40  1  0  0  0  0
 19 42  1  0  0  0  0
 19 43  1  0  0  0  0
 19 44  1  0  0  0  0
 20 46  1  0  0  0  0
 20 47  1  0  0  0  0
 20 48  1  0  0  0  0
 21 22  1  0  0  0  0
 22 23  2  0  0  0  0
 22 50  1  0  0  0  0
 23 24  1  0  0  0  0
 23 51  1  0  0  0  0
 24 25  1  0  0  0  0
 24 52  1  0  0  0  0
 25 26  1  0  0  0  0
 25 53  1  0  0  0  0
 25 54  1  0  0  0  0
 26 27  1  0  0  0  0
 26 55  1  0  0  0  0
 26 56  1  0  0  0  0
 27 28  1  0  0  0  0
 27 57  1  0  0  0  0
 27 58  1  0  0  0  0
 28 60  1  0  0  0  0
 28 61  1  0  0  0  0
 28 62  1  0  0  0  0
M  END
> <PUBCHEM_COMPOUND_CID>
10476217

> <PUBCHEM_CONFORMER_RMSD>
1

> <PUBCHEM_CONFORMER_DIVERSEORDER>
1
73
46
20
97
39
101
104
36
40
33
53
65
58
51
85
115
127
90
79
102
129
113
81
29
119
80
131
88
125
31
52
23
43
105
89
116
74
110
44
83
130
37
42
121
48
84
72
107
82
7
86
68
18
100
71
111
49
63
120
122
19
47
32
124
27
99
93
5
45
117
9
114
96
24
66
64
21
10
50
56
17
98
67
8
4
108
75
35
112
103
128
13
87
16
38
123
60
92
76
106
55
14
132
118
70
78
95
69
77
54
12
30
41
62
22
61
15
28
94
57
6
126
26
11
25
109
59
34
3
2
91

> <PUBCHEM_MMFF94_PARTIAL_CHARGES>
25
1 -0.68
10 0.28
12 0.28
13 0.28
14 0.06
15 0.28
18 0.66
2 -0.68
21 0.71
22 -0.14
23 -0.29
24 0.42
3 -0.43
4 -0.43
41 0.4
45 0.4
49 0.4
5 -0.68
50 0.15
51 0.15
59 0.4
6 -0.57
7 -0.57
8 -0.68
9 0.28

> <PUBCHEM_EFFECTIVE_ROTOR_COUNT>
8.6

> <PUBCHEM_PHARMACOPHORE_FEATURES>
11
1 1 acceptor
1 1 donor
1 2 acceptor
1 2 donor
1 28 hydrophobe
1 5 acceptor
1 5 donor
1 6 acceptor
1 7 acceptor
1 8 acceptor
1 8 donor

> <PUBCHEM_HEAVY_ATOM_COUNT>
28

> <PUBCHEM_ATOM_DEF_STEREO_COUNT>
7

> <PUBCHEM_ATOM_UDEF_STEREO_COUNT>
1

> <PUBCHEM_BOND_DEF_STEREO_COUNT>
1

> <PUBCHEM_BOND_UDEF_STEREO_COUNT>
0

> <PUBCHEM_ISOTOPIC_ATOM_COUNT>
0

> <PUBCHEM_COMPONENT_COUNT>
1

> <PUBCHEM_CACTVS_TAUTO_COUNT>
1

> <PUBCHEM_CONFORMER_ID>
009FDAB900000001

> <PUBCHEM_MMFF94_ENERGY>
83.4321

> <PUBCHEM_FEATURE_SELFOVERLAP>
55.836

> <PUBCHEM_SHAPE_FINGERPRINT>
10066227 112 9655584002947959659
10165383 225 18200591519093075280
10316853 100 18261114075622991003
12166972 35 18412828010297156337
12236239 1 17846777382318470157
12596602 18 18202003197184965745
12730499 353 18343582949648343954
12778500 126 16774081756242654139
13073987 5 18343585119134661113
13140716 1 18196635506209929208
13533116 47 18273494563455135619
13617811 41 15285356228439163687
13685833 64 18334579045197949947
13692114 37 18187927326626150211
13782708 43 17894910716280823377
14170010 4 18411138056297389877
14211702 104 18187933945328475923
14251764 18 18060701706841551407
14341114 176 18343021073473676509
15183329 4 11314305027927894431
15510794 2 18260266379172341275
15510800 12 17677064529320760035
15721738 202 18059859450205188211
18222031 100 16515406270474387557
19377110 9 17418099815225616529
1979834 28 18060134323764300070
20397935 70 18342740719293396085
21130935 74 18338517435492631771
21197605 99 18340769329553270455
21267235 1 18272375239190682950
22149856 69 18130801040536814561
22956985 138 16590815042240748411
3383291 50 17895202151762253739
3663271 9 18202289087556842225
4073 2 18187932819593116795
4340502 62 18272368706993824895
465052 167 18334287644256386856
5104073 3 18202005387734655969
70251023 43 17914625956347622158

> <PUBCHEM_SHAPE_MULTIPOLES>
529.27
21.04
2.74
1.35
61.65
0.26
0.15
8.77
5.46
-2.58
-0.23
-1.51
0.06
1.25

> <PUBCHEM_SHAPE_SELFOVERLAP>
1050.382

> <PUBCHEM_SHAPE_VOLUME>
312.1

> <PUBCHEM_COORDINATE_TYPE>
2
5
10

$$$$
