REMARK  Name = 10471600
REMARK  10 active torsions:
REMARK  status: ('A' for Active; 'I' for Inactive)
REMARK    1  A    between atoms: C_1  and  N_7
REMARK    2  A    between atoms: C_2  and  N_15
REMARK    3  A    between atoms: N_7  and  N_9
REMARK    4  A    between atoms: N_7  and  C_10
REMARK    5  A    between atoms: C_10  and  C_12
REMARK    6  A    between atoms: C_12  and  O_13
REMARK    7  A    between atoms: N_15  and  N_17
REMARK    8  A    between atoms: N_15  and  C_18
REMARK    9  A    between atoms: C_18  and  C_20
REMARK   10  A    between atoms: C_20  and  O_21
REMARK                            x       y       z     vdW  Elec       q    Type
REMARK                         _______ _______ _______ _____ _____    ______ ____
ROOT
ATOM      1  C   UNL     1      -1.390  -0.701  -0.109  0.00  0.00    +0.073 C 
ATOM      2  C   UNL     1       1.391  -0.702   0.111  0.00  0.00    +0.073 C 
ATOM      3  C   UNL     1      -0.695   0.506  -0.054  0.00  0.00    +0.018 C 
ATOM      4  C   UNL     1       0.695   0.506   0.056  0.00  0.00    +0.018 C 
ATOM      5  C   UNL     1      -0.695  -1.909  -0.055  0.00  0.00    +0.018 C 
ATOM      6  C   UNL     1       0.695  -1.909   0.055  0.00  0.00    +0.018 C 
ENDROOT
BRANCH   1   7
ATOM      7  N   UNL     1      -2.796  -0.702  -0.222  0.00  0.00    -0.165 N 
BRANCH   7   9
ATOM      8  O   UNL     1      -4.770  -1.618   0.153  0.00  0.00    -0.126 OA
ATOM      9  N   UNL     1      -3.549  -1.720   0.310  0.00  0.00    +0.050 NA
ENDBRANCH   7   9
BRANCH   7  10
ATOM     10  C   UNL     1      -3.397   0.450  -0.936  0.00  0.00    +0.228 C 
BRANCH  10  12
ATOM     11  O   UNL     1      -3.457   1.469   1.247  0.00  0.00    -0.248 OA
ATOM     12  C   UNL     1      -3.669   1.554   0.045  0.00  0.00    +0.336 C 
BRANCH  12  13
ATOM     13  O   UNL     1      -4.165   2.670  -0.548  0.00  0.00    -0.479 OA
ATOM     14  H   UNL     1      -4.310   2.684  -1.473  0.00  0.00    +0.295 HD
ENDBRANCH  12  13
ENDBRANCH  10  12
ENDBRANCH   7  10
ENDBRANCH   1   7
BRANCH   2  15
ATOM     15  N   UNL     1       2.796  -0.702   0.222  0.00  0.00    -0.165 N 
BRANCH  15  17
ATOM     16  O   UNL     1       4.770  -1.618  -0.155  0.00  0.00    -0.126 OA
ATOM     17  N   UNL     1       3.549  -1.720  -0.311  0.00  0.00    +0.050 NA
ENDBRANCH  15  17
BRANCH  15  18
ATOM     18  C   UNL     1       3.397   0.450   0.936  0.00  0.00    +0.228 C 
BRANCH  18  20
ATOM     19  O   UNL     1       3.455   1.470  -1.247  0.00  0.00    -0.248 OA
ATOM     20  C   UNL     1       3.669   1.554  -0.045  0.00  0.00    +0.336 C 
BRANCH  20  21
ATOM     21  O   UNL     1       4.165   2.670   0.547  0.00  0.00    -0.479 OA
ATOM     22  H   UNL     1       4.311   2.684   1.472  0.00  0.00    +0.295 HD
ENDBRANCH  20  21
ENDBRANCH  18  20
ENDBRANCH  15  18
ENDBRANCH   2  15
TORSDOF 10
