REMARK  Name = 10474776
REMARK  7 active torsions:
REMARK  status: ('A' for Active; 'I' for Inactive)
REMARK    1  A    between atoms: C_1  and  N_3
REMARK    2  A    between atoms: C_1  and  C_17
REMARK    3  A    between atoms: C_1  and  C_20
REMARK    4  A    between atoms: C_4  and  C_6
REMARK    5  A    between atoms: C_17  and  O_18
REMARK    6  A    between atoms: C_20  and  C_21
REMARK    7  A    between atoms: C_26  and  N_29
REMARK                            x       y       z     vdW  Elec       q    Type
REMARK                         _______ _______ _______ _____ _____    ______ ____
ROOT
ATOM      1  C   UNL     1      -1.816   1.868   0.103  0.00  0.00    +0.176 C 
ENDROOT
BRANCH   1   3
ATOM      2  O   UNL     1      -2.225  -0.381   1.841  0.00  0.00    -0.270 OA
ATOM      3  N   UNL     1      -1.643   0.473  -0.235  0.00  0.00    -0.293 N 
ATOM      4  C   UNL     1      -1.862  -0.569   0.669  0.00  0.00    +0.246 C 
ATOM      5  H   UNL     1      -1.355   0.246  -1.149  0.00  0.00    +0.150 HD
BRANCH   4   6
ATOM      6  C   UNL     1      -1.619  -1.924   0.183  0.00  0.00    +0.053 C 
ATOM      7  C   UNL     1      -0.366  -2.550   0.290  0.00  0.00    +0.004 C 
ATOM      8  C   UNL     1      -0.205  -3.866  -0.205  0.00  0.00    +0.000 C 
ATOM      9  C   UNL     1      -2.698  -2.587  -0.404  0.00  0.00    +0.005 C 
ATOM     10  C   UNL     1       0.731  -1.898   0.877  0.00  0.00    +0.000 C 
ATOM     11  C   UNL     1      -1.302  -4.518  -0.791  0.00  0.00    +0.000 C 
ATOM     12  C   UNL     1      -2.540  -3.881  -0.890  0.00  0.00    +0.000 C 
ATOM     13  C   UNL     1       1.047  -4.491  -0.098  0.00  0.00    +0.000 C 
ATOM     14  C   UNL     1       1.968  -2.534   0.974  0.00  0.00    +0.000 C 
ATOM     15  C   UNL     1       2.126  -3.829   0.488  0.00  0.00    +0.000 C 
ENDBRANCH   4   6
ENDBRANCH   1   3
BRANCH   1  17
ATOM     16  O   UNL     1      -4.136   1.606  -0.520  0.00  0.00    -0.248 OA
ATOM     17  C   UNL     1      -3.259   2.328  -0.057  0.00  0.00    +0.335 C 
BRANCH  17  18
ATOM     18  O   UNL     1      -3.436   3.615   0.353  0.00  0.00    -0.443 OA
ATOM     19  C   UNL     1      -4.764   4.133   0.218  0.00  0.00    +0.256 C 
ENDBRANCH  17  18
ENDBRANCH   1  17
BRANCH   1  20
ATOM     20  C   UNL     1      -0.838   2.758  -0.679  0.00  0.00    +0.057 C 
BRANCH  20  21
ATOM     21  C   UNL     1       0.620   2.394  -0.510  0.00  0.00    -0.020 C 
ATOM     22  C   UNL     1       1.196   1.484  -1.380  0.00  0.00    -0.002 C 
ATOM     23  C   UNL     1       1.349   2.979   0.512  0.00  0.00    -0.002 C 
ATOM     24  C   UNL     1       2.541   1.149  -1.224  0.00  0.00    +0.024 C 
ATOM     25  C   UNL     1       2.694   2.644   0.668  0.00  0.00    +0.024 C 
ATOM     26  C   UNL     1       3.290   1.729  -0.200  0.00  0.00    +0.143 C 
BRANCH  26  29
ATOM     27  O   UNL     1       5.314   1.918   0.888  0.00  0.00    -0.126 OA
ATOM     28  O   UNL     1       5.175   0.561  -0.832  0.00  0.00    -0.126 OA
ATOM     29  N   UNL     1       4.659   1.387  -0.041  0.00  0.00    +0.058 N 
ENDBRANCH  26  29
ENDBRANCH  20  21
ENDBRANCH   1  20
TORSDOF 7
