REMARK  Name = 10479220
REMARK  8 active torsions:
REMARK  status: ('A' for Active; 'I' for Inactive)
REMARK    1  A    between atoms: C_3  and  O_23
REMARK    2  A    between atoms: C_4  and  C_17
REMARK    3  A    between atoms: C_6  and  C_19
REMARK    4  A    between atoms: C_13  and  C_21
REMARK    5  A    between atoms: O_23  and  C_25
REMARK    6  A    between atoms: C_26  and  O_35
REMARK    7  A    between atoms: C_27  and  N_31
REMARK    8  A    between atoms: C_28  and  O_37
REMARK                            x       y       z     vdW  Elec       q    Type
REMARK                         _______ _______ _______ _____ _____    ______ ____
ROOT
ATOM      1  O   UNL     1       2.924  -1.817  -1.852  0.00  0.00    -0.275 OA
ATOM      2  N   UNL     1       3.562  -2.193   0.345  0.00  0.00    -0.304 N 
ATOM      3  C   UNL     1      -0.985   0.537   1.131  0.00  0.00    +0.118 C 
ATOM      4  C   UNL     1      -0.311  -0.667   1.843  0.00  0.00    +0.027 C 
ATOM      5  C   UNL     1      -0.023   1.576   0.519  0.00  0.00    +0.030 C 
ATOM      6  C   UNL     1       1.994   3.194   0.975  0.00  0.00    +0.000 C 
ATOM      7  C   UNL     1       0.881   2.276   1.541  0.00  0.00    +0.002 C 
ATOM      8  C   UNL     1       0.537  -1.531   0.882  0.00  0.00    +0.004 C 
ATOM      9  C   UNL     1       3.366   2.486   0.870  0.00  0.00    +0.000 C 
ATOM     10  C   UNL     1       1.462  -2.514   1.615  0.00  0.00    +0.021 C 
ATOM     11  C   UNL     1       3.442   1.345  -0.144  0.00  0.00    +0.000 C 
ATOM     12  C   UNL     1       4.753   0.559  -0.026  0.00  0.00    +0.009 C 
ATOM     13  C   UNL     1       4.833  -0.606  -1.030  0.00  0.00    +0.076 C 
ATOM     14  C   UNL     1       2.512  -3.139   0.693  0.00  0.00    +0.089 C 
ATOM     15  C   UNL     1       3.674  -1.598  -0.901  0.00  0.00    +0.222 C 
ATOM     16  H   UNL     1       4.229  -1.963   1.032  0.00  0.00    +0.149 HD
ENDROOT
BRANCH   4  17
ATOM     17  C   UNL     1      -1.366  -1.533   2.548  0.00  0.00    +0.002 C 
ATOM     18  C   UNL     1      -2.207  -0.703   3.494  0.00  0.00    +0.000 C 
ENDBRANCH   4  17
BRANCH   6  19
ATOM     19  C   UNL     1       1.613   3.914  -0.318  0.00  0.00    +0.000 C 
ATOM     20  C   UNL     1       2.633   4.976  -0.680  0.00  0.00    +0.000 C 
ENDBRANCH   6  19
BRANCH  13  21
ATOM     21  C   UNL     1       6.170  -1.336  -0.913  0.00  0.00    +0.009 C 
ATOM     22  C   UNL     1       6.324  -2.384  -1.997  0.00  0.00    +0.001 C 
ENDBRANCH  13  21
BRANCH   3  23
ATOM     23  O   UNL     1      -1.818   0.073   0.066  0.00  0.00    -0.331 OA
BRANCH  23  25
ATOM     24  O   UNL     1      -4.046   0.582   0.703  0.00  0.00    -0.329 OA
ATOM     25  C   UNL     1      -2.936   0.933  -0.127  0.00  0.00    +0.261 C 
ATOM     26  C   UNL     1      -3.344   0.930  -1.602  0.00  0.00    +0.149 C 
ATOM     27  C   UNL     1      -3.978  -0.413  -1.994  0.00  0.00    -0.003 C 
ATOM     28  C   UNL     1      -5.100  -0.801  -1.020  0.00  0.00    +0.120 C 
ATOM     29  C   UNL     1      -4.595  -0.711   0.429  0.00  0.00    +0.143 C 
ATOM     30  C   UNL     1      -5.713  -0.943   1.441  0.00  0.00    +0.035 C 
BRANCH  27  31
ATOM     31  N   UNL     1      -4.486  -0.361  -3.367  0.00  0.00    +0.385 N 
ATOM     32  H   UNL     1      -3.729  -0.102  -4.000  0.00  0.00    -0.089 HD
ATOM     33  H   UNL     1      -5.231   0.333  -3.428  0.00  0.00    -0.089 HD
ATOM     34  H   UNL     1      -4.851  -1.276  -3.630  0.00  0.00    -0.089 HD
ENDBRANCH  27  31
BRANCH  26  35
ATOM     35  O   UNL     1      -4.262   2.003  -1.817  0.00  0.00    -0.381 OA
ATOM     36  H   UNL     1      -3.844   2.842  -1.564  0.00  0.00    +0.210 HD
ENDBRANCH  26  35
BRANCH  28  37
ATOM     37  O   UNL     1      -5.510  -2.136  -1.306  0.00  0.00    -0.384 OA
ATOM     38  H   UNL     1      -5.829  -2.187  -2.221  0.00  0.00    +0.210 HD
ENDBRANCH  28  37
ENDBRANCH  23  25
ENDBRANCH   3  23
TORSDOF 8
