REMARK  Name = 10479712
REMARK  9 active torsions:
REMARK  status: ('A' for Active; 'I' for Inactive)
REMARK    1  A    between atoms: C_2  and  C_34
REMARK    2  A    between atoms: C_3  and  O_32
REMARK    3  A    between atoms: C_4  and  N_12
REMARK    4  A    between atoms: C_10  and  N_28
REMARK    5  A    between atoms: N_13  and  C_19
REMARK    6  A    between atoms: N_14  and  C_20
REMARK    7  A    between atoms: C_20  and  C_21
REMARK    8  A    between atoms: C_34  and  O_35
REMARK    9  A    between atoms: C_34  and  O_37
REMARK                            x       y       z     vdW  Elec       q    Type
REMARK                         _______ _______ _______ _____ _____    ______ ____
ROOT
ATOM      1  O   UNL     1       3.189   0.772   0.787  0.00  0.00    -0.475 OA
ATOM      2  C   UNL     1       2.955  -0.617   1.082  0.00  0.00    +0.211 C 
ATOM      3  C   UNL     1       2.052  -1.256   0.008  0.00  0.00    +0.176 C 
ATOM      4  C   UNL     1       0.704  -0.528  -0.109  0.00  0.00    +0.136 C 
ATOM      5  C   UNL     1       0.878   0.966   0.015  0.00  0.00    +0.035 C 
ATOM      6  C   UNL     1       2.401  -0.751   2.512  0.00  0.00    +0.052 C 
ATOM      7  C   UNL     1       2.094   1.516   0.439  0.00  0.00    +0.136 C 
ATOM      8  C   UNL     1      -0.193   1.838  -0.245  0.00  0.00    +0.015 C 
ATOM      9  C   UNL     1       2.257   2.903   0.527  0.00  0.00    +0.038 C 
ATOM     10  C   UNL     1      -0.034   3.221  -0.141  0.00  0.00    +0.050 C 
ATOM     11  C   UNL     1       1.194   3.754   0.235  0.00  0.00    +0.018 C 
ENDROOT
BRANCH   4  12
ATOM     12  N   UNL     1       0.107  -0.887  -1.386  0.00  0.00    -0.340 N 
ATOM     13  N   UNL     1      -1.240  -2.401  -2.682  0.00  0.00    -0.263 N 
ATOM     14  N   UNL     1      -2.054  -1.433  -0.646  0.00  0.00    -0.234 NA
ATOM     15  C   UNL     1      -1.099  -1.555  -1.517  0.00  0.00    +0.208 C 
ATOM     16  H   UNL     1       0.590  -0.641  -2.208  0.00  0.00    +0.164 HD
ATOM     17  H   UNL     1      -2.072  -2.904  -2.835  0.00  0.00    +0.181 HD
BRANCH  13  19
ATOM     18  N   UNL     1       0.653  -2.577  -4.310  0.00  0.00    -0.171 NA
ATOM     19  C   UNL     1      -0.222  -2.492  -3.553  0.00  0.00    +0.184 C 
ENDBRANCH  13  19
BRANCH  14  20
ATOM     20  C   UNL     1      -3.300  -2.159  -0.835  0.00  0.00    +0.155 C 
BRANCH  20  21
ATOM     21  C   UNL     1      -4.299  -1.846   0.244  0.00  0.00    +0.002 C 
ATOM     22  C   UNL     1      -4.331  -2.614   1.408  0.00  0.00    -0.002 C 
ATOM     23  C   UNL     1      -5.194  -0.789   0.081  0.00  0.00    -0.002 C 
ATOM     24  C   UNL     1      -5.258  -2.323   2.410  0.00  0.00    -0.000 C 
ATOM     25  C   UNL     1      -6.120  -0.498   1.082  0.00  0.00    -0.000 C 
ATOM     26  C   UNL     1      -6.152  -1.266   2.247  0.00  0.00    -0.000 C 
ENDBRANCH  20  21
ENDBRANCH  14  20
ENDBRANCH   4  12
BRANCH  10  28
ATOM     27  O   UNL     1      -0.227   6.225  -0.056  0.00  0.00    -0.275 OA
ATOM     28  N   UNL     1      -1.111   4.068  -0.408  0.00  0.00    -0.284 N 
ATOM     29  C   UNL     1      -1.145   5.468  -0.351  0.00  0.00    +0.227 C 
ATOM     30  C   UNL     1      -2.506   6.009  -0.714  0.00  0.00    +0.095 C 
ATOM     31  H   UNL     1      -1.951   3.627  -0.670  0.00  0.00    +0.155 HD
ENDBRANCH  10  28
BRANCH   3  32
ATOM     32  O   UNL     1       1.791  -2.626   0.305  0.00  0.00    -0.379 OA
ATOM     33  H   UNL     1       2.631  -3.105   0.384  0.00  0.00    +0.211 HD
ENDBRANCH   3  32
BRANCH   2  34
ATOM     34  C   UNL     1       4.348  -1.272   1.057  0.00  0.00    +0.276 C 
BRANCH  34  35
ATOM     35  O   UNL     1       4.146  -2.649   1.383  0.00  0.00    -0.325 OA
ATOM     36  C   UNL     1       5.345  -3.263   1.837  0.00  0.00    +0.177 C 
ENDBRANCH  34  35
BRANCH  34  37
ATOM     37  O   UNL     1       4.904  -1.114  -0.245  0.00  0.00    -0.325 OA
ATOM     38  C   UNL     1       5.465   0.174  -0.457  0.00  0.00    +0.177 C 
ENDBRANCH  34  37
ENDBRANCH   2  34
TORSDOF 9
