REMARK  Name = 10477925
REMARK  12 active torsions:
REMARK  status: ('A' for Active; 'I' for Inactive)
REMARK    1  A    between atoms: C_1  and  C_4
REMARK    2  A    between atoms: C_1  and  C_17
REMARK    3  A    between atoms: C_1  and  O_32
REMARK    4  A    between atoms: C_6  and  O_10
REMARK    5  A    between atoms: C_9  and  C_12
REMARK    6  A    between atoms: C_12  and  O_13
REMARK    7  A    between atoms: O_13  and  C_15
REMARK    8  A    between atoms: C_18  and  C_20
REMARK    9  A    between atoms: C_21  and  C_23
REMARK   10  A    between atoms: C_22  and  C_25
REMARK   11  A    between atoms: C_25  and  C_26
REMARK   12  A    between atoms: C_26  and  C_29
REMARK                            x       y       z     vdW  Elec       q    Type
REMARK                         _______ _______ _______ _____ _____    ______ ____
ROOT
ATOM      1  C   UNL     1      -1.583   2.143  -0.231  0.00  0.00    +0.162 C 
ENDROOT
BRANCH   1   4
ATOM      2  O   UNL     1      -2.715   0.727  -1.848  0.00  0.00    -0.342 OA
ATOM      3  O   UNL     1      -6.002   0.515  -1.653  0.00  0.00    -0.289 OA
ATOM      4  C   UNL     1      -2.539   1.006  -0.451  0.00  0.00    +0.182 C 
ATOM      5  C   UNL     1      -3.843   1.268  -1.141  0.00  0.00    +0.206 C 
ATOM      6  C   UNL     1      -2.408  -0.199   0.420  0.00  0.00    +0.162 C 
ATOM      7  C   UNL     1      -4.968   0.319  -1.025  0.00  0.00    +0.202 C 
ATOM      8  C   UNL     1      -3.628  -1.072   0.506  0.00  0.00    +0.007 C 
ATOM      9  C   UNL     1      -4.793  -0.864  -0.131  0.00  0.00    +0.057 C 
BRANCH   6  10
ATOM     10  O   UNL     1      -2.087   0.225   1.748  0.00  0.00    -0.377 OA
ATOM     11  H   UNL     1      -1.300   0.792   1.725  0.00  0.00    +0.211 HD
ENDBRANCH   6  10
BRANCH   9  12
ATOM     12  C   UNL     1      -5.965  -1.787   0.003  0.00  0.00    +0.238 C 
BRANCH  12  13
ATOM     13  O   UNL     1      -7.075  -1.080   0.524  0.00  0.00    -0.443 OA
BRANCH  13  15
ATOM     14  O   UNL     1      -8.363  -2.997   0.445  0.00  0.00    -0.250 OA
ATOM     15  C   UNL     1      -8.223  -1.808   0.698  0.00  0.00    +0.318 C 
ATOM     16  C   UNL     1      -9.307  -0.936   1.253  0.00  0.00    +0.121 C 
ENDBRANCH  13  15
ENDBRANCH  12  13
ENDBRANCH   9  12
ENDBRANCH   1   4
BRANCH   1  17
ATOM     17  C   UNL     1      -0.147   1.799  -0.532  0.00  0.00    +0.001 C 
ATOM     18  C   UNL     1       0.919   1.903   0.289  0.00  0.00    -0.024 C 
ATOM     19  C   UNL     1       0.827   2.357   1.723  0.00  0.00    +0.031 C 
BRANCH  18  20
ATOM     20  C   UNL     1       2.242   1.542  -0.228  0.00  0.00    -0.005 C 
ATOM     21  C   UNL     1       3.405   1.584   0.444  0.00  0.00    -0.001 C 
BRANCH  21  23
ATOM     22  C   UNL     1       5.885   1.222   0.425  0.00  0.00    -0.044 C 
ATOM     23  C   UNL     1       4.670   1.215  -0.160  0.00  0.00    -0.008 C 
ATOM     24  C   UNL     1       6.017   1.651   1.865  0.00  0.00    +0.026 C 
BRANCH  22  25
ATOM     25  C   UNL     1       7.192   0.865  -0.257  0.00  0.00    +0.025 C 
BRANCH  25  26
ATOM     26  C   UNL     1       7.983  -0.245   0.445  0.00  0.00    +0.036 C 
BRANCH  26  29
ATOM     27  O   UNL     1       8.057  -2.712   0.537  0.00  0.00    -0.356 OA
ATOM     28  C   UNL     1       7.187  -2.529  -0.587  0.00  0.00    +0.118 C 
ATOM     29  C   UNL     1       7.233  -1.539   0.540  0.00  0.00    +0.140 C 
ATOM     30  C   UNL     1       7.889  -2.284  -1.870  0.00  0.00    +0.032 C 
ATOM     31  C   UNL     1       6.085  -3.517  -0.666  0.00  0.00    +0.032 C 
ENDBRANCH  26  29
ENDBRANCH  25  26
ENDBRANCH  22  25
ENDBRANCH  21  23
ENDBRANCH  18  20
ENDBRANCH   1  17
BRANCH   1  32
ATOM     32  O   UNL     1      -1.947   3.231  -1.086  0.00  0.00    -0.377 OA
ATOM     33  H   UNL     1      -2.870   3.479  -0.919  0.00  0.00    +0.211 HD
ENDBRANCH   1  32
TORSDOF 12
