10471600
  -OEChem-03292013303D

 30 30  0     0  0  0  0  0  0999 V2000
   -4.1648    2.6700   -0.5477 O   0  0  0  0  0  0  0  0  0  0  0  0
    4.1653    2.6700    0.5468 O   0  0  0  0  0  0  0  0  0  0  0  0
   -3.4566    1.4693    1.2471 O   0  0  0  0  0  0  0  0  0  0  0  0
    3.4550    1.4695   -1.2474 O   0  0  0  0  0  0  0  0  0  0  0  0
   -4.7703   -1.6178    0.1526 O   0  0  0  0  0  0  0  0  0  0  0  0
    4.7703   -1.6176   -0.1550 O   0  0  0  0  0  0  0  0  0  0  0  0
   -2.7963   -0.7015   -0.2215 N   0  0  0  0  0  0  0  0  0  0  0  0
    2.7965   -0.7015    0.2216 N   0  0  0  0  0  0  0  0  0  0  0  0
   -3.5493   -1.7203    0.3097 N   0  0  0  0  0  0  0  0  0  0  0  0
    3.5491   -1.7202   -0.3107 N   0  0  0  0  0  0  0  0  0  0  0  0
   -1.3904   -0.7014   -0.1092 C   0  0  0  0  0  0  0  0  0  0  0  0
    1.3906   -0.7015    0.1110 C   0  0  0  0  0  0  0  0  0  0  0  0
   -0.6953    0.5065   -0.0536 C   0  0  0  0  0  0  0  0  0  0  0  0
    0.6953    0.5064    0.0564 C   0  0  0  0  0  0  0  0  0  0  0  0
   -0.6952   -1.9095   -0.0547 C   0  0  0  0  0  0  0  0  0  0  0  0
    0.6954   -1.9094    0.0554 C   0  0  0  0  0  0  0  0  0  0  0  0
   -3.3965    0.4503   -0.9365 C   0  0  0  0  0  0  0  0  0  0  0  0
    3.3975    0.4502    0.9361 C   0  0  0  0  0  0  0  0  0  0  0  0
   -3.6693    1.5543    0.0446 C   0  0  0  0  0  0  0  0  0  0  0  0
    3.6691    1.5543   -0.0450 C   0  0  0  0  0  0  0  0  0  0  0  0
   -1.1739    1.4777   -0.0902 H   0  0  0  0  0  0  0  0  0  0  0  0
    1.1740    1.4775    0.0935 H   0  0  0  0  0  0  0  0  0  0  0  0
   -1.2061   -2.8674   -0.1058 H   0  0  0  0  0  0  0  0  0  0  0  0
    1.2063   -2.8675    0.1054 H   0  0  0  0  0  0  0  0  0  0  0  0
   -4.3460    0.1654   -1.4047 H   0  0  0  0  0  0  0  0  0  0  0  0
   -2.7433    0.8112   -1.7400 H   0  0  0  0  0  0  0  0  0  0  0  0
    4.3476    0.1651    1.4031 H   0  0  0  0  0  0  0  0  0  0  0  0
    2.7453    0.8109    1.7405 H   0  0  0  0  0  0  0  0  0  0  0  0
   -4.3312    3.3859    0.1020 H   0  0  0  0  0  0  0  0  0  0  0  0
    4.3309    3.3859   -0.1031 H   0  0  0  0  0  0  0  0  0  0  0  0
  1 19  1  0  0  0  0
  1 29  1  0  0  0  0
  2 20  1  0  0  0  0
  2 30  1  0  0  0  0
  3 19  2  0  0  0  0
  4 20  2  0  0  0  0
  5  9  2  0  0  0  0
  6 10  2  0  0  0  0
  7  9  1  0  0  0  0
  7 11  1  0  0  0  0
  7 17  1  0  0  0  0
  8 10  1  0  0  0  0
  8 12  1  0  0  0  0
  8 18  1  0  0  0  0
 11 13  2  0  0  0  0
 11 15  1  0  0  0  0
 12 14  2  0  0  0  0
 12 16  1  0  0  0  0
 13 14  1  0  0  0  0
 13 21  1  0  0  0  0
 14 22  1  0  0  0  0
 15 16  2  0  0  0  0
 15 23  1  0  0  0  0
 16 24  1  0  0  0  0
 17 19  1  0  0  0  0
 17 25  1  0  0  0  0
 17 26  1  0  0  0  0
 18 20  1  0  0  0  0
 18 27  1  0  0  0  0
 18 28  1  0  0  0  0
M  END
> <PUBCHEM_COMPOUND_CID>
10471600

> <PUBCHEM_CONFORMER_RMSD>
0.8

> <PUBCHEM_CONFORMER_DIVERSEORDER>
1
27
34
5
4
62
25
30
6
58
42
9
51
49
3
33
46
35
11
54
36
32
17
40
7
37
45
20
39
16
50
38
53
60
43
23
24
47
41
29
31
28
48
61
14
59
57
15
21
55
12
8
52
10
44
2
56
26
18
19
13
22

> <PUBCHEM_MMFF94_PARTIAL_CHARGES>
24
1 -0.65
11 0.1
12 0.1
13 -0.15
14 -0.15
15 -0.15
16 -0.15
17 0.43
18 0.43
19 0.66
2 -0.65
20 0.66
21 0.15
22 0.15
23 0.15
24 0.15
29 0.5
3 -0.57
30 0.5
4 -0.57
5 -0.16
6 -0.16
7 -0.3
8 -0.3

> <PUBCHEM_EFFECTIVE_ROTOR_COUNT>
8

> <PUBCHEM_PHARMACOPHORE_FEATURES>
7
1 1 acceptor
1 2 acceptor
1 3 acceptor
1 4 acceptor
3 1 3 19 anion
3 2 4 20 anion
6 11 12 13 14 15 16 rings

> <PUBCHEM_HEAVY_ATOM_COUNT>
20

> <PUBCHEM_ATOM_DEF_STEREO_COUNT>
0

> <PUBCHEM_ATOM_UDEF_STEREO_COUNT>
0

> <PUBCHEM_BOND_DEF_STEREO_COUNT>
0

> <PUBCHEM_BOND_UDEF_STEREO_COUNT>
0

> <PUBCHEM_ISOTOPIC_ATOM_COUNT>
0

> <PUBCHEM_COMPONENT_COUNT>
1

> <PUBCHEM_CACTVS_TAUTO_COUNT>
1

> <PUBCHEM_CONFORMER_ID>
009FC8B000000001

> <PUBCHEM_MMFF94_ENERGY>
66.6108

> <PUBCHEM_FEATURE_SELFOVERLAP>
35.638

> <PUBCHEM_SHAPE_FINGERPRINT>
10498660 4 18411699880985476697
10608611 8 18410852165888284738
10646746 165 18412824659747008372
11405975 8 18335980878740293874
12173636 292 18338794636317435030
12390115 104 18270133390916942865
12507560 40 18410854377859856182
13140716 1 18336259055192560162
13675066 3 18201993322485803298
14415576 193 18411981334465790822
15196674 1 18410572889934829633
15239154 128 18410576184175122433
15536298 74 18411419531532355614
17834072 32 18265050237383065725
17844677 252 18411142436963311883
18186145 218 18114176406796067318
20510252 161 18341050804597910027
20645477 70 18272655649485554798
21452121 103 18341321267589684144
21503847 285 18114465565706777208
21709351 56 18341888550574477902
23559900 14 18270114596477659034
335352 9 18266457599043711078
4214541 1 18410855434548346535
5104073 3 18408602560813412160
5281201 14 18343026579532209286
633830 44 18411128113321525414
77779 3 18410855464423155078
90127 26 18261398840280211194
9709674 26 18336548321382812130

> <PUBCHEM_SHAPE_MULTIPOLES>
356.45
9.87
2.66
0.84
0
0.71
0
2.78
0
0
0
0
0.27
0.3

> <PUBCHEM_SHAPE_SELFOVERLAP>
737.733

> <PUBCHEM_SHAPE_VOLUME>
201.1

> <PUBCHEM_COORDINATE_TYPE>
2
5
10

$$$$
