REMARK  Name = 10477191
REMARK  7 active torsions:
REMARK  status: ('A' for Active; 'I' for Inactive)
REMARK    1  A    between atoms: N_2  and  C_26
REMARK    2  A    between atoms: C_3  and  N_13
REMARK    3  A    between atoms: C_14  and  C_19
REMARK    4  A    between atoms: C_26  and  C_27
REMARK    5  A    between atoms: C_27  and  O_28
REMARK    6  A    between atoms: C_27  and  C_30
REMARK    7  A    between atoms: C_30  and  O_31
REMARK                            x       y       z     vdW  Elec       q    Type
REMARK                         _______ _______ _______ _____ _____    ______ ____
ROOT
ATOM      1  O   UNL     1       0.935  -1.533  -1.050  0.00  0.00    -0.273 OA
ATOM      2  N   UNL     1       2.868  -0.309  -0.617  0.00  0.00    -0.255 N 
ATOM      3  C   UNL     1       0.654   0.767  -0.410  0.00  0.00    +0.154 C 
ATOM      4  C   UNL     1       1.198   1.551   0.769  0.00  0.00    +0.057 C 
ATOM      5  C   UNL     1       2.655   1.837   0.555  0.00  0.00    -0.006 C 
ATOM      6  C   UNL     1       3.461   0.893  -0.106  0.00  0.00    +0.050 C 
ATOM      7  C   UNL     1       1.476  -0.487  -0.686  0.00  0.00    +0.248 C 
ATOM      8  C   UNL     1       3.222   3.004   1.087  0.00  0.00    -0.003 C 
ATOM      9  C   UNL     1       4.837   1.152  -0.221  0.00  0.00    +0.015 C 
ATOM     10  C   UNL     1       4.586   3.249   0.953  0.00  0.00    -0.000 C 
ATOM     11  C   UNL     1       5.392   2.323   0.300  0.00  0.00    +0.001 C 
ENDROOT
BRANCH   3  13
ATOM     12  O   UNL     1      -1.623   2.256  -1.149  0.00  0.00    -0.269 OA
ATOM     13  N   UNL     1      -0.714   0.380  -0.183  0.00  0.00    -0.294 N 
ATOM     14  C   UNL     1      -1.790   1.175  -0.580  0.00  0.00    +0.260 C 
ATOM     15  H   UNL     1      -0.897  -0.475   0.269  0.00  0.00    +0.150 HD
BRANCH  14  19
ATOM     16 CL   UNL     1      -8.533  -1.698   0.851  0.00  0.00    -0.075 Cl
ATOM     17  S   UNL     1      -6.957   0.579  -0.284  0.00  0.00    -0.061 S 
ATOM     18  N   UNL     1      -4.264   1.307  -0.648  0.00  0.00    -0.304 N 
ATOM     19  C   UNL     1      -3.127   0.629  -0.308  0.00  0.00    +0.103 C 
ATOM     20  C   UNL     1      -3.411  -0.566   0.289  0.00  0.00    +0.021 C 
ATOM     21  C   UNL     1      -4.799  -0.590   0.300  0.00  0.00    +0.022 C 
ATOM     22  C   UNL     1      -5.296   0.523  -0.256  0.00  0.00    +0.080 C 
ATOM     23  C   UNL     1      -5.747  -1.503   0.755  0.00  0.00    +0.020 C 
ATOM     24  C   UNL     1      -7.013  -0.985   0.497  0.00  0.00    +0.088 C 
ATOM     25  H   UNL     1      -4.322   2.186  -1.087  0.00  0.00    +0.153 HD
ENDBRANCH  14  19
ENDBRANCH   3  13
BRANCH   2  26
ATOM     26  C   UNL     1       3.742  -1.389  -1.069  0.00  0.00    +0.130 C 
BRANCH  26  27
ATOM     27  C   UNL     1       4.260  -2.254   0.078  0.00  0.00    +0.160 C 
BRANCH  27  28
ATOM     28  O   UNL     1       3.157  -2.842   0.768  0.00  0.00    -0.380 OA
ATOM     29  H   UNL     1       2.555  -2.144   1.070  0.00  0.00    +0.211 HD
ENDBRANCH  27  28
BRANCH  27  30
ATOM     30  C   UNL     1       5.191  -3.370  -0.386  0.00  0.00    +0.168 C 
BRANCH  30  31
ATOM     31  O   UNL     1       5.639  -4.099   0.752  0.00  0.00    -0.379 OA
ATOM     32  H   UNL     1       6.232  -4.812   0.467  0.00  0.00    +0.211 HD
ENDBRANCH  30  31
ENDBRANCH  27  30
ENDBRANCH  26  27
ENDBRANCH   2  26
TORSDOF 7
