REMARK  Name = 104780
REMARK  5 active torsions:
REMARK  status: ('A' for Active; 'I' for Inactive)
REMARK    1  A    between atoms: C_5  and  C_23
REMARK    2  A    between atoms: C_7  and  O_17
REMARK    3  A    between atoms: C_9  and  O_19
REMARK    4  A    between atoms: C_13  and  O_21
REMARK    5  A    between atoms: C_23  and  O_24
REMARK                            x       y       z     vdW  Elec       q    Type
REMARK                         _______ _______ _______ _____ _____    ______ ____
ROOT
ATOM      1  O   UNL     1       2.666   1.051  -1.682  0.00  0.00    -0.351 OA
ATOM      2  O   UNL     1       0.097  -1.474  -1.110  0.00  0.00    -0.349 OA
ATOM      3  C   UNL     1       1.115   0.812   0.271  0.00  0.00    +0.060 C 
ATOM      4  C   UNL     1       1.466   0.455  -1.162  0.00  0.00    +0.149 C 
ATOM      5  C   UNL     1      -0.432   0.434   0.446  0.00  0.00    +0.063 C 
ATOM      6  C   UNL     1       1.456  -1.034  -1.202  0.00  0.00    +0.172 C 
ATOM      7  C   UNL     1       2.021  -0.237   1.043  0.00  0.00    +0.142 C 
ATOM      8  C   UNL     1       1.448   1.354  -2.375  0.00  0.00    +0.172 C 
ATOM      9  C   UNL     1       2.305  -1.378   0.031  0.00  0.00    +0.167 C 
ATOM     10  C   UNL     1      -0.634  -1.075   0.064  0.00  0.00    +0.139 C 
ATOM     11  C   UNL     1       1.433   2.261   0.656  0.00  0.00    +0.005 C 
ATOM     12  C   UNL     1      -1.348   1.292  -0.489  0.00  0.00    +0.039 C 
ATOM     13  C   UNL     1      -2.835   0.895  -0.474  0.00  0.00    +0.129 C 
ATOM     14  C   UNL     1      -2.066  -1.462  -0.195  0.00  0.00    -0.003 C 
ATOM     15  C   UNL     1      -3.067  -0.594  -0.413  0.00  0.00    -0.020 C 
ATOM     16  C   UNL     1      -4.473  -1.069  -0.651  0.00  0.00    +0.029 C 
ENDROOT
BRANCH   7  17
ATOM     17  O   UNL     1       3.269   0.347   1.416  0.00  0.00    -0.382 OA
ATOM     18  H   UNL     1       3.114   1.064   2.050  0.00  0.00    +0.210 HD
ENDBRANCH   7  17
BRANCH   9  19
ATOM     19  O   UNL     1       1.998  -2.657   0.550  0.00  0.00    -0.379 OA
ATOM     20  H   UNL     1       2.192  -3.333  -0.118  0.00  0.00    +0.211 HD
ENDBRANCH   9  19
BRANCH  13  21
ATOM     21  O   UNL     1      -3.479   1.539   0.624  0.00  0.00    -0.380 OA
ATOM     22  H   UNL     1      -3.323   2.495   0.574  0.00  0.00    +0.211 HD
ENDBRANCH  13  21
BRANCH   5  23
ATOM     23  C   UNL     1      -0.883   0.664   1.914  0.00  0.00    +0.140 C 
BRANCH  23  24
ATOM     24  O   UNL     1      -0.058  -0.122   2.738  0.00  0.00    -0.382 OA
ATOM     25  H   UNL     1      -0.316   0.000   3.665  0.00  0.00    +0.210 HD
ENDBRANCH  23  24
ENDBRANCH   5  23
TORSDOF 5
