REMARK  Name = 10473798
REMARK  7 active torsions:
REMARK  status: ('A' for Active; 'I' for Inactive)
REMARK    1  A    between atoms: C_7  and  C_21
REMARK    2  A    between atoms: C_8  and  S_11
REMARK    3  A    between atoms: C_9  and  C_24
REMARK    4  A    between atoms: S_11  and  C_13
REMARK    5  A    between atoms: C_14  and  N_16
REMARK    6  A    between atoms: C_21  and  O_22
REMARK    7  A    between atoms: C_24  and  O_25
REMARK                            x       y       z     vdW  Elec       q    Type
REMARK                         _______ _______ _______ _____ _____    ______ ____
ROOT
ATOM      1  O   UNL     1       3.721  -1.939  -0.100  0.00  0.00    -0.270 OA
ATOM      2  N   UNL     1       1.759  -0.934   0.787  0.00  0.00    -0.247 N 
ATOM      3  C   UNL     1       1.807   0.526   0.993  0.00  0.00    +0.111 C 
ATOM      4  C   UNL     1       0.699   1.077   0.088  0.00  0.00    +0.062 C 
ATOM      5  C   UNL     1       3.237   0.411   0.512  0.00  0.00    +0.045 C 
ATOM      6  C   UNL     1       3.049  -1.034   0.352  0.00  0.00    +0.250 C 
ATOM      7  C   UNL     1       0.653  -1.265   0.051  0.00  0.00    +0.135 C 
ATOM      8  C   UNL     1      -0.011  -0.176  -0.356  0.00  0.00    +0.060 C 
ATOM      9  C   UNL     1       4.257   1.235   0.303  0.00  0.00    -0.013 C 
ATOM     10  C   UNL     1       5.610   0.767  -0.214  0.00  0.00    +0.029 C 
ENDROOT
BRANCH   8  11
ATOM     11  S   UNL     1      -1.473  -0.207  -1.336  0.00  0.00    +0.087 S 
ATOM     12  O   UNL     1      -1.606   1.148  -1.976  0.00  0.00    -0.247 OA
BRANCH  11  13
ATOM     13  C   UNL     1      -2.711  -0.263  -0.049  0.00  0.00    +0.084 C 
ATOM     14  C   UNL     1      -3.901   0.294  -0.295  0.00  0.00    +0.074 C 
BRANCH  14  16
ATOM     15  O   UNL     1      -6.514   1.432  -0.635  0.00  0.00    -0.275 OA
ATOM     16  N   UNL     1      -4.909   0.296   0.621  0.00  0.00    -0.282 N 
ATOM     17  C   UNL     1      -6.154   0.866   0.395  0.00  0.00    +0.227 C 
ATOM     18  C   UNL     1      -7.064   0.754   1.590  0.00  0.00    +0.095 C 
ATOM     19  H   UNL     1      -4.746  -0.131   1.493  0.00  0.00    +0.155 HD
ENDBRANCH  14  16
ENDBRANCH  11  13
ENDBRANCH   8  11
BRANCH   7  21
ATOM     20  O   UNL     1      -0.184  -3.072  -1.247  0.00  0.00    -0.244 OA
ATOM     21  C   UNL     1       0.358  -2.666  -0.231  0.00  0.00    +0.352 C 
BRANCH  21  22
ATOM     22  O   UNL     1       0.774  -3.438   0.797  0.00  0.00    -0.476 OA
ATOM     23  H   UNL     1       1.183  -3.045   1.543  0.00  0.00    +0.295 HD
ENDBRANCH  21  22
ENDBRANCH   7  21
BRANCH   9  24
ATOM     24  C   UNL     1       4.187   2.732   0.576  0.00  0.00    +0.159 C 
BRANCH  24  25
ATOM     25  O   UNL     1       4.416   3.456  -0.624  0.00  0.00    -0.378 OA
ATOM     26  H   UNL     1       4.370   4.408  -0.442  0.00  0.00    +0.211 HD
ENDBRANCH  24  25
ENDBRANCH   9  24
TORSDOF 7
