10477786
  -OEChem-03292013303D

 57 59  0     1  0  0  0  0  0999 V2000
    1.1857    2.3615   -0.0463 O   0  0  0  0  0  0  0  0  0  0  0  0
    3.0563    0.8836   -0.5125 O   0  0  0  0  0  0  0  0  0  0  0  0
   -3.1590    0.8183   -0.2533 O   0  0  0  0  0  0  0  0  0  0  0  0
   -1.0211    1.2533   -1.8483 O   0  0  0  0  0  0  0  0  0  0  0  0
   -2.6464   -0.2415    2.2325 O   0  0  0  0  0  0  0  0  0  0  0  0
   -2.3242   -1.2681   -0.7830 O   0  0  0  0  0  0  0  0  0  0  0  0
   -5.9090    0.9280   -0.2815 O   0  0  0  0  0  0  0  0  0  0  0  0
   -7.9047   -1.5618    1.1466 O   0  0  0  0  0  0  0  0  0  0  0  0
    0.5378    1.0776   -0.0721 C   0  0  1  0  0  0  0  0  0  0  0  0
    1.7584    1.3732   -0.9148 C   0  0  1  0  0  0  0  0  0  0  0  0
    0.6712    0.0912    1.0105 C   0  0  0  0  0  0  0  0  0  0  0  0
   -0.8323    1.1602   -0.6412 C   0  0  0  0  0  0  0  0  0  0  0  0
   -1.9440    1.1547    0.3931 C   0  0  2  0  0  0  0  0  0  0  0  0
   -0.3467   -0.3389    1.7746 C   0  0  0  0  0  0  0  0  0  0  0  0
   -1.7243    0.1593    1.5231 C   0  0  0  0  0  0  0  0  0  0  0  0
    2.0067   -0.4382    1.2211 C   0  0  0  0  0  0  0  0  0  0  0  0
    3.0750   -0.0555    0.5006 C   0  0  0  0  0  0  0  0  0  0  0  0
   -2.1038    2.5554    0.9784 C   0  0  0  0  0  0  0  0  0  0  0  0
    4.3878   -0.5915    0.7448 C   0  0  0  0  0  0  0  0  0  0  0  0
   -3.2201   -0.4339   -0.8049 C   0  0  0  0  0  0  0  0  0  0  0  0
   -4.5485   -0.6490   -1.4893 C   0  0  0  0  0  0  0  0  0  0  0  0
   -5.6997   -0.4668   -0.5007 C   0  0  2  0  0  0  0  0  0  0  0  0
   -6.9935   -1.0990   -1.0371 C   0  0  0  0  0  0  0  0  0  0  0  0
    5.4695   -0.2294    0.0438 C   0  0  0  0  0  0  0  0  0  0  0  0
   -8.1882   -0.9173   -0.0920 C   0  0  1  0  0  0  0  0  0  0  0  0
    6.7870   -0.7723    0.2956 C   0  0  0  0  0  0  0  0  0  0  0  0
   -9.4538   -1.5251   -0.6833 C   0  0  0  0  0  0  0  0  0  0  0  0
    7.8733   -0.4114   -0.4053 C   0  0  0  0  0  0  0  0  0  0  0  0
    9.1875   -0.9579   -0.1479 C   0  0  0  0  0  0  0  0  0  0  0  0
   10.3253   -0.6587   -0.7934 C   0  0  0  0  0  0  0  0  0  0  0  0
   11.6980   -1.2000   -0.5577 C   0  0  0  0  0  0  0  0  0  0  0  0
    1.6213    1.5270   -1.9789 H   0  0  0  0  0  0  0  0  0  0  0  0
   -0.2214   -1.0682    2.5678 H   0  0  0  0  0  0  0  0  0  0  0  0
    2.1246   -1.1806    2.0083 H   0  0  0  0  0  0  0  0  0  0  0  0
   -1.2218    2.8649    1.5493 H   0  0  0  0  0  0  0  0  0  0  0  0
   -2.9725    2.6050    1.6455 H   0  0  0  0  0  0  0  0  0  0  0  0
   -2.2723    3.2937    0.1858 H   0  0  0  0  0  0  0  0  0  0  0  0
    4.4836   -1.3257    1.5420 H   0  0  0  0  0  0  0  0  0  0  0  0
   -4.6121    0.0445   -2.3351 H   0  0  0  0  0  0  0  0  0  0  0  0
   -4.5435   -1.6711   -1.8854 H   0  0  0  0  0  0  0  0  0  0  0  0
   -5.4406   -0.9122    0.4667 H   0  0  0  0  0  0  0  0  0  0  0  0
   -7.2428   -0.6482   -2.0061 H   0  0  0  0  0  0  0  0  0  0  0  0
   -6.8175   -2.1698   -1.2007 H   0  0  0  0  0  0  0  0  0  0  0  0
    5.4059    0.5006   -0.7594 H   0  0  0  0  0  0  0  0  0  0  0  0
   -8.3569    0.1461    0.1099 H   0  0  0  0  0  0  0  0  0  0  0  0
   -6.1642    1.3291   -1.1299 H   0  0  0  0  0  0  0  0  0  0  0  0
    6.8744   -1.5047    1.0952 H   0  0  0  0  0  0  0  0  0  0  0  0
  -10.2969   -1.3985    0.0045 H   0  0  0  0  0  0  0  0  0  0  0  0
   -9.7115   -1.0570   -1.6381 H   0  0  0  0  0  0  0  0  0  0  0  0
   -9.3353   -2.6030   -0.8395 H   0  0  0  0  0  0  0  0  0  0  0  0
   -8.6680   -1.4212    1.7324 H   0  0  0  0  0  0  0  0  0  0  0  0
    7.7941    0.3201   -1.2060 H   0  0  0  0  0  0  0  0  0  0  0  0
    9.2475   -1.6887    0.6574 H   0  0  0  0  0  0  0  0  0  0  0  0
   10.2706    0.0719   -1.6000 H   0  0  0  0  0  0  0  0  0  0  0  0
   12.3826   -0.3861   -0.3012 H   0  0  0  0  0  0  0  0  0  0  0  0
   12.0671   -1.6919   -1.4626 H   0  0  0  0  0  0  0  0  0  0  0  0
   11.7094   -1.9287    0.2586 H   0  0  0  0  0  0  0  0  0  0  0  0
  1  9  1  0  0  0  0
  1 10  1  0  0  0  0
  2 10  1  0  0  0  0
  2 17  1  0  0  0  0
  3 13  1  0  0  0  0
  3 20  1  0  0  0  0
  4 12  2  0  0  0  0
  5 15  2  0  0  0  0
  6 20  2  0  0  0  0
  7 22  1  0  0  0  0
  7 46  1  0  0  0  0
  8 25  1  0  0  0  0
  8 51  1  0  0  0  0
  9 10  1  0  0  0  0
  9 11  1  0  0  0  0
  9 12  1  0  0  0  0
 10 32  1  0  0  0  0
 11 14  2  0  0  0  0
 11 16  1  0  0  0  0
 12 13  1  0  0  0  0
 13 15  1  0  0  0  0
 13 18  1  0  0  0  0
 14 15  1  0  0  0  0
 14 33  1  0  0  0  0
 16 17  2  0  0  0  0
 16 34  1  0  0  0  0
 17 19  1  0  0  0  0
 18 35  1  0  0  0  0
 18 36  1  0  0  0  0
 18 37  1  0  0  0  0
 19 24  2  0  0  0  0
 19 38  1  0  0  0  0
 20 21  1  0  0  0  0
 21 22  1  0  0  0  0
 21 39  1  0  0  0  0
 21 40  1  0  0  0  0
 22 23  1  0  0  0  0
 22 41  1  0  0  0  0
 23 25  1  0  0  0  0
 23 42  1  0  0  0  0
 23 43  1  0  0  0  0
 24 26  1  0  0  0  0
 24 44  1  0  0  0  0
 25 27  1  0  0  0  0
 25 45  1  0  0  0  0
 26 28  2  0  0  0  0
 26 47  1  0  0  0  0
 27 48  1  0  0  0  0
 27 49  1  0  0  0  0
 27 50  1  0  0  0  0
 28 29  1  0  0  0  0
 28 52  1  0  0  0  0
 29 30  2  0  0  0  0
 29 53  1  0  0  0  0
 30 31  1  0  0  0  0
 30 54  1  0  0  0  0
 31 55  1  0  0  0  0
 31 56  1  0  0  0  0
 31 57  1  0  0  0  0
M  END
> <PUBCHEM_COMPOUND_CID>
10477786

> <PUBCHEM_CONFORMER_RMSD>
1.2

> <PUBCHEM_CONFORMER_DIVERSEORDER>
1
48
141
102
8
62
67
120
147
40
124
22
90
80
56
136
63
23
127
74
16
113
51
85
31
53
15
73
140
66
52
26
134
97
7
138
82
9
94
61
18
3
49
21
33
109
126
5
118
129
110
87
12
108
2
28
75
150
135
43
133
76
30
105
95
20
27
68
24
29
77
148
10
32
41
114
44
139
92
72
119
83
50
122
121
17
60
149
78
35
142
103
38
54
91
37
47
96
11
131
111
106
65
25
13
19
86
146
145
132
88
36
104
39
100
4
34
93
101
69
46
84
130
117
42
55
71
125
45
6
59
14
115
144
137
79
98
107
64
99
70
81
57
89
112
58
143
128
116
123

> <PUBCHEM_MMFF94_PARTIAL_CHARGES>
39
1 -0.3
10 0.2
11 -0.04
12 0.51
13 0.4
14 -0.14
15 0.49
16 -0.15
17 0.08
19 -0.15
2 -0.22
20 0.66
21 0.06
22 0.28
24 -0.15
25 0.28
26 -0.15
28 -0.15
29 -0.15
3 -0.43
30 -0.29
31 0.14
32 0.1
33 0.15
34 0.15
38 0.15
4 -0.57
44 0.15
46 0.4
47 0.15
5 -0.57
51 0.4
52 0.15
53 0.15
54 0.15
6 -0.57
7 -0.68
8 -0.68
9 0.19

> <PUBCHEM_EFFECTIVE_ROTOR_COUNT>
9.6

> <PUBCHEM_PHARMACOPHORE_FEATURES>
12
1 1 acceptor
1 2 acceptor
1 31 hydrophobe
1 4 acceptor
1 5 acceptor
1 6 acceptor
1 7 acceptor
1 7 donor
1 8 acceptor
1 8 donor
6 9 11 12 13 14 15 rings
7 1 2 9 10 11 16 17 rings

> <PUBCHEM_HEAVY_ATOM_COUNT>
31

> <PUBCHEM_ATOM_DEF_STEREO_COUNT>
0

> <PUBCHEM_ATOM_UDEF_STEREO_COUNT>
5

> <PUBCHEM_BOND_DEF_STEREO_COUNT>
3

> <PUBCHEM_BOND_UDEF_STEREO_COUNT>
0

> <PUBCHEM_ISOTOPIC_ATOM_COUNT>
0

> <PUBCHEM_COMPONENT_COUNT>
1

> <PUBCHEM_CACTVS_TAUTO_COUNT>
1

> <PUBCHEM_CONFORMER_ID>
009FE0DA00000001

> <PUBCHEM_MMFF94_ENERGY>
59.5657

> <PUBCHEM_FEATURE_SELFOVERLAP>
60.958

> <PUBCHEM_SHAPE_FINGERPRINT>
10 15 12175625075090962870
10076449 9 17676487241600569485
10429389 143 8069760589762627671
106641 1 12823295710472340967
10674148 151 17060618901773663242
11315181 36 17386016057548460424
12236239 1 18335136501867418981
12498461 61 16415471697634409503
12539745 222 17418096499300043233
12741549 16 15913327996127502083
13540713 4 17025168568003256937
13540713 5 16953357006935190592
14251764 46 12535627176752847214
14344974 52 14273745078825024006
15247644 1 17989207053403142438
15461852 350 18412546488275615484
155225 1 10953455223943834063
1818759 1 18343866615296174894
18335252 98 17346882222591948470
18643901 69 17917711296936870814
20105231 36 17846777408468342350
20580484 106 12895072899434563294
21150785 3 16515683342597903406
21267235 1 18411134749272675317
21403212 168 11600007656711484836
21792961 116 16877948222183877416
22224240 67 11671779381609909565
232437 2 18272651247291581014
23559900 14 17458349671907472004
23576562 1 15864646083726336454
3178227 256 13973962113295559866
335352 9 17095523998282800098
4325135 7 18408603644210819582
484989 97 17531817977696464907
5028188 123 16660361490188046751
54039377 194 18411418432121188655
57527306 92 10665224852103043639
57527452 28 18273215309029810223
636775 8 18187086178665880403

> <PUBCHEM_SHAPE_MULTIPOLES>
591.01
31.11
1.69
1.44
52.04
0.74
0.36
-24.58
-5.49
-1.62
-0.2
-1.07
0.08
-0.24

> <PUBCHEM_SHAPE_SELFOVERLAP>
1243.148

> <PUBCHEM_SHAPE_VOLUME>
328

> <PUBCHEM_COORDINATE_TYPE>
2
5
10

$$$$
