REMARK  Name = 10475220
REMARK  11 active torsions:
REMARK  status: ('A' for Active; 'I' for Inactive)
REMARK    1  A    between atoms: C_1  and  C_14
REMARK    2  A    between atoms: C_1  and  C_17
REMARK    3  A    between atoms: C_2  and  C_3
REMARK    4  A    between atoms: C_6  and  O_9
REMARK    5  A    between atoms: C_7  and  O_11
REMARK    6  A    between atoms: C_14  and  O_15
REMARK    7  A    between atoms: C_17  and  C_30
REMARK    8  A    between atoms: C_18  and  C_19
REMARK    9  A    between atoms: C_22  and  O_25
REMARK   10  A    between atoms: C_23  and  O_27
REMARK   11  A    between atoms: C_30  and  O_31
REMARK                            x       y       z     vdW  Elec       q    Type
REMARK                         _______ _______ _______ _____ _____    ______ ____
ROOT
ATOM      1  C   UNL     1      -0.008   0.359   0.753  0.00  0.00    +0.082 C 
ATOM      2  C   UNL     1      -1.107   0.327   1.534  0.00  0.00    +0.007 C 
ENDROOT
BRANCH   2   3
ATOM      3  C   UNL     1      -2.509   0.348   1.085  0.00  0.00    +0.003 C 
ATOM      4  C   UNL     1      -3.148  -0.847   0.792  0.00  0.00    +0.040 C 
ATOM      5  C   UNL     1      -3.164   1.563   0.962  0.00  0.00    +0.003 C 
ATOM      6  C   UNL     1      -4.476  -0.826   0.366  0.00  0.00    +0.172 C 
ATOM      7  C   UNL     1      -5.148   0.390   0.238  0.00  0.00    +0.168 C 
ATOM      8  C   UNL     1      -4.492   1.584   0.535  0.00  0.00    +0.040 C 
BRANCH   6   9
ATOM      9  O   UNL     1      -5.106  -1.999   0.078  0.00  0.00    -0.468 OA
ATOM     10  C   UNL     1      -5.016  -2.470  -1.265  0.00  0.00    +0.253 C 
ENDBRANCH   6   9
BRANCH   7  11
ATOM     11  O   UNL     1      -6.445   0.423  -0.177  0.00  0.00    -0.503 OA
ATOM     12  H   UNL     1      -6.893  -0.375  -0.379  0.00  0.00    +0.292 HD
ENDBRANCH   7  11
ENDBRANCH   2   3
BRANCH   1  14
ATOM     13  O   UNL     1       1.950   1.268   1.800  0.00  0.00    -0.245 OA
ATOM     14  C   UNL     1       1.322   0.289   1.424  0.00  0.00    +0.338 C 
BRANCH  14  15
ATOM     15  O   UNL     1       1.723  -0.988   1.622  0.00  0.00    -0.477 OA
ATOM     16  H   UNL     1       1.198  -1.698   1.310  0.00  0.00    +0.295 HD
ENDBRANCH  14  15
ENDBRANCH   1  14
BRANCH   1  17
ATOM     17  C   UNL     1       0.000   0.423  -0.707  0.00  0.00    +0.082 C 
ATOM     18  C   UNL     1       1.101   0.456  -1.487  0.00  0.00    +0.007 C 
BRANCH  18  19
ATOM     19  C   UNL     1       2.501   0.443  -1.035  0.00  0.00    +0.003 C 
ATOM     20  C   UNL     1       3.144  -0.771  -0.847  0.00  0.00    +0.040 C 
ATOM     21  C   UNL     1       3.153   1.645  -0.806  0.00  0.00    +0.003 C 
ATOM     22  C   UNL     1       4.471  -0.783  -0.418  0.00  0.00    +0.172 C 
ATOM     23  C   UNL     1       5.140   0.419  -0.184  0.00  0.00    +0.168 C 
ATOM     24  C   UNL     1       4.480   1.633  -0.377  0.00  0.00    +0.040 C 
BRANCH  22  25
ATOM     25  O   UNL     1       5.105  -1.975  -0.233  0.00  0.00    -0.468 OA
ATOM     26  C   UNL     1       5.016  -2.561   1.064  0.00  0.00    +0.253 C 
ENDBRANCH  22  25
BRANCH  23  27
ATOM     27  O   UNL     1       6.436   0.420   0.234  0.00  0.00    -0.503 OA
ATOM     28  H   UNL     1       6.887  -0.391   0.367  0.00  0.00    +0.292 HD
ENDBRANCH  23  27
ENDBRANCH  18  19
BRANCH  17  30
ATOM     29  O   UNL     1      -1.903   1.505  -1.736  0.00  0.00    -0.245 OA
ATOM     30  C   UNL     1      -1.298   0.484  -1.445  0.00  0.00    +0.338 C 
BRANCH  30  31
ATOM     31  O   UNL     1      -1.723  -0.760  -1.773  0.00  0.00    -0.477 OA
ATOM     32  H   UNL     1      -1.218  -1.509  -1.523  0.00  0.00    +0.295 HD
ENDBRANCH  30  31
ENDBRANCH  17  30
ENDBRANCH   1  17
TORSDOF 11
