10475714
  -OEChem-03292013303D

 54 58  0     1  0  0  0  0  0999 V2000
   -2.5487   -1.2221    1.6616 O   0  0  0  0  0  0  0  0  0  0  0  0
   -0.6432    2.5748   -0.3450 O   0  0  0  0  0  0  0  0  0  0  0  0
   -3.2871    1.3333    0.8737 O   0  0  0  0  0  0  0  0  0  0  0  0
   -0.3582   -2.8396    0.6796 O   0  0  0  0  0  0  0  0  0  0  0  0
   -2.4914   -1.8189   -1.9760 O   0  0  0  0  0  0  0  0  0  0  0  0
    2.2027   -2.5508   -0.8617 O   0  0  0  0  0  0  0  0  0  0  0  0
   -1.7331    3.2315   -2.1991 O   0  0  0  0  0  0  0  0  0  0  0  0
    4.6995   -1.6697   -1.0595 O   0  0  0  0  0  0  0  0  0  0  0  0
   -1.0326    0.3625    0.7139 C   0  0  2  0  0  0  0  0  0  0  0  0
   -0.0744   -0.5499   -0.1623 C   0  0  1  0  0  0  0  0  0  0  0  0
   -2.4252    0.4864    0.0762 C   0  0  1  0  0  0  0  0  0  0  0  0
    1.4761   -0.4575    0.2266 C   0  0  2  0  0  0  0  0  0  0  0  0
   -2.9265   -0.9481    0.2806 C   0  0  1  0  0  0  0  0  0  0  0  0
   -0.4859    1.7800    0.8771 C   0  0  1  0  0  0  0  0  0  0  0  0
   -0.6660   -1.9731   -0.4084 C   0  0  2  0  0  0  0  0  0  0  0  0
   -1.4563   -0.3338    2.0177 C   0  0  0  0  0  0  0  0  0  0  0  0
    1.8632    1.0693    0.2229 C   0  0  1  0  0  0  0  0  0  0  0  0
   -2.1973   -1.9933   -0.5939 C   0  0  2  0  0  0  0  0  0  0  0  0
    0.9986    1.8494    1.2354 C   0  0  0  0  0  0  0  0  0  0  0  0
   -2.3755    1.1157   -1.3016 C   0  0  0  0  0  0  0  0  0  0  0  0
    2.3517   -1.1386   -0.8699 C   0  0  1  0  0  0  0  0  0  0  0  0
    1.8237   -1.0955    1.6007 C   0  0  0  0  0  0  0  0  0  0  0  0
   -4.4456   -1.0978    0.1679 C   0  0  0  0  0  0  0  0  0  0  0  0
    3.3645    1.3112    0.3430 C   0  0  0  0  0  0  0  0  0  0  0  0
   -1.5825    2.4016   -1.3041 C   0  0  0  0  0  0  0  0  0  0  0  0
    3.8393   -0.8694   -0.6932 C   0  0  0  0  0  0  0  0  0  0  0  0
    4.2643    0.4134   -0.0881 C   0  0  0  0  0  0  0  0  0  0  0  0
    3.8459    2.6290    0.8857 C   0  0  0  0  0  0  0  0  0  0  0  0
   -0.0935   -0.0986   -1.1643 H   0  0  0  0  0  0  0  0  0  0  0  0
   -1.0393    2.3269    1.6502 H   0  0  0  0  0  0  0  0  0  0  0  0
   -0.2058   -2.3987   -1.3076 H   0  0  0  0  0  0  0  0  0  0  0  0
   -0.6860   -0.9402    2.4891 H   0  0  0  0  0  0  0  0  0  0  0  0
   -1.8188    0.3629    2.7817 H   0  0  0  0  0  0  0  0  0  0  0  0
    1.6139    1.4711   -0.7719 H   0  0  0  0  0  0  0  0  0  0  0  0
   -2.5636   -2.9905   -0.3150 H   0  0  0  0  0  0  0  0  0  0  0  0
    1.1631    1.4997    2.2593 H   0  0  0  0  0  0  0  0  0  0  0  0
    1.2843    2.9084    1.2220 H   0  0  0  0  0  0  0  0  0  0  0  0
   -3.3937    1.3642   -1.6251 H   0  0  0  0  0  0  0  0  0  0  0  0
   -1.9275    0.4766   -2.0636 H   0  0  0  0  0  0  0  0  0  0  0  0
    2.0728   -0.7788   -1.8672 H   0  0  0  0  0  0  0  0  0  0  0  0
    1.3202   -0.6028    2.4324 H   0  0  0  0  0  0  0  0  0  0  0  0
    1.5896   -2.1572    1.6666 H   0  0  0  0  0  0  0  0  0  0  0  0
    2.8922   -1.0204    1.8287 H   0  0  0  0  0  0  0  0  0  0  0  0
   -4.8070   -0.7922   -0.8188 H   0  0  0  0  0  0  0  0  0  0  0  0
   -4.7405   -2.1407    0.3325 H   0  0  0  0  0  0  0  0  0  0  0  0
   -4.9777   -0.5206    0.9310 H   0  0  0  0  0  0  0  0  0  0  0  0
   -3.5026    0.8977    1.7136 H   0  0  0  0  0  0  0  0  0  0  0  0
    0.3647   -3.4227    0.3919 H   0  0  0  0  0  0  0  0  0  0  0  0
   -2.0918   -2.5609   -2.4606 H   0  0  0  0  0  0  0  0  0  0  0  0
    5.3322    0.5930   -0.0224 H   0  0  0  0  0  0  0  0  0  0  0  0
    2.5996   -2.9038   -0.0483 H   0  0  0  0  0  0  0  0  0  0  0  0
    3.4139    3.4573    0.3148 H   0  0  0  0  0  0  0  0  0  0  0  0
    4.9354    2.7288    0.8259 H   0  0  0  0  0  0  0  0  0  0  0  0
    3.5686    2.7369    1.9391 H   0  0  0  0  0  0  0  0  0  0  0  0
  1 13  1  0  0  0  0
  1 16  1  0  0  0  0
  2 14  1  0  0  0  0
  2 25  1  0  0  0  0
  3 11  1  0  0  0  0
  3 47  1  0  0  0  0
  4 15  1  0  0  0  0
  4 48  1  0  0  0  0
  5 18  1  0  0  0  0
  5 49  1  0  0  0  0
  6 21  1  0  0  0  0
  6 51  1  0  0  0  0
  7 25  2  0  0  0  0
  8 26  2  0  0  0  0
  9 10  1  0  0  0  0
  9 11  1  0  0  0  0
  9 14  1  0  0  0  0
  9 16  1  0  0  0  0
 10 12  1  0  0  0  0
 10 15  1  0  0  0  0
 10 29  1  0  0  0  0
 11 13  1  0  0  0  0
 11 20  1  0  0  0  0
 12 17  1  0  0  0  0
 12 21  1  0  0  0  0
 12 22  1  0  0  0  0
 13 18  1  0  0  0  0
 13 23  1  0  0  0  0
 14 19  1  0  0  0  0
 14 30  1  0  0  0  0
 15 18  1  0  0  0  0
 15 31  1  0  0  0  0
 16 32  1  0  0  0  0
 16 33  1  0  0  0  0
 17 19  1  0  0  0  0
 17 24  1  0  0  0  0
 17 34  1  0  0  0  0
 18 35  1  0  0  0  0
 19 36  1  0  0  0  0
 19 37  1  0  0  0  0
 20 25  1  0  0  0  0
 20 38  1  0  0  0  0
 20 39  1  0  0  0  0
 21 26  1  0  0  0  0
 21 40  1  0  0  0  0
 22 41  1  0  0  0  0
 22 42  1  0  0  0  0
 22 43  1  0  0  0  0
 23 44  1  0  0  0  0
 23 45  1  0  0  0  0
 23 46  1  0  0  0  0
 24 27  2  0  0  0  0
 24 28  1  0  0  0  0
 26 27  1  0  0  0  0
 27 50  1  0  0  0  0
 28 52  1  0  0  0  0
 28 53  1  0  0  0  0
 28 54  1  0  0  0  0
M  END
> <PUBCHEM_COMPOUND_CID>
10475714

> <PUBCHEM_CONFORMER_RMSD>
0.6

> <PUBCHEM_CONFORMER_DIVERSEORDER>
1

> <PUBCHEM_MMFF94_PARTIAL_CHARGES>
27
1 -0.56
11 0.28
13 0.28
14 0.28
15 0.28
16 0.28
17 0.14
18 0.28
2 -0.43
20 0.06
21 0.34
24 -0.28
25 0.66
26 0.49
27 -0.14
28 0.14
3 -0.68
4 -0.68
47 0.4
48 0.4
49 0.4
5 -0.68
50 0.15
51 0.4
6 -0.68
7 -0.57
8 -0.57

> <PUBCHEM_EFFECTIVE_ROTOR_COUNT>
1.6

> <PUBCHEM_PHARMACOPHORE_FEATURES>
15
1 1 acceptor
1 3 acceptor
1 3 donor
1 4 acceptor
1 4 donor
1 5 acceptor
1 5 donor
1 6 acceptor
1 6 donor
1 7 acceptor
1 8 acceptor
6 12 17 21 24 26 27 rings
6 2 9 11 14 20 25 rings
6 9 10 12 14 17 19 rings
8 1 9 10 11 13 15 16 18 rings

> <PUBCHEM_HEAVY_ATOM_COUNT>
28

> <PUBCHEM_ATOM_DEF_STEREO_COUNT>
10

> <PUBCHEM_ATOM_UDEF_STEREO_COUNT>
0

> <PUBCHEM_BOND_DEF_STEREO_COUNT>
0

> <PUBCHEM_BOND_UDEF_STEREO_COUNT>
0

> <PUBCHEM_ISOTOPIC_ATOM_COUNT>
0

> <PUBCHEM_COMPONENT_COUNT>
1

> <PUBCHEM_CACTVS_TAUTO_COUNT>
13

> <PUBCHEM_CONFORMER_ID>
009FD8C200000001

> <PUBCHEM_MMFF94_ENERGY>
131.7814

> <PUBCHEM_FEATURE_SELFOVERLAP>
76.308

> <PUBCHEM_SHAPE_FINGERPRINT>
10165383 225 17829058614761030237
10366900 7 18113347396698993074
10498660 4 18114172021645157325
10675989 125 16536224093102454452
10863032 1 18272938210824785857
10948715 1 18199475368181232529
10967382 1 18272092759502991122
1100329 8 17113545813932134466
11578080 2 17560218302263718769
11640471 11 15430588451050544685
12156800 1 12406406715878531618
12403259 226 18410858746221449878
12403814 3 18336543914746035193
12422481 6 18266485181898679713
12596599 1 17417551171217713206
13140716 1 18411418367189945955
13224815 77 18335136518561653816
14223421 5 18409446973254455688
14251751 93 18189617138146656718
14790565 3 18271536282234668473
15196674 1 18272094906611995370
15219462 58 17240766146832634856
15840311 113 18200329779480072841
16945 1 18046900477342725937
17357779 13 18338222873412570381
17492 54 17685767326150688892
1813 80 18042691774486172957
20691752 17 18333734649493962211
21267235 1 18201170922163964806
21285901 2 18335415794451831757
22182313 1 18336816563375334269
22907989 373 18187932720344931549
2334 1 18411694426207647283
23419403 2 15832192941939830963
23557571 272 18114178661448591660
23559900 14 18202000993967092562
238 59 18052791698940528788
2748010 2 18410287017001460721
335352 9 18200321996170994556
3380486 145 18196098960691914632
3380486 77 16964578927582469099
350125 39 18340776970262536524
6287921 2 18194973065497303172
9709674 26 18271249425679337414

> <PUBCHEM_SHAPE_MULTIPOLES>
529.27
6.98
3.19
1.61
4.03
0.82
-0.07
-0.91
-0.63
0.13
-1
-0.7
0.29
1.32

> <PUBCHEM_SHAPE_SELFOVERLAP>
1172.517

> <PUBCHEM_SHAPE_VOLUME>
276.4

> <PUBCHEM_COORDINATE_TYPE>
2
5
10

$$$$
