REMARK  Name = 10474175
REMARK  6 active torsions:
REMARK  status: ('A' for Active; 'I' for Inactive)
REMARK    1  A    between atoms: C_4  and  C_26
REMARK    2  A    between atoms: C_16  and  C_29
REMARK    3  A    between atoms: C_18  and  O_22
REMARK    4  A    between atoms: C_20  and  O_24
REMARK    5  A    between atoms: C_26  and  O_27
REMARK    6  A    between atoms: C_29  and  O_30
REMARK                            x       y       z     vdW  Elec       q    Type
REMARK                         _______ _______ _______ _____ _____    ______ ____
ROOT
ATOM      1  O   UNL     1      -0.602  -2.255  -0.054  0.00  0.00    -0.473 OA
ATOM      2  O   UNL     1       0.478   2.341   0.619  0.00  0.00    -0.286 OA
ATOM      3  O   UNL     1       2.049  -2.682  -0.008  0.00  0.00    -0.283 OA
ATOM      4  C   UNL     1      -1.936  -2.105   0.476  0.00  0.00    +0.179 C 
ATOM      5  C   UNL     1      -2.525  -0.733   0.186  0.00  0.00    +0.016 C 
ATOM      6  C   UNL     1      -1.649   0.350  -0.023  0.00  0.00    +0.005 C 
ATOM      7  C   UNL     1      -0.190   0.111   0.081  0.00  0.00    +0.076 C 
ATOM      8  C   UNL     1       0.237  -1.164   0.011  0.00  0.00    +0.181 C 
ATOM      9  C   UNL     1      -1.883  -2.354   1.992  0.00  0.00    +0.051 C 
ATOM     10  C   UNL     1      -3.914  -0.518   0.147  0.00  0.00    -0.001 C 
ATOM     11  C   UNL     1      -2.193   1.604  -0.348  0.00  0.00    -0.002 C 
ATOM     12  C   UNL     1       0.806   1.210   0.280  0.00  0.00    +0.199 C 
ATOM     13  C   UNL     1       1.682  -1.512  -0.004  0.00  0.00    +0.232 C 
ATOM     14  C   UNL     1       2.236   0.901   0.099  0.00  0.00    +0.048 C 
ATOM     15  C   UNL     1       2.660  -0.417  -0.034  0.00  0.00    +0.079 C 
ATOM     16  C   UNL     1      -3.574   1.798  -0.406  0.00  0.00    +0.007 C 
ATOM     17  C   UNL     1      -4.435   0.740  -0.147  0.00  0.00    -0.002 C 
ATOM     18  C   UNL     1       4.022  -0.704  -0.185  0.00  0.00    +0.140 C 
ATOM     19  C   UNL     1       3.175   1.940   0.082  0.00  0.00    +0.040 C 
ATOM     20  C   UNL     1       4.531   1.654  -0.072  0.00  0.00    +0.137 C 
ATOM     21  C   UNL     1       4.955   0.333  -0.206  0.00  0.00    +0.073 C 
ENDROOT
BRANCH  18  22
ATOM     22  O   UNL     1       4.497  -1.974  -0.325  0.00  0.00    -0.505 OA
ATOM     23  H   UNL     1       3.905  -2.700  -0.317  0.00  0.00    +0.292 HD
ENDBRANCH  18  22
BRANCH  20  24
ATOM     24  O   UNL     1       5.442   2.665  -0.092  0.00  0.00    -0.505 OA
ATOM     25  H   UNL     1       5.158   3.553  -0.002  0.00  0.00    +0.292 HD
ENDBRANCH  20  24
BRANCH   4  26
ATOM     26  C   UNL     1      -2.727  -3.244  -0.191  0.00  0.00    +0.182 C 
BRANCH  26  27
ATOM     27  O   UNL     1      -2.709  -3.019  -1.578  0.00  0.00    -0.378 OA
ATOM     28  H   UNL     1      -3.202  -3.724  -2.026  0.00  0.00    +0.211 HD
ENDBRANCH  26  27
ENDBRANCH   4  26
BRANCH  16  29
ATOM     29  C   UNL     1      -4.125   3.141  -0.747  0.00  0.00    +0.164 C 
BRANCH  29  30
ATOM     30  O   UNL     1      -4.308   3.893   0.446  0.00  0.00    -0.377 OA
ATOM     31  H   UNL     1      -4.667   4.767   0.226  0.00  0.00    +0.211 HD
ENDBRANCH  29  30
ENDBRANCH  16  29
TORSDOF 6
