REMARK  Name = 10475314
REMARK  14 active torsions:
REMARK  status: ('A' for Active; 'I' for Inactive)
REMARK    1  A    between atoms: C_1  and  C_2
REMARK    2  A    between atoms: C_1  and  N_11
REMARK    3  A    between atoms: C_1  and  C_21
REMARK    4  A    between atoms: C_5  and  O_8
REMARK    5  A    between atoms: C_12  and  C_14
REMARK    6  A    between atoms: C_14  and  C_15
REMARK    7  A    between atoms: C_15  and  C_16
REMARK    8  A    between atoms: C_16  and  C_17
REMARK    9  A    between atoms: C_17  and  C_18
REMARK   10  A    between atoms: C_18  and  C_19
REMARK   11  A    between atoms: C_21  and  O_23
REMARK   12  A    between atoms: O_23  and  P_24
REMARK   13  A    between atoms: P_24  and  O_26
REMARK   14  A    between atoms: P_24  and  O_28
REMARK                            x       y       z     vdW  Elec       q    Type
REMARK                         _______ _______ _______ _____ _____    ______ ____
ROOT
ATOM      1  C   UNL     1      -1.146  -0.727  -0.480  0.00  0.00    +0.122 C 
ENDROOT
BRANCH   1   2
ATOM      2  C   UNL     1      -1.701   0.679  -0.577  0.00  0.00    +0.001 C 
ATOM      3  C   UNL     1      -2.015   1.386   0.583  0.00  0.00    +0.034 C 
ATOM      4  C   UNL     1      -1.898   1.266  -1.827  0.00  0.00    -0.002 C 
ATOM      5  C   UNL     1      -2.527   2.681   0.494  0.00  0.00    +0.138 C 
ATOM      6  C   UNL     1      -2.409   2.560  -1.917  0.00  0.00    +0.003 C 
ATOM      7  C   UNL     1      -2.724   3.268  -0.756  0.00  0.00    +0.037 C 
BRANCH   5   8
ATOM      8  O   UNL     1      -2.833   3.371   1.626  0.00  0.00    -0.471 OA
ATOM      9  C   UNL     1      -3.351   4.691   1.461  0.00  0.00    +0.252 C 
ENDBRANCH   5   8
ENDBRANCH   1   2
BRANCH   1  11
ATOM     10  O   UNL     1       1.388  -0.266  -1.786  0.00  0.00    -0.275 OA
ATOM     11  N   UNL     1       0.159  -0.694   0.138  0.00  0.00    -0.300 N 
ATOM     12  C   UNL     1       1.326  -0.463  -0.576  0.00  0.00    +0.223 C 
ATOM     13  H   UNL     1       0.223  -0.841   1.110  0.00  0.00    +0.150 HD
BRANCH  12  14
ATOM     14  C   UNL     1       2.547  -0.486   0.327  0.00  0.00    +0.085 C 
BRANCH  14  15
ATOM     15  C   UNL     1       3.844  -0.235  -0.438  0.00  0.00    +0.010 C 
BRANCH  15  16
ATOM     16  C   UNL     1       5.059  -0.302   0.488  0.00  0.00    +0.001 C 
BRANCH  16  17
ATOM     17  C   UNL     1       6.361  -0.083  -0.285  0.00  0.00    +0.000 C 
BRANCH  17  18
ATOM     18  C   UNL     1       7.578  -0.188   0.637  0.00  0.00    +0.000 C 
BRANCH  18  19
ATOM     19  C   UNL     1       8.910  -0.001  -0.092  0.00  0.00    +0.000 C 
ATOM     20  C   UNL     1      10.124  -0.175   0.807  0.00  0.00    +0.000 C 
ENDBRANCH  18  19
ENDBRANCH  17  18
ENDBRANCH  16  17
ENDBRANCH  15  16
ENDBRANCH  14  15
ENDBRANCH  12  14
ENDBRANCH   1  11
BRANCH   1  21
ATOM     21  C   UNL     1      -2.069  -1.714   0.263  0.00  0.00    +0.148 C 
ATOM     22  C   UNL     1      -1.535  -3.143   0.275  0.00  0.00    +0.035 C 
BRANCH  21  23
ATOM     23  O   UNL     1      -3.334  -1.758  -0.405  0.00  0.00    -0.274 OA
BRANCH  23  24
ATOM     24  P   UNL     1      -4.619  -2.253   0.434  0.00  0.00    +0.473 P 
ATOM     25  O   UNL     1      -4.685  -1.760   1.851  0.00  0.00    -0.227 OA
BRANCH  24  26
ATOM     26  O   UNL     1      -5.850  -1.793  -0.507  0.00  0.00    -0.303 OA
ATOM     27  H   UNL     1      -5.727  -2.153  -1.400  0.00  0.00    +0.222 HD
ENDBRANCH  24  26
BRANCH  24  28
ATOM     28  O   UNL     1      -4.599  -3.861   0.262  0.00  0.00    -0.303 OA
ATOM     29  H   UNL     1      -4.555  -4.084  -0.681  0.00  0.00    +0.222 HD
ENDBRANCH  24  28
ENDBRANCH  23  24
ENDBRANCH  21  23
ENDBRANCH   1  21
TORSDOF 14
