REMARK  Name = 104746
REMARK  9 active torsions:
REMARK  status: ('A' for Active; 'I' for Inactive)
REMARK    1  A    between atoms: P_1  and  N_16
REMARK    2  A    between atoms: C_5  and  S_9
REMARK    3  A    between atoms: S_9  and  C_10
REMARK    4  A    between atoms: C_10  and  C_11
REMARK    5  A    between atoms: C_11  and  S_12
REMARK    6  A    between atoms: N_16  and  C_17
REMARK    7  A    between atoms: N_16  and  C_20
REMARK    8  A    between atoms: C_17  and  C_19
REMARK    9  A    between atoms: C_20  and  C_22
REMARK                            x       y       z     vdW  Elec       q    Type
REMARK                         _______ _______ _______ _____ _____    ______ ____
ROOT
ATOM      1  P   UNL     1      -2.017  -0.513  -0.843  0.00  0.00    +0.349 P 
ATOM      2  O   UNL     1      -2.760  -1.702  -0.008  0.00  0.00    -0.292 OA
ATOM      3  O   UNL     1      -2.852  -0.119  -2.037  0.00  0.00    -0.254 OA
ATOM      4  N   UNL     1      -0.525  -1.155  -1.218  0.00  0.00    -0.214 NA
ATOM      5  C   UNL     1       0.176  -1.868  -0.148  0.00  0.00    +0.113 C 
ATOM      6  C   UNL     1      -0.728  -2.961   0.442  0.00  0.00    +0.060 C 
ATOM      7  C   UNL     1      -2.025  -2.378   1.007  0.00  0.00    +0.154 C 
ATOM      8  H   UNL     1       0.073  -0.386  -1.521  0.00  0.00    +0.134 HD
ENDROOT
BRANCH   5   9
ATOM      9  S   UNL     1       1.720  -2.606  -0.776  0.00  0.00    -0.123 S 
BRANCH   9  10
ATOM     10  C   UNL     1       2.730  -1.109  -0.793  0.00  0.00    +0.085 C 
BRANCH  10  11
ATOM     11  C   UNL     1       3.213  -0.778   0.607  0.00  0.00    +0.170 C 
BRANCH  11  12
ATOM     12  S   UNL     1       4.234   0.664   0.599  0.00  0.00    +0.023 S 
ATOM     13  O   UNL     1       4.384   0.825   2.215  0.00  0.00    -0.069 OA
ATOM     14  O   UNL     1       3.463   1.782   0.087  0.00  0.00    -0.069 OA
ATOM     15  O   UNL     1       5.528   0.316   0.042  0.00  0.00    -0.069 OA
ENDBRANCH  11  12
ENDBRANCH  10  11
ENDBRANCH   9  10
ENDBRANCH   5   9
BRANCH   1  16
ATOM     16  N   UNL     1      -1.760   0.715   0.245  0.00  0.00    -0.196 NA
BRANCH  16  17
ATOM     17  C   UNL     1      -0.599   1.569   0.006  0.00  0.00    +0.099 C 
BRANCH  17  19
ATOM     18 CL   UNL     1       0.741   3.207  -1.692  0.00  0.00    -0.112 Cl
ATOM     19  C   UNL     1      -0.680   2.180  -1.385  0.00  0.00    +0.113 C 
ENDBRANCH  17  19
ENDBRANCH  16  17
BRANCH  16  20
ATOM     20  C   UNL     1      -2.917   1.538   0.589  0.00  0.00    +0.099 C 
BRANCH  20  22
ATOM     21 CL   UNL     1      -5.372   1.692   1.733  0.00  0.00    -0.112 Cl
ATOM     22  C   UNL     1      -3.950   0.701   1.328  0.00  0.00    +0.113 C 
ENDBRANCH  20  22
ENDBRANCH  16  20
ENDBRANCH   1  16
TORSDOF 9
