10479502
  -OEChem-03292013303D

 46 48  0     0  0  0  0  0  0999 V2000
    4.2326    2.5232   -0.4349 Cl  0  0  0  0  0  0  0  0  0  0  0  0
   -5.2376   -2.6379   -0.5845 Cl  0  0  0  0  0  0  0  0  0  0  0  0
    3.8780   -0.5475   -1.3251 S   0  0  0  0  0  0  0  0  0  0  0  0
   -7.9697   -1.8025    0.0873 F   0  0  0  0  0  0  0  0  0  0  0  0
    3.4055   -1.9022   -1.5151 O   0  0  0  0  0  0  0  0  0  0  0  0
    4.5633    0.1590   -2.3860 O   0  0  0  0  0  0  0  0  0  0  0  0
    1.0640   -1.4422   -1.1743 O   0  0  0  0  0  0  0  0  0  0  0  0
   -2.4795    1.8321    0.3677 O   0  0  0  0  0  0  0  0  0  0  0  0
    4.8347   -0.4832    0.0941 N   0  0  0  0  0  0  0  0  0  0  0  0
    6.4109   -1.1598    2.3997 N   0  0  0  0  0  0  0  0  0  0  0  0
   -1.1428    0.0596   -0.3799 N   0  0  0  0  0  0  0  0  0  0  0  0
   -3.4162   -0.2518   -0.1311 N   0  0  0  0  0  0  0  0  0  0  0  0
    4.1933   -1.0281    1.3256 C   0  0  0  0  0  0  0  0  0  0  0  0
    6.2357   -0.9730   -0.0544 C   0  0  0  0  0  0  0  0  0  0  0  0
    5.0401   -0.6668    2.5426 C   0  0  0  0  0  0  0  0  0  0  0  0
    7.0356   -0.6130    1.1942 C   0  0  0  0  0  0  0  0  0  0  0  0
    2.5041    0.4369   -0.8152 C   0  0  0  0  0  0  0  0  0  0  0  0
    1.2389   -0.1405   -0.8017 C   0  0  0  0  0  0  0  0  0  0  0  0
    2.6816    1.7623   -0.4345 C   0  0  0  0  0  0  0  0  0  0  0  0
    0.1379    0.6172   -0.4025 C   0  0  0  0  0  0  0  0  0  0  0  0
    1.5806    2.5201   -0.0354 C   0  0  0  0  0  0  0  0  0  0  0  0
    0.3088    1.9475   -0.0194 C   0  0  0  0  0  0  0  0  0  0  0  0
   -2.3641    0.6697   -0.0073 C   0  0  0  0  0  0  0  0  0  0  0  0
   -4.7898   -0.0470    0.1399 C   0  0  0  0  0  0  0  0  0  0  0  0
   -5.7095   -1.0695   -0.0325 C   0  0  0  0  0  0  0  0  0  0  0  0
   -5.1838    1.2066    0.5837 C   0  0  0  0  0  0  0  0  0  0  0  0
   -7.0560   -0.8338    0.2452 C   0  0  0  0  0  0  0  0  0  0  0  0
   -6.5303    1.4423    0.8616 C   0  0  0  0  0  0  0  0  0  0  0  0
   -7.4663    0.4221    0.6923 C   0  0  0  0  0  0  0  0  0  0  0  0
    4.0953   -2.1170    1.2385 H   0  0  0  0  0  0  0  0  0  0  0  0
    3.1960   -0.6074    1.4742 H   0  0  0  0  0  0  0  0  0  0  0  0
    6.7044   -0.4961   -0.9215 H   0  0  0  0  0  0  0  0  0  0  0  0
    6.2323   -2.0577   -0.2145 H   0  0  0  0  0  0  0  0  0  0  0  0
    5.0486    0.4203    2.6908 H   0  0  0  0  0  0  0  0  0  0  0  0
    4.5940   -1.1121    3.4385 H   0  0  0  0  0  0  0  0  0  0  0  0
    8.0493   -1.0179    1.1034 H   0  0  0  0  0  0  0  0  0  0  0  0
    7.1288    0.4765    1.2850 H   0  0  0  0  0  0  0  0  0  0  0  0
    6.9553   -0.8839    3.2164 H   0  0  0  0  0  0  0  0  0  0  0  0
    1.6974    3.5581    0.2663 H   0  0  0  0  0  0  0  0  0  0  0  0
   -0.4859    2.6040    0.3025 H   0  0  0  0  0  0  0  0  0  0  0  0
   -1.2301   -0.8993   -0.6975 H   0  0  0  0  0  0  0  0  0  0  0  0
    0.2758   -1.8056   -0.7420 H   0  0  0  0  0  0  0  0  0  0  0  0
   -3.1742   -1.1854   -0.4532 H   0  0  0  0  0  0  0  0  0  0  0  0
   -4.5366    2.0542    0.7438 H   0  0  0  0  0  0  0  0  0  0  0  0
   -6.8518    2.4197    1.2096 H   0  0  0  0  0  0  0  0  0  0  0  0
   -8.5147    0.6056    0.9083 H   0  0  0  0  0  0  0  0  0  0  0  0
  1 19  1  0  0  0  0
  2 25  1  0  0  0  0
  3  5  2  0  0  0  0
  3  6  2  0  0  0  0
  3  9  1  0  0  0  0
  3 17  1  0  0  0  0
  4 27  1  0  0  0  0
  7 18  1  0  0  0  0
  7 42  1  0  0  0  0
  8 23  2  0  0  0  0
  9 13  1  0  0  0  0
  9 14  1  0  0  0  0
 10 15  1  0  0  0  0
 10 16  1  0  0  0  0
 10 38  1  0  0  0  0
 11 20  1  0  0  0  0
 11 23  1  0  0  0  0
 11 41  1  0  0  0  0
 12 23  1  0  0  0  0
 12 24  1  0  0  0  0
 12 43  1  0  0  0  0
 13 15  1  0  0  0  0
 13 30  1  0  0  0  0
 13 31  1  0  0  0  0
 14 16  1  0  0  0  0
 14 32  1  0  0  0  0
 14 33  1  0  0  0  0
 15 34  1  0  0  0  0
 15 35  1  0  0  0  0
 16 36  1  0  0  0  0
 16 37  1  0  0  0  0
 17 18  1  0  0  0  0
 17 19  2  0  0  0  0
 18 20  2  0  0  0  0
 19 21  1  0  0  0  0
 20 22  1  0  0  0  0
 21 22  2  0  0  0  0
 21 39  1  0  0  0  0
 22 40  1  0  0  0  0
 24 25  2  0  0  0  0
 24 26  1  0  0  0  0
 25 27  1  0  0  0  0
 26 28  2  0  0  0  0
 26 44  1  0  0  0  0
 27 29  2  0  0  0  0
 28 29  1  0  0  0  0
 28 45  1  0  0  0  0
 29 46  1  0  0  0  0
M  END
> <PUBCHEM_COMPOUND_CID>
10479502

> <PUBCHEM_CONFORMER_RMSD>
0.8

> <PUBCHEM_CONFORMER_DIVERSEORDER>
1
54
31
23
41
58
37
24
55
73
63
17
19
53
35
71
44
52
47
39
61
60
38
69
21
48
74
62
76
25
66
36
65
68
49
30
11
12
22
20
15
46
75
70
6
10
72
34
27
57
14
2
16
50
59
18
43
26
28
45
42
40
33
51
67
64
29
32
56
4
3
7
5
9
8
13

> <PUBCHEM_MMFF94_PARTIAL_CHARGES>
38
1 -0.18
10 -0.9
11 -0.55
12 -0.55
13 0.36
14 0.36
15 0.27
16 0.27
17 -0.01
18 0.08
19 0.18
2 -0.18
20 0.12
21 -0.15
22 -0.15
23 0.69
24 0.12
25 0.18
26 -0.15
27 0.19
28 -0.15
29 -0.15
3 1.45
38 0.36
39 0.15
4 -0.19
40 0.15
41 0.37
42 0.45
43 0.37
44 0.15
45 0.15
46 0.15
5 -0.65
6 -0.65
7 -0.53
8 -0.57
9 -0.85

> <PUBCHEM_EFFECTIVE_ROTOR_COUNT>
7.2

> <PUBCHEM_PHARMACOPHORE_FEATURES>
11
1 10 cation
1 10 donor
1 11 donor
1 12 donor
1 5 acceptor
1 6 acceptor
1 7 donor
1 8 acceptor
6 17 18 19 20 21 22 rings
6 24 25 26 27 28 29 rings
6 9 10 13 14 15 16 rings

> <PUBCHEM_HEAVY_ATOM_COUNT>
29

> <PUBCHEM_ATOM_DEF_STEREO_COUNT>
0

> <PUBCHEM_ATOM_UDEF_STEREO_COUNT>
0

> <PUBCHEM_BOND_DEF_STEREO_COUNT>
0

> <PUBCHEM_BOND_UDEF_STEREO_COUNT>
0

> <PUBCHEM_ISOTOPIC_ATOM_COUNT>
0

> <PUBCHEM_COMPONENT_COUNT>
1

> <PUBCHEM_CACTVS_TAUTO_COUNT>
9

> <PUBCHEM_CONFORMER_ID>
009FE78E00000001

> <PUBCHEM_MMFF94_ENERGY>
73.6923

> <PUBCHEM_FEATURE_SELFOVERLAP>
55.892

> <PUBCHEM_SHAPE_FINGERPRINT>
10 15 17346875650231552130
10319926 262 18130787863403356161
106641 1 18341607132207522656
10693767 8 13118270457175227072
11443803 9 18264222451989409996
11505856 67 14399788848991502704
11719270 70 18202567276039968271
11991303 11 14851900196175003035
12166972 35 17603871108694069133
125118 31 11455625266167987651
13533116 47 17603303747982879024
13668630 136 14707214318619906177
13692114 37 18059287768605223607
13782708 43 17822008696880324799
14251764 18 18335703857634190844
14347332 77 17968091989237554309
14461889 52 17989487424403886862
15119646 104 17749107751337831499
15183329 4 18259707800577463315
15250474 111 18201714115779697095
15301273 46 17917993846061502710
15352257 5 16660655072255234507
15419008 42 17984139258750670669
15475509 35 17676475130547104288
15840311 113 18335425708286637412
17857418 61 18113336401287017315
1979834 28 17489593346275394156
20028762 73 18342177773461700534
21130935 74 17703517584567495479
21344244 78 17988922284165137128
22061861 79 15285358414266436723
22149856 69 17560540447066190747
22224240 67 16845567608803536151
22956985 138 17903074426777720350
23081809 10 17822018605554746429
23522609 53 17897476958840361813
23559900 14 18201157771812887777
23569914 152 13844149294495023219
23569943 247 17531236207096119627
24771293 8 17632281424536472456
3004659 81 18410022043257595957
3383291 50 18343022229459124419
3411729 13 18268991063536003864
34797466 226 13686301270332828264
394071 54 14620792721387051202
397830 11 16486683783671694703
4073 2 18043819907744341641
4098825 35 15864064326595993885
4340502 62 16845569816690980710
439807 62 17530964670378143241
465052 167 18334573530285738616
5104073 3 18341618169851681857
59682541 35 17988917890692420914
59682541 52 15213301911350596946

> <PUBCHEM_SHAPE_MULTIPOLES>
553.72
22.17
2.35
1.59
24.27
0.53
-0.44
-8.77
-7.66
0.34
0.2
-3.68
-0.63
-2.08

> <PUBCHEM_SHAPE_SELFOVERLAP>
1155.404

> <PUBCHEM_SHAPE_VOLUME>
316.6

> <PUBCHEM_COORDINATE_TYPE>
2
5
10

$$$$
