10475888
  -OEChem-03292013303D

 44 45  0     0  0  0  0  0  0999 V2000
    4.5571    2.1853    1.6565 Cl  0  0  0  0  0  0  0  0  0  0  0  0
   -0.2325   -0.0570   -0.9228 O   0  0  0  0  0  0  0  0  0  0  0  0
    0.1398   -1.9997    1.0084 O   0  0  0  0  0  0  0  0  0  0  0  0
    4.4613   -0.2608   -0.0167 O   0  0  0  0  0  0  0  0  0  0  0  0
    1.2994   -1.4147   -2.2794 O   0  0  0  0  0  0  0  0  0  0  0  0
   -4.4071   -1.5358    2.3638 O   0  0  0  0  0  0  0  0  0  0  0  0
   -3.6971    2.1070   -0.8626 O   0  0  0  0  0  0  0  0  0  0  0  0
    3.0560   -2.2880   -1.0751 O   0  0  0  0  0  0  0  0  0  0  0  0
   -2.1444    1.2715   -2.3426 O   0  0  0  0  0  0  0  0  0  0  0  0
    0.9024    0.4577   -0.3222 C   0  0  0  0  0  0  0  0  0  0  0  0
    2.1233   -0.1758   -0.4803 C   0  0  0  0  0  0  0  0  0  0  0  0
   -1.2681   -0.4182   -0.1116 C   0  0  0  0  0  0  0  0  0  0  0  0
    1.9110    2.1485    1.0478 C   0  0  0  0  0  0  0  0  0  0  0  0
    0.7795    1.6123    0.4330 C   0  0  0  0  0  0  0  0  0  0  0  0
   -2.5165    0.1877   -0.2518 C   0  0  0  0  0  0  0  0  0  0  0  0
    3.2546    0.3602    0.1347 C   0  0  0  0  0  0  0  0  0  0  0  0
    3.1486    1.5224    0.8987 C   0  0  0  0  0  0  0  0  0  0  0  0
   -1.0743   -1.3994    0.8606 C   0  0  0  0  0  0  0  0  0  0  0  0
   -3.5714   -0.1875    0.5803 C   0  0  0  0  0  0  0  0  0  0  0  0
   -2.1291   -1.7748    1.6926 C   0  0  0  0  0  0  0  0  0  0  0  0
    1.7508    3.3948    1.8577 C   0  0  0  0  0  0  0  0  0  0  0  0
   -3.3776   -1.1688    1.5524 C   0  0  0  0  0  0  0  0  0  0  0  0
    2.2298   -1.3923   -1.2790 C   0  0  0  0  0  0  0  0  0  0  0  0
   -2.7412    1.2139   -1.2607 C   0  0  0  0  0  0  0  0  0  0  0  0
    0.2522   -2.9925    2.0261 C   0  0  0  0  0  0  0  0  0  0  0  0
    1.3023   -2.5629   -3.1346 C   0  0  0  0  0  0  0  0  0  0  0  0
   -4.0090    3.1667   -1.7733 C   0  0  0  0  0  0  0  0  0  0  0  0
   -0.1833    2.1052    0.5380 H   0  0  0  0  0  0  0  0  0  0  0  0
   -4.5581    0.2589    0.4829 H   0  0  0  0  0  0  0  0  0  0  0  0
   -2.0378   -2.5308    2.4651 H   0  0  0  0  0  0  0  0  0  0  0  0
    2.0397    3.2173    2.8989 H   0  0  0  0  0  0  0  0  0  0  0  0
    2.3589    4.2050    1.4420 H   0  0  0  0  0  0  0  0  0  0  0  0
    0.7127    3.7450    1.8680 H   0  0  0  0  0  0  0  0  0  0  0  0
    5.1306    0.2451    0.4757 H   0  0  0  0  0  0  0  0  0  0  0  0
    1.2830   -3.3616    2.0013 H   0  0  0  0  0  0  0  0  0  0  0  0
   -0.3968   -3.8518    1.8261 H   0  0  0  0  0  0  0  0  0  0  0  0
    0.0914   -2.5688    3.0233 H   0  0  0  0  0  0  0  0  0  0  0  0
   -4.0995   -2.2252    2.9769 H   0  0  0  0  0  0  0  0  0  0  0  0
    2.2631   -2.6465   -3.6509 H   0  0  0  0  0  0  0  0  0  0  0  0
    0.5118   -2.4347   -3.8785 H   0  0  0  0  0  0  0  0  0  0  0  0
    1.0957   -3.4659   -2.5526 H   0  0  0  0  0  0  0  0  0  0  0  0
   -4.3945    2.7564   -2.7113 H   0  0  0  0  0  0  0  0  0  0  0  0
   -3.1218    3.7804   -1.9554 H   0  0  0  0  0  0  0  0  0  0  0  0
   -4.7820    3.7909   -1.3176 H   0  0  0  0  0  0  0  0  0  0  0  0
  1 17  1  0  0  0  0
  2 10  1  0  0  0  0
  2 12  1  0  0  0  0
  3 18  1  0  0  0  0
  3 25  1  0  0  0  0
  4 16  1  0  0  0  0
  4 34  1  0  0  0  0
  5 23  1  0  0  0  0
  5 26  1  0  0  0  0
  6 22  1  0  0  0  0
  6 38  1  0  0  0  0
  7 24  1  0  0  0  0
  7 27  1  0  0  0  0
  8 23  2  0  0  0  0
  9 24  2  0  0  0  0
 10 11  2  0  0  0  0
 10 14  1  0  0  0  0
 11 16  1  0  0  0  0
 11 23  1  0  0  0  0
 12 15  2  0  0  0  0
 12 18  1  0  0  0  0
 13 14  2  0  0  0  0
 13 17  1  0  0  0  0
 13 21  1  0  0  0  0
 14 28  1  0  0  0  0
 15 19  1  0  0  0  0
 15 24  1  0  0  0  0
 16 17  2  0  0  0  0
 18 20  2  0  0  0  0
 19 22  2  0  0  0  0
 19 29  1  0  0  0  0
 20 22  1  0  0  0  0
 20 30  1  0  0  0  0
 21 31  1  0  0  0  0
 21 32  1  0  0  0  0
 21 33  1  0  0  0  0
 25 35  1  0  0  0  0
 25 36  1  0  0  0  0
 25 37  1  0  0  0  0
 26 39  1  0  0  0  0
 26 40  1  0  0  0  0
 26 41  1  0  0  0  0
 27 42  1  0  0  0  0
 27 43  1  0  0  0  0
 27 44  1  0  0  0  0
M  END
> <PUBCHEM_COMPOUND_CID>
10475888

> <PUBCHEM_CONFORMER_RMSD>
0.8

> <PUBCHEM_CONFORMER_DIVERSEORDER>
20
47
39
52
60
38
10
72
28
18
54
66
29
51
24
62
25
68
59
36
61
46
21
64
33
63
17
49
55
11
56
40
41
48
27
12
67
65
35
50
57
13
42
34
71
69
32
16
45
19
8
43
70
53
9
23
3
30
5
44
4
14
22
31
26
6
37
15
58
1
7
2

> <PUBCHEM_MMFF94_PARTIAL_CHARGES>
32
1 -0.18
10 0.08
11 0.09
12 0.08
13 -0.14
14 -0.15
15 0.09
16 0.08
17 0.18
18 0.08
19 -0.15
2 -0.17
20 -0.15
21 0.14
22 0.08
23 0.63
24 0.63
25 0.28
26 0.28
27 0.28
28 0.15
29 0.15
3 -0.36
30 0.15
34 0.45
38 0.45
4 -0.53
5 -0.43
6 -0.53
7 -0.43
8 -0.57
9 -0.57

> <PUBCHEM_EFFECTIVE_ROTOR_COUNT>
7

> <PUBCHEM_PHARMACOPHORE_FEATURES>
8
1 2 acceptor
1 3 acceptor
1 4 donor
1 6 donor
1 8 acceptor
1 9 acceptor
6 10 11 13 14 16 17 rings
6 12 15 18 19 20 22 rings

> <PUBCHEM_HEAVY_ATOM_COUNT>
27

> <PUBCHEM_ATOM_DEF_STEREO_COUNT>
0

> <PUBCHEM_ATOM_UDEF_STEREO_COUNT>
0

> <PUBCHEM_BOND_DEF_STEREO_COUNT>
0

> <PUBCHEM_BOND_UDEF_STEREO_COUNT>
0

> <PUBCHEM_ISOTOPIC_ATOM_COUNT>
0

> <PUBCHEM_COMPONENT_COUNT>
1

> <PUBCHEM_CACTVS_TAUTO_COUNT>
36

> <PUBCHEM_CONFORMER_ID>
009FD97000000014

> <PUBCHEM_MMFF94_ENERGY>
103.6964

> <PUBCHEM_FEATURE_SELFOVERLAP>
40.608

> <PUBCHEM_SHAPE_FINGERPRINT>
10165383 225 17534918376948215349
10906281 52 18128544760798231188
1100329 8 16750705842683652801
11578080 2 18189070727854193436
11582403 64 17905281300520248548
11640471 11 15769234806842668666
11725454 13 18193811843467714365
12236239 1 15913335684060983822
12553582 1 17487074275200796470
12633257 1 18120657095807576144
12788726 201 17097240396010624611
12930653 34 18041548200598763171
13009979 54 16008746943806746648
13134695 92 18130222649748838684
13583140 156 18409439306553326514
14022347 108 17170707602700108515
14178342 30 17675920976364775713
14251757 17 18338239258433242745
14856354 85 17391909645868629888
16752209 62 16950840418672747771
16945 1 18060421322016329044
1813 80 14490736928761715626
19049666 15 18336549330536135201
20101258 96 16910344052602129030
20600515 1 17606406716120509459
20739085 24 17916324847545947248
21033648 29 18337939190765283952
22149856 69 16593081059678481205
23419403 2 18340780259901374516
23526113 38 18339922610656155130
23557571 272 18187089433728604853
23559900 14 18115592526813648062
238 59 17986365928019603373
469060 322 16253601882843657392
474 4 17559684025622462160
5265222 85 17968676998860439038
57527295 17 18195807371230979631
9658208 31 18042976355225535085

> <PUBCHEM_SHAPE_MULTIPOLES>
510.56
7.58
3.66
2.59
0.48
0.9
0.77
3.79
-1.68
-0.58
0.16
1.21
-1.29
4.61

> <PUBCHEM_SHAPE_SELFOVERLAP>
1094.266

> <PUBCHEM_SHAPE_VOLUME>
285

> <PUBCHEM_COORDINATE_TYPE>
2
5
10

$$$$
