REMARK  Name = 10473900
REMARK  5 active torsions:
REMARK  status: ('A' for Active; 'I' for Inactive)
REMARK    1  A    between atoms: C_1  and  C_5
REMARK    2  A    between atoms: C_1  and  C_20
REMARK    3  A    between atoms: C_5  and  O_14
REMARK    4  A    between atoms: C_22  and  C_26
REMARK    5  A    between atoms: C_26  and  S_27
REMARK                            x       y       z     vdW  Elec       q    Type
REMARK                         _______ _______ _______ _____ _____    ______ ____
ROOT
ATOM      1  C   UNK A   1      -0.576   1.339  -0.286  0.00  0.00    +0.064 C 
ATOM      2  C   UNK A   1      -1.072   1.470  -1.726  0.00  0.00    +0.005 C 
ENDROOT
BRANCH   1   5
ATOM      3  O   UNK A   1      -3.177   2.569   0.768  0.00  0.00    -0.272 OA
ATOM      4  N   UNK A   1      -3.920   0.455   0.026  0.00  0.00    -0.255 N 
ATOM      5  C   UNK A   1      -1.629   0.669   0.586  0.00  0.00    +0.179 C 
ATOM      6  C   UNK A   1      -1.970  -0.725   0.146  0.00  0.00    +0.024 C 
ATOM      7  C   UNK A   1      -2.985   1.396   0.482  0.00  0.00    +0.258 C 
ATOM      8  C   UNK A   1      -3.327  -0.799  -0.172  0.00  0.00    +0.053 C 
ATOM      9  C   UNK A   1      -1.155  -1.840   0.036  0.00  0.00    -0.000 C 
ATOM     10  C   UNK A   1      -3.911  -1.976  -0.608  0.00  0.00    +0.015 C 
ATOM     11  C   UNK A   1      -5.316   0.741  -0.207  0.00  0.00    +0.120 C 
ATOM     12  C   UNK A   1      -1.728  -3.036  -0.403  0.00  0.00    -0.000 C 
ATOM     13  C   UNK A   1      -3.095  -3.103  -0.723  0.00  0.00    +0.001 C 
BRANCH   5  14
ATOM     14  O   UNK A   1      -1.230   0.663   1.943  0.00  0.00    -0.374 OA
ATOM     15  H   UNK A   1      -0.377   0.209   2.027  0.00  0.00    +0.211 HD
ENDBRANCH   5  14
ENDBRANCH   1   5
BRANCH   1  20
ATOM     16  O   UNK A   1       1.571   1.965  -2.039  0.00  0.00    -0.273 OA
ATOM     17  O   UNK A   2       2.841  -0.416   2.516  0.00  0.00    -0.273 OA
ATOM     18  N   UNK A   1       1.249   0.478   1.114  0.00  0.00    -0.297 N 
ATOM     19  N   UNK A   2       3.092   0.811  -0.753  0.00  0.00    -0.296 N 
ATOM     20  C   UNK A   1       0.731   0.565  -0.243  0.00  0.00    +0.152 C 
ATOM     21  C   UNK A   1       1.812   1.228  -1.086  0.00  0.00    +0.241 C 
ATOM     22  C   UNK A   2       3.328  -0.313   0.140  0.00  0.00    +0.159 C 
ATOM     23  C   UNK A   2       2.495  -0.065   1.391  0.00  0.00    +0.242 C 
ATOM     24  H   UNK A   1       0.699   0.815   1.858  0.00  0.00    +0.150 HD
ATOM     25  H   UNK A   2       3.864   1.290  -1.133  0.00  0.00    +0.150 HD
BRANCH  22  26
ATOM     26  C   UNK A   2       4.806  -0.461   0.463  0.00  0.00    +0.086 C 
BRANCH  26  27
ATOM     27  S   UNK A   2       5.760  -0.745  -1.052  0.00  0.00    -0.137 S 
ATOM     28  C   UNK A   2       7.404  -0.868  -0.311  0.00  0.00    +0.069 C 
ENDBRANCH  26  27
ENDBRANCH  22  26
ENDBRANCH   1  20
TORSDOF 5
