10473798
  -OEChem-03292013303D

 39 40  0     1  0  0  0  0  0999 V2000
   -1.4731   -0.2075   -1.3359 S   0  0  1  0  0  0  0  0  0  0  0  0
    3.7212   -1.9386   -0.0995 O   0  0  0  0  0  0  0  0  0  0  0  0
    0.7741   -3.4381    0.7968 O   0  0  0  0  0  0  0  0  0  0  0  0
   -1.6057    1.1483   -1.9763 O   0  0  0  0  0  0  0  0  0  0  0  0
    4.4160    3.4561   -0.6244 O   0  0  0  0  0  0  0  0  0  0  0  0
   -0.1839   -3.0716   -1.2473 O   0  0  0  0  0  0  0  0  0  0  0  0
   -6.5136    1.4323   -0.6351 O   0  0  0  0  0  0  0  0  0  0  0  0
    1.7592   -0.9342    0.7870 N   0  0  0  0  0  0  0  0  0  0  0  0
   -4.9094    0.2961    0.6207 N   0  0  0  0  0  0  0  0  0  0  0  0
    1.8066    0.5258    0.9930 C   0  0  2  0  0  0  0  0  0  0  0  0
    0.6988    1.0767    0.0877 C   0  0  0  0  0  0  0  0  0  0  0  0
    3.2368    0.4109    0.5124 C   0  0  0  0  0  0  0  0  0  0  0  0
    3.0486   -1.0345    0.3525 C   0  0  0  0  0  0  0  0  0  0  0  0
    0.6531   -1.2650    0.0511 C   0  0  0  0  0  0  0  0  0  0  0  0
   -0.0105   -0.1759   -0.3562 C   0  0  0  0  0  0  0  0  0  0  0  0
    4.2571    1.2351    0.3029 C   0  0  0  0  0  0  0  0  0  0  0  0
    0.3583   -2.6655   -0.2313 C   0  0  0  0  0  0  0  0  0  0  0  0
    4.1867    2.7316    0.5763 C   0  0  0  0  0  0  0  0  0  0  0  0
    5.6099    0.7675   -0.2145 C   0  0  0  0  0  0  0  0  0  0  0  0
   -2.7106   -0.2626   -0.0494 C   0  0  0  0  0  0  0  0  0  0  0  0
   -3.9015    0.2940   -0.2947 C   0  0  0  0  0  0  0  0  0  0  0  0
   -6.1543    0.8655    0.3945 C   0  0  0  0  0  0  0  0  0  0  0  0
   -7.0639    0.7537    1.5899 C   0  0  0  0  0  0  0  0  0  0  0  0
    1.6744    0.7883    2.0503 H   0  0  0  0  0  0  0  0  0  0  0  0
    1.0997    1.6308   -0.7674 H   0  0  0  0  0  0  0  0  0  0  0  0
    0.0234    1.7266    0.6538 H   0  0  0  0  0  0  0  0  0  0  0  0
    3.2135    3.0310    0.9787 H   0  0  0  0  0  0  0  0  0  0  0  0
    4.9527    3.0167    1.3044 H   0  0  0  0  0  0  0  0  0  0  0  0
    6.3987    1.0568    0.4878 H   0  0  0  0  0  0  0  0  0  0  0  0
    5.8230    1.2247   -1.1859 H   0  0  0  0  0  0  0  0  0  0  0  0
    5.6624   -0.3168   -0.3397 H   0  0  0  0  0  0  0  0  0  0  0  0
   -2.5183   -0.7425    0.9058 H   0  0  0  0  0  0  0  0  0  0  0  0
    0.5910   -4.3891    0.6400 H   0  0  0  0  0  0  0  0  0  0  0  0
    3.7214    3.2042   -1.2570 H   0  0  0  0  0  0  0  0  0  0  0  0
   -4.1271    0.7702   -1.2433 H   0  0  0  0  0  0  0  0  0  0  0  0
   -4.7271   -0.1418    1.5204 H   0  0  0  0  0  0  0  0  0  0  0  0
   -8.0940    0.9643    1.2892 H   0  0  0  0  0  0  0  0  0  0  0  0
   -6.7544    1.4758    2.3502 H   0  0  0  0  0  0  0  0  0  0  0  0
   -7.0228   -0.2561    2.0083 H   0  0  0  0  0  0  0  0  0  0  0  0
  1  4  2  0  0  0  0
  1 15  1  0  0  0  0
  1 20  1  0  0  0  0
  2 13  2  0  0  0  0
  3 17  1  0  0  0  0
  3 33  1  0  0  0  0
  5 18  1  0  0  0  0
  5 34  1  0  0  0  0
  6 17  2  0  0  0  0
  7 22  2  0  0  0  0
  8 10  1  0  0  0  0
  8 13  1  0  0  0  0
  8 14  1  0  0  0  0
  9 21  1  0  0  0  0
  9 22  1  0  0  0  0
  9 36  1  0  0  0  0
 10 11  1  0  0  0  0
 10 12  1  0  0  0  0
 10 24  1  0  0  0  0
 11 15  1  0  0  0  0
 11 25  1  0  0  0  0
 11 26  1  0  0  0  0
 12 13  1  0  0  0  0
 12 16  2  0  0  0  0
 14 15  2  0  0  0  0
 14 17  1  0  0  0  0
 16 18  1  0  0  0  0
 16 19  1  0  0  0  0
 18 27  1  0  0  0  0
 18 28  1  0  0  0  0
 19 29  1  0  0  0  0
 19 30  1  0  0  0  0
 19 31  1  0  0  0  0
 20 21  2  0  0  0  0
 20 32  1  0  0  0  0
 21 35  1  0  0  0  0
 22 23  1  0  0  0  0
 23 37  1  0  0  0  0
 23 38  1  0  0  0  0
 23 39  1  0  0  0  0
M  END
> <PUBCHEM_COMPOUND_CID>
10473798

> <PUBCHEM_CONFORMER_RMSD>
0.8

> <PUBCHEM_CONFORMER_DIVERSEORDER>
1
46
69
102
63
9
72
92
58
80
43
70
14
53
34
41
76
107
101
99
114
97
62
68
89
8
77
23
66
3
117
12
32
52
44
21
111
105
60
15
40
30
113
110
18
25
4
55
10
61
47
13
49
112
57
75
36
19
81
78
118
115
74
33
103
100
27
22
50
86
26
73
56
45
119
2
48
98
109
16
54
85
108
28
20
31
29
51
37
6
39
11
116
67
17
96
83
71
35
106
38
87
79
94
84
95
42
93
90
59
64
5
65
88
104
24
91
82
7

> <PUBCHEM_MMFF94_PARTIAL_CHARGES>
28
1 0.39
10 0.36
11 0.14
12 -0.24
13 0.7
14 0.12
15 -0.08
16 -0.25
17 0.71
18 0.42
19 0.14
2 -0.57
20 -0.09
21 -0.04
22 0.57
23 0.06
3 -0.65
32 0.15
33 0.5
34 0.4
35 0.15
36 0.37
4 -0.5
5 -0.68
6 -0.57
7 -0.57
8 -0.39
9 -0.54

> <PUBCHEM_EFFECTIVE_ROTOR_COUNT>
6.2

> <PUBCHEM_PHARMACOPHORE_FEATURES>
11
1 19 hydrophobe
1 2 acceptor
1 3 acceptor
1 4 acceptor
1 5 acceptor
1 5 donor
1 6 acceptor
1 7 acceptor
1 9 donor
3 3 6 17 anion
7 8 10 11 12 13 14 15 rings

> <PUBCHEM_HEAVY_ATOM_COUNT>
23

> <PUBCHEM_ATOM_DEF_STEREO_COUNT>
0

> <PUBCHEM_ATOM_UDEF_STEREO_COUNT>
2

> <PUBCHEM_BOND_DEF_STEREO_COUNT>
2

> <PUBCHEM_BOND_UDEF_STEREO_COUNT>
0

> <PUBCHEM_ISOTOPIC_ATOM_COUNT>
0

> <PUBCHEM_COMPONENT_COUNT>
1

> <PUBCHEM_CACTVS_TAUTO_COUNT>
2

> <PUBCHEM_CONFORMER_ID>
009FD14600000001

> <PUBCHEM_MMFF94_ENERGY>
64.767

> <PUBCHEM_FEATURE_SELFOVERLAP>
55.878

> <PUBCHEM_SHAPE_FINGERPRINT>
10165383 225 18334299777633982636
10411042 1 17763745391136911010
10493431 412 18337949120486507068
10670039 82 14979684248070708385
11796584 16 13542457674513909700
11823591 26 18342446067182973960
12236239 1 17704349970424130281
12596602 18 18411987945211666305
12730499 353 18333735688976333090
13540713 5 18195505195039721194
13955234 65 18263078833929103618
14341114 176 18335988584486674625
14790565 3 18339078306223036605
15183329 4 12967138185747959349
15342168 16 18337951293713715188
15475509 35 16443614685104121370
18222031 100 11314307209433450008
18785283 64 18336541617118315066
19784866 170 18334575737714384013
20567600 247 10737289073956186145
21285901 2 12103846747936534194
22224240 67 18334293193311967795
23557571 272 16734112224151678751
293599 30 18341893021587758424
3009799 131 11024105438897712382
3178227 256 18336827481572669258
335352 9 18412825798841724414
458136 41 18410848841752928958
5104073 3 18190164871189100642
621550 34 18114739335490871735
633830 44 18271800241838484166
76465 3 8934738694361199228
8272917 22 18272653394463894991
9999458 23 18336264553057180390

> <PUBCHEM_SHAPE_MULTIPOLES>
432
13.98
3.07
1.19
22.21
1.32
-0.23
-11.31
3.44
-3.67
-0.21
1.04
-0.11
-0.46

> <PUBCHEM_SHAPE_SELFOVERLAP>
893.538

> <PUBCHEM_SHAPE_VOLUME>
249.1

> <PUBCHEM_COORDINATE_TYPE>
2
5
10

$$$$
