REMARK  Name = 10474035
REMARK  6 active torsions:
REMARK  status: ('A' for Active; 'I' for Inactive)
REMARK    1  A    between atoms: C_5  and  S_11
REMARK    2  A    between atoms: C_5  and  C_15
REMARK    3  A    between atoms: C_6  and  S_13
REMARK    4  A    between atoms: C_6  and  C_26
REMARK    5  A    between atoms: C_15  and  C_17
REMARK    6  A    between atoms: C_26  and  O_27
REMARK                            x       y       z     vdW  Elec       q    Type
REMARK                         _______ _______ _______ _____ _____    ______ ____
ROOT
ATOM      1  O   UNL     1      -1.306   1.513  -2.254  0.00  0.00    -0.272 OA
ATOM      2  O   UNL     1      -1.490  -1.496   2.215  0.00  0.00    -0.272 OA
ATOM      3  N   UNL     1      -0.690   0.313   1.078  0.00  0.00    -0.290 N 
ATOM      4  N   UNL     1      -1.975  -0.380  -1.167  0.00  0.00    -0.288 N 
ATOM      5  C   UNL     1      -0.884   1.398   0.125  0.00  0.00    +0.170 C 
ATOM      6  C   UNL     1      -2.449  -1.045   0.035  0.00  0.00    +0.193 C 
ATOM      7  C   UNL     1      -1.381   0.862  -1.211  0.00  0.00    +0.249 C 
ATOM      8  C   UNL     1      -1.496  -0.799   1.199  0.00  0.00    +0.251 C 
ATOM      9  H   UNL     1       0.082   0.380   1.686  0.00  0.00    +0.151 HD
ATOM     10  H   UNL     1      -2.087  -0.857  -2.021  0.00  0.00    +0.151 HD
ENDROOT
BRANCH   5  11
ATOM     11  S   UNL     1      -2.079   2.622   0.754  0.00  0.00    -0.114 S 
ATOM     12  C   UNL     1      -1.225   3.046   2.288  0.00  0.00    +0.071 C 
ENDBRANCH   5  11
BRANCH   6  13
ATOM     13  S   UNL     1      -2.445  -2.851  -0.316  0.00  0.00    -0.112 S 
ATOM     14  C   UNL     1      -0.689  -3.016  -0.697  0.00  0.00    +0.071 C 
ENDBRANCH   6  13
BRANCH   5  15
ATOM     15  C   UNL     1       0.454   2.117  -0.092  0.00  0.00    +0.065 C 
BRANCH  15  17
ATOM     16  N   UNL     1       2.729   0.067  -2.081  0.00  0.00    -0.312 N 
ATOM     17  C   UNL     1       1.490   1.186  -0.654  0.00  0.00    -0.003 C 
ATOM     18  C   UNL     1       2.380   0.395   0.098  0.00  0.00    +0.011 C 
ATOM     19  C   UNL     1       1.712   0.979  -1.981  0.00  0.00    +0.058 C 
ATOM     20  C   UNL     1       3.156  -0.307  -0.827  0.00  0.00    +0.048 C 
ATOM     21  C   UNL     1       2.616   0.193   1.472  0.00  0.00    +0.001 C 
ATOM     22  C   UNL     1       4.161  -1.203  -0.445  0.00  0.00    +0.015 C 
ATOM     23  C   UNL     1       3.617  -0.701   1.869  0.00  0.00    +0.000 C 
ATOM     24  C   UNL     1       4.376  -1.387   0.924  0.00  0.00    +0.001 C 
ATOM     25  H   UNL     1       3.101  -0.271  -2.928  0.00  0.00    +0.152 HD
ENDBRANCH  15  17
ENDBRANCH   5  15
BRANCH   6  26
ATOM     26  C   UNL     1      -3.875  -0.633   0.394  0.00  0.00    +0.175 C 
BRANCH  26  27
ATOM     27  O   UNL     1      -4.708  -0.874  -0.726  0.00  0.00    -0.379 OA
ATOM     28  H   UNL     1      -5.619  -0.617  -0.512  0.00  0.00    +0.211 HD
ENDBRANCH  26  27
ENDBRANCH   6  26
TORSDOF 6
