REMARK  Name = 10474298
REMARK  12 active torsions:
REMARK  status: ('A' for Active; 'I' for Inactive)
REMARK    1  A    between atoms: C_1  and  O_2
REMARK    2  A    between atoms: C_1  and  C_6
REMARK    3  A    between atoms: C_1  and  C_18
REMARK    4  A    between atoms: O_2  and  C_4
REMARK    5  A    between atoms: C_6  and  C_9
REMARK    6  A    between atoms: C_6  and  O_14
REMARK    7  A    between atoms: O_14  and  C_16
REMARK    8  A    between atoms: C_18  and  O_19
REMARK    9  A    between atoms: C_18  and  C_23
REMARK   10  A    between atoms: O_19  and  C_21
REMARK   11  A    between atoms: C_23  and  C_24
REMARK   12  A    between atoms: C_24  and  C_25
REMARK                            x       y       z     vdW  Elec       q    Type
REMARK                         _______ _______ _______ _____ _____    ______ ____
ROOT
ATOM      1  C   UNL     1      -0.322   0.392   0.180  0.00  0.00    +0.252 C 
ENDROOT
BRANCH   1   2
ATOM      2  O   UNL     1      -0.259   1.502   1.074  0.00  0.00    -0.445 OA
BRANCH   2   4
ATOM      3  O   UNL     1      -1.094   2.892  -0.572  0.00  0.00    -0.250 OA
ATOM      4  C   UNL     1      -0.678   2.697   0.562  0.00  0.00    +0.318 C 
ATOM      5  C   UNL     1      -0.557   3.764   1.607  0.00  0.00    +0.121 C 
ENDBRANCH   2   4
ENDBRANCH   1   2
BRANCH   1   6
ATOM      6  C   UNL     1       0.826  -0.582   0.501  0.00  0.00    +0.252 C 
BRANCH   6   9
ATOM      7  O   UNL     1       2.363   0.596  -0.915  0.00  0.00    -0.445 OA
ATOM      8  O   UNL     1       3.715   1.779  -2.300  0.00  0.00    -0.245 OA
ATOM      9  C   UNL     1       2.187   0.097   0.429  0.00  0.00    +0.217 C 
ATOM     10  C   UNL     1       3.310  -0.865   0.793  0.00  0.00    +0.074 C 
ATOM     11  C   UNL     1       4.617  -0.221   0.481  0.00  0.00    -0.016 C 
ATOM     12  C   UNL     1       3.572   1.088  -1.296  0.00  0.00    +0.341 C 
ATOM     13  C   UNL     1       4.732   0.717  -0.465  0.00  0.00    +0.077 C 
ENDBRANCH   6   9
BRANCH   6  14
ATOM     14  O   UNL     1       0.644  -1.101   1.815  0.00  0.00    -0.445 OA
BRANCH  14  16
ATOM     15  O   UNL     1       0.534  -3.247   0.968  0.00  0.00    -0.250 OA
ATOM     16  C   UNL     1       0.511  -2.458   1.903  0.00  0.00    +0.318 C 
ATOM     17  C   UNL     1       0.328  -2.858   3.335  0.00  0.00    +0.121 C 
ENDBRANCH  14  16
ENDBRANCH   6  14
ENDBRANCH   1   6
BRANCH   1  18
ATOM     18  C   UNL     1      -1.718  -0.259   0.258  0.00  0.00    +0.212 C 
BRANCH  18  19
ATOM     19  O   UNL     1      -2.703   0.737  -0.029  0.00  0.00    -0.448 OA
BRANCH  19  21
ATOM     20  O   UNL     1      -4.190  -0.310   1.395  0.00  0.00    -0.250 OA
ATOM     21  C   UNL     1      -3.897   0.584   0.613  0.00  0.00    +0.318 C 
ATOM     22  C   UNL     1      -4.825   1.692   0.218  0.00  0.00    +0.121 C 
ENDBRANCH  19  21
ENDBRANCH  18  19
BRANCH  18  23
ATOM     23  C   UNL     1      -1.929  -1.426  -0.720  0.00  0.00    +0.048 C 
BRANCH  23  24
ATOM     24  C   UNL     1      -1.700  -1.048  -2.183  0.00  0.00    +0.004 C 
BRANCH  24  25
ATOM     25  C   UNL     1      -1.830  -2.268  -3.096  0.00  0.00    +0.000 C 
ATOM     26  C   UNL     1      -1.635  -1.895  -4.557  0.00  0.00    +0.000 C 
ENDBRANCH  24  25
ENDBRANCH  23  24
ENDBRANCH  18  23
ENDBRANCH   1  18
TORSDOF 12
