10472401
  -OEChem-03292013303D

 41 44  0     1  0  0  0  0  0999 V2000
   -3.8365   -1.1293    0.8864 O   0  0  0  0  0  0  0  0  0  0  0  0
   -1.8858    0.0170    2.2730 O   0  0  0  0  0  0  0  0  0  0  0  0
   -2.5908    2.3149    1.2082 O   0  0  0  0  0  0  0  0  0  0  0  0
    0.2710    2.2110    1.0173 O   0  0  0  0  0  0  0  0  0  0  0  0
    2.2364   -2.6055   -0.0858 O   0  0  0  0  0  0  0  0  0  0  0  0
    4.4963   -1.6276   -0.7625 O   0  0  0  0  0  0  0  0  0  0  0  0
   -2.5770   -1.0707    0.2065 C   0  0  2  0  0  0  0  0  0  0  0  0
   -1.7252    0.0723    0.8494 C   0  0  1  0  0  0  0  0  0  0  0  0
   -2.8403   -0.8547   -1.3043 C   0  0  0  0  0  0  0  0  0  0  0  0
   -3.4452    0.5236   -1.6055 C   0  0  1  0  0  0  0  0  0  0  0  0
   -2.5314    1.6221   -1.0739 C   0  0  0  0  0  0  0  0  0  0  0  0
   -2.3195    1.4192    0.4073 C   0  0  0  0  0  0  0  0  0  0  0  0
   -0.2304   -0.0757    0.5638 C   0  0  0  0  0  0  0  0  0  0  0  0
   -1.8842   -2.4034    0.3650 C   0  0  0  0  0  0  0  0  0  0  0  0
    0.2943   -1.2982    0.3343 C   0  0  0  0  0  0  0  0  0  0  0  0
   -3.6736    0.6968   -3.1059 C   0  0  0  0  0  0  0  0  0  0  0  0
   -0.5475   -2.4833    0.4184 C   0  0  0  0  0  0  0  0  0  0  0  0
    0.6613    1.1213    0.6150 C   0  0  0  0  0  0  0  0  0  0  0  0
    1.7456   -1.4901    0.0507 C   0  0  0  0  0  0  0  0  0  0  0  0
    2.0615    0.9696    0.1838 C   0  0  0  0  0  0  0  0  0  0  0  0
    2.5864   -0.2907   -0.0851 C   0  0  0  0  0  0  0  0  0  0  0  0
    2.8744    2.1040    0.0603 C   0  0  0  0  0  0  0  0  0  0  0  0
    3.9243   -0.4226   -0.4782 C   0  0  0  0  0  0  0  0  0  0  0  0
    4.2057    1.9709   -0.3348 C   0  0  0  0  0  0  0  0  0  0  0  0
    4.7301    0.7090   -0.6034 C   0  0  0  0  0  0  0  0  0  0  0  0
   -3.5384   -1.6228   -1.6650 H   0  0  0  0  0  0  0  0  0  0  0  0
   -1.9113   -0.9736   -1.8785 H   0  0  0  0  0  0  0  0  0  0  0  0
   -4.4192    0.5962   -1.1036 H   0  0  0  0  0  0  0  0  0  0  0  0
   -2.9857    2.6068   -1.2325 H   0  0  0  0  0  0  0  0  0  0  0  0
   -1.5564    1.6230   -1.5732 H   0  0  0  0  0  0  0  0  0  0  0  0
   -2.4809   -3.3102    0.3964 H   0  0  0  0  0  0  0  0  0  0  0  0
   -4.3462   -0.0782   -3.4882 H   0  0  0  0  0  0  0  0  0  0  0  0
   -4.1283    1.6699   -3.3193 H   0  0  0  0  0  0  0  0  0  0  0  0
   -2.7326    0.6335   -3.6630 H   0  0  0  0  0  0  0  0  0  0  0  0
   -0.0765   -3.4560    0.5142 H   0  0  0  0  0  0  0  0  0  0  0  0
   -3.6582   -1.2449    1.8357 H   0  0  0  0  0  0  0  0  0  0  0  0
   -1.3221    0.7032    2.6699 H   0  0  0  0  0  0  0  0  0  0  0  0
    2.4896    3.0997    0.2646 H   0  0  0  0  0  0  0  0  0  0  0  0
    4.8335    2.8519   -0.4318 H   0  0  0  0  0  0  0  0  0  0  0  0
    5.7683    0.6146   -0.9108 H   0  0  0  0  0  0  0  0  0  0  0  0
    3.8308   -2.3318   -0.7595 H   0  0  0  0  0  0  0  0  0  0  0  0
  1  7  1  0  0  0  0
  1 36  1  0  0  0  0
  2  8  1  0  0  0  0
  2 37  1  0  0  0  0
  3 12  2  0  0  0  0
  4 18  2  0  0  0  0
  5 19  2  0  0  0  0
  6 23  1  0  0  0  0
  6 41  1  0  0  0  0
  7  8  1  0  0  0  0
  7  9  1  0  0  0  0
  7 14  1  0  0  0  0
  8 12  1  0  0  0  0
  8 13  1  0  0  0  0
  9 10  1  0  0  0  0
  9 26  1  0  0  0  0
  9 27  1  0  0  0  0
 10 11  1  0  0  0  0
 10 16  1  0  0  0  0
 10 28  1  0  0  0  0
 11 12  1  0  0  0  0
 11 29  1  0  0  0  0
 11 30  1  0  0  0  0
 13 15  2  0  0  0  0
 13 18  1  0  0  0  0
 14 17  2  0  0  0  0
 14 31  1  0  0  0  0
 15 17  1  0  0  0  0
 15 19  1  0  0  0  0
 16 32  1  0  0  0  0
 16 33  1  0  0  0  0
 16 34  1  0  0  0  0
 17 35  1  0  0  0  0
 18 20  1  0  0  0  0
 19 21  1  0  0  0  0
 20 21  2  0  0  0  0
 20 22  1  0  0  0  0
 21 23  1  0  0  0  0
 22 24  2  0  0  0  0
 22 38  1  0  0  0  0
 23 25  2  0  0  0  0
 24 25  1  0  0  0  0
 24 39  1  0  0  0  0
 25 40  1  0  0  0  0
M  END
> <PUBCHEM_COMPOUND_CID>
10472401

> <PUBCHEM_CONFORMER_RMSD>
0.6

> <PUBCHEM_CONFORMER_DIVERSEORDER>
2
10
6
1
4
9
5
8
3
7

> <PUBCHEM_MMFF94_PARTIAL_CHARGES>
30
1 -0.68
11 0.06
12 0.45
13 -0.12
14 -0.29
15 0.01
17 -0.15
18 0.47
19 0.47
2 -0.68
20 0.09
21 0.09
22 -0.15
23 0.08
24 -0.15
25 -0.15
3 -0.57
31 0.15
35 0.15
36 0.4
37 0.4
38 0.15
39 0.15
4 -0.57
40 0.15
41 0.45
5 -0.57
6 -0.53
7 0.42
8 0.48

> <PUBCHEM_EFFECTIVE_ROTOR_COUNT>
0.6

> <PUBCHEM_PHARMACOPHORE_FEATURES>
12
1 1 acceptor
1 1 donor
1 2 acceptor
1 2 donor
1 3 acceptor
1 4 acceptor
1 5 acceptor
1 6 donor
6 13 15 18 19 20 21 rings
6 20 21 22 23 24 25 rings
6 7 8 13 14 15 17 rings
6 7 8 9 10 11 12 rings

> <PUBCHEM_HEAVY_ATOM_COUNT>
25

> <PUBCHEM_ATOM_DEF_STEREO_COUNT>
0

> <PUBCHEM_ATOM_UDEF_STEREO_COUNT>
3

> <PUBCHEM_BOND_DEF_STEREO_COUNT>
0

> <PUBCHEM_BOND_UDEF_STEREO_COUNT>
0

> <PUBCHEM_ISOTOPIC_ATOM_COUNT>
0

> <PUBCHEM_COMPONENT_COUNT>
1

> <PUBCHEM_CACTVS_TAUTO_COUNT>
10

> <PUBCHEM_CONFORMER_ID>
009FCBD100000002

> <PUBCHEM_MMFF94_ENERGY>
70.1381

> <PUBCHEM_FEATURE_SELFOVERLAP>
61.025

> <PUBCHEM_SHAPE_FINGERPRINT>
10062212 137 18060139786851969490
10498660 4 17894619357751337589
10863032 1 17313650586536364451
10967382 1 18340779238152923170
1100329 8 17978237054156652866
11370993 70 18261382382260932054
11725454 13 16806429328518767223
11961588 58 17386544947909824685
12173636 292 18339934735734245945
12403259 415 18259988197253677588
12403814 3 18042133205351732595
12553582 1 18202001066068946256
12788726 201 17489024843320175337
13140716 1 18266744580057569738
13224815 77 18334297578273129736
13583140 156 17240482533247079712
14790565 3 18269850718077042609
15163728 17 16517076316783272053
15196674 1 18340216223811766192
16752209 62 17274808130735154637
16945 1 18271514411965258787
17349148 13 18272923908910796386
17357779 13 17975962482600593415
17980427 23 17984679157387688866
18186145 218 18333735697813966396
192875 21 18124290753935511082
19862831 5 18341041952237666238
200 152 17775000210720993157
20775438 99 16764456808000983055
21267235 1 18269011885146681434
22182313 1 18051958505487083969
22393880 68 18261104175870761342
22907989 373 18115307911703927005
2334 1 18412263913069696714
23402539 116 18200316499071947398
23419403 2 16767593778983056787
23557571 272 17458349662451906581
23559900 14 18341612659814932944
23566358 2 18411703196673608838
238 59 18267280136630442821
2748010 2 17620184773115453195
2838139 119 16879601853254272941
335352 9 18195821673914816318
350125 39 18337685160586701473
4028521 119 18187919607793380447
469060 322 17023478546275654411
5104073 3 18411991247751295354
633830 44 18270976656458729324
6438718 38 17131015095155381393
9709674 26 18271821115943940846

> <PUBCHEM_SHAPE_MULTIPOLES>
479.27
8.03
2.71
1.63
5.54
0.57
0.68
-1.62
3.49
0.33
-0.25
-2.31
-0.62
0.84

> <PUBCHEM_SHAPE_SELFOVERLAP>
1080.444

> <PUBCHEM_SHAPE_VOLUME>
248.4

> <PUBCHEM_COORDINATE_TYPE>
2
5
10

$$$$
