REMARK  Name = 10472648
REMARK  6 active torsions:
REMARK  status: ('A' for Active; 'I' for Inactive)
REMARK    1  A    between atoms: O_1  and  C_3
REMARK    2  A    between atoms: O_1  and  C_15
REMARK    3  A    between atoms: C_3  and  C_4
REMARK    4  A    between atoms: C_6  and  N_13
REMARK    5  A    between atoms: C_15  and  C_16
REMARK    6  A    between atoms: C_18  and  N_25
REMARK                            x       y       z     vdW  Elec       q    Type
REMARK                         _______ _______ _______ _____ _____    ______ ____
ROOT
ATOM      1  O   UNL     1       0.009   0.005  -0.378  0.00  0.00    -0.386 OA
ENDROOT
BRANCH   1   3
ATOM      2  O   UNL     1      -1.267   0.264  -2.295  0.00  0.00    -0.244 OA
ATOM      3  C   UNL     1      -1.149   0.238  -1.067  0.00  0.00    +0.349 C 
BRANCH   3   4
ATOM      4  C   UNL     1      -2.254   0.481  -0.143  0.00  0.00    +0.095 C 
ATOM      5  C   UNL     1      -2.514   1.781   0.292  0.00  0.00    -0.014 C 
ATOM      6  C   UNL     1      -3.047  -0.576   0.304  0.00  0.00    +0.149 C 
ATOM      7  C   UNL     1      -3.567   2.023   1.174  0.00  0.00    -0.004 C 
ATOM      8  C   UNL     1      -4.101  -0.333   1.186  0.00  0.00    +0.024 C 
ATOM      9  C   UNL     1      -1.683   2.934  -0.169  0.00  0.00    +0.031 C 
ATOM     10  C   UNL     1      -4.360   0.967   1.621  0.00  0.00    +0.001 C 
BRANCH   6  13
ATOM     11  O   UNL     1      -3.547  -2.827   0.306  0.00  0.00    -0.126 OA
ATOM     12  O   UNL     1      -1.861  -2.131  -0.916  0.00  0.00    -0.126 OA
ATOM     13  N   UNL     1      -2.806  -1.911  -0.123  0.00  0.00    +0.058 N 
ENDBRANCH   6  13
ENDBRANCH   3   4
ENDBRANCH   1   3
BRANCH   1  15
ATOM     14  O   UNL     1       1.297  -0.248  -2.290  0.00  0.00    -0.244 OA
ATOM     15  C   UNL     1       1.152  -0.222  -1.078  0.00  0.00    +0.349 C 
BRANCH  15  16
ATOM     16  C   UNL     1       2.266  -0.481  -0.132  0.00  0.00    +0.095 C 
ATOM     17  C   UNL     1       2.495  -1.780   0.285  0.00  0.00    -0.014 C 
ATOM     18  C   UNL     1       3.047   0.572   0.310  0.00  0.00    +0.149 C 
ATOM     19  C   UNL     1       3.540  -2.034   1.174  0.00  0.00    -0.004 C 
ATOM     20  C   UNL     1       4.091   0.318   1.198  0.00  0.00    +0.024 C 
ATOM     21  C   UNL     1       1.659  -2.925  -0.186  0.00  0.00    +0.031 C 
ATOM     22  C   UNL     1       4.338  -0.985   1.631  0.00  0.00    +0.001 C 
BRANCH  18  25
ATOM     23  O   UNL     1       3.563   2.819   0.323  0.00  0.00    -0.126 OA
ATOM     24  O   UNL     1       1.881   2.141  -0.913  0.00  0.00    -0.126 OA
ATOM     25  N   UNL     1       2.819   1.911  -0.115  0.00  0.00    +0.058 N 
ENDBRANCH  18  25
ENDBRANCH  15  16
ENDBRANCH   1  15
TORSDOF 6
