REMARK  Name = 10471757
REMARK  9 active torsions:
REMARK  status: ('A' for Active; 'I' for Inactive)
REMARK    1  A    between atoms: C_1  and  C_2
REMARK    2  A    between atoms: C_1  and  C_18
REMARK    3  A    between atoms: C_2  and  C_3
REMARK    4  A    between atoms: C_6  and  O_9
REMARK    5  A    between atoms: C_8  and  O_11
REMARK    6  A    between atoms: C_18  and  C_19
REMARK    7  A    between atoms: C_19  and  C_20
REMARK    8  A    between atoms: C_23  and  O_26
REMARK    9  A    between atoms: C_25  and  O_28
REMARK                            x       y       z     vdW  Elec       q    Type
REMARK                         _______ _______ _______ _____ _____    ______ ____
ROOT
ATOM      1  C   UNL     1      -0.760   0.312   0.089  0.00  0.00    +0.068 C 
ATOM      2  O   UNL     1       0.974   2.625  -0.117  0.00  0.00    -0.265 OA
ATOM      3  N   UNL     1      -1.132   1.603  -0.178  0.00  0.00    -0.277 N 
ATOM      4  C   UNL     1      -0.242   2.648  -0.259  0.00  0.00    +0.303 C 
ATOM      5  H   UNL     1      -2.088   1.793  -0.319  0.00  0.00    +0.155 HD
ENDROOT
BRANCH   1   7
ATOM      6  O   UNL     1       1.171   0.209   1.451  0.00  0.00    -0.290 OA
ATOM      7  C   UNL     1       0.713   0.100   0.311  0.00  0.00    +0.187 C 
BRANCH   7   8
ATOM      8  C   UNL     1       1.601  -0.245  -0.876  0.00  0.00    +0.096 C 
BRANCH   8   9
ATOM      9  C   UNL     1       3.046  -0.455  -0.494  0.00  0.00    -0.011 C 
ATOM     10  C   UNL     1       3.914   0.626  -0.499  0.00  0.00    +0.036 C 
ATOM     11  C   UNL     1       3.479  -1.724  -0.144  0.00  0.00    -0.001 C 
ATOM     12  C   UNL     1       5.250   0.431  -0.147  0.00  0.00    +0.167 C 
ATOM     13  C   UNL     1       4.814  -1.918   0.209  0.00  0.00    +0.039 C 
ATOM     14  C   UNL     1       5.700  -0.841   0.207  0.00  0.00    +0.167 C 
BRANCH  12  15
ATOM     15  O   UNL     1       6.105   1.492  -0.151  0.00  0.00    -0.503 OA
ATOM     16  H   UNL     1       5.795   2.343  -0.390  0.00  0.00    +0.292 HD
ENDBRANCH  12  15
BRANCH  14  17
ATOM     17  O   UNL     1       7.002  -1.042   0.555  0.00  0.00    -0.503 OA
ATOM     18  H   UNL     1       7.603  -0.323   0.556  0.00  0.00    +0.292 HD
ENDBRANCH  14  17
ENDBRANCH   8   9
ENDBRANCH   7   8
ENDBRANCH   1   7
BRANCH   1  19
ATOM     19  C   UNL     1      -1.639  -0.702   0.168  0.00  0.00    +0.071 C 
BRANCH  19  20
ATOM     20  C   UNL     1      -3.091  -0.591  -0.038  0.00  0.00    -0.013 C 
ATOM     21  C   UNL     1      -3.912  -0.300   1.040  0.00  0.00    +0.036 C 
ATOM     22  C   UNL     1      -3.614  -0.781  -1.309  0.00  0.00    -0.001 C 
ATOM     23  C   UNL     1      -5.290  -0.196   0.844  0.00  0.00    +0.167 C 
ATOM     24  C   UNL     1      -4.991  -0.676  -1.505  0.00  0.00    +0.039 C 
ATOM     25  C   UNL     1      -5.829  -0.384  -0.428  0.00  0.00    +0.167 C 
BRANCH  23  26
ATOM     26  O   UNL     1      -6.097   0.091   1.903  0.00  0.00    -0.503 OA
ATOM     27  H   UNL     1      -5.727   0.216   2.754  0.00  0.00    +0.292 HD
ENDBRANCH  23  26
BRANCH  25  28
ATOM     28  O   UNL     1      -7.172  -0.283  -0.633  0.00  0.00    -0.503 OA
ATOM     29  H   UNL     1      -7.742  -0.087   0.085  0.00  0.00    +0.292 HD
ENDBRANCH  25  28
ENDBRANCH  19  20
ENDBRANCH   1  19
TORSDOF 9
