REMARK  Name = 10474479
REMARK  8 active torsions:
REMARK  status: ('A' for Active; 'I' for Inactive)
REMARK    1  A    between atoms: N_1  and  C1*_12
REMARK    2  A    between atoms: C2*_11  and  O2*_15
REMARK    3  A    between atoms: C3*_13  and  O3*_17
REMARK    4  A    between atoms: C4*_14  and  C5*_19
REMARK    5  A    between atoms: C5*_19  and  O5*_20
REMARK    6  A    between atoms: N_22  and  C_24
REMARK    7  A    between atoms: C_24  and  C_25
REMARK    8  A    between atoms: C_30  and  O_31
REMARK                            x       y       z     vdW  Elec       q    Type
REMARK                         _______ _______ _______ _____ _____    ______ ____
ROOT
ATOM      1  N   UNL     1       2.183  -0.229   0.274  0.00  0.00    -0.247 N 
ATOM      2  N   UNL     1       0.263   0.889   0.084  0.00  0.00    -0.242 NA
ATOM      3  N   UNL     1       1.325  -2.489   0.519  0.00  0.00    -0.228 NA
ATOM      4  N   UNL     1      -1.115  -2.524   0.450  0.00  0.00    -0.228 NA
ATOM      5  C   UNL     1       1.189  -1.164   0.356  0.00  0.00    +0.152 C 
ATOM      6  C   UNL     1       1.575   0.988   0.111  0.00  0.00    +0.223 C 
ATOM      7  C   UNL     1       0.008  -0.451   0.236  0.00  0.00    +0.140 C 
ATOM      8  C   UNL     1      -1.176  -1.180   0.287  0.00  0.00    +0.146 C 
ATOM      9  C   UNL     1       0.114  -3.086   0.554  0.00  0.00    +0.253 C 
ATOM     10  N   UNL     1      -2.421  -0.538   0.172  0.00  0.00    -0.313 N 
ATOM     11  H   UNL     1      -2.435   0.439   0.053  0.00  0.00    +0.149 HD
ENDROOT
BRANCH   1  14
ATOM     12  O4* UNL     1       4.268   0.646   0.996  0.00  0.00    -0.333 OA
ATOM     13  C2* UNL     1       4.286  -0.652  -1.022  0.00  0.00    +0.187 C 
ATOM     14  C1* UNL     1       3.626  -0.471   0.346  0.00  0.00    +0.225 C 
ATOM     15  C3* UNL     1       4.972   0.683  -1.244  0.00  0.00    +0.171 C 
ATOM     16  C4* UNL     1       5.357   1.087   0.168  0.00  0.00    +0.175 C 
BRANCH  13  17
ATOM     17  O2* UNL     1       5.234  -1.715  -0.949  0.00  0.00    -0.378 OA
ATOM     18  H2* UNL     1       4.769  -2.554  -0.807  0.00  0.00    +0.211 HD
ENDBRANCH  13  17
BRANCH  15  19
ATOM     19  O3* UNL     1       6.093   0.604  -2.099  0.00  0.00    -0.379 OA
ATOM     20  H3* UNL     1       5.804   0.344  -2.988  0.00  0.00    +0.211 HD
ENDBRANCH  15  19
BRANCH  16  21
ATOM     21  C5* UNL     1       5.559   2.582   0.336  0.00  0.00    +0.169 C 
BRANCH  21  22
ATOM     22  O5* UNL     1       5.902   2.844   1.686  0.00  0.00    -0.379 OA
ATOM     23  H5* UNL     1       6.034   3.798   1.806  0.00  0.00    +0.211 HD
ENDBRANCH  21  22
ENDBRANCH  16  21
ENDBRANCH   1  14
BRANCH  10  24
ATOM     24  C   UNL     1      -3.669  -1.239   0.218  0.00  0.00    +0.115 C 
BRANCH  24  25
ATOM     25  C   UNL     1      -4.839  -0.318   0.021  0.00  0.00    -0.002 C 
ATOM     26  C   UNL     1      -5.316  -0.078  -1.261  0.00  0.00    +0.000 C 
ATOM     27  C   UNL     1      -5.431   0.284   1.125  0.00  0.00    +0.000 C 
ATOM     28  C   UNL     1      -6.402   0.778  -1.444  0.00  0.00    +0.036 C 
ATOM     29  C   UNL     1      -6.518   1.140   0.943  0.00  0.00    +0.036 C 
ATOM     30  C   UNL     1      -7.003   1.387  -0.342  0.00  0.00    +0.134 C 
BRANCH  30  31
ATOM     31  O   UNL     1      -8.063   2.222  -0.520  0.00  0.00    -0.506 OA
ATOM     32  H   UNL     1      -8.389   2.387  -1.383  0.00  0.00    +0.292 HD
ENDBRANCH  30  31
ENDBRANCH  24  25
ENDBRANCH  10  24
TORSDOF 8
