REMARK  Name = 10476270
REMARK  16 active torsions:
REMARK  status: ('A' for Active; 'I' for Inactive)
REMARK    1  A    between atoms: C_1  and  O_7
REMARK    2  A    between atoms: C_2  and  C_19
REMARK    3  A    between atoms: O_7  and  C_8
REMARK    4  A    between atoms: C_8  and  C_9
REMARK    5  A    between atoms: C_9  and  O_10
REMARK    6  A    between atoms: C_9  and  C_12
REMARK    7  A    between atoms: C_12  and  N_13
REMARK    8  A    between atoms: N_13  and  C_16
REMARK    9  A    between atoms: C_19  and  O_20
REMARK   10  A    between atoms: O_20  and  C_21
REMARK   11  A    between atoms: C_21  and  C_22
REMARK   12  A    between atoms: C_22  and  O_23
REMARK   13  A    between atoms: C_22  and  C_27
REMARK   14  A    between atoms: O_23  and  N_26
REMARK   15  A    between atoms: C_27  and  O_28
REMARK   16  A    between atoms: O_28  and  N_31
REMARK                            x       y       z     vdW  Elec       q    Type
REMARK                         _______ _______ _______ _____ _____    ______ ____
ROOT
ATOM      1  C   UNL     1      -2.956  -1.727   0.511  0.00  0.00    +0.139 C 
ATOM      2  C   UNL     1      -0.212  -2.184   0.724  0.00  0.00    +0.007 C 
ATOM      3  C   UNL     1      -0.900  -2.590  -0.419  0.00  0.00    +0.001 C 
ATOM      4  C   UNL     1      -0.897  -1.549   1.761  0.00  0.00    +0.001 C 
ATOM      5  C   UNL     1      -2.272  -2.361  -0.526  0.00  0.00    +0.037 C 
ATOM      6  C   UNL     1      -2.268  -1.321   1.655  0.00  0.00    +0.037 C 
ENDROOT
BRANCH   1   7
ATOM      7  O   UNL     1      -4.303  -1.504   0.406  0.00  0.00    -0.473 OA
BRANCH   7   8
ATOM      8  C   UNL     1      -4.819  -1.309  -0.907  0.00  0.00    +0.232 C 
BRANCH   8   9
ATOM      9  C   UNL     1      -6.045  -0.402  -0.825  0.00  0.00    +0.133 C 
BRANCH   9  10
ATOM     10  O   UNL     1      -7.042  -1.049  -0.029  0.00  0.00    -0.383 OA
ATOM     11  H   UNL     1      -7.827  -0.482   0.030  0.00  0.00    +0.210 HD
ENDBRANCH   9  10
BRANCH   9  12
ATOM     12  C   UNL     1      -5.748   0.963  -0.201  0.00  0.00    -0.048 C 
BRANCH  12  13
ATOM     13  N   UNL     1      -4.783   1.724  -0.983  0.00  0.00    +0.387 N 
ATOM     14  H   UNL     1      -5.138   1.837  -1.933  0.00  0.00    -0.084 HD
ATOM     15  H   UNL     1      -3.898   1.218  -0.991  0.00  0.00    -0.084 HD
BRANCH  13  16
ATOM     16  C   UNL     1      -4.561   3.040  -0.398  0.00  0.00    -0.062 C 
ATOM     17  C   UNL     1      -3.958   3.985  -1.435  0.00  0.00    -0.023 C 
ATOM     18  C   UNL     1      -3.649   2.908   0.817  0.00  0.00    -0.023 C 
ENDBRANCH  13  16
ENDBRANCH  12  13
ENDBRANCH   9  12
ENDBRANCH   8   9
ENDBRANCH   7   8
ENDBRANCH   1   7
BRANCH   2  19
ATOM     19  C   UNL     1       1.254  -2.428   0.839  0.00  0.00    +0.169 C 
BRANCH  19  20
ATOM     20  O   UNL     1       1.961  -1.314   0.306  0.00  0.00    -0.345 OA
BRANCH  20  21
ATOM     21  C   UNL     1       3.367  -1.501   0.394  0.00  0.00    +0.193 C 
BRANCH  21  22
ATOM     22  C   UNL     1       4.065  -0.289  -0.210  0.00  0.00    +0.276 C 
BRANCH  22  23
ATOM     23  O   UNL     1       5.475  -0.477  -0.072  0.00  0.00    -0.333 OA
BRANCH  23  26
ATOM     24  O   UNL     1       5.175  -1.758  -1.845  0.00  0.00    -0.090 OA
ATOM     25  O   UNL     1       7.237  -1.561  -1.018  0.00  0.00    -0.090 OA
ATOM     26  N   UNL     1       6.025  -1.338  -1.058  0.00  0.00    +0.218 N 
ENDBRANCH  23  26
ENDBRANCH  22  23
BRANCH  22  27
ATOM     27  C   UNL     1       3.671   0.997   0.508  0.00  0.00    +0.292 C 
BRANCH  27  28
ATOM     28  O   UNL     1       4.345   2.104  -0.079  0.00  0.00    -0.332 OA
BRANCH  28  31
ATOM     29  O   UNL     1       3.232   3.233   1.464  0.00  0.00    -0.090 OA
ATOM     30  O   UNL     1       4.574   4.361   0.086  0.00  0.00    -0.090 OA
ATOM     31  N   UNL     1       4.032   3.348   0.535  0.00  0.00    +0.218 N 
ENDBRANCH  28  31
ENDBRANCH  27  28
ENDBRANCH  22  27
ENDBRANCH  21  22
ENDBRANCH  20  21
ENDBRANCH  19  20
ENDBRANCH   2  19
TORSDOF 16
