REMARK  Name = 10479002
REMARK  6 active torsions:
REMARK  status: ('A' for Active; 'I' for Inactive)
REMARK    1  A    between atoms: N_1  and  C_13
REMARK    2  A    between atoms: C_11  and  N_20
REMARK    3  A    between atoms: C_12  and  O_24
REMARK    4  A    between atoms: C_14  and  C_17
REMARK    5  A    between atoms: N_26  and  C_28
REMARK    6  A    between atoms: C_28  and  C_31
REMARK                            x       y       z     vdW  Elec       q    Type
REMARK                         _______ _______ _______ _____ _____    ______ ____
ROOT
ATOM      1  N   UNL     1      -1.859   0.638   0.436  0.00  0.00    -0.247 N 
ATOM      2  N   UNL     1      -0.065  -0.635   0.063  0.00  0.00    -0.242 NA
ATOM      3  N   UNL     1      -0.775   2.776   0.831  0.00  0.00    -0.228 NA
ATOM      4  N   UNL     1       1.651   2.588   0.653  0.00  0.00    -0.228 NA
ATOM      5  C   UNL     1      -0.776   1.464   0.551  0.00  0.00    +0.152 C 
ATOM      6  C   UNL     1      -1.379  -0.612   0.142  0.00  0.00    +0.223 C 
ATOM      7  C   UNL     1       0.325   0.656   0.316  0.00  0.00    +0.140 C 
ATOM      8  C   UNL     1       1.575   1.264   0.375  0.00  0.00    +0.146 C 
ATOM      9  C   UNL     1       0.489   3.252   0.862  0.00  0.00    +0.253 C 
ATOM     10  N   UNL     1       2.747   0.521   0.148  0.00  0.00    -0.313 N 
ATOM     11  H   UNL     1       2.662  -0.439  -0.054  0.00  0.00    +0.149 HD
ENDROOT
BRANCH   1  15
ATOM     12  O   UNL     1      -3.995  -0.092   1.178  0.00  0.00    -0.331 OA
ATOM     13  C   UNL     1      -4.754   0.118  -1.048  0.00  0.00    +0.003 C 
ATOM     14  C   UNL     1      -3.959   1.373  -0.719  0.00  0.00    +0.140 C 
ATOM     15  C   UNL     1      -3.267   1.006   0.594  0.00  0.00    +0.220 C 
ATOM     16  C   UNL     1      -5.109  -0.411   0.332  0.00  0.00    +0.175 C 
BRANCH  16  19
ATOM     17  O   UNL     1      -4.456  -2.603   0.998  0.00  0.00    -0.273 OA
ATOM     18  N   UNL     1      -6.330  -2.345  -0.359  0.00  0.00    -0.301 N 
ATOM     19  C   UNL     1      -5.248  -1.897   0.379  0.00  0.00    +0.248 C 
ATOM     20  C   UNL     1      -6.670  -3.743  -0.494  0.00  0.00    +0.111 C 
ATOM     21  H   UNL     1      -6.895  -1.680  -0.814  0.00  0.00    +0.150 HD
ENDBRANCH  16  19
BRANCH  13  22
ATOM     22  N   UNL     1      -5.920   0.352  -1.885  0.00  0.00    +0.385 N 
ATOM     23  H   UNL     1      -5.620   0.705  -2.794  0.00  0.00    -0.089 HD
ATOM     24  H   UNL     1      -6.527   1.039  -1.437  0.00  0.00    -0.089 HD
ATOM     25  H   UNL     1      -6.430  -0.522  -2.010  0.00  0.00    -0.089 HD
ENDBRANCH  13  22
BRANCH  14  26
ATOM     26  O   UNL     1      -4.815   2.492  -0.484  0.00  0.00    -0.382 OA
ATOM     27  H   UNL     1      -5.261   2.736  -1.310  0.00  0.00    +0.210 HD
ENDBRANCH  14  26
ENDBRANCH   1  15
BRANCH  10  28
ATOM     28  C   UNL     1       4.058   1.095   0.196  0.00  0.00    +0.116 C 
BRANCH  28  31
ATOM     29 CL   UNL     1       4.877   0.736  -2.754  0.00  0.00    -0.083 Cl
ATOM     30 CL   UNL     1       7.269  -2.563   1.967  0.00  0.00    -0.082 Cl
ATOM     31  C   UNL     1       5.100   0.059  -0.124  0.00  0.00    +0.009 C 
ATOM     32  C   UNL     1       5.523  -0.162  -1.429  0.00  0.00    +0.055 C 
ATOM     33  C   UNL     1       5.633  -0.677   0.928  0.00  0.00    +0.010 C 
ATOM     34  C   UNL     1       6.603  -1.646   0.671  0.00  0.00    +0.057 C 
ATOM     35  C   UNL     1       6.492  -1.131  -1.687  0.00  0.00    +0.012 C 
ATOM     36  C   UNL     1       7.032  -1.873  -0.636  0.00  0.00    +0.012 C 
ENDBRANCH  28  31
ENDBRANCH  10  28
TORSDOF 6
