REMARK  Name = 10475714
REMARK  4 active torsions:
REMARK  status: ('A' for Active; 'I' for Inactive)
REMARK    1  A    between atoms: C_7  and  O_25
REMARK    2  A    between atoms: C_11  and  O_27
REMARK    3  A    between atoms: C_14  and  O_29
REMARK    4  A    between atoms: C_17  and  O_31
REMARK                            x       y       z     vdW  Elec       q    Type
REMARK                         _______ _______ _______ _____ _____    ______ ____
ROOT
ATOM      1  O   UNL     1      -2.549  -1.222   1.662  0.00  0.00    -0.354 OA
ATOM      2  O   UNL     1      -0.643   2.575  -0.345  0.00  0.00    -0.452 OA
ATOM      3  O   UNL     1      -1.733   3.232  -2.199  0.00  0.00    -0.250 OA
ATOM      4  O   UNL     1       4.699  -1.670  -1.060  0.00  0.00    -0.289 OA
ATOM      5  C   UNL     1      -1.033   0.362   0.714  0.00  0.00    +0.092 C 
ATOM      6  C   UNL     1      -0.074  -0.550  -0.162  0.00  0.00    +0.040 C 
ATOM      7  C   UNL     1      -2.425   0.486   0.076  0.00  0.00    +0.129 C 
ATOM      8  C   UNL     1       1.476  -0.458   0.227  0.00  0.00    +0.038 C 
ATOM      9  C   UNL     1      -2.926  -0.948   0.281  0.00  0.00    +0.142 C 
ATOM     10  C   UNL     1      -0.486   1.780   0.877  0.00  0.00    +0.174 C 
ATOM     11  C   UNL     1      -0.666  -1.973  -0.408  0.00  0.00    +0.140 C 
ATOM     12  C   UNL     1      -1.456  -0.334   2.018  0.00  0.00    +0.148 C 
ATOM     13  C   UNL     1       1.863   1.069   0.223  0.00  0.00    +0.025 C 
ATOM     14  C   UNL     1      -2.197  -1.993  -0.594  0.00  0.00    +0.164 C 
ATOM     15  C   UNL     1       0.999   1.849   1.235  0.00  0.00    +0.048 C 
ATOM     16  C   UNL     1      -2.376   1.116  -1.302  0.00  0.00    +0.139 C 
ATOM     17  C   UNL     1       2.352  -1.139  -0.870  0.00  0.00    +0.172 C 
ATOM     18  C   UNL     1       1.824  -1.095   1.601  0.00  0.00    +0.003 C 
ATOM     19  C   UNL     1      -4.446  -1.098   0.168  0.00  0.00    +0.035 C 
ATOM     20  C   UNL     1       3.365   1.311   0.343  0.00  0.00    -0.041 C 
ATOM     21  C   UNL     1      -1.583   2.402  -1.304  0.00  0.00    +0.319 C 
ATOM     22  C   UNL     1       3.839  -0.869  -0.693  0.00  0.00    +0.199 C 
ATOM     23  C   UNL     1       4.264   0.413  -0.088  0.00  0.00    +0.031 C 
ATOM     24  C   UNL     1       3.846   2.629   0.886  0.00  0.00    +0.026 C 
ENDROOT
BRANCH   7  25
ATOM     25  O   UNL     1      -3.287   1.333   0.874  0.00  0.00    -0.384 OA
ATOM     26  H   UNL     1      -3.354   0.973   1.772  0.00  0.00    +0.210 HD
ENDBRANCH   7  25
BRANCH  11  27
ATOM     27  O   UNL     1      -0.358  -2.840   0.680  0.00  0.00    -0.382 OA
ATOM     28  H   UNL     1       0.601  -2.850   0.823  0.00  0.00    +0.210 HD
ENDBRANCH  11  27
BRANCH  14  29
ATOM     29  O   UNL     1      -2.491  -1.819  -1.976  0.00  0.00    -0.380 OA
ATOM     30  H   UNL     1      -3.453  -1.830  -2.106  0.00  0.00    +0.211 HD
ENDBRANCH  14  29
BRANCH  17  31
ATOM     31  O   UNL     1       2.203  -2.551  -0.862  0.00  0.00    -0.377 OA
ATOM     32  H   UNL     1       1.266  -2.778  -0.972  0.00  0.00    +0.211 HD
ENDBRANCH  17  31
TORSDOF 4
