REMARK  Name = 10472991
REMARK  8 active torsions:
REMARK  status: ('A' for Active; 'I' for Inactive)
REMARK    1  A    between atoms: C_3  and  N_9
REMARK    2  A    between atoms: C_4  and  O_13
REMARK    3  A    between atoms: C_6  and  C_21
REMARK    4  A    between atoms: C_7  and  O_17
REMARK    5  A    between atoms: O_13  and  C_15
REMARK    6  A    between atoms: O_17  and  C_19
REMARK    7  A    between atoms: C_21  and  O_22
REMARK    8  A    between atoms: O_22  and  C_24
REMARK                            x       y       z     vdW  Elec       q    Type
REMARK                         _______ _______ _______ _____ _____    ______ ____
ROOT
ATOM      1  F   UNL     1      -1.618   2.568  -0.009  0.00  0.00    -0.231 F 
ATOM      2  O   UNL     1       0.339  -0.922   0.692  0.00  0.00    -0.314 OA
ATOM      3  C   UNL     1      -1.760   0.270   0.451  0.00  0.00    +0.179 C 
ATOM      4  C   UNL     1       0.423   1.422   0.006  0.00  0.00    +0.234 C 
ATOM      5  C   UNL     1      -1.061   1.368  -0.344  0.00  0.00    +0.227 C 
ATOM      6  C   UNL     1       1.063   0.033  -0.090  0.00  0.00    +0.205 C 
ATOM      7  C   UNL     1      -1.028  -1.066   0.292  0.00  0.00    +0.311 C 
ENDROOT
BRANCH   3   9
ATOM      8  O   UNL     1      -3.994  -0.462   2.155  0.00  0.00    -0.275 OA
ATOM      9  N   UNL     1      -3.150   0.162   0.077  0.00  0.00    -0.298 N 
ATOM     10  C   UNL     1      -4.151  -0.196   0.966  0.00  0.00    +0.223 C 
ATOM     11  C   UNL     1      -5.511  -0.208   0.322  0.00  0.00    +0.095 C 
ATOM     12  H   UNL     1      -3.399   0.353  -0.856  0.00  0.00    +0.150 HD
ENDBRANCH   3   9
BRANCH   4  13
ATOM     13  O   UNL     1       1.084   2.307  -0.892  0.00  0.00    -0.447 OA
BRANCH  13  15
ATOM     14  O   UNL     1       0.625   4.091   0.502  0.00  0.00    -0.250 OA
ATOM     15  C   UNL     1       1.110   3.621  -0.518  0.00  0.00    +0.318 C 
ATOM     16  C   UNL     1       1.833   4.429  -1.552  0.00  0.00    +0.121 C 
ENDBRANCH  13  15
ENDBRANCH   4  13
BRANCH   7  17
ATOM     17  O   UNL     1      -1.144  -1.542  -1.047  0.00  0.00    -0.422 OA
BRANCH  17  19
ATOM     18  O   UNL     1      -0.664  -3.688  -0.340  0.00  0.00    -0.250 OA
ATOM     19  C   UNL     1      -0.936  -2.881  -1.218  0.00  0.00    +0.319 C 
ATOM     20  C   UNL     1      -1.090  -3.235  -2.666  0.00  0.00    +0.121 C 
ENDBRANCH  17  19
ENDBRANCH   7  17
BRANCH   6  21
ATOM     21  C   UNL     1       2.501   0.044   0.420  0.00  0.00    +0.242 C 
BRANCH  21  22
ATOM     22  O   UNL     1       3.027  -1.267   0.313  0.00  0.00    -0.446 OA
BRANCH  22  24
ATOM     23  O   UNL     1       5.044  -0.555   1.185  0.00  0.00    -0.250 OA
ATOM     24  C   UNL     1       4.320  -1.432   0.733  0.00  0.00    +0.318 C 
ATOM     25  C   UNL     1       4.739  -2.861   0.563  0.00  0.00    +0.121 C 
ENDBRANCH  22  24
ENDBRANCH  21  22
ENDBRANCH   6  21
TORSDOF 8
