REMARK  Name = 10472401
REMARK  3 active torsions:
REMARK  status: ('A' for Active; 'I' for Inactive)
REMARK    1  A    between atoms: C_4  and  O_23
REMARK    2  A    between atoms: C_5  and  O_25
REMARK    3  A    between atoms: C_20  and  O_27
REMARK                            x       y       z     vdW  Elec       q    Type
REMARK                         _______ _______ _______ _____ _____    ______ ____
ROOT
ATOM      1  O   UNL     1      -2.591   2.315   1.208  0.00  0.00    -0.293 OA
ATOM      2  O   UNL     1       0.271   2.211   1.017  0.00  0.00    -0.287 OA
ATOM      3  O   UNL     1       2.236  -2.606  -0.086  0.00  0.00    -0.286 OA
ATOM      4  C   UNL     1      -2.577  -1.071   0.206  0.00  0.00    +0.139 C 
ATOM      5  C   UNL     1      -1.725   0.072   0.849  0.00  0.00    +0.187 C 
ATOM      6  C   UNL     1      -2.840  -0.855  -1.304  0.00  0.00    +0.035 C 
ATOM      7  C   UNL     1      -3.445   0.524  -1.605  0.00  0.00    +0.010 C 
ATOM      8  C   UNL     1      -2.531   1.622  -1.074  0.00  0.00    +0.067 C 
ATOM      9  C   UNL     1      -2.320   1.419   0.407  0.00  0.00    +0.181 C 
ATOM     10  C   UNL     1      -0.230  -0.076   0.564  0.00  0.00    +0.053 C 
ATOM     11  C   UNL     1      -1.884  -2.403   0.365  0.00  0.00    +0.003 C 
ATOM     12  C   UNL     1       0.294  -1.298   0.334  0.00  0.00    +0.041 C 
ATOM     13  C   UNL     1      -3.674   0.697  -3.106  0.00  0.00    +0.001 C 
ATOM     14  C   UNL     1      -0.547  -2.483   0.418  0.00  0.00    +0.001 C 
ATOM     15  C   UNL     1       0.661   1.121   0.615  0.00  0.00    +0.195 C 
ATOM     16  C   UNL     1       1.746  -1.490   0.051  0.00  0.00    +0.198 C 
ATOM     17  C   UNL     1       2.062   0.970   0.184  0.00  0.00    +0.045 C 
ATOM     18  C   UNL     1       2.586  -0.291  -0.085  0.00  0.00    +0.076 C 
ATOM     19  C   UNL     1       2.874   2.104   0.060  0.00  0.00    +0.003 C 
ATOM     20  C   UNL     1       3.924  -0.423  -0.478  0.00  0.00    +0.137 C 
ATOM     21  C   UNL     1       4.206   1.971  -0.335  0.00  0.00    +0.003 C 
ATOM     22  C   UNL     1       4.730   0.709  -0.603  0.00  0.00    +0.037 C 
ENDROOT
BRANCH   4  23
ATOM     23  O   UNL     1      -3.837  -1.129   0.886  0.00  0.00    -0.380 OA
ATOM     24  H   UNL     1      -4.294  -0.279   0.793  0.00  0.00    +0.211 HD
ENDBRANCH   4  23
BRANCH   5  25
ATOM     25  O   UNL     1      -1.886   0.017   2.273  0.00  0.00    -0.373 OA
ATOM     26  H   UNL     1      -2.825   0.108   2.496  0.00  0.00    +0.211 HD
ENDBRANCH   5  25
BRANCH  20  27
ATOM     27  O   UNL     1       4.496  -1.628  -0.762  0.00  0.00    -0.505 OA
ATOM     28  H   UNL     1       3.992  -2.414  -0.692  0.00  0.00    +0.292 HD
ENDBRANCH  20  27
TORSDOF 3
