REMARK  Name = 10476217
REMARK  11 active torsions:
REMARK  status: ('A' for Active; 'I' for Inactive)
REMARK    1  A    between atoms: C_3  and  O_15
REMARK    2  A    between atoms: C_4  and  O_17
REMARK    3  A    between atoms: C_6  and  O_19
REMARK    4  A    between atoms: C_7  and  O_21
REMARK    5  A    between atoms: O_21  and  C_23
REMARK    6  A    between atoms: C_23  and  C_24
REMARK    7  A    between atoms: C_25  and  C_26
REMARK    8  A    between atoms: C_26  and  O_27
REMARK    9  A    between atoms: C_26  and  C_29
REMARK   10  A    between atoms: C_29  and  C_30
REMARK   11  A    between atoms: C_30  and  C_31
REMARK                            x       y       z     vdW  Elec       q    Type
REMARK                         _______ _______ _______ _____ _____    ______ ____
ROOT
ATOM      1  O   UNL     1       2.989   1.709  -0.203  0.00  0.00    -0.448 OA
ATOM      2  O   UNL     1       3.319   1.827   2.072  0.00  0.00    -0.250 OA
ATOM      3  C   UNL     1       4.055  -1.663  -0.175  0.00  0.00    +0.138 C 
ATOM      4  C   UNL     1       2.754  -1.095  -0.818  0.00  0.00    +0.141 C 
ATOM      5  C   UNL     1       1.563  -0.737   0.126  0.00  0.00    +0.073 C 
ATOM      6  C   UNL     1       4.750  -0.791   0.921  0.00  0.00    +0.148 C 
ATOM      7  C   UNL     1       0.833   0.549  -0.391  0.00  0.00    +0.211 C 
ATOM      8  C   UNL     1       4.966   0.729   0.690  0.00  0.00    +0.128 C 
ATOM      9  C   UNL     1       1.567   1.879  -0.076  0.00  0.00    +0.209 C 
ATOM     10  C   UNL     1       3.857  -3.099   0.347  0.00  0.00    +0.034 C 
ATOM     11  C   UNL     1       0.562  -1.898   0.274  0.00  0.00    +0.006 C 
ATOM     12  C   UNL     1       3.692   1.519   0.946  0.00  0.00    +0.319 C 
ATOM     13  C   UNL     1       5.656   1.091  -0.621  0.00  0.00    +0.014 C 
ATOM     14  C   UNL     1       1.159   2.988  -1.043  0.00  0.00    +0.051 C 
ENDROOT
BRANCH   3  15
ATOM     15  O   UNL     1       4.989  -1.775  -1.273  0.00  0.00    -0.382 OA
ATOM     16  H   UNL     1       5.155  -0.896  -1.647  0.00  0.00    +0.210 HD
ENDBRANCH   3  15
BRANCH   4  17
ATOM     17  O   UNL     1       2.280  -2.009  -1.823  0.00  0.00    -0.382 OA
ATOM     18  H   UNL     1       3.010  -2.242  -2.418  0.00  0.00    +0.210 HD
ENDBRANCH   4  17
BRANCH   6  19
ATOM     19  O   UNL     1       4.106  -0.989   2.184  0.00  0.00    -0.381 OA
ATOM     20  H   UNL     1       3.969  -1.937   2.332  0.00  0.00    +0.210 HD
ENDBRANCH   6  19
BRANCH   7  21
ATOM     21  O   UNL     1      -0.471   0.635   0.193  0.00  0.00    -0.445 OA
BRANCH  21  23
ATOM     22  O   UNL     1      -1.441   0.457  -1.897  0.00  0.00    -0.245 OA
ATOM     23  C   UNL     1      -1.510   0.575  -0.684  0.00  0.00    +0.341 C 
BRANCH  23  24
ATOM     24  C   UNL     1      -2.762   0.680   0.097  0.00  0.00    +0.080 C 
ATOM     25  C   UNL     1      -3.946   0.649  -0.530  0.00  0.00    +0.009 C 
BRANCH  25  26
ATOM     26  C   UNL     1      -5.262   0.749   0.190  0.00  0.00    +0.133 C 
BRANCH  26  27
ATOM     27  O   UNL     1      -5.926   1.935  -0.243  0.00  0.00    -0.380 OA
ATOM     28  H   UNL     1      -5.363   2.705  -0.064  0.00  0.00    +0.211 HD
ENDBRANCH  26  27
BRANCH  26  29
ATOM     29  C   UNL     1      -6.142  -0.477  -0.087  0.00  0.00    +0.034 C 
BRANCH  29  30
ATOM     30  C   UNL     1      -7.505  -0.376   0.605  0.00  0.00    +0.003 C 
BRANCH  30  31
ATOM     31  C   UNL     1      -8.383  -1.585   0.280  0.00  0.00    +0.000 C 
ATOM     32  C   UNL     1      -9.748  -1.476   0.940  0.00  0.00    +0.000 C 
ENDBRANCH  30  31
ENDBRANCH  29  30
ENDBRANCH  26  29
ENDBRANCH  25  26
ENDBRANCH  23  24
ENDBRANCH  21  23
ENDBRANCH   7  21
TORSDOF 11
