REMARK  Name = 104858
REMARK  14 active torsions:
REMARK  status: ('A' for Active; 'I' for Inactive)
REMARK    1  A    between atoms: N_2  and  CA_5
REMARK    2  A    between atoms: C_3  and  C_19
REMARK    3  A    between atoms: CA_5  and  C_8
REMARK    4  A    between atoms: CA_5  and  CB_15
REMARK    5  A    between atoms: N_7  and  CA_10
REMARK    6  A    between atoms: CA_10  and  C_12
REMARK    7  A    between atoms: C_12  and  O_13
REMARK    8  A    between atoms: CB_15  and  SG_16
REMARK    9  A    between atoms: SG_16  and  N_18
REMARK   10  A    between atoms: C_19  and  C_20
REMARK   11  A    between atoms: C_20  and  CA_21
REMARK   12  A    between atoms: CA_21  and  N_22
REMARK   13  A    between atoms: CA_21  and  C_27
REMARK   14  A    between atoms: C_27  and  O_28
REMARK                            x       y       z     vdW  Elec       q    Type
REMARK                         _______ _______ _______ _____ _____    ______ ____
ROOT
ATOM      1  O   UNL     1      -1.524  -0.550  -2.180  0.00  0.00    -0.275 OA
ATOM      2  N   UNL     1      -0.212  -0.482  -0.264  0.00  0.00    -0.298 N 
ATOM      3  C   UNL     1      -1.411  -0.557  -0.957  0.00  0.00    +0.223 C 
ATOM      4  H   UNL     1      -0.235  -0.495   0.720  0.00  0.00    +0.150 HD
ENDROOT
BRANCH   2   5
ATOM      5  CA  UNL     1       1.069  -0.385  -0.925  0.00  0.00    +0.161 C 
BRANCH   5   8
ATOM      6  O   UNL     1       1.862  -1.641   0.995  0.00  0.00    -0.273 OA
ATOM      7  N   UNL     1       3.344  -1.193  -0.734  0.00  0.00    -0.294 N 
ATOM      8  C   ACE A   1       2.107  -1.148  -0.105  0.00  0.00    +0.242 C 
ATOM      9  H   UNL     1       3.440  -0.767  -1.616  0.00  0.00    +0.150 HD
BRANCH   7  10
ATOM     10  CA  UNL     1       4.494  -1.838  -0.145  0.00  0.00    +0.200 C 
BRANCH  10  12
ATOM     11  OXT UNL     1       6.338  -1.254   1.289  0.00  0.00    -0.248 OA
ATOM     12  C   UNL     1       5.317  -0.906   0.708  0.00  0.00    +0.334 C 
BRANCH  12  13
ATOM     13  O   UNL     1       4.819   0.350   0.772  0.00  0.00    -0.479 OA
ATOM     14  H   UNL     1       4.034   0.567   0.309  0.00  0.00    +0.295 HD
ENDBRANCH  12  13
ENDBRANCH  10  12
ENDBRANCH   7  10
ENDBRANCH   5   8
BRANCH   5  15
ATOM     15  CB  UNL     1       1.469   1.065  -1.212  0.00  0.00    +0.107 C 
BRANCH  15  16
ATOM     16  SG  UNL     1       1.693   2.075   0.289  0.00  0.00    -0.014 S 
BRANCH  16  18
ATOM     17  O   UNL     1       2.331   4.416   0.075  0.00  0.00    -0.088 OA
ATOM     18  N   UNL     1       2.093   3.447  -0.652  0.00  0.00    +0.012 NA
ENDBRANCH  16  18
ENDBRANCH  15  16
ENDBRANCH   5  15
ENDBRANCH   2   5
BRANCH   3  19
ATOM     19  C   UNL     1      -2.598  -0.640  -0.012  0.00  0.00    +0.083 C 
BRANCH  19  20
ATOM     20  C   UNL     1      -3.932  -0.724  -0.756  0.00  0.00    -0.001 C 
BRANCH  20  21
ATOM     21  CA  UNL     1      -5.130  -0.882   0.186  0.00  0.00    +0.036 C 
BRANCH  21  22
ATOM     22  N   UNL     1      -6.365  -0.954  -0.600  0.00  0.00    +0.389 N 
ATOM     23  H1  UNL     1      -6.317  -1.749  -1.237  0.00  0.00    -0.088 HD
ATOM     24  H2  UNL     1      -6.476  -0.094  -1.137  0.00  0.00    -0.088 HD
ATOM     25  H3  UNL     1      -7.161  -1.069   0.028  0.00  0.00    -0.088 HD
ENDBRANCH  21  22
BRANCH  21  27
ATOM     26  OXT UNL     1      -5.870   1.348   0.833  0.00  0.00    -0.253 OA
ATOM     27  C   UNL     1      -5.270   0.316   1.107  0.00  0.00    +0.293 C 
BRANCH  27  28
ATOM     28  O   UNL     1      -4.623   0.136   2.288  0.00  0.00    -0.482 OA
ATOM     29  H   UNL     1      -4.176  -0.669   2.459  0.00  0.00    +0.295 HD
ENDBRANCH  27  28
ENDBRANCH  21  27
ENDBRANCH  20  21
ENDBRANCH  19  20
ENDBRANCH   3  19
TORSDOF 14
