104817
  -OEChem-03292013323D

 25 25  0     0  0  0  0  0  0999 V2000
   -3.5317   -0.0590    0.2209 P   0  0  0  0  0  0  0  0  0  0  0  0
   -1.8912   -0.1744    0.3569 O   0  0  0  0  0  0  0  0  0  0  0  0
    3.2635    1.7531    0.3323 O   0  0  0  0  0  0  0  0  0  0  0  0
   -4.0114   -0.1017    1.6687 O   0  5  0  0  0  0  0  0  0  0  0  0
   -3.9400   -1.2764   -0.6035 O   0  5  0  0  0  0  0  0  0  0  0  0
   -3.7711    1.2792   -0.4721 O   0  0  0  0  0  0  0  0  0  0  0  0
    2.2269   -1.7233   -0.0502 N   0  0  0  0  0  0  0  0  0  0  0  0
    0.3350   -0.2789   -0.4735 C   0  0  0  0  0  0  0  0  0  0  0  0
    1.1264    0.8395   -0.2363 C   0  0  0  0  0  0  0  0  0  0  0  0
    2.4674    0.6780    0.0938 C   0  0  0  0  0  0  0  0  0  0  0  0
   -1.1066   -0.1653   -0.8303 C   0  0  0  0  0  0  0  0  0  0  0  0
    2.9648   -0.6128    0.1734 C   0  0  0  0  0  0  0  0  0  0  0  0
    0.9278   -1.5269   -0.3686 C   0  0  0  0  0  0  0  0  0  0  0  0
    0.5416    2.2117   -0.3349 C   0  0  0  0  0  0  0  0  0  0  0  0
    4.3986   -0.8428    0.5234 C   0  0  0  0  0  0  0  0  0  0  0  0
   -1.3192    0.7360   -1.4134 H   0  0  0  0  0  0  0  0  0  0  0  0
   -1.4049   -1.0139   -1.4572 H   0  0  0  0  0  0  0  0  0  0  0  0
    0.3630   -2.4383   -0.5395 H   0  0  0  0  0  0  0  0  0  0  0  0
    1.2027    2.9839    0.0713 H   0  0  0  0  0  0  0  0  0  0  0  0
    0.3458    2.4654   -1.3819 H   0  0  0  0  0  0  0  0  0  0  0  0
   -0.3906    2.2820    0.2359 H   0  0  0  0  0  0  0  0  0  0  0  0
    4.6247   -0.4441    1.5176 H   0  0  0  0  0  0  0  0  0  0  0  0
    4.6255   -1.9146    0.5420 H   0  0  0  0  0  0  0  0  0  0  0  0
    5.0585   -0.3823   -0.2188 H   0  0  0  0  0  0  0  0  0  0  0  0
    4.1683    1.4810    0.5499 H   0  0  0  0  0  0  0  0  0  0  0  0
  1  2  1  0  0  0  0
  1  4  1  0  0  0  0
  1  5  1  0  0  0  0
  1  6  2  0  0  0  0
  2 11  1  0  0  0  0
  3 10  1  0  0  0  0
  3 25  1  0  0  0  0
  7 12  2  0  0  0  0
  7 13  1  0  0  0  0
  8  9  1  0  0  0  0
  8 11  1  0  0  0  0
  8 13  2  0  0  0  0
  9 10  2  0  0  0  0
  9 14  1  0  0  0  0
 10 12  1  0  0  0  0
 11 16  1  0  0  0  0
 11 17  1  0  0  0  0
 12 15  1  0  0  0  0
 13 18  1  0  0  0  0
 14 19  1  0  0  0  0
 14 20  1  0  0  0  0
 14 21  1  0  0  0  0
 15 22  1  0  0  0  0
 15 23  1  0  0  0  0
 15 24  1  0  0  0  0
M  CHG  2   4  -1   5  -1
M  END
> <PUBCHEM_COMPOUND_CID>
104817

> <PUBCHEM_CONFORMER_RMSD>
0.6

> <PUBCHEM_CONFORMER_DIVERSEORDER>
3
5
4
2
6
1

> <PUBCHEM_MMFF94_PARTIAL_CHARGES>
17
1 1.37
10 0.08
11 0.42
12 0.17
13 0.16
14 0.14
15 0.14
18 0.15
2 -0.55
25 0.45
3 -0.53
4 -1.03
5 -1.03
6 -1.03
7 -0.62
8 -0.14
9 -0.14

> <PUBCHEM_EFFECTIVE_ROTOR_COUNT>
3

> <PUBCHEM_PHARMACOPHORE_FEATURES>
7
1 3 donor
1 4 acceptor
1 5 acceptor
1 6 acceptor
1 7 acceptor
4 1 4 5 6 anion
6 7 8 9 10 12 13 rings

> <PUBCHEM_HEAVY_ATOM_COUNT>
15

> <PUBCHEM_ATOM_DEF_STEREO_COUNT>
0

> <PUBCHEM_ATOM_UDEF_STEREO_COUNT>
0

> <PUBCHEM_BOND_DEF_STEREO_COUNT>
0

> <PUBCHEM_BOND_UDEF_STEREO_COUNT>
0

> <PUBCHEM_ISOTOPIC_ATOM_COUNT>
0

> <PUBCHEM_COMPONENT_COUNT>
1

> <PUBCHEM_CACTVS_TAUTO_COUNT>
3

> <PUBCHEM_CONFORMER_ID>
0001997100000003

> <PUBCHEM_MMFF94_ENERGY>
41.1867

> <PUBCHEM_FEATURE_SELFOVERLAP>
35.563

> <PUBCHEM_SHAPE_FINGERPRINT>
10219947 1 18410292527497060540
10980938 120 18411701019109086092
11132069 177 18272362058036453406
11471102 20 18410287017275630964
11471102 22 18409175389286708530
11796584 16 16370997452274204474
12032990 46 18336828602532389102
12251169 10 18342175552963036511
124424 183 18113894932062021309
12932764 1 18339374015058463255
13296908 3 17967536765950806027
13922767 16 18341889667133878208
14144814 61 18412825806830421559
14251717 144 18410849988456235231
14252887 29 18341054017170461890
15219456 202 18333726909999830997
15501101 241 18334574650734347428
16945 1 18340189814211032310
17844478 74 18040712545860156228
18186145 218 18130796658820930495
19050596 39 18272375286799482347
200 152 18201145633949946575
20279233 1 18113058225288483279
20645477 70 18338227185491508031
20871998 22 18197784306365448870
23402539 116 18338224990562590494
2748010 2 17838040517375237726
5104073 3 18411699911202696771
77492 1 17703784838458530823

> <PUBCHEM_SHAPE_MULTIPOLES>
278.21
7.93
1.8
0.89
4.52
0.58
-0.2
-1.12
-1.98
-0.89
0.19
0.68
-0.06
0

> <PUBCHEM_SHAPE_SELFOVERLAP>
561.274

> <PUBCHEM_SHAPE_VOLUME>
166

> <PUBCHEM_COORDINATE_TYPE>
2
5
10

$$$$
