REMARK  Name = 10480302
REMARK  8 active torsions:
REMARK  status: ('A' for Active; 'I' for Inactive)
REMARK    1  A    between atoms: CA_5  and  C_34
REMARK    2  A    between atoms: CA_9  and  N_18
REMARK    3  A    between atoms: C_19  and  C_21
REMARK    4  A    between atoms: C_21  and  S_22
REMARK    5  A    between atoms: C_21  and  C_26
REMARK    6  A    between atoms: S_22  and  C_24
REMARK    7  A    between atoms: C_26  and  C_27
REMARK    8  A    between atoms: C_34  and  O_35
REMARK                            x       y       z     vdW  Elec       q    Type
REMARK                         _______ _______ _______ _____ _____    ______ ____
ROOT
ATOM      1  O   UNL     1      -0.538   1.639   1.700  0.00  0.00    -0.273 OA
ATOM      2  N   UNL     1      -2.286   1.137   0.248  0.00  0.00    -0.268 N 
ATOM      3  C   UNL     1      -2.718   0.595  -1.063  0.00  0.00    +0.098 C 
ATOM      4  C   UNL     1      -3.964   1.334  -1.597  0.00  0.00    +0.024 C 
ATOM      5  CA  UNL     1      -3.303   1.495   1.246  0.00  0.00    +0.175 C 
ATOM      6  C   UNL     1      -5.074   1.488  -0.567  0.00  0.00    +0.004 C 
ATOM      7  C   UNL     1      -4.536   2.184   0.674  0.00  0.00    +0.031 C 
ATOM      8  C   UNL     1      -2.713  -0.930  -1.055  0.00  0.00    -0.008 C 
ATOM      9  CA  UNL     1       0.013   0.445  -0.320  0.00  0.00    +0.153 C 
ATOM     10  C   UNL     1      -0.937   1.157   0.638  0.00  0.00    +0.244 C 
ATOM     11  C   UNL     1      -0.215  -1.067  -0.280  0.00  0.00    +0.055 C 
ATOM     12  C   UNL     1      -1.546  -1.657  -0.715  0.00  0.00    -0.022 C 
ATOM     13  C   UNL     1      -3.864  -1.657  -1.422  0.00  0.00    -0.003 C 
ATOM     14  C   UNL     1      -1.589  -3.070  -0.737  0.00  0.00    -0.004 C 
ATOM     15  C   UNL     1      -3.880  -3.053  -1.440  0.00  0.00    -0.000 C 
ATOM     16  C   UNL     1      -2.742  -3.761  -1.096  0.00  0.00    -0.000 C 
ENDROOT
BRANCH   9  18
ATOM     17  O   UNL     1       2.317   0.697  -2.013  0.00  0.00    -0.274 OA
ATOM     18  N   UNL     1       1.360   0.763   0.099  0.00  0.00    -0.297 N 
ATOM     19  C   UNL     1       2.412   0.863  -0.798  0.00  0.00    +0.233 C 
ATOM     20  H   UNL     1       1.536   0.913   1.055  0.00  0.00    +0.150 HD
BRANCH  19  21
ATOM     21  C   UNL     1       3.738   1.180  -0.113  0.00  0.00    +0.135 C 
BRANCH  21  22
ATOM     22  S   UNL     1       4.287   2.802  -0.754  0.00  0.00    -0.068 S 
BRANCH  22  24
ATOM     23  O   UNL     1       2.250   3.574   0.749  0.00  0.00    -0.284 OA
ATOM     24  C   UNL     1       2.930   3.799  -0.245  0.00  0.00    +0.200 C 
ATOM     25  C   UNL     1       2.682   4.965  -1.160  0.00  0.00    +0.085 C 
ENDBRANCH  22  24
ENDBRANCH  21  22
BRANCH  21  26
ATOM     26  C   UNL     1       4.811   0.122  -0.406  0.00  0.00    +0.047 C 
BRANCH  26  27
ATOM     27  C   UNL     1       4.437  -1.236   0.143  0.00  0.00    -0.021 C 
ATOM     28  C   UNL     1       4.820  -1.574   1.430  0.00  0.00    -0.004 C 
ATOM     29  C   UNL     1       3.720  -2.115  -0.651  0.00  0.00    -0.004 C 
ATOM     30  C   UNL     1       4.476  -2.827   1.938  0.00  0.00    -0.000 C 
ATOM     31  C   UNL     1       3.376  -3.367  -0.144  0.00  0.00    -0.000 C 
ATOM     32  C   UNL     1       3.754  -3.724   1.150  0.00  0.00    -0.000 C 
ENDBRANCH  26  27
ENDBRANCH  21  26
ENDBRANCH  19  21
ENDBRANCH   9  18
BRANCH   5  34
ATOM     33  OXT UNL     1      -2.913  -0.732   2.109  0.00  0.00    -0.248 OA
ATOM     34  C   UNL     1      -3.654   0.232   1.977  0.00  0.00    +0.332 C 
BRANCH  34  35
ATOM     35  O   UNL     1      -4.913   0.300   2.474  0.00  0.00    -0.479 OA
ATOM     36  H   UNL     1      -5.430   1.069   2.338  0.00  0.00    +0.295 HD
ENDBRANCH  34  35
ENDBRANCH   5  34
TORSDOF 8
