REMARK  Name = 104860
REMARK  4 active torsions:
REMARK  status: ('A' for Active; 'I' for Inactive)
REMARK    1  A    between atoms: C_3  and  O_23
REMARK    2  A    between atoms: C_7  and  O_25
REMARK    3  A    between atoms: C_19  and  O_27
REMARK    4  A    between atoms: C_20  and  O_29
REMARK                            x       y       z     vdW  Elec       q    Type
REMARK                         _______ _______ _______ _____ _____    ______ ____
ROOT
ATOM      1  O   UNL     1      -4.752  -0.980  -0.213  0.00  0.00    -0.291 OA
ATOM      2  O   UNL     1       4.852  -1.208  -0.404  0.00  0.00    -0.291 OA
ATOM      3  C   UNL     1       0.654  -1.132  -0.251  0.00  0.00    +0.113 C 
ATOM      4  C   UNL     1      -0.651  -1.024   0.601  0.00  0.00    +0.078 C 
ATOM      5  C   UNL     1       1.498   0.129  -0.027  0.00  0.00    +0.008 C 
ATOM      6  C   UNL     1      -1.390   0.255   0.216  0.00  0.00    -0.012 C 
ATOM      7  C   UNL     1      -1.569  -2.267   0.631  0.00  0.00    +0.125 C 
ATOM      8  C   UNL     1       1.479  -2.377   0.130  0.00  0.00    +0.040 C 
ATOM      9  C   UNL     1       0.845   1.371   0.207  0.00  0.00    -0.002 C 
ATOM     10  C   UNL     1      -0.634   1.448   0.126  0.00  0.00    -0.004 C 
ATOM     11  C   UNL     1      -2.713  -2.229  -0.367  0.00  0.00    +0.099 C 
ATOM     12  C   UNL     1       2.809  -2.419  -0.605  0.00  0.00    +0.072 C 
ATOM     13  C   UNL     1      -2.770   0.287  -0.045  0.00  0.00    +0.065 C 
ATOM     14  C   UNL     1       2.907   0.079  -0.038  0.00  0.00    +0.067 C 
ATOM     15  C   UNL     1      -3.526  -0.975  -0.181  0.00  0.00    +0.178 C 
ATOM     16  C   UNL     1       3.626  -1.185  -0.333  0.00  0.00    +0.176 C 
ATOM     17  C   UNL     1       1.637   2.501   0.485  0.00  0.00    +0.003 C 
ATOM     18  C   UNL     1      -1.319   2.652  -0.124  0.00  0.00    +0.003 C 
ATOM     19  C   UNL     1      -3.429   1.494  -0.280  0.00  0.00    +0.136 C 
ATOM     20  C   UNL     1       3.666   1.224   0.223  0.00  0.00    +0.136 C 
ATOM     21  C   UNL     1       3.030   2.427   0.495  0.00  0.00    +0.037 C 
ATOM     22  C   UNL     1      -2.703   2.677  -0.302  0.00  0.00    +0.037 C 
ENDROOT
BRANCH   3  23
ATOM     23  O   UNL     1       0.329  -1.205  -1.640  0.00  0.00    -0.382 OA
ATOM     24  H   UNL     1      -0.191  -0.426  -1.892  0.00  0.00    +0.211 HD
ENDBRANCH   3  23
BRANCH   7  25
ATOM     25  O   UNL     1      -2.133  -2.362   1.950  0.00  0.00    -0.384 OA
ATOM     26  H   UNL     1      -1.418  -2.388   2.606  0.00  0.00    +0.210 HD
ENDBRANCH   7  25
BRANCH  19  27
ATOM     27  O   UNL     1      -4.772   1.588  -0.483  0.00  0.00    -0.505 OA
ATOM     28  H   UNL     1      -5.302   0.815  -0.477  0.00  0.00    +0.292 HD
ENDBRANCH  19  27
BRANCH  20  29
ATOM     29  O   UNL     1       5.029   1.231   0.229  0.00  0.00    -0.505 OA
ATOM     30  H   UNL     1       5.502   0.442   0.051  0.00  0.00    +0.292 HD
ENDBRANCH  20  29
TORSDOF 4
