REMARK  Name = 104842
REMARK  4 active torsions:
REMARK  status: ('A' for Active; 'I' for Inactive)
REMARK    1  A    between atoms: C_8  and  O_24
REMARK    2  A    between atoms: C_8  and  C_28
REMARK    3  A    between atoms: C_15  and  C_30
REMARK    4  A    between atoms: C_22  and  O_26
REMARK                            x       y       z     vdW  Elec       q    Type
REMARK                         _______ _______ _______ _____ _____    ______ ____
ROOT
ATOM      1  O   UNL     1      -5.356  -0.835   0.394  0.00  0.00    -0.442 OA
ATOM      2  O   UNL     1      -2.012  -3.318  -0.357  0.00  0.00    -0.270 OA
ATOM      3  O   UNL     1      -6.000   1.123   1.282  0.00  0.00    -0.247 OA
ATOM      4  N   UNL     1      -0.569  -1.521  -0.177  0.00  0.00    -0.249 N 
ATOM      5  N   UNL     1       1.662   1.292   0.058  0.00  0.00    -0.405 NA
ATOM      6  C   UNL     1      -0.368  -0.156  -0.050  0.00  0.00    +0.084 C 
ATOM      7  C   UNL     1      -2.749   0.173   0.009  0.00  0.00    +0.017 C 
ATOM      8  C   UNL     1      -3.910   1.126   0.073  0.00  0.00    +0.196 C 
ATOM      9  C   UNL     1       0.719  -2.240  -0.259  0.00  0.00    +0.127 C 
ATOM     10  C   UNL     1       1.710  -1.126  -0.169  0.00  0.00    +0.025 C 
ATOM     11  C   UNL     1       1.066   0.097  -0.046  0.00  0.00    +0.142 C 
ATOM     12  C   UNL     1      -2.970  -1.147  -0.127  0.00  0.00    +0.074 C 
ATOM     13  C   UNL     1      -1.392   0.697   0.038  0.00  0.00    +0.016 C 
ATOM     14  C   UNL     1      -1.818  -2.111  -0.231  0.00  0.00    +0.252 C 
ATOM     15  C   UNL     1       3.084  -1.144  -0.188  0.00  0.00    -0.020 C 
ATOM     16  C   UNL     1      -4.356  -1.693  -0.197  0.00  0.00    +0.239 C 
ATOM     17  C   UNL     1      -5.165   0.480   0.650  0.00  0.00    +0.346 C 
ATOM     18  C   UNL     1       3.765   0.080  -0.082  0.00  0.00    +0.025 C 
ATOM     19  C   UNL     1       3.011   1.281   0.040  0.00  0.00    +0.113 C 
ATOM     20  C   UNL     1       5.168   0.128  -0.096  0.00  0.00    +0.038 C 
ATOM     21  C   UNL     1       3.707   2.481   0.143  0.00  0.00    +0.088 C 
ATOM     22  C   UNL     1       5.834   1.346   0.010  0.00  0.00    +0.130 C 
ATOM     23  C   UNL     1       5.104   2.522   0.130  0.00  0.00    +0.018 C 
ENDROOT
BRANCH   8  24
ATOM     24  O   UNL     1      -3.609   2.193   0.976  0.00  0.00    -0.373 OA
ATOM     25  H   UNL     1      -2.814   2.658   0.674  0.00  0.00    +0.211 HD
ENDBRANCH   8  24
BRANCH  22  26
ATOM     26  O   UNL     1       7.194   1.385  -0.004  0.00  0.00    -0.506 OA
ATOM     27  H   UNL     1       7.685   0.591  -0.084  0.00  0.00    +0.292 HD
ENDBRANCH  22  26
BRANCH   8  28
ATOM     28  C   UNL     1      -4.232   1.716  -1.302  0.00  0.00    +0.042 C 
ATOM     29  C   UNL     1      -5.382   2.700  -1.222  0.00  0.00    +0.003 C 
ENDBRANCH   8  28
BRANCH  15  30
ATOM     30  C   UNL     1       3.790  -2.453  -0.320  0.00  0.00    +0.026 C 
ATOM     31  C   UNL     1       4.072  -3.072   1.020  0.00  0.00    +0.005 C 
ENDBRANCH  15  30
TORSDOF 4
