REMARK  Name = 104817
REMARK  4 active torsions:
REMARK  status: ('A' for Active; 'I' for Inactive)
REMARK    1  A    between atoms: C_2  and  C_11
REMARK    2  A    between atoms: C_4  and  O_9
REMARK    3  A    between atoms: C_11  and  O_12
REMARK    4  A    between atoms: O_12  and  P_13
REMARK                            x       y       z     vdW  Elec       q    Type
REMARK                         _______ _______ _______ _____ _____    ______ ____
ROOT
ATOM      1  N   UNL     1       2.227  -1.723  -0.050  0.00  0.00    -0.245 NA
ATOM      2  C   UNL     1       0.335  -0.279  -0.473  0.00  0.00    +0.026 C 
ATOM      3  C   UNL     1       1.126   0.840  -0.236  0.00  0.00    +0.013 C 
ATOM      4  C   UNL     1       2.467   0.678   0.094  0.00  0.00    +0.143 C 
ATOM      5  C   UNL     1       2.965  -0.613   0.173  0.00  0.00    +0.093 C 
ATOM      6  C   UNL     1       0.928  -1.527  -0.369  0.00  0.00    +0.096 C 
ATOM      7  C   UNL     1       0.542   2.212  -0.335  0.00  0.00    +0.034 C 
ATOM      8  C   UNL     1       4.399  -0.843   0.523  0.00  0.00    +0.055 C 
ENDROOT
BRANCH   4   9
ATOM      9  O   UNL     1       3.264   1.753   0.332  0.00  0.00    -0.505 OA
ATOM     10  H   UNL     1       2.911   2.619   0.274  0.00  0.00    +0.292 HD
ENDBRANCH   4   9
BRANCH   2  11
ATOM     11  C   UNL     1      -1.107  -0.165  -0.830  0.00  0.00    +0.182 C 
BRANCH  11  12
ATOM     12  O   UNL     1      -1.891  -0.174   0.357  0.00  0.00    -0.265 OA
BRANCH  12  13
ATOM     13  P   UNL     1      -3.532  -0.059   0.221  0.00  0.00    +0.533 P 
ATOM     14  O   UNL     1      -4.011  -0.102   1.669  0.00  0.00    -0.115 OA
ATOM     15  O   UNL     1      -3.940  -1.276  -0.604  0.00  0.00    -0.222 OA
ATOM     16  O   UNL     1      -3.771   1.279  -0.472  0.00  0.00    -0.115 OA
ENDBRANCH  12  13
ENDBRANCH  11  12
ENDBRANCH   2  11
TORSDOF 4
