10480302
  -OEChem-03292013303D

 62 65  0     1  0  0  0  0  0999 V2000
    4.2875    2.8021   -0.7537 S   0  0  0  0  0  0  0  0  0  0  0  0
   -0.5376    1.6393    1.6998 O   0  0  0  0  0  0  0  0  0  0  0  0
   -4.9130    0.2997    2.4744 O   0  0  0  0  0  0  0  0  0  0  0  0
   -2.9133   -0.7316    2.1090 O   0  0  0  0  0  0  0  0  0  0  0  0
    2.3170    0.6971   -2.0131 O   0  0  0  0  0  0  0  0  0  0  0  0
    2.2503    3.5739    0.7490 O   0  0  0  0  0  0  0  0  0  0  0  0
   -2.2860    1.1368    0.2480 N   0  0  0  0  0  0  0  0  0  0  0  0
    1.3600    0.7626    0.0987 N   0  0  0  0  0  0  0  0  0  0  0  0
   -2.7177    0.5949   -1.0626 C   0  0  2  0  0  0  0  0  0  0  0  0
   -3.9636    1.3340   -1.5966 C   0  0  0  0  0  0  0  0  0  0  0  0
   -3.3033    1.4954    1.2455 C   0  0  1  0  0  0  0  0  0  0  0  0
   -5.0738    1.4876   -0.5665 C   0  0  0  0  0  0  0  0  0  0  0  0
   -4.5360    2.1844    0.6744 C   0  0  0  0  0  0  0  0  0  0  0  0
   -2.7131   -0.9299   -1.0552 C   0  0  0  0  0  0  0  0  0  0  0  0
    0.0131    0.4454   -0.3196 C   0  0  2  0  0  0  0  0  0  0  0  0
   -0.9367    1.1566    0.6376 C   0  0  0  0  0  0  0  0  0  0  0  0
   -0.2150   -1.0673   -0.2802 C   0  0  0  0  0  0  0  0  0  0  0  0
   -1.5463   -1.6572   -0.7145 C   0  0  0  0  0  0  0  0  0  0  0  0
   -3.6538    0.2316    1.9771 C   0  0  0  0  0  0  0  0  0  0  0  0
   -3.8638   -1.6569   -1.4221 C   0  0  0  0  0  0  0  0  0  0  0  0
   -1.5890   -3.0698   -0.7371 C   0  0  0  0  0  0  0  0  0  0  0  0
   -3.8804   -3.0526   -1.4401 C   0  0  0  0  0  0  0  0  0  0  0  0
   -2.7417   -3.7613   -1.0957 C   0  0  0  0  0  0  0  0  0  0  0  0
    2.4121    0.8626   -0.7981 C   0  0  0  0  0  0  0  0  0  0  0  0
    3.7376    1.1800   -0.1134 C   0  0  1  0  0  0  0  0  0  0  0  0
    4.8105    0.1221   -0.4063 C   0  0  0  0  0  0  0  0  0  0  0  0
    4.4374   -1.2365    0.1433 C   0  0  0  0  0  0  0  0  0  0  0  0
    4.8204   -1.5741    1.4304 C   0  0  0  0  0  0  0  0  0  0  0  0
    3.7200   -2.1145   -0.6515 C   0  0  0  0  0  0  0  0  0  0  0  0
    2.9300    3.7990   -0.2449 C   0  0  0  0  0  0  0  0  0  0  0  0
    4.4762   -2.8271    1.9377 C   0  0  0  0  0  0  0  0  0  0  0  0
    3.3757   -3.3674   -0.1442 C   0  0  0  0  0  0  0  0  0  0  0  0
    2.6822    4.9645   -1.1600 C   0  0  0  0  0  0  0  0  0  0  0  0
    3.7538   -3.7236    1.1504 C   0  0  0  0  0  0  0  0  0  0  0  0
   -1.9609    0.8577   -1.8086 H   0  0  0  0  0  0  0  0  0  0  0  0
   -4.3479    0.8665   -2.5101 H   0  0  0  0  0  0  0  0  0  0  0  0
   -3.6519    2.3457   -1.8940 H   0  0  0  0  0  0  0  0  0  0  0  0
   -2.8568    2.1589    1.9961 H   0  0  0  0  0  0  0  0  0  0  0  0
   -5.4985    0.5154   -0.2979 H   0  0  0  0  0  0  0  0  0  0  0  0
   -5.8896    2.0814   -0.9945 H   0  0  0  0  0  0  0  0  0  0  0  0
   -5.3356    2.3162    1.4114 H   0  0  0  0  0  0  0  0  0  0  0  0
   -4.2434    3.2028    0.3825 H   0  0  0  0  0  0  0  0  0  0  0  0
   -0.0921    0.8401   -1.3322 H   0  0  0  0  0  0  0  0  0  0  0  0
    0.5600   -1.5349   -0.9036 H   0  0  0  0  0  0  0  0  0  0  0  0
   -0.0347   -1.4153    0.7477 H   0  0  0  0  0  0  0  0  0  0  0  0
   -4.7829   -1.1546   -1.7070 H   0  0  0  0  0  0  0  0  0  0  0  0
    1.5366    0.8854    1.0916 H   0  0  0  0  0  0  0  0  0  0  0  0
   -0.7035   -3.6430   -0.4673 H   0  0  0  0  0  0  0  0  0  0  0  0
   -4.7856   -3.5804   -1.7254 H   0  0  0  0  0  0  0  0  0  0  0  0
   -2.7470   -4.8468   -1.1058 H   0  0  0  0  0  0  0  0  0  0  0  0
    3.6063    1.2696    0.9710 H   0  0  0  0  0  0  0  0  0  0  0  0
   -5.1625   -0.5191    2.9534 H   0  0  0  0  0  0  0  0  0  0  0  0
    5.7747    0.4249    0.0244 H   0  0  0  0  0  0  0  0  0  0  0  0
    4.9838    0.0271   -1.4874 H   0  0  0  0  0  0  0  0  0  0  0  0
    5.3807   -0.8813    2.0515 H   0  0  0  0  0  0  0  0  0  0  0  0
    3.4260   -1.8532   -1.6636 H   0  0  0  0  0  0  0  0  0  0  0  0
    4.7697   -3.1042    2.9459 H   0  0  0  0  0  0  0  0  0  0  0  0
    2.8133   -4.0656   -0.7573 H   0  0  0  0  0  0  0  0  0  0  0  0
    3.5567    5.6204   -1.1864 H   0  0  0  0  0  0  0  0  0  0  0  0
    2.4415    4.6116   -2.1668 H   0  0  0  0  0  0  0  0  0  0  0  0
    1.8311    5.5415   -0.7856 H   0  0  0  0  0  0  0  0  0  0  0  0
    3.4853   -4.6990    1.5454 H   0  0  0  0  0  0  0  0  0  0  0  0
  1 25  1  0  0  0  0
  1 30  1  0  0  0  0
  2 16  2  0  0  0  0
  3 19  1  0  0  0  0
  3 52  1  0  0  0  0
  4 19  2  0  0  0  0
  5 24  2  0  0  0  0
  6 30  2  0  0  0  0
  7  9  1  0  0  0  0
  7 11  1  0  0  0  0
  7 16  1  0  0  0  0
  8 15  1  0  0  0  0
  8 24  1  0  0  0  0
  8 47  1  0  0  0  0
  9 10  1  0  0  0  0
  9 14  1  0  0  0  0
  9 35  1  0  0  0  0
 10 12  1  0  0  0  0
 10 36  1  0  0  0  0
 10 37  1  0  0  0  0
 11 13  1  0  0  0  0
 11 19  1  0  0  0  0
 11 38  1  0  0  0  0
 12 13  1  0  0  0  0
 12 39  1  0  0  0  0
 12 40  1  0  0  0  0
 13 41  1  0  0  0  0
 13 42  1  0  0  0  0
 14 18  1  0  0  0  0
 14 20  2  0  0  0  0
 15 16  1  0  0  0  0
 15 17  1  0  0  0  0
 15 43  1  0  0  0  0
 17 18  1  0  0  0  0
 17 44  1  0  0  0  0
 17 45  1  0  0  0  0
 18 21  2  0  0  0  0
 20 22  1  0  0  0  0
 20 46  1  0  0  0  0
 21 23  1  0  0  0  0
 21 48  1  0  0  0  0
 22 23  2  0  0  0  0
 22 49  1  0  0  0  0
 23 50  1  0  0  0  0
 24 25  1  0  0  0  0
 25 26  1  0  0  0  0
 25 51  1  0  0  0  0
 26 27  1  0  0  0  0
 26 53  1  0  0  0  0
 26 54  1  0  0  0  0
 27 28  2  0  0  0  0
 27 29  1  0  0  0  0
 28 31  1  0  0  0  0
 28 55  1  0  0  0  0
 29 32  2  0  0  0  0
 29 56  1  0  0  0  0
 30 33  1  0  0  0  0
 31 34  2  0  0  0  0
 31 57  1  0  0  0  0
 32 34  1  0  0  0  0
 32 58  1  0  0  0  0
 33 59  1  0  0  0  0
 33 60  1  0  0  0  0
 33 61  1  0  0  0  0
 34 62  1  0  0  0  0
M  END
> <PUBCHEM_COMPOUND_CID>
10480302

> <PUBCHEM_CONFORMER_RMSD>
1

> <PUBCHEM_CONFORMER_DIVERSEORDER>
1
30
35
28
47
59
58
64
26
3
39
11
51
7
17
53
49
72
23
25
77
52
43
45
29
14
6
46
32
63
40
20
54
27
38
13
10
75
22
8
68
66
62
74
36
4
37
44
42
76
31
56
15
5
21
2
24
12
73
67
71
55
18
16
33
41
34
57
50
60
65
48
19
9
79
61
78
70
69

> <PUBCHEM_MMFF94_PARTIAL_CHARGES>
42
1 -0.37
11 0.36
14 -0.14
15 0.36
16 0.57
17 0.14
18 -0.14
19 0.66
2 -0.57
20 -0.15
21 -0.15
22 -0.15
23 -0.15
24 0.57
25 0.29
26 0.14
27 -0.14
28 -0.15
29 -0.15
3 -0.65
30 0.65
31 -0.15
32 -0.15
33 0.06
34 -0.15
4 -0.57
46 0.15
47 0.37
48 0.15
49 0.15
5 -0.57
50 0.15
52 0.5
55 0.15
56 0.15
57 0.15
58 0.15
6 -0.57
62 0.15
7 -0.66
8 -0.73
9 0.44

> <PUBCHEM_EFFECTIVE_ROTOR_COUNT>
9.2

> <PUBCHEM_PHARMACOPHORE_FEATURES>
10
1 2 acceptor
1 3 acceptor
1 4 acceptor
1 5 acceptor
1 8 donor
3 3 4 19 anion
6 14 18 20 21 22 23 rings
6 27 28 29 31 32 34 rings
6 7 9 10 11 12 13 rings
7 7 9 14 15 16 17 18 rings

> <PUBCHEM_HEAVY_ATOM_COUNT>
34

> <PUBCHEM_ATOM_DEF_STEREO_COUNT>
4

> <PUBCHEM_ATOM_UDEF_STEREO_COUNT>
0

> <PUBCHEM_BOND_DEF_STEREO_COUNT>
0

> <PUBCHEM_BOND_UDEF_STEREO_COUNT>
0

> <PUBCHEM_ISOTOPIC_ATOM_COUNT>
0

> <PUBCHEM_COMPONENT_COUNT>
1

> <PUBCHEM_CACTVS_TAUTO_COUNT>
2

> <PUBCHEM_CONFORMER_ID>
009FEAAE00000001

> <PUBCHEM_MMFF94_ENERGY>
94.3386

> <PUBCHEM_FEATURE_SELFOVERLAP>
50.822

> <PUBCHEM_SHAPE_FINGERPRINT>
10032420 55 17481714465168799536
10369192 42 15216443315093175326
1100329 8 18340481154147691367
12107183 9 18267015064281554066
12422481 6 18052266093986071987
12553582 1 18338520708384162246
12633257 1 18342456993854075556
12788726 201 17701827793834969863
13583140 156 18187656811603235056
13726171 33 17558850595914590256
13782708 43 17677067750176706987
14117953 113 17980188696065615014
14955137 171 18120103783687394010
15250474 111 18340759438021704046
16067690 210 16056311705097964402
17349148 13 17846212203034188876
17818456 19 18200028430761118666
19319366 153 17762885968238315894
21033648 29 17770198480444988952
21703447 108 17771326854247452305
22393880 68 18270125754929282380
23559900 14 17703240524753303238
24771293 8 18341045325132536064
283562 15 17763462116209064055
4058900 60 17972601258759923252
460360 51 18342452673016846147
463206 1 18334572400530544002
469060 322 17827367888590264531
50150288 127 17413350010023052547
5912855 24 18195255640006565043
9981440 41 17903628932597967744

> <PUBCHEM_SHAPE_MULTIPOLES>
664.24
11.86
5.52
1.88
1.01
1.14
0.83
-1.2
1.51
5.26
-1.06
-1.49
-0.26
-3.67

> <PUBCHEM_SHAPE_SELFOVERLAP>
1409.125

> <PUBCHEM_SHAPE_VOLUME>
368.1

> <PUBCHEM_COORDINATE_TYPE>
2
5
10

$$$$
