REMARK  Name = 104986
REMARK  3 active torsions:
REMARK  status: ('A' for Active; 'I' for Inactive)
REMARK    1  A    between atoms: C_6  and  O_27
REMARK    2  A    between atoms: C_6  and  C_29
REMARK    3  A    between atoms: C_22  and  N_24
REMARK                            x       y       z     vdW  Elec       q    Type
REMARK                         _______ _______ _______ _____ _____    ______ ____
ROOT
ATOM      1  O   UNL     1      -5.129  -0.668   0.415  0.00  0.00    -0.442 OA
ATOM      2  O   UNL     1      -1.960  -3.407  -0.190  0.00  0.00    -0.270 OA
ATOM      3  O   UNL     1      -5.642   1.370   1.205  0.00  0.00    -0.247 OA
ATOM      4  N   UNL     1      -0.397  -1.707  -0.075  0.00  0.00    -0.249 N 
ATOM      5  N   UNL     1       2.022   0.953   0.056  0.00  0.00    -0.405 NA
ATOM      6  C   UNL     1      -3.549   1.173   0.018  0.00  0.00    +0.196 C 
ATOM      7  C   UNL     1      -2.456   0.140   0.010  0.00  0.00    +0.017 C 
ATOM      8  C   UNL     1      -0.103  -0.355  -0.009  0.00  0.00    +0.084 C 
ATOM      9  C   UNL     1      -2.768  -1.167  -0.069  0.00  0.00    +0.074 C 
ATOM     10  C   UNL     1       0.838  -2.517  -0.112  0.00  0.00    +0.128 C 
ATOM     11  C   UNL     1      -1.066   0.570   0.029  0.00  0.00    +0.016 C 
ATOM     12  C   UNL     1       1.903  -1.471  -0.060  0.00  0.00    +0.029 C 
ATOM     13  C   UNL     1       1.345  -0.202   0.000  0.00  0.00    +0.142 C 
ATOM     14  C   UNL     1      -1.684  -2.212  -0.116  0.00  0.00    +0.252 C 
ATOM     15  C   UNL     1      -4.187  -1.619  -0.127  0.00  0.00    +0.239 C 
ATOM     16  C   UNL     1      -4.849   0.642   0.611  0.00  0.00    +0.346 C 
ATOM     17  C   UNL     1       3.273  -1.584  -0.064  0.00  0.00    +0.002 C 
ATOM     18  C   UNL     1       4.037  -0.407  -0.007  0.00  0.00    +0.027 C 
ATOM     19  C   UNL     1       3.367   0.848   0.052  0.00  0.00    +0.113 C 
ATOM     20  C   UNL     1       5.439  -0.456  -0.008  0.00  0.00    +0.016 C 
ATOM     21  C   UNL     1       4.144   2.000   0.108  0.00  0.00    +0.086 C 
ATOM     22  C   UNL     1       6.188   0.716   0.049  0.00  0.00    +0.038 C 
ATOM     23  C   UNL     1       5.540   1.944   0.107  0.00  0.00    -0.005 C 
ENDROOT
BRANCH  22  24
ATOM     24  N   UNL     1       7.596   0.658   0.048  0.00  0.00    -0.357 N 
ATOM     25  H   UNL     1       8.053  -0.213   0.007  0.00  0.00    +0.142 HD
ATOM     26  H   UNL     1       8.123   1.489   0.089  0.00  0.00    +0.142 HD
ENDBRANCH  22  24
BRANCH   6  27
ATOM     27  O   UNL     1      -3.181   2.257   0.875  0.00  0.00    -0.373 OA
ATOM     28  H   UNL     1      -2.353   2.652   0.559  0.00  0.00    +0.211 HD
ENDBRANCH   6  27
BRANCH   6  29
ATOM     29  C   UNL     1      -3.821   1.719  -1.385  0.00  0.00    +0.042 C 
ATOM     30  C   UNL     1      -4.900   2.782  -1.361  0.00  0.00    +0.003 C 
ENDBRANCH   6  29
TORSDOF 3
