104986
  -OEChem-03292013323D

 44 48  0     1  0  0  0  0  0999 V2000
   -5.1290   -0.6677    0.4152 O   0  0  0  0  0  0  0  0  0  0  0  0
   -3.1809    2.2570    0.8745 O   0  0  0  0  0  0  0  0  0  0  0  0
   -1.9603   -3.4070   -0.1900 O   0  0  0  0  0  0  0  0  0  0  0  0
   -5.6420    1.3700    1.2054 O   0  0  0  0  0  0  0  0  0  0  0  0
   -0.3969   -1.7072   -0.0753 N   0  0  0  0  0  0  0  0  0  0  0  0
    2.0219    0.9530    0.0555 N   0  0  0  0  0  0  0  0  0  0  0  0
    7.5963    0.6582    0.0481 N   0  0  0  0  0  0  0  0  0  0  0  0
   -3.5487    1.1726    0.0185 C   0  0  2  0  0  0  0  0  0  0  0  0
   -2.4557    0.1396    0.0096 C   0  0  0  0  0  0  0  0  0  0  0  0
   -0.1035   -0.3551   -0.0087 C   0  0  0  0  0  0  0  0  0  0  0  0
   -2.7676   -1.1667   -0.0688 C   0  0  0  0  0  0  0  0  0  0  0  0
    0.8383   -2.5168   -0.1115 C   0  0  0  0  0  0  0  0  0  0  0  0
   -1.0661    0.5696    0.0292 C   0  0  0  0  0  0  0  0  0  0  0  0
    1.9029   -1.4710   -0.0602 C   0  0  0  0  0  0  0  0  0  0  0  0
    1.3445   -0.2021   -0.0004 C   0  0  0  0  0  0  0  0  0  0  0  0
   -1.6839   -2.2120   -0.1161 C   0  0  0  0  0  0  0  0  0  0  0  0
   -3.8205    1.7190   -1.3852 C   0  0  0  0  0  0  0  0  0  0  0  0
   -4.1868   -1.6188   -0.1274 C   0  0  0  0  0  0  0  0  0  0  0  0
   -4.8488    0.6419    0.6113 C   0  0  0  0  0  0  0  0  0  0  0  0
    3.2728   -1.5843   -0.0641 C   0  0  0  0  0  0  0  0  0  0  0  0
    4.0366   -0.4067   -0.0072 C   0  0  0  0  0  0  0  0  0  0  0  0
   -4.8999    2.7821   -1.3615 C   0  0  0  0  0  0  0  0  0  0  0  0
    3.3666    0.8483    0.0522 C   0  0  0  0  0  0  0  0  0  0  0  0
    5.4394   -0.4564   -0.0079 C   0  0  0  0  0  0  0  0  0  0  0  0
    4.1439    2.0004    0.1083 C   0  0  0  0  0  0  0  0  0  0  0  0
    6.1876    0.7162    0.0492 C   0  0  0  0  0  0  0  0  0  0  0  0
    5.5397    1.9440    0.1073 C   0  0  0  0  0  0  0  0  0  0  0  0
    0.8559   -3.0950   -1.0401 H   0  0  0  0  0  0  0  0  0  0  0  0
    0.8525   -3.1794    0.7590 H   0  0  0  0  0  0  0  0  0  0  0  0
   -0.8316    1.6274    0.0664 H   0  0  0  0  0  0  0  0  0  0  0  0
   -4.1182    0.9181   -2.0730 H   0  0  0  0  0  0  0  0  0  0  0  0
   -2.9088    2.1765   -1.7904 H   0  0  0  0  0  0  0  0  0  0  0  0
   -4.4830   -1.8370   -1.1587 H   0  0  0  0  0  0  0  0  0  0  0  0
   -4.3193   -2.5331    0.4604 H   0  0  0  0  0  0  0  0  0  0  0  0
    3.7426   -2.5622   -0.1102 H   0  0  0  0  0  0  0  0  0  0  0  0
   -5.8871    2.3649   -1.1427 H   0  0  0  0  0  0  0  0  0  0  0  0
   -4.6866    3.5820   -0.6459 H   0  0  0  0  0  0  0  0  0  0  0  0
   -4.9727    3.2473   -2.3512 H   0  0  0  0  0  0  0  0  0  0  0  0
   -2.9553    1.8937    1.7485 H   0  0  0  0  0  0  0  0  0  0  0  0
    5.9490   -1.4176   -0.0533 H   0  0  0  0  0  0  0  0  0  0  0  0
    3.6630    2.9759    0.1545 H   0  0  0  0  0  0  0  0  0  0  0  0
    6.1074    2.8701    0.1524 H   0  0  0  0  0  0  0  0  0  0  0  0
    8.1382    1.5111    0.0891 H   0  0  0  0  0  0  0  0  0  0  0  0
    8.0663   -0.2362    0.0051 H   0  0  0  0  0  0  0  0  0  0  0  0
  1 18  1  0  0  0  0
  1 19  1  0  0  0  0
  2  8  1  0  0  0  0
  2 39  1  0  0  0  0
  3 16  2  0  0  0  0
  4 19  2  0  0  0  0
  5 10  1  0  0  0  0
  5 12  1  0  0  0  0
  5 16  1  0  0  0  0
  6 15  1  0  0  0  0
  6 23  2  0  0  0  0
  7 26  1  0  0  0  0
  7 43  1  0  0  0  0
  7 44  1  0  0  0  0
  8  9  1  0  0  0  0
  8 17  1  0  0  0  0
  8 19  1  0  0  0  0
  9 11  2  0  0  0  0
  9 13  1  0  0  0  0
 10 13  2  0  0  0  0
 10 15  1  0  0  0  0
 11 16  1  0  0  0  0
 11 18  1  0  0  0  0
 12 14  1  0  0  0  0
 12 28  1  0  0  0  0
 12 29  1  0  0  0  0
 13 30  1  0  0  0  0
 14 15  2  0  0  0  0
 14 20  1  0  0  0  0
 17 22  1  0  0  0  0
 17 31  1  0  0  0  0
 17 32  1  0  0  0  0
 18 33  1  0  0  0  0
 18 34  1  0  0  0  0
 20 21  2  0  0  0  0
 20 35  1  0  0  0  0
 21 23  1  0  0  0  0
 21 24  1  0  0  0  0
 22 36  1  0  0  0  0
 22 37  1  0  0  0  0
 22 38  1  0  0  0  0
 23 25  1  0  0  0  0
 24 26  2  0  0  0  0
 24 40  1  0  0  0  0
 25 27  2  0  0  0  0
 25 41  1  0  0  0  0
 26 27  1  0  0  0  0
 27 42  1  0  0  0  0
M  END
> <PUBCHEM_COMPOUND_CID>
104986

> <PUBCHEM_CONFORMER_RMSD>
0.6

> <PUBCHEM_CONFORMER_DIVERSEORDER>
1

> <PUBCHEM_MMFF94_PARTIAL_CHARGES>
32
1 -0.43
10 0.08
11 -0.12
12 0.44
13 -0.15
14 -0.14
15 0.34
16 0.62
18 0.42
19 0.66
2 -0.68
20 -0.15
23 0.31
24 -0.15
25 -0.15
26 0.1
27 -0.15
3 -0.57
30 0.15
35 0.15
39 0.4
4 -0.57
40 0.15
41 0.15
42 0.15
43 0.4
44 0.4
5 -0.47
6 -0.62
7 -0.9
8 0.48
9 -0.14

> <PUBCHEM_EFFECTIVE_ROTOR_COUNT>
1.8

> <PUBCHEM_PHARMACOPHORE_FEATURES>
13
1 2 acceptor
1 2 donor
1 22 hydrophobe
1 3 acceptor
1 4 acceptor
1 6 acceptor
1 7 cation
1 7 donor
5 5 10 12 14 15 rings
6 1 8 9 11 18 19 rings
6 21 23 24 25 26 27 rings
6 5 9 10 11 13 16 rings
6 6 14 15 20 21 23 rings

> <PUBCHEM_HEAVY_ATOM_COUNT>
27

> <PUBCHEM_ATOM_DEF_STEREO_COUNT>
1

> <PUBCHEM_ATOM_UDEF_STEREO_COUNT>
0

> <PUBCHEM_BOND_DEF_STEREO_COUNT>
0

> <PUBCHEM_BOND_UDEF_STEREO_COUNT>
0

> <PUBCHEM_ISOTOPIC_ATOM_COUNT>
0

> <PUBCHEM_COMPONENT_COUNT>
1

> <PUBCHEM_CACTVS_TAUTO_COUNT>
1

> <PUBCHEM_CONFORMER_ID>
00019A1A00000001

> <PUBCHEM_MMFF94_ENERGY>
89.7432

> <PUBCHEM_FEATURE_SELFOVERLAP>
66.221

> <PUBCHEM_SHAPE_FINGERPRINT>
10 15 18114185220164027897
10165383 225 18342461426803864697
10411042 1 17763181745435802055
11578080 2 17169813501935254879
11595378 159 17095792244438914492
12107183 9 18119237369046777554
12236239 1 17988925565609145714
12390115 104 18272103677256967217
12403259 118 17313111817465234493
12403259 415 18262523589441780021
12788726 201 17131278943391111296
13402501 40 18409164398560824252
13631057 29 18270676597433354999
13785724 45 17906167357539987242
14790565 3 18411986857714599128
15042514 8 18120939670655350435
15131766 46 15432593067017292078
15183329 4 18410006646353331056
15196674 1 18411700989234407302
15927050 60 18409448107501544178
17844677 252 18338241591165070864
18608769 82 18339645663139977403
19611394 137 17898022467047002155
20281389 69 18334011701255861376
20645477 56 18410857672263283027
21033648 144 18042958788582396213
21033648 29 18337095813575134809
21236236 1 18341330088962133287
21267235 1 18338524143983595378
21279426 13 18341618075610340446
21315764 268 18337949116429293428
21421861 104 17895744090371392890
21709351 56 18411976996870711972
21756936 100 18202559587963741837
21859007 373 17679008306094446412
23227448 37 18411980294925521335
23559900 14 18202280334260758776
2838139 119 18410284822642554692
335352 9 18411983560176663718
350125 39 18338800125248319337
3545911 37 18413109476630307488
4073 2 18115311215288294394
4214541 1 18411418449089768616
4325135 7 18272650177717896471
5104073 3 18334298634508317027
59755656 215 18341618097100734822
6327066 14 18189043210594911757
633830 44 17843971343092907405
7808743 9 18411134766204637906
9981440 41 18334579057339703643

> <PUBCHEM_SHAPE_MULTIPOLES>
517.23
15.25
2.94
0.83
12.96
0.67
0.08
-8.82
-0.75
-2.21
0.44
-1.02
-0.41
0.56

> <PUBCHEM_SHAPE_SELFOVERLAP>
1176.996

> <PUBCHEM_SHAPE_VOLUME>
268

> <PUBCHEM_COORDINATE_TYPE>
2
5
10

$$$$
