REMARK  Name = 10495590
REMARK  6 active torsions:
REMARK  status: ('A' for Active; 'I' for Inactive)
REMARK    1  A    between atoms: C_4  and  C_12
REMARK    2  A    between atoms: C_7  and  O_24
REMARK    3  A    between atoms: C_8  and  O_22
REMARK    4  A    between atoms: C_11  and  O_26
REMARK    5  A    between atoms: C_15  and  O_18
REMARK    6  A    between atoms: C_17  and  O_20
REMARK                            x       y       z     vdW  Elec       q    Type
REMARK                         _______ _______ _______ _____ _____    ______ ____
ROOT
ATOM      1  O   UNL     1       0.780   2.293   0.170  0.00  0.00    -0.450 OA
ATOM      2  O   UNL     1      -0.192  -1.657  -0.155  0.00  0.00    -0.286 OA
ATOM      3  C   UNL     1       1.493  -0.015  -0.068  0.00  0.00    +0.110 C 
ATOM      4  C   UNL     1      -0.946   0.584   0.130  0.00  0.00    +0.077 C 
ATOM      5  C   UNL     1       1.765   1.349   0.036  0.00  0.00    +0.155 C 
ATOM      6  C   UNL     1       0.091  -0.471  -0.037  0.00  0.00    +0.205 C 
ATOM      7  C   UNL     1       2.538  -0.932  -0.204  0.00  0.00    +0.177 C 
ATOM      8  C   UNL     1       3.857  -0.475  -0.235  0.00  0.00    +0.206 C 
ATOM      9  C   UNL     1       3.084   1.803   0.005  0.00  0.00    +0.078 C 
ATOM     10  C   UNL     1      -0.521   1.854   0.219  0.00  0.00    +0.183 C 
ATOM     11  C   UNL     1       4.129   0.889  -0.130  0.00  0.00    +0.174 C 
ENDROOT
BRANCH   4  12
ATOM     12  C   UNL     1      -2.379   0.261   0.217  0.00  0.00    +0.009 C 
ATOM     13  C   UNL     1      -3.160   0.225  -0.940  0.00  0.00    +0.040 C 
ATOM     14  C   UNL     1      -2.962  -0.010   1.456  0.00  0.00    +0.004 C 
ATOM     15  C   UNL     1      -4.518  -0.081  -0.858  0.00  0.00    +0.167 C 
ATOM     16  C   UNL     1      -4.321  -0.316   1.538  0.00  0.00    +0.040 C 
ATOM     17  C   UNL     1      -5.099  -0.351   0.381  0.00  0.00    +0.167 C 
BRANCH  15  18
ATOM     18  O   UNL     1      -5.268  -0.113  -1.996  0.00  0.00    -0.503 OA
ATOM     19  H   UNL     1      -4.870   0.070  -2.824  0.00  0.00    +0.292 HD
ENDBRANCH  15  18
BRANCH  17  20
ATOM     20  O   UNL     1      -6.424  -0.652   0.474  0.00  0.00    -0.503 OA
ATOM     21  H   UNL     1      -6.954  -0.678  -0.298  0.00  0.00    +0.292 HD
ENDBRANCH  17  20
ENDBRANCH   4  12
BRANCH   8  22
ATOM     22  O   UNL     1       4.885  -1.362  -0.367  0.00  0.00    -0.465 OA
ATOM     23  C   UNL     1       5.439  -1.893   0.834  0.00  0.00    +0.253 C 
ENDBRANCH   8  22
BRANCH   7  24
ATOM     24  O   UNL     1       2.315  -2.273  -0.309  0.00  0.00    -0.503 OA
ATOM     25  H   UNL     1       1.439  -2.605  -0.292  0.00  0.00    +0.292 HD
ENDBRANCH   7  24
BRANCH  11  26
ATOM     26  O   UNL     1       5.414   1.343  -0.160  0.00  0.00    -0.503 OA
ATOM     27  H   UNL     1       6.123   0.738  -0.250  0.00  0.00    +0.292 HD
ENDBRANCH  11  26
TORSDOF 6
