REMARK  Name = 10492375
REMARK  6 active torsions:
REMARK  status: ('A' for Active; 'I' for Inactive)
REMARK    1  A    between atoms: N_3  and  C1*_12
REMARK    2  A    between atoms: C_7  and  C_21
REMARK    3  A    between atoms: C3*_11  and  O3*_15
REMARK    4  A    between atoms: C4*_14  and  C5*_17
REMARK    5  A    between atoms: C5*_17  and  O5*_18
REMARK    6  A    between atoms: C_21  and  O_22
REMARK                            x       y       z     vdW  Elec       q    Type
REMARK                         _______ _______ _______ _____ _____    ______ ____
ROOT
ATOM      1  O   UNL     1      -0.183  -3.256   0.290  0.00  0.00    -0.252 OA
ATOM      2  O   UNL     1      -4.031  -0.777  -0.191  0.00  0.00    -0.269 OA
ATOM      3  N   UNL     1       0.015  -0.931   0.180  0.00  0.00    -0.218 N 
ATOM      4  N   UNL     1      -2.095  -2.011   0.050  0.00  0.00    -0.235 N 
ATOM      5  C   UNL     1      -0.650   0.283   0.054  0.00  0.00    +0.082 C 
ATOM      6  C   UNL     1      -0.708  -2.145   0.182  0.00  0.00    +0.315 C 
ATOM      7  C   UNL     1      -1.977   0.396  -0.071  0.00  0.00    +0.144 C 
ATOM      8  C   UNL     1      -2.809  -0.829  -0.079  0.00  0.00    +0.260 C 
ATOM      9  H   UNL     1      -2.619  -2.844   0.048  0.00  0.00    +0.159 HD
ENDROOT
BRANCH   3  12
ATOM     10  O4* UNL     1       1.871   0.217   1.023  0.00  0.00    -0.335 OA
ATOM     11  C3* UNL     1       3.417  -0.173  -0.731  0.00  0.00    +0.144 C 
ATOM     12  C1* UNL     1       1.443  -0.951   0.309  0.00  0.00    +0.202 C 
ATOM     13  C2* UNL     1       2.156  -0.949  -1.033  0.00  0.00    +0.083 C 
ATOM     14  C4* UNL     1       2.959   0.837   0.311  0.00  0.00    +0.173 C 
BRANCH  11  15
ATOM     15  O3* UNL     1       4.394  -1.045  -0.166  0.00  0.00    -0.382 OA
ATOM     16  H3* UNL     1       4.682  -1.685  -0.835  0.00  0.00    +0.210 HD
ENDBRANCH  11  15
BRANCH  14  17
ATOM     17  C5* UNL     1       2.440   2.130  -0.304  0.00  0.00    +0.169 C 
BRANCH  17  18
ATOM     18  O5* UNL     1       2.029   3.000   0.737  0.00  0.00    -0.379 OA
ATOM     19  H5* UNL     1       1.696   3.827   0.355  0.00  0.00    +0.211 HD
ENDBRANCH  17  18
ENDBRANCH  14  17
ENDBRANCH   3  12
BRANCH   7  21
ATOM     20  O   UNL     1      -1.956   2.689  -0.699  0.00  0.00    -0.245 OA
ATOM     21  C   UNL     1      -2.536   1.744  -0.195  0.00  0.00    +0.344 C 
BRANCH  21  22
ATOM     22  O   UNL     1      -3.779   1.769   0.332  0.00  0.00    -0.477 OA
ATOM     23  H   UNL     1      -4.147   0.990   0.700  0.00  0.00    +0.295 HD
ENDBRANCH  21  22
ENDBRANCH   7  21
TORSDOF 6
