10498988
  -OEChem-03292013303D

 50 51  0     1  0  0  0  0  0999 V2000
    2.3748    4.1875    0.4453 O   0  0  0  0  0  0  0  0  0  0  0  0
    1.4815    2.7757   -1.8190 O   0  0  0  0  0  0  0  0  0  0  0  0
    0.5230   -1.9947   -0.0491 O   0  0  0  0  0  0  0  0  0  0  0  0
   -4.4242    1.6305   -0.5804 O   0  0  0  0  0  0  0  0  0  0  0  0
    1.6067    0.1486   -1.7780 O   0  0  0  0  0  0  0  0  0  0  0  0
   -2.0932   -2.4821   -1.0615 O   0  0  0  0  0  0  0  0  0  0  0  0
   -0.2532   -2.3819    2.1022 O   0  0  0  0  0  0  0  0  0  0  0  0
    0.8252    2.4682    1.0502 C   0  0  0  0  0  0  0  0  0  0  0  0
    0.7967    1.1855    1.8908 C   0  0  0  0  0  0  0  0  0  0  0  0
    2.2245    2.7620    0.4793 C   0  0  1  0  0  0  0  0  0  0  0  0
   -0.6076    0.8058    2.3744 C   0  0  0  0  0  0  0  0  0  0  0  0
    2.4694    2.2360   -0.9462 C   0  0  1  0  0  0  0  0  0  0  0  0
   -1.5227    0.3327    1.2684 C   0  0  0  0  0  0  0  0  0  0  0  0
   -1.3628   -0.8996    0.6103 C   0  0  0  0  0  0  0  0  0  0  0  0
    2.4389    0.7158   -1.0752 C   0  0  0  0  0  0  0  0  0  0  0  0
   -2.5680    1.1724    0.8492 C   0  0  0  0  0  0  0  0  0  0  0  0
    1.6183   -2.9291    0.0781 C   0  0  2  0  0  0  0  0  0  0  0  0
    2.7505   -2.4529   -0.8432 C   0  0  0  0  0  0  0  0  0  0  0  0
   -2.2188   -1.2788   -0.4323 C   0  0  0  0  0  0  0  0  0  0  0  0
   -0.3152   -1.8537    1.0067 C   0  0  0  0  0  0  0  0  0  0  0  0
   -3.4208    0.7968   -0.1911 C   0  0  0  0  0  0  0  0  0  0  0  0
    3.4889   -0.0356   -0.3263 C   0  0  0  0  0  0  0  0  0  0  0  0
    3.5820   -1.3680   -0.2144 C   0  0  0  0  0  0  0  0  0  0  0  0
   -3.2454   -0.4267   -0.8317 C   0  0  0  0  0  0  0  0  0  0  0  0
    1.1107   -4.3011   -0.3577 C   0  0  0  0  0  0  0  0  0  0  0  0
   -5.2591    1.1867   -1.6487 C   0  0  0  0  0  0  0  0  0  0  0  0
    0.0766    2.4242    0.2555 H   0  0  0  0  0  0  0  0  0  0  0  0
    0.5070    3.2974    1.6963 H   0  0  0  0  0  0  0  0  0  0  0  0
    1.4321    1.3372    2.7726 H   0  0  0  0  0  0  0  0  0  0  0  0
    1.2362    0.3560    1.3351 H   0  0  0  0  0  0  0  0  0  0  0  0
    2.9978    2.3864    1.1583 H   0  0  0  0  0  0  0  0  0  0  0  0
   -1.0555    1.6601    2.8980 H   0  0  0  0  0  0  0  0  0  0  0  0
   -0.5325    0.0151    3.1304 H   0  0  0  0  0  0  0  0  0  0  0  0
    3.4344    2.5953   -1.3207 H   0  0  0  0  0  0  0  0  0  0  0  0
   -2.7169    2.1365    1.3315 H   0  0  0  0  0  0  0  0  0  0  0  0
    1.9653   -2.9756    1.1181 H   0  0  0  0  0  0  0  0  0  0  0  0
    3.4320   -3.2871   -1.0546 H   0  0  0  0  0  0  0  0  0  0  0  0
    2.3554   -2.1340   -1.8130 H   0  0  0  0  0  0  0  0  0  0  0  0
    2.3436    4.5078    1.3630 H   0  0  0  0  0  0  0  0  0  0  0  0
    4.2156    0.5740    0.2041 H   0  0  0  0  0  0  0  0  0  0  0  0
    4.3936   -1.7392    0.4118 H   0  0  0  0  0  0  0  0  0  0  0  0
   -3.8827   -0.7657   -1.6414 H   0  0  0  0  0  0  0  0  0  0  0  0
    0.6438    2.3061   -1.6732 H   0  0  0  0  0  0  0  0  0  0  0  0
    0.2810   -4.6270    0.2785 H   0  0  0  0  0  0  0  0  0  0  0  0
    0.7264   -4.2686   -1.3833 H   0  0  0  0  0  0  0  0  0  0  0  0
    1.9033   -5.0536   -0.3024 H   0  0  0  0  0  0  0  0  0  0  0  0
   -2.7763   -2.5623   -1.7487 H   0  0  0  0  0  0  0  0  0  0  0  0
   -4.6936    1.0669   -2.5791 H   0  0  0  0  0  0  0  0  0  0  0  0
   -6.0010    1.9723   -1.8260 H   0  0  0  0  0  0  0  0  0  0  0  0
   -5.8126    0.2811   -1.3781 H   0  0  0  0  0  0  0  0  0  0  0  0
  1 10  1  0  0  0  0
  1 39  1  0  0  0  0
  2 12  1  0  0  0  0
  2 43  1  0  0  0  0
  3 17  1  0  0  0  0
  3 20  1  0  0  0  0
  4 21  1  0  0  0  0
  4 26  1  0  0  0  0
  5 15  2  0  0  0  0
  6 19  1  0  0  0  0
  6 47  1  0  0  0  0
  7 20  2  0  0  0  0
  8  9  1  0  0  0  0
  8 10  1  0  0  0  0
  8 27  1  0  0  0  0
  8 28  1  0  0  0  0
  9 11  1  0  0  0  0
  9 29  1  0  0  0  0
  9 30  1  0  0  0  0
 10 12  1  0  0  0  0
 10 31  1  0  0  0  0
 11 13  1  0  0  0  0
 11 32  1  0  0  0  0
 11 33  1  0  0  0  0
 12 15  1  0  0  0  0
 12 34  1  0  0  0  0
 13 14  2  0  0  0  0
 13 16  1  0  0  0  0
 14 19  1  0  0  0  0
 14 20  1  0  0  0  0
 15 22  1  0  0  0  0
 16 21  2  0  0  0  0
 16 35  1  0  0  0  0
 17 18  1  0  0  0  0
 17 25  1  0  0  0  0
 17 36  1  0  0  0  0
 18 23  1  0  0  0  0
 18 37  1  0  0  0  0
 18 38  1  0  0  0  0
 19 24  2  0  0  0  0
 21 24  1  0  0  0  0
 22 23  2  0  0  0  0
 22 40  1  0  0  0  0
 23 41  1  0  0  0  0
 24 42  1  0  0  0  0
 25 44  1  0  0  0  0
 25 45  1  0  0  0  0
 25 46  1  0  0  0  0
 26 48  1  0  0  0  0
 26 49  1  0  0  0  0
 26 50  1  0  0  0  0
M  END
> <PUBCHEM_COMPOUND_CID>
10498988

> <PUBCHEM_CONFORMER_RMSD>
0.6

> <PUBCHEM_CONFORMER_DIVERSEORDER>
1

> <PUBCHEM_MMFF94_PARTIAL_CHARGES>
30
1 -0.68
10 0.28
11 0.14
12 0.34
13 -0.14
14 0.09
15 0.49
16 -0.15
17 0.28
18 0.14
19 0.08
2 -0.68
20 0.63
21 0.08
22 -0.14
23 -0.29
24 -0.15
26 0.28
3 -0.43
35 0.15
39 0.4
4 -0.36
40 0.15
41 0.15
42 0.15
43 0.4
47 0.45
5 -0.57
6 -0.53
7 -0.57

> <PUBCHEM_EFFECTIVE_ROTOR_COUNT>
2.6

> <PUBCHEM_PHARMACOPHORE_FEATURES>
9
1 1 acceptor
1 1 donor
1 2 acceptor
1 2 donor
1 4 acceptor
1 5 acceptor
1 6 donor
1 7 acceptor
6 13 14 16 19 21 24 rings

> <PUBCHEM_HEAVY_ATOM_COUNT>
26

> <PUBCHEM_ATOM_DEF_STEREO_COUNT>
3

> <PUBCHEM_ATOM_UDEF_STEREO_COUNT>
0

> <PUBCHEM_BOND_DEF_STEREO_COUNT>
1

> <PUBCHEM_BOND_UDEF_STEREO_COUNT>
0

> <PUBCHEM_ISOTOPIC_ATOM_COUNT>
0

> <PUBCHEM_COMPONENT_COUNT>
1

> <PUBCHEM_CACTVS_TAUTO_COUNT>
438

> <PUBCHEM_CONFORMER_ID>
00A033AC00000001

> <PUBCHEM_MMFF94_ENERGY>
74.783

> <PUBCHEM_FEATURE_SELFOVERLAP>
45.69

> <PUBCHEM_SHAPE_FINGERPRINT>
10165383 225 17541712503634527500
10675989 125 18341611503778446233
10871710 139 17401513458492088614
11370993 70 18195241350513117188
12156800 1 16668211779201804016
12553582 1 18124342461679589072
13004483 165 17834669401291123530
14251757 17 17681827406499744109
14468879 13 17898294050423807577
14955137 171 17695652670498277769
18981168 100 17532096174884978585
192875 21 18202004291774274388
19930381 70 18263651825985236197
22393880 68 18127139782264141844
22907989 373 17468209176486551117
23419403 2 17826551853357010729
23559900 14 18272928367013386480
238 59 18340490066051518355
35225 105 17264955669116113316
469060 322 16462786164983215538
474 4 18334580113748436638
513532 50 17901347205510102157
5262128 65 17487371254882454972
6669772 16 17843661477939563953
8988823 20 9871743577800392633
9981440 41 17907849949041141480

> <PUBCHEM_SHAPE_MULTIPOLES>
493.98
6.67
4.63
1.83
6.87
0.29
0.48
-1.44
-3.82
-4.26
-0.13
0.47
-0.54
0.07

> <PUBCHEM_SHAPE_SELFOVERLAP>
1027.526

> <PUBCHEM_SHAPE_VOLUME>
278.5

> <PUBCHEM_COORDINATE_TYPE>
2
5
10

$$$$
