REMARK  Name = 10498988
REMARK  4 active torsions:
REMARK  status: ('A' for Active; 'I' for Inactive)
REMARK    1  A    between atoms: C_6  and  O_22
REMARK    2  A    between atoms: C_8  and  O_24
REMARK    3  A    between atoms: C_15  and  O_28
REMARK    4  A    between atoms: C_17  and  O_26
REMARK                            x       y       z     vdW  Elec       q    Type
REMARK                         _______ _______ _______ _____ _____    ______ ____
ROOT
ATOM      1  O   UNL     1       0.523  -1.995  -0.049  0.00  0.00    -0.449 OA
ATOM      2  O   UNL     1       1.607   0.149  -1.778  0.00  0.00    -0.289 OA
ATOM      3  O   UNL     1      -0.253  -2.382   2.102  0.00  0.00    -0.245 OA
ATOM      4  C   UNL     1       0.825   2.468   1.050  0.00  0.00    +0.033 C 
ATOM      5  C   UNL     1       0.797   1.185   1.891  0.00  0.00    +0.007 C 
ATOM      6  C   UNL     1       2.224   2.762   0.479  0.00  0.00    +0.145 C 
ATOM      7  C   UNL     1      -0.608   0.806   2.374  0.00  0.00    +0.027 C 
ATOM      8  C   UNL     1       2.469   2.236  -0.946  0.00  0.00    +0.199 C 
ATOM      9  C   UNL     1      -1.523   0.333   1.268  0.00  0.00    -0.010 C 
ATOM     10  C   UNL     1      -1.363  -0.900   0.610  0.00  0.00    +0.105 C 
ATOM     11  C   UNL     1       2.439   0.716  -1.075  0.00  0.00    +0.202 C 
ATOM     12  C   UNL     1      -2.568   1.172   0.849  0.00  0.00    +0.033 C 
ATOM     13  C   UNL     1       1.618  -2.929   0.078  0.00  0.00    +0.174 C 
ATOM     14  C   UNL     1       2.751  -2.453  -0.843  0.00  0.00    +0.070 C 
ATOM     15  C   UNL     1      -2.219  -1.279  -0.432  0.00  0.00    +0.143 C 
ATOM     16  C   UNL     1      -0.315  -1.854   1.007  0.00  0.00    +0.344 C 
ATOM     17  C   UNL     1      -3.421   0.797  -0.191  0.00  0.00    +0.141 C 
ATOM     18  C   UNL     1       3.489  -0.036  -0.326  0.00  0.00    +0.036 C 
ATOM     19  C   UNL     1       3.582  -1.368  -0.214  0.00  0.00    -0.019 C 
ATOM     20  C   UNL     1      -3.245  -0.427  -0.832  0.00  0.00    +0.074 C 
ATOM     21  C   UNL     1       1.111  -4.301  -0.358  0.00  0.00    +0.048 C 
ENDROOT
BRANCH   6  22
ATOM     22  O   UNL     1       2.375   4.188   0.445  0.00  0.00    -0.382 OA
ATOM     23  H   UNL     1       2.226   4.550   1.333  0.00  0.00    +0.210 HD
ENDBRANCH   6  22
BRANCH   8  24
ATOM     24  O   UNL     1       1.482   2.776  -1.819  0.00  0.00    -0.375 OA
ATOM     25  H   UNL     1       1.485   3.743  -1.752  0.00  0.00    +0.211 HD
ENDBRANCH   8  24
BRANCH  17  26
ATOM     26  O   UNL     1      -4.424   1.631  -0.580  0.00  0.00    -0.471 OA
ATOM     27  C   UNL     1      -5.259   1.187  -1.649  0.00  0.00    +0.252 C 
ENDBRANCH  17  26
BRANCH  15  28
ATOM     28  O   UNL     1      -2.093  -2.482  -1.062  0.00  0.00    -0.505 OA
ATOM     29  H   UNL     1      -1.410  -3.073  -0.811  0.00  0.00    +0.292 HD
ENDBRANCH  15  28
TORSDOF 4
