REMARK  Name = 10505484
REMARK  7 active torsions:
REMARK  status: ('A' for Active; 'I' for Inactive)
REMARK    1  A    between atoms: C_4  and  C_33
REMARK    2  A    between atoms: C_8  and  O_27
REMARK    3  A    between atoms: C_11  and  C_30
REMARK    4  A    between atoms: C_17  and  C_23
REMARK    5  A    between atoms: C_30  and  O_31
REMARK    6  A    between atoms: C_33  and  C_35
REMARK    7  A    between atoms: C_35  and  O_36
REMARK                            x       y       z     vdW  Elec       q    Type
REMARK                         _______ _______ _______ _____ _____    ______ ____
ROOT
ATOM      1  O   UNL     1      -0.216   1.822  -0.869  0.00  0.00    -0.352 OA
ATOM      2  O   UNL     1      -1.465  -1.936   2.532  0.00  0.00    -0.291 OA
ATOM      3  C   UNL     1       0.261  -0.526  -1.268  0.00  0.00    +0.045 C 
ATOM      4  C   UNL     1      -0.264  -1.202   0.058  0.00  0.00    +0.024 C 
ATOM      5  C   UNL     1      -1.835  -1.379   0.165  0.00  0.00    +0.060 C 
ATOM      6  C   UNL     1      -0.592   0.691  -1.701  0.00  0.00    +0.146 C 
ATOM      7  C   UNL     1      -2.546  -0.033  -0.241  0.00  0.00    +0.050 C 
ATOM      8  C   UNL     1      -2.097   0.457  -1.632  0.00  0.00    +0.139 C 
ATOM      9  C   UNL     1       1.499   0.268  -0.974  0.00  0.00    -0.023 C 
ATOM     10  C   UNL     1       1.086   1.562  -0.360  0.00  0.00    +0.134 C 
ATOM     11  C   UNL     1      -4.105  -0.045  -0.042  0.00  0.00    +0.111 C 
ATOM     12  C   UNL     1       0.397  -1.480  -2.465  0.00  0.00    +0.007 C 
ATOM     13  C   UNL     1       2.186   2.504  -0.821  0.00  0.00    +0.042 C 
ATOM     14  C   UNL     1       2.807   0.242  -1.267  0.00  0.00    -0.046 C 
ATOM     15  C   UNL     1      -2.329  -2.608  -0.624  0.00  0.00    +0.008 C 
ATOM     16  C   UNL     1      -2.247  -1.610   1.642  0.00  0.00    +0.172 C 
ATOM     17  C   UNL     1       3.430   1.596  -0.971  0.00  0.00    +0.046 C 
ATOM     18  C   UNL     1      -4.513  -0.793   1.205  0.00  0.00    -0.013 C 
ATOM     19  C   UNL     1      -3.681  -1.475   1.998  0.00  0.00    +0.033 C 
ATOM     20  C   UNL     1      -4.919  -0.538  -1.248  0.00  0.00    +0.016 C 
ATOM     21  C   UNL     1       3.619  -0.821  -1.917  0.00  0.00    +0.026 C 
ENDROOT
BRANCH  17  23
ATOM     22  O   UNL     1       4.863   1.648   2.412  0.00  0.00    -0.448 OA
ATOM     23  C   UNL     1       4.259   1.563   0.255  0.00  0.00    +0.022 C 
ATOM     24  C   UNL     1       5.650   1.334   0.330  0.00  0.00    +0.040 C 
ATOM     25  C   UNL     1       3.824   1.748   1.542  0.00  0.00    +0.176 C 
ATOM     26  C   UNL     1       5.971   1.396   1.666  0.00  0.00    +0.179 C 
ENDBRANCH  17  23
BRANCH   8  27
ATOM     27  O   UNL     1      -2.742   1.680  -1.987  0.00  0.00    -0.382 OA
ATOM     28  H   UNL     1      -2.440   1.962  -2.864  0.00  0.00    +0.210 HD
ENDBRANCH   8  27
BRANCH  11  30
ATOM     29  O   UNL     1      -5.390   1.977  -0.391  0.00  0.00    -0.250 OA
ATOM     30  C   UNL     1      -4.571   1.360   0.276  0.00  0.00    +0.320 C 
BRANCH  30  31
ATOM     31  O   UNL     1      -3.940   1.806   1.399  0.00  0.00    -0.444 OA
ATOM     32  C   UNL     1      -4.290   3.130   1.816  0.00  0.00    +0.256 C 
ENDBRANCH  30  31
ENDBRANCH  11  30
BRANCH   4  33
ATOM     33  C   UNL     1       0.548  -2.483   0.362  0.00  0.00    +0.110 C 
BRANCH  33  35
ATOM     34  O   UNL     1       2.538  -1.140   0.754  0.00  0.00    -0.250 OA
ATOM     35  C   UNL     1       2.019  -2.192   0.407  0.00  0.00    +0.317 C 
BRANCH  35  36
ATOM     36  O   UNL     1       2.681  -3.312  -0.010  0.00  0.00    -0.444 OA
ATOM     37  C   UNL     1       4.109  -3.212  -0.031  0.00  0.00    +0.256 C 
ENDBRANCH  35  36
ENDBRANCH  33  35
ENDBRANCH   4  33
TORSDOF 7
