REMARK  Name = 10502352
REMARK  10 active torsions:
REMARK  status: ('A' for Active; 'I' for Inactive)
REMARK    1  A    between atoms: C_1  and  C_16
REMARK    2  A    between atoms: C_2  and  C_5
REMARK    3  A    between atoms: C_7  and  C_10
REMARK    4  A    between atoms: C_12  and  C_14
REMARK    5  A    between atoms: C_16  and  O_17
REMARK    6  A    between atoms: C_16  and  C_19
REMARK    7  A    between atoms: C_19  and  C_21
REMARK    8  A    between atoms: C_21  and  O_23
REMARK    9  A    between atoms: C_22  and  C_26
REMARK   10  A    between atoms: C_26  and  O_27
REMARK                            x       y       z     vdW  Elec       q    Type
REMARK                         _______ _______ _______ _____ _____    ______ ____
ROOT
ATOM      1  C   UNL     1       1.851   1.125  -0.814  0.00  0.00    +0.006 C 
ATOM      2  C   UNL     1       1.165   0.543  -1.814  0.00  0.00    +0.026 C 
ENDROOT
BRANCH   2   5
ATOM      3  S   UNL     1      -2.551  -0.572  -2.520  0.00  0.00    -0.073 S 
ATOM      4  N   UNL     1      -1.026   0.527  -0.746  0.00  0.00    -0.397 NA
ATOM      5  C   UNL     1      -0.241   0.224  -1.841  0.00  0.00    +0.121 C 
ATOM      6  C   UNL     1      -0.890  -0.375  -2.901  0.00  0.00    +0.123 C 
ATOM      7  C   UNL     1      -2.261   0.151  -0.991  0.00  0.00    +0.183 C 
BRANCH   7  10
ATOM      8  S   UNL     1      -4.605   0.980   2.103  0.00  0.00    -0.072 S 
ATOM      9  N   UNL     1      -4.643  -0.054  -0.266  0.00  0.00    -0.393 NA
ATOM     10  C   UNL     1      -3.346   0.343  -0.004  0.00  0.00    +0.156 C 
ATOM     11  C   UNL     1      -3.131   0.924   1.229  0.00  0.00    +0.127 C 
ATOM     12  C   UNL     1      -5.393   0.232   0.775  0.00  0.00    +0.192 C 
BRANCH  12  14
ATOM     13  O   UNL     1      -7.534   0.208   1.809  0.00  0.00    -0.288 OA
ATOM     14  C   UNL     1      -6.788  -0.052   0.829  0.00  0.00    +0.209 C 
ATOM     15  C   UNL     1      -7.482  -0.722  -0.364  0.00  0.00    +0.081 C 
ENDBRANCH  12  14
ENDBRANCH   7  10
ENDBRANCH   2   5
BRANCH   1  16
ATOM     16  C   UNL     1       3.331   1.439  -0.810  0.00  0.00    +0.144 C 
BRANCH  16  17
ATOM     17  O   UNL     1       3.640   2.624  -0.080  0.00  0.00    -0.349 OA
ATOM     18  C   UNL     1       3.384   3.788  -0.852  0.00  0.00    +0.174 C 
ENDBRANCH  16  17
BRANCH  16  19
ATOM     19  C   UNL     1       4.180   0.257  -0.272  0.00  0.00    +0.088 C 
ATOM     20  C   UNL     1       5.679   0.567  -0.380  0.00  0.00    +0.011 C 
BRANCH  19  21
ATOM     21  C   UNL     1       3.826  -0.143   1.153  0.00  0.00    +0.125 C 
ATOM     22  C   UNL     1       3.366  -1.373   1.446  0.00  0.00    +0.114 C 
BRANCH  21  23
ATOM     23  O   UNL     1       4.022   0.852   2.090  0.00  0.00    -0.475 OA
ATOM     24  C   UNL     1       4.958   0.443   3.068  0.00  0.00    +0.252 C 
ENDBRANCH  21  23
BRANCH  22  26
ATOM     25  O   UNL     1       4.027  -2.914  -0.280  0.00  0.00    -0.245 OA
ATOM     26  C   UNL     1       3.161  -2.439   0.437  0.00  0.00    +0.344 C 
BRANCH  26  27
ATOM     27  O   UNL     1       1.844  -2.778   0.459  0.00  0.00    -0.441 OA
ATOM     28  C   UNL     1       1.457  -3.803  -0.464  0.00  0.00    +0.256 C 
ENDBRANCH  26  27
ENDBRANCH  22  26
ENDBRANCH  19  21
ENDBRANCH  16  19
ENDBRANCH   1  16
TORSDOF 10
