10502358
  -OEChem-03292013303D

 72 75  0     1  0  0  0  0  0999 V2000
    4.2620    2.5289    1.3953 O   0  0  0  0  0  0  0  0  0  0  0  0
   -3.3869   -1.5017    0.4668 O   0  0  0  0  0  0  0  0  0  0  0  0
   -4.0468    1.6753   -1.2457 O   0  0  0  0  0  0  0  0  0  0  0  0
   -6.0066   -1.2259   -0.1007 O   0  0  0  0  0  0  0  0  0  0  0  0
   -7.2032    0.6935    1.5472 O   0  0  0  0  0  0  0  0  0  0  0  0
    3.2069    0.6254    0.1379 C   0  0  2  0  0  0  0  0  0  0  0  0
    1.7232    0.7325    0.5572 C   0  0  2  0  0  0  0  0  0  0  0  0
    0.7825   -0.2769   -0.1679 C   0  0  1  0  0  0  0  0  0  0  0  0
    1.3772   -1.7246   -0.2790 C   0  0  2  0  0  0  0  0  0  0  0  0
   -0.6488   -0.4607    0.4982 C   0  0  2  0  0  0  0  0  0  0  0  0
    3.3183    1.4950   -1.1525 C   0  0  2  0  0  0  0  0  0  0  0  0
    3.6920   -0.7975    0.0480 C   0  0  0  0  0  0  0  0  0  0  0  0
    1.3834    2.1875    0.2156 C   0  0  0  0  0  0  0  0  0  0  0  0
    4.1631    1.1232    1.2631 C   0  0  1  0  0  0  0  0  0  0  0  0
    0.6453   -2.4833    0.8375 C   0  0  0  0  0  0  0  0  0  0  0  0
   -0.7860   -1.9809    0.7446 C   0  0  0  0  0  0  0  0  0  0  0  0
    2.1656    2.5134   -1.0537 C   0  0  0  0  0  0  0  0  0  0  0  0
    2.8690   -1.8440   -0.0964 C   0  0  0  0  0  0  0  0  0  0  0  0
    5.1505   -0.9178    0.4331 C   0  0  2  0  0  0  0  0  0  0  0  0
    5.5101    0.4967    0.8962 C   0  0  0  0  0  0  0  0  0  0  0  0
   -1.7516    0.0121   -0.4655 C   0  0  0  0  0  0  0  0  0  0  0  0
    1.0396   -2.3522   -1.6511 C   0  0  0  0  0  0  0  0  0  0  0  0
   -0.8642    0.2568    1.8454 C   0  0  0  0  0  0  0  0  0  0  0  0
    3.2546    0.7567   -2.4911 C   0  0  0  0  0  0  0  0  0  0  0  0
    6.0612   -1.4078   -0.6838 C   0  0  0  0  0  0  0  0  0  0  0  0
   -3.1710   -0.1445    0.0930 C   0  0  1  0  0  0  0  0  0  0  0  0
   -4.2850    0.3185   -0.8722 C   0  0  1  0  0  0  0  0  0  0  0  0
   -5.7447    0.1597   -0.3502 C   0  0  2  0  0  0  0  0  0  0  0  0
   -5.9108    0.9083    0.9888 C   0  0  0  0  0  0  0  0  0  0  0  0
   -6.7988    0.6342   -1.3581 C   0  0  0  0  0  0  0  0  0  0  0  0
    1.6570    0.5789    1.6375 H   0  0  0  0  0  0  0  0  0  0  0  0
    0.6331    0.0984   -1.1883 H   0  0  0  0  0  0  0  0  0  0  0  0
    4.2673    2.0430   -1.1691 H   0  0  0  0  0  0  0  0  0  0  0  0
    1.7081    2.8476    1.0282 H   0  0  0  0  0  0  0  0  0  0  0  0
    0.3144    2.3675    0.0746 H   0  0  0  0  0  0  0  0  0  0  0  0
    3.8431    0.7323    2.2385 H   0  0  0  0  0  0  0  0  0  0  0  0
    1.0639   -2.2369    1.8222 H   0  0  0  0  0  0  0  0  0  0  0  0
    0.6962   -3.5716    0.7209 H   0  0  0  0  0  0  0  0  0  0  0  0
   -1.2775   -2.4973   -0.0878 H   0  0  0  0  0  0  0  0  0  0  0  0
   -1.3280   -2.2347    1.6621 H   0  0  0  0  0  0  0  0  0  0  0  0
    1.5016    2.4579   -1.9243 H   0  0  0  0  0  0  0  0  0  0  0  0
    2.5490    3.5389   -1.0117 H   0  0  0  0  0  0  0  0  0  0  0  0
    3.2845   -2.8487   -0.0519 H   0  0  0  0  0  0  0  0  0  0  0  0
    5.2339   -1.6001    1.2895 H   0  0  0  0  0  0  0  0  0  0  0  0
    6.1906    0.4855    1.7549 H   0  0  0  0  0  0  0  0  0  0  0  0
    6.0146    1.0731    0.1107 H   0  0  0  0  0  0  0  0  0  0  0  0
   -1.6792   -0.5515   -1.4047 H   0  0  0  0  0  0  0  0  0  0  0  0
   -1.5728    1.0639   -0.7184 H   0  0  0  0  0  0  0  0  0  0  0  0
   -0.0167   -2.2457   -1.9148 H   0  0  0  0  0  0  0  0  0  0  0  0
    1.6164   -1.8864   -2.4571 H   0  0  0  0  0  0  0  0  0  0  0  0
    1.2739   -3.4236   -1.6645 H   0  0  0  0  0  0  0  0  0  0  0  0
   -0.8887    1.3447    1.7359 H   0  0  0  0  0  0  0  0  0  0  0  0
   -1.7895   -0.0479    2.3456 H   0  0  0  0  0  0  0  0  0  0  0  0
   -0.0780    0.0011    2.5635 H   0  0  0  0  0  0  0  0  0  0  0  0
    2.2977    0.2565   -2.6453 H   0  0  0  0  0  0  0  0  0  0  0  0
    3.3805    1.4674   -3.3160 H   0  0  0  0  0  0  0  0  0  0  0  0
    4.0520    0.0152   -2.5825 H   0  0  0  0  0  0  0  0  0  0  0  0
    7.0993   -1.4536   -0.3379 H   0  0  0  0  0  0  0  0  0  0  0  0
    5.7734   -2.4113   -1.0146 H   0  0  0  0  0  0  0  0  0  0  0  0
    6.0296   -0.7456   -1.5549 H   0  0  0  0  0  0  0  0  0  0  0  0
   -3.2436    0.4778    0.9876 H   0  0  0  0  0  0  0  0  0  0  0  0
    4.8107    2.8774    0.6739 H   0  0  0  0  0  0  0  0  0  0  0  0
   -4.2064   -0.2923   -1.7823 H   0  0  0  0  0  0  0  0  0  0  0  0
   -4.2167   -1.5447    0.9706 H   0  0  0  0  0  0  0  0  0  0  0  0
   -3.3022    1.6854   -1.8702 H   0  0  0  0  0  0  0  0  0  0  0  0
   -5.7682    1.9867    0.8667 H   0  0  0  0  0  0  0  0  0  0  0  0
   -5.2092    0.5509    1.7466 H   0  0  0  0  0  0  0  0  0  0  0  0
   -6.7323    1.7118   -1.5377 H   0  0  0  0  0  0  0  0  0  0  0  0
   -7.8129    0.4002   -1.0150 H   0  0  0  0  0  0  0  0  0  0  0  0
   -6.6731    0.1179   -2.3167 H   0  0  0  0  0  0  0  0  0  0  0  0
   -5.8822   -1.7081   -0.9360 H   0  0  0  0  0  0  0  0  0  0  0  0
   -7.3298   -0.2677    1.6236 H   0  0  0  0  0  0  0  0  0  0  0  0
  1 14  1  0  0  0  0
  1 62  1  0  0  0  0
  2 26  1  0  0  0  0
  2 64  1  0  0  0  0
  3 27  1  0  0  0  0
  3 65  1  0  0  0  0
  4 28  1  0  0  0  0
  4 71  1  0  0  0  0
  5 29  1  0  0  0  0
  5 72  1  0  0  0  0
  6  7  1  0  0  0  0
  6 11  1  0  0  0  0
  6 12  1  0  0  0  0
  6 14  1  0  0  0  0
  7  8  1  0  0  0  0
  7 13  1  0  0  0  0
  7 31  1  0  0  0  0
  8  9  1  0  0  0  0
  8 10  1  0  0  0  0
  8 32  1  0  0  0  0
  9 15  1  0  0  0  0
  9 18  1  0  0  0  0
  9 22  1  0  0  0  0
 10 16  1  0  0  0  0
 10 21  1  0  0  0  0
 10 23  1  0  0  0  0
 11 17  1  0  0  0  0
 11 24  1  0  0  0  0
 11 33  1  0  0  0  0
 12 18  2  0  0  0  0
 12 19  1  0  0  0  0
 13 17  1  0  0  0  0
 13 34  1  0  0  0  0
 13 35  1  0  0  0  0
 14 20  1  0  0  0  0
 14 36  1  0  0  0  0
 15 16  1  0  0  0  0
 15 37  1  0  0  0  0
 15 38  1  0  0  0  0
 16 39  1  0  0  0  0
 16 40  1  0  0  0  0
 17 41  1  0  0  0  0
 17 42  1  0  0  0  0
 18 43  1  0  0  0  0
 19 20  1  0  0  0  0
 19 25  1  0  0  0  0
 19 44  1  0  0  0  0
 20 45  1  0  0  0  0
 20 46  1  0  0  0  0
 21 26  1  0  0  0  0
 21 47  1  0  0  0  0
 21 48  1  0  0  0  0
 22 49  1  0  0  0  0
 22 50  1  0  0  0  0
 22 51  1  0  0  0  0
 23 52  1  0  0  0  0
 23 53  1  0  0  0  0
 23 54  1  0  0  0  0
 24 55  1  0  0  0  0
 24 56  1  0  0  0  0
 24 57  1  0  0  0  0
 25 58  1  0  0  0  0
 25 59  1  0  0  0  0
 25 60  1  0  0  0  0
 26 27  1  0  0  0  0
 26 61  1  0  0  0  0
 27 28  1  0  0  0  0
 27 63  1  0  0  0  0
 28 29  1  0  0  0  0
 28 30  1  0  0  0  0
 29 66  1  0  0  0  0
 29 67  1  0  0  0  0
 30 68  1  0  0  0  0
 30 69  1  0  0  0  0
 30 70  1  0  0  0  0
M  END
> <PUBCHEM_COMPOUND_CID>
10502358

> <PUBCHEM_CONFORMER_RMSD>
0.8

> <PUBCHEM_CONFORMER_DIVERSEORDER>
1
16
15
10
11
6
7
5
14
17
2
8
12
13
9
4
3

> <PUBCHEM_MMFF94_PARTIAL_CHARGES>
21
1 -0.68
12 -0.28
14 0.28
18 -0.29
19 0.14
2 -0.68
26 0.28
27 0.28
28 0.28
29 0.28
3 -0.68
4 -0.68
43 0.15
5 -0.68
6 0.14
62 0.4
64 0.4
65 0.4
71 0.4
72 0.4
9 0.14

> <PUBCHEM_EFFECTIVE_ROTOR_COUNT>
6.8

> <PUBCHEM_PHARMACOPHORE_FEATURES>
14
1 1 acceptor
1 1 donor
1 2 acceptor
1 2 donor
1 3 acceptor
1 3 donor
1 4 acceptor
1 4 donor
1 5 acceptor
1 5 donor
5 6 12 14 19 20 rings
5 6 7 11 13 17 rings
5 8 9 10 15 16 rings
6 6 7 8 9 12 18 rings

> <PUBCHEM_HEAVY_ATOM_COUNT>
30

> <PUBCHEM_ATOM_DEF_STEREO_COUNT>
11

> <PUBCHEM_ATOM_UDEF_STEREO_COUNT>
0

> <PUBCHEM_BOND_DEF_STEREO_COUNT>
0

> <PUBCHEM_BOND_UDEF_STEREO_COUNT>
0

> <PUBCHEM_ISOTOPIC_ATOM_COUNT>
0

> <PUBCHEM_COMPONENT_COUNT>
1

> <PUBCHEM_CACTVS_TAUTO_COUNT>
1

> <PUBCHEM_CONFORMER_ID>
00A040D600000001

> <PUBCHEM_MMFF94_ENERGY>
125.5389

> <PUBCHEM_FEATURE_SELFOVERLAP>
71.372

> <PUBCHEM_SHAPE_FINGERPRINT>
10076449 9 18334862663489994150
10411042 1 17838618860566210238
10816530 90 17968664925844644068
11578080 2 17700115888906597280
11646440 116 18411139121285924808
11796584 16 15410892955439315703
12011746 2 18411141308273370310
12035758 1 18187070768154099128
12166972 35 18413671305397311504
12236239 1 17489585654015385683
12403259 415 18261385641898646284
12633257 1 16660915669089859344
12788726 201 15769503045263137883
13140716 1 18338788040302644730
13402501 40 18260260833214242285
13533116 47 18131632262458130690
13782708 43 17095238095052844227
14170010 4 18409445873457828892
144659 39 17775000245418764615
15183329 4 18411702076061593333
15238133 3 17895193350809130652
15664445 248 14189287197065546290
15849732 13 18411417320051570326
16728300 4 16736606994724173666
17349148 13 18343587326109216698
20715895 44 18413386544574966267
21033648 29 18187082909815518746
21033650 10 16127559028069657179
21709351 56 18336538387334219655
21781051 124 18041581216102623019
21792961 116 17749964245949166554
22149856 69 18338813294694488843
23559900 14 18334016085958801138
25222932 49 11815598783957600852
3004659 81 18040152920591301340
3178227 256 18041005016021716547
335352 9 18411417311498695198
34797466 226 16988848315141356725
350125 39 18259705596668377348
3633792 109 18131354107617838048
3680242 22 18187361008805568411
4340502 62 18408604760227466395
474 4 18334858333387447515
495365 180 18059565936688211226
5104073 3 18335136556910535043
513532 50 17846506919996323902
57724786 102 17386291020637358732
59755656 215 18335415725389430806
70251023 43 17978515230894574210
8509985 295 18114177549457841084
9999458 23 17095521812149987502

> <PUBCHEM_SHAPE_MULTIPOLES>
588.04
15.33
2.46
1.58
23.61
0.08
-0.34
-2.84
0.39
-2.09
-0.16
-0.2
-0.41
0.58

> <PUBCHEM_SHAPE_SELFOVERLAP>
1244.406

> <PUBCHEM_SHAPE_VOLUME>
332

> <PUBCHEM_COORDINATE_TYPE>
2
5
10

$$$$
