10503176
  -OEChem-03292013303D

 55 56  0     1  0  0  0  0  0999 V2000
    4.3973    1.0717   -1.8242 S   0  0  0  0  0  0  0  0  0  0  0  0
    2.2297   -2.1902    1.7343 S   0  0  0  0  0  0  0  0  0  0  0  0
   -3.9559   -1.8710   -2.0213 O   0  0  0  0  0  0  0  0  0  0  0  0
   -4.7454   -0.0927    1.8164 O   0  0  0  0  0  0  0  0  0  0  0  0
    6.4475    2.2089    1.1386 O   0  0  0  0  0  0  0  0  0  0  0  0
   -1.6618    2.7898    0.1523 O   0  0  0  0  0  0  0  0  0  0  0  0
   -3.6076    3.1183   -1.0465 O   0  0  0  0  0  0  0  0  0  0  0  0
    4.3835   -0.5488    0.1899 N   0  0  0  0  0  0  0  0  0  0  0  0
    0.7303   -1.0502   -0.0363 N   0  0  0  0  0  0  0  0  0  0  0  0
   -4.3524    0.0663   -0.5875 C   0  0  1  0  0  0  0  0  0  0  0  0
   -3.6570   -1.3112   -0.7446 C   0  0  2  0  0  0  0  0  0  0  0  0
   -5.8373   -0.0246   -0.9641 C   0  0  0  0  0  0  0  0  0  0  0  0
   -4.1973    0.6677    0.8025 C   0  0  0  0  0  0  0  0  0  0  0  0
   -2.1689   -1.2330   -0.4803 C   0  0  0  0  0  0  0  0  0  0  0  0
    6.6241    0.3285   -0.3782 C   0  0  1  0  0  0  0  0  0  0  0  0
   -1.4995   -1.8846    0.4871 C   0  0  0  0  0  0  0  0  0  0  0  0
    5.1622    0.1994   -0.5597 C   0  0  0  0  0  0  0  0  0  0  0  0
   -3.5758    1.8455    0.9950 C   0  0  0  0  0  0  0  0  0  0  0  0
    7.0348    0.9202    0.9967 C   0  0  0  0  0  0  0  0  0  0  0  0
    7.3789   -1.0098   -0.5690 C   0  0  0  0  0  0  0  0  0  0  0  0
   -0.0829   -1.8369    0.7559 C   0  0  0  0  0  0  0  0  0  0  0  0
    3.0830   -0.4307   -0.2604 C   0  0  0  0  0  0  0  0  0  0  0  0
   -3.8714   -3.2879   -1.9975 C   0  0  0  0  0  0  0  0  0  0  0  0
    1.9700   -1.1590    0.3875 C   0  0  0  0  0  0  0  0  0  0  0  0
    2.8932    0.4030   -1.3425 C   0  0  0  0  0  0  0  0  0  0  0  0
    0.5489   -2.5298    1.7672 C   0  0  0  0  0  0  0  0  0  0  0  0
   -2.9929    2.6583   -0.0980 C   0  0  0  0  0  0  0  0  0  0  0  0
   -5.7506    0.6314    2.4980 C   0  0  0  0  0  0  0  0  0  0  0  0
   -0.9267    3.5513   -0.8113 C   0  0  0  0  0  0  0  0  0  0  0  0
   -3.9090    0.7131   -1.3527 H   0  0  0  0  0  0  0  0  0  0  0  0
   -4.1061   -1.9657    0.0178 H   0  0  0  0  0  0  0  0  0  0  0  0
   -6.3642   -0.7631   -0.3496 H   0  0  0  0  0  0  0  0  0  0  0  0
   -5.9641   -0.3113   -2.0135 H   0  0  0  0  0  0  0  0  0  0  0  0
   -6.3348    0.9429   -0.8326 H   0  0  0  0  0  0  0  0  0  0  0  0
   -1.6145   -0.5901   -1.1620 H   0  0  0  0  0  0  0  0  0  0  0  0
    7.0180    1.0188   -1.1379 H   0  0  0  0  0  0  0  0  0  0  0  0
   -2.0840   -2.5239    1.1471 H   0  0  0  0  0  0  0  0  0  0  0  0
   -3.4256    2.2336    1.9979 H   0  0  0  0  0  0  0  0  0  0  0  0
    6.6834    0.2878    1.8192 H   0  0  0  0  0  0  0  0  0  0  0  0
    8.1223    1.0262    1.0662 H   0  0  0  0  0  0  0  0  0  0  0  0
    8.4613   -0.8620   -0.4938 H   0  0  0  0  0  0  0  0  0  0  0  0
    7.1619   -1.4368   -1.5542 H   0  0  0  0  0  0  0  0  0  0  0  0
    7.0783   -1.7439    0.1869 H   0  0  0  0  0  0  0  0  0  0  0  0
   -2.8619   -3.6229   -1.7421 H   0  0  0  0  0  0  0  0  0  0  0  0
   -4.6003   -3.7097   -1.2983 H   0  0  0  0  0  0  0  0  0  0  0  0
   -4.1084   -3.6581   -2.9989 H   0  0  0  0  0  0  0  0  0  0  0  0
    1.9797    0.6524   -1.8646 H   0  0  0  0  0  0  0  0  0  0  0  0
    0.1254   -3.1988    2.5035 H   0  0  0  0  0  0  0  0  0  0  0  0
   -5.3187    1.4037    3.1430 H   0  0  0  0  0  0  0  0  0  0  0  0
   -6.4785    1.0746    1.8088 H   0  0  0  0  0  0  0  0  0  0  0  0
   -6.2902   -0.0690    3.1431 H   0  0  0  0  0  0  0  0  0  0  0  0
    6.7219    2.5525    2.0059 H   0  0  0  0  0  0  0  0  0  0  0  0
   -0.9883    3.0767   -1.7953 H   0  0  0  0  0  0  0  0  0  0  0  0
   -1.3050    4.5772   -0.8518 H   0  0  0  0  0  0  0  0  0  0  0  0
    0.1206    3.5747   -0.4986 H   0  0  0  0  0  0  0  0  0  0  0  0
  1 17  1  0  0  0  0
  1 25  1  0  0  0  0
  2 24  1  0  0  0  0
  2 26  1  0  0  0  0
  3 11  1  0  0  0  0
  3 23  1  0  0  0  0
  4 13  1  0  0  0  0
  4 28  1  0  0  0  0
  5 19  1  0  0  0  0
  5 52  1  0  0  0  0
  6 27  1  0  0  0  0
  6 29  1  0  0  0  0
  7 27  2  0  0  0  0
  8 17  2  0  0  0  0
  8 22  1  0  0  0  0
  9 21  1  0  0  0  0
  9 24  2  0  0  0  0
 10 11  1  0  0  0  0
 10 12  1  0  0  0  0
 10 13  1  0  0  0  0
 10 30  1  0  0  0  0
 11 14  1  0  0  0  0
 11 31  1  0  0  0  0
 12 32  1  0  0  0  0
 12 33  1  0  0  0  0
 12 34  1  0  0  0  0
 13 18  2  0  0  0  0
 14 16  2  0  0  0  0
 14 35  1  0  0  0  0
 15 17  1  0  0  0  0
 15 19  1  0  0  0  0
 15 20  1  0  0  0  0
 15 36  1  0  0  0  0
 16 21  1  0  0  0  0
 16 37  1  0  0  0  0
 18 27  1  0  0  0  0
 18 38  1  0  0  0  0
 19 39  1  0  0  0  0
 19 40  1  0  0  0  0
 20 41  1  0  0  0  0
 20 42  1  0  0  0  0
 20 43  1  0  0  0  0
 21 26  2  0  0  0  0
 22 24  1  0  0  0  0
 22 25  2  0  0  0  0
 23 44  1  0  0  0  0
 23 45  1  0  0  0  0
 23 46  1  0  0  0  0
 25 47  1  0  0  0  0
 26 48  1  0  0  0  0
 28 49  1  0  0  0  0
 28 50  1  0  0  0  0
 28 51  1  0  0  0  0
 29 53  1  0  0  0  0
 29 54  1  0  0  0  0
 29 55  1  0  0  0  0
M  END
> <PUBCHEM_COMPOUND_CID>
10503176

> <PUBCHEM_CONFORMER_RMSD>
1

> <PUBCHEM_CONFORMER_DIVERSEORDER>
1
73
110
26
5
68
31
106
113
75
128
12
55
10
105
93
121
67
19
149
70
36
144
122
43
109
94
57
34
126
125
32
41
50
25
71
21
66
98
52
140
114
87
22
47
6
116
143
83
131
62
80
24
139
53
17
49
127
56
18
145
59
95
14
130
15
115
7
138
129
152
35
42
148
82
61
89
65
48
33
3
20
124
45
9
2
96
23
79
119
46
27
136
51
133
8
88
77
37
97
38
90
112
39
60
16
120
153
104
154
137
63
151
123
107
64
72
146
54
84
100
108
85
74
81
117
134
76
132
44
155
150
30
103
91
78
4
141
92
11
101
69
142
28
58
29
118
135
86
147
111
40
13
99
102

> <PUBCHEM_MMFF94_PARTIAL_CHARGES>
33
1 -0.08
10 0.14
11 0.42
13 -0.06
14 -0.29
15 0.18
16 -0.1
17 0.2
18 -0.14
19 0.28
2 -0.08
21 0.18
22 0.23
23 0.28
24 0.38
25 -0.11
26 -0.11
27 0.71
28 0.28
29 0.28
3 -0.56
35 0.15
37 0.15
38 0.15
4 -0.36
47 0.15
48 0.15
5 -0.68
52 0.4
6 -0.43
7 -0.57
8 -0.57
9 -0.57

> <PUBCHEM_EFFECTIVE_ROTOR_COUNT>
11

> <PUBCHEM_PHARMACOPHORE_FEATURES>
11
1 12 hydrophobe
1 20 hydrophobe
1 3 acceptor
1 4 acceptor
1 5 acceptor
1 5 donor
1 7 acceptor
1 8 acceptor
1 9 acceptor
5 1 8 17 22 25 rings
5 2 9 21 24 26 rings

> <PUBCHEM_HEAVY_ATOM_COUNT>
29

> <PUBCHEM_ATOM_DEF_STEREO_COUNT>
2

> <PUBCHEM_ATOM_UDEF_STEREO_COUNT>
1

> <PUBCHEM_BOND_DEF_STEREO_COUNT>
2

> <PUBCHEM_BOND_UDEF_STEREO_COUNT>
0

> <PUBCHEM_ISOTOPIC_ATOM_COUNT>
0

> <PUBCHEM_COMPONENT_COUNT>
1

> <PUBCHEM_CACTVS_TAUTO_COUNT>
2

> <PUBCHEM_CONFORMER_ID>
00A0440800000001

> <PUBCHEM_MMFF94_ENERGY>
56.6092

> <PUBCHEM_FEATURE_SELFOVERLAP>
55.825

> <PUBCHEM_SHAPE_FINGERPRINT>
10087517 78 18411132563287425940
10165383 225 17489316235676844875
10670039 82 18410008814953275302
10815517 723 18186803557080147396
10864689 126 18195808458227548476
10871710 139 18337105666999692989
13947920 75 18273491282416886031
14394314 77 18337112268143725177
14739800 52 18337091433361796250
14840074 17 18411709755885085769
14932701 244 17846223211526713704
15183329 4 18343301440655254166
15575132 122 18337954472838781901
15876981 60 18340485681348677247
20511986 3 18041829602714497685
21756936 100 18408611357239373467
21864079 5 18189053092939956835
23198884 109 17275110509349531499
2838139 119 18409729565244442762
392239 28 17968962867060549625
4098825 35 17418100879787155670
469060 322 17530965765452736813
6299153 45 18115582631277459562
6371009 1 18186797002670344524
6608658 132 18337096938935324103

> <PUBCHEM_SHAPE_MULTIPOLES>
565.2
17.72
3.57
1.94
21.99
1.52
0.19
4.4
0.5
-3.16
-0.42
-1.79
-0.71
-1.83

> <PUBCHEM_SHAPE_SELFOVERLAP>
1134.339

> <PUBCHEM_SHAPE_VOLUME>
337.5

> <PUBCHEM_COORDINATE_TYPE>
2
5
10

$$$$
