REMARK  Name = 10501396
REMARK  10 active torsions:
REMARK  status: ('A' for Active; 'I' for Inactive)
REMARK    1  A    between atoms: C_3  and  C_11
REMARK    2  A    between atoms: C_4  and  C_30
REMARK    3  A    between atoms: C_7  and  O_23
REMARK    4  A    between atoms: C_9  and  C_25
REMARK    5  A    between atoms: C_14  and  O_17
REMARK    6  A    between atoms: C_15  and  O_19
REMARK    7  A    between atoms: C_16  and  O_21
REMARK    8  A    between atoms: C_26  and  C_27
REMARK    9  A    between atoms: C_27  and  O_28
REMARK   10  A    between atoms: C_30  and  O_31
REMARK                            x       y       z     vdW  Elec       q    Type
REMARK                         _______ _______ _______ _____ _____    ______ ____
ROOT
ATOM      1  O   UNL     1       0.136   0.704  -0.174  0.00  0.00    -0.468 OA
ATOM      2  O   UNL     1       0.820  -2.088  -0.326  0.00  0.00    -0.466 OA
ATOM      3  C   UNL     1      -0.797  -0.297  -0.617  0.00  0.00    +0.231 C 
ATOM      4  C   UNL     1      -0.489  -1.639   0.067  0.00  0.00    +0.239 C 
ATOM      5  C   UNL     1       1.760  -1.097  -0.246  0.00  0.00    +0.206 C 
ATOM      6  C   UNL     1       1.428   0.255  -0.162  0.00  0.00    +0.176 C 
ATOM      7  C   UNL     1       3.099  -1.488  -0.264  0.00  0.00    +0.175 C 
ATOM      8  C   UNL     1       2.434   1.215  -0.051  0.00  0.00    +0.040 C 
ATOM      9  C   UNL     1       3.772   0.823  -0.055  0.00  0.00    +0.006 C 
ATOM     10  C   UNL     1       4.105  -0.527  -0.167  0.00  0.00    +0.040 C 
ENDROOT
BRANCH   3  11
ATOM     11  C   UNL     1      -2.183   0.235  -0.322  0.00  0.00    +0.027 C 
ATOM     12  C   UNL     1      -2.581   0.447   0.998  0.00  0.00    +0.040 C 
ATOM     13  C   UNL     1      -3.060   0.513  -1.369  0.00  0.00    +0.040 C 
ATOM     14  C   UNL     1      -4.338   1.004  -1.097  0.00  0.00    +0.175 C 
ATOM     15  C   UNL     1      -3.858   0.938   1.270  0.00  0.00    +0.175 C 
ATOM     16  C   UNL     1      -4.736   1.216   0.223  0.00  0.00    +0.202 C 
BRANCH  14  17
ATOM     17  O   UNL     1      -5.186   1.269  -2.129  0.00  0.00    -0.468 OA
ATOM     18  C   UNL     1      -6.033   0.206  -2.562  0.00  0.00    +0.253 C 
ENDBRANCH  14  17
BRANCH  15  19
ATOM     19  O   UNL     1      -4.236   1.138   2.563  0.00  0.00    -0.468 OA
ATOM     20  C   UNL     1      -4.859   0.044   3.234  0.00  0.00    +0.253 C 
ENDBRANCH  15  19
BRANCH  16  21
ATOM     21  O   UNL     1      -5.986   1.693   0.489  0.00  0.00    -0.501 OA
ATOM     22  H   UNL     1      -6.576   1.879  -0.215  0.00  0.00    +0.292 HD
ENDBRANCH  16  21
ENDBRANCH   3  11
BRANCH   7  23
ATOM     23  O   UNL     1       3.441  -2.803  -0.363  0.00  0.00    -0.468 OA
ATOM     24  C   UNL     1       3.593  -3.527   0.857  0.00  0.00    +0.253 C 
ENDBRANCH   7  23
BRANCH   9  25
ATOM     25  C   UNL     1       4.823   1.823   0.053  0.00  0.00    -0.002 C 
ATOM     26  C   UNL     1       6.115   1.657  -0.309  0.00  0.00    +0.005 C 
BRANCH  26  27
ATOM     27  C   UNL     1       7.158   2.722  -0.193  0.00  0.00    +0.163 C 
BRANCH  27  28
ATOM     28  O   UNL     1       8.205   2.247   0.642  0.00  0.00    -0.377 OA
ATOM     29  H   UNL     1       8.888   2.931   0.725  0.00  0.00    +0.211 HD
ENDBRANCH  27  28
ENDBRANCH  26  27
ENDBRANCH   9  25
BRANCH   4  30
ATOM     30  C   UNL     1      -1.460  -2.747  -0.332  0.00  0.00    +0.185 C 
BRANCH  30  31
ATOM     31  O   UNL     1      -1.086  -3.936   0.339  0.00  0.00    -0.378 OA
ATOM     32  H   UNL     1      -1.695  -4.651   0.095  0.00  0.00    +0.211 HD
ENDBRANCH  30  31
ENDBRANCH   4  30
TORSDOF 10
