REMARK  Name = 10502697
REMARK  7 active torsions:
REMARK  status: ('A' for Active; 'I' for Inactive)
REMARK    1  A    between atoms: C_7  and  O_28
REMARK    2  A    between atoms: C_8  and  O_20
REMARK    3  A    between atoms: C_9  and  O_22
REMARK    4  A    between atoms: C_10  and  O_24
REMARK    5  A    between atoms: C_15  and  O_26
REMARK    6  A    between atoms: O_28  and  C_30
REMARK    7  A    between atoms: C_30  and  C_31
REMARK                            x       y       z     vdW  Elec       q    Type
REMARK                         _______ _______ _______ _____ _____    ______ ____
ROOT
ATOM      1  O   UNL     1      -3.527   2.462  -1.655  0.00  0.00    -0.270 OA
ATOM      2  O   UNL     1      -3.152  -3.031   1.308  0.00  0.00    -0.435 OA
ATOM      3  O   UNL     1      -4.790  -2.326  -0.311  0.00  0.00    -0.431 OA
ATOM      4  N   UNL     1      -1.355   2.651  -0.938  0.00  0.00    -0.299 N 
ATOM      5  C   UNL     1      -0.524   1.208   0.859  0.00  0.00    +0.086 C 
ATOM      6  C   UNL     1      -0.153   2.019  -0.403  0.00  0.00    +0.109 C 
ATOM      7  C   UNL     1       0.734   0.575   1.498  0.00  0.00    +0.204 C 
ATOM      8  C   UNL     1       0.921   3.075  -0.093  0.00  0.00    +0.158 C 
ATOM      9  C   UNL     1       1.814   1.629   1.798  0.00  0.00    +0.180 C 
ATOM     10  C   UNL     1       2.168   2.475   0.571  0.00  0.00    +0.169 C 
ATOM     11  C   UNL     1      -1.657   0.246   0.513  0.00  0.00    -0.007 C 
ATOM     12  C   UNL     1      -2.643   0.652  -0.426  0.00  0.00    +0.086 C 
ATOM     13  C   UNL     1      -2.560   1.989  -1.066  0.00  0.00    +0.249 C 
ATOM     14  C   UNL     1      -1.802  -1.003   1.142  0.00  0.00    +0.036 C 
ATOM     15  C   UNL     1      -3.730  -0.174  -0.752  0.00  0.00    +0.175 C 
ATOM     16  C   UNL     1      -2.879  -1.798   0.798  0.00  0.00    +0.179 C 
ATOM     17  C   UNL     1      -3.813  -1.397  -0.124  0.00  0.00    +0.210 C 
ATOM     18  C   UNL     1      -4.362  -3.361   0.598  0.00  0.00    +0.429 C 
ATOM     19  H   UNL     1      -1.304   3.592  -1.222  0.00  0.00    +0.150 HD
ENDROOT
BRANCH   8  20
ATOM     20  O   UNL     1       1.341   3.726  -1.293  0.00  0.00    -0.380 OA
ATOM     21  H   UNL     1       0.570   4.116  -1.736  0.00  0.00    +0.211 HD
ENDBRANCH   8  20
BRANCH   9  22
ATOM     22  O   UNL     1       1.343   2.475   2.844  0.00  0.00    -0.379 OA
ATOM     23  H   UNL     1       1.120   1.938   3.620  0.00  0.00    +0.211 HD
ENDBRANCH   9  22
BRANCH  10  24
ATOM     24  O   UNL     1       2.901   1.684  -0.365  0.00  0.00    -0.379 OA
ATOM     25  H   UNL     1       3.122   2.223  -1.141  0.00  0.00    +0.211 HD
ENDBRANCH  10  24
BRANCH  15  26
ATOM     26  O   UNL     1      -4.683   0.165  -1.659  0.00  0.00    -0.503 OA
ATOM     27  H   UNL     1      -4.641   0.992  -2.095  0.00  0.00    +0.292 HD
ENDBRANCH  15  26
BRANCH   7  28
ATOM     28  O   UNL     1       1.269  -0.415   0.622  0.00  0.00    -0.446 OA
BRANCH  28  30
ATOM     29  O   UNL     1       2.664  -1.284   2.234  0.00  0.00    -0.245 OA
ATOM     30  C   UNL     1       2.378  -1.061   1.068  0.00  0.00    +0.341 C 
BRANCH  30  31
ATOM     31  C   UNL     1       3.231  -1.478  -0.074  0.00  0.00    +0.076 C 
ATOM     32  C   UNL     1       4.596  -1.559   0.106  0.00  0.00    +0.006 C 
ATOM     33  C   UNL     1       2.631  -1.772  -1.282  0.00  0.00    +0.006 C 
ATOM     34  C   UNL     1       5.396  -1.952  -0.966  0.00  0.00    +0.000 C 
ATOM     35  C   UNL     1       3.431  -2.164  -2.355  0.00  0.00    +0.000 C 
ATOM     36  C   UNL     1       4.814  -2.255  -2.197  0.00  0.00    +0.000 C 
ENDBRANCH  30  31
ENDBRANCH  28  30
ENDBRANCH   7  28
TORSDOF 7
