10502697
  -OEChem-03292013303D

 50 54  0     1  0  0  0  0  0999 V2000
    1.2689   -0.4153    0.6223 O   0  0  0  0  0  0  0  0  0  0  0  0
    1.3405    3.7257   -1.2933 O   0  0  0  0  0  0  0  0  0  0  0  0
    1.3432    2.4754    2.8438 O   0  0  0  0  0  0  0  0  0  0  0  0
    2.9008    1.6839   -0.3655 O   0  0  0  0  0  0  0  0  0  0  0  0
   -3.5269    2.4625   -1.6554 O   0  0  0  0  0  0  0  0  0  0  0  0
   -3.1518   -3.0307    1.3085 O   0  0  0  0  0  0  0  0  0  0  0  0
   -4.7897   -2.3263   -0.3110 O   0  0  0  0  0  0  0  0  0  0  0  0
   -4.6833    0.1645   -1.6585 O   0  0  0  0  0  0  0  0  0  0  0  0
    2.6645   -1.2842    2.2337 O   0  0  0  0  0  0  0  0  0  0  0  0
   -1.3554    2.6505   -0.9383 N   0  0  0  0  0  0  0  0  0  0  0  0
   -0.5245    1.2075    0.8586 C   0  0  2  0  0  0  0  0  0  0  0  0
   -0.1535    2.0189   -0.4025 C   0  0  2  0  0  0  0  0  0  0  0  0
    0.7342    0.5754    1.4984 C   0  0  2  0  0  0  0  0  0  0  0  0
    0.9213    3.0753   -0.0935 C   0  0  1  0  0  0  0  0  0  0  0  0
    1.8143    1.6290    1.7984 C   0  0  1  0  0  0  0  0  0  0  0  0
    2.1678    2.4751    0.5705 C   0  0  1  0  0  0  0  0  0  0  0  0
   -1.6573    0.2456    0.5133 C   0  0  0  0  0  0  0  0  0  0  0  0
   -2.6433    0.6518   -0.4264 C   0  0  0  0  0  0  0  0  0  0  0  0
   -2.5603    1.9891   -1.0656 C   0  0  0  0  0  0  0  0  0  0  0  0
   -1.8024   -1.0030    1.1423 C   0  0  0  0  0  0  0  0  0  0  0  0
   -3.7298   -0.1744   -0.7522 C   0  0  0  0  0  0  0  0  0  0  0  0
   -2.8787   -1.7982    0.7980 C   0  0  0  0  0  0  0  0  0  0  0  0
   -3.8134   -1.3970   -0.1238 C   0  0  0  0  0  0  0  0  0  0  0  0
    2.3781   -1.0614    1.0676 C   0  0  0  0  0  0  0  0  0  0  0  0
   -4.3625   -3.3607    0.5981 C   0  0  0  0  0  0  0  0  0  0  0  0
    3.2309   -1.4775   -0.0743 C   0  0  0  0  0  0  0  0  0  0  0  0
    4.5965   -1.5590    0.1065 C   0  0  0  0  0  0  0  0  0  0  0  0
    2.6306   -1.7717   -1.2815 C   0  0  0  0  0  0  0  0  0  0  0  0
    5.3965   -1.9518   -0.9664 C   0  0  0  0  0  0  0  0  0  0  0  0
    3.4307   -2.1644   -2.3546 C   0  0  0  0  0  0  0  0  0  0  0  0
    4.8137   -2.2545   -2.1970 C   0  0  0  0  0  0  0  0  0  0  0  0
   -0.9634    1.8955    1.5962 H   0  0  0  0  0  0  0  0  0  0  0  0
    0.2022    1.3509   -1.1991 H   0  0  0  0  0  0  0  0  0  0  0  0
    0.4422    0.0981    2.4432 H   0  0  0  0  0  0  0  0  0  0  0  0
    0.4951    3.8533    0.5506 H   0  0  0  0  0  0  0  0  0  0  0  0
    2.7315    1.1675    2.1740 H   0  0  0  0  0  0  0  0  0  0  0  0
    2.8257    3.3035    0.8614 H   0  0  0  0  0  0  0  0  0  0  0  0
   -1.2636    3.5539   -1.3933 H   0  0  0  0  0  0  0  0  0  0  0  0
   -1.1007   -1.3584    1.8878 H   0  0  0  0  0  0  0  0  0  0  0  0
    1.7239    3.0493   -1.8776 H   0  0  0  0  0  0  0  0  0  0  0  0
    0.5892    2.9950    2.5237 H   0  0  0  0  0  0  0  0  0  0  0  0
    3.7316    1.4202    0.0655 H   0  0  0  0  0  0  0  0  0  0  0  0
   -4.1953   -4.2820    0.0283 H   0  0  0  0  0  0  0  0  0  0  0  0
   -5.1606   -3.5380    1.3281 H   0  0  0  0  0  0  0  0  0  0  0  0
   -5.3285   -0.5612   -1.7208 H   0  0  0  0  0  0  0  0  0  0  0  0
    5.0620   -1.3218    1.0586 H   0  0  0  0  0  0  0  0  0  0  0  0
    1.5556   -1.7219   -1.4268 H   0  0  0  0  0  0  0  0  0  0  0  0
    6.4735   -2.0209   -0.8442 H   0  0  0  0  0  0  0  0  0  0  0  0
    2.9768   -2.4027   -3.3120 H   0  0  0  0  0  0  0  0  0  0  0  0
    5.4366   -2.5606   -3.0323 H   0  0  0  0  0  0  0  0  0  0  0  0
  1 13  1  0  0  0  0
  1 24  1  0  0  0  0
  2 14  1  0  0  0  0
  2 40  1  0  0  0  0
  3 15  1  0  0  0  0
  3 41  1  0  0  0  0
  4 16  1  0  0  0  0
  4 42  1  0  0  0  0
  5 19  2  0  0  0  0
  6 22  1  0  0  0  0
  6 25  1  0  0  0  0
  7 23  1  0  0  0  0
  7 25  1  0  0  0  0
  8 21  1  0  0  0  0
  8 45  1  0  0  0  0
  9 24  2  0  0  0  0
 10 12  1  0  0  0  0
 10 19  1  0  0  0  0
 10 38  1  0  0  0  0
 11 12  1  0  0  0  0
 11 13  1  0  0  0  0
 11 17  1  0  0  0  0
 11 32  1  0  0  0  0
 12 14  1  0  0  0  0
 12 33  1  0  0  0  0
 13 15  1  0  0  0  0
 13 34  1  0  0  0  0
 14 16  1  0  0  0  0
 14 35  1  0  0  0  0
 15 16  1  0  0  0  0
 15 36  1  0  0  0  0
 16 37  1  0  0  0  0
 17 18  1  0  0  0  0
 17 20  2  0  0  0  0
 18 19  1  0  0  0  0
 18 21  2  0  0  0  0
 20 22  1  0  0  0  0
 20 39  1  0  0  0  0
 21 23  1  0  0  0  0
 22 23  2  0  0  0  0
 24 26  1  0  0  0  0
 25 43  1  0  0  0  0
 25 44  1  0  0  0  0
 26 27  2  0  0  0  0
 26 28  1  0  0  0  0
 27 29  1  0  0  0  0
 27 46  1  0  0  0  0
 28 30  2  0  0  0  0
 28 47  1  0  0  0  0
 29 31  2  0  0  0  0
 29 48  1  0  0  0  0
 30 31  1  0  0  0  0
 30 49  1  0  0  0  0
 31 50  1  0  0  0  0
M  END
> <PUBCHEM_COMPOUND_CID>
10502697

> <PUBCHEM_CONFORMER_RMSD>
0.8

> <PUBCHEM_CONFORMER_DIVERSEORDER>
1
4
3
2

> <PUBCHEM_MMFF94_PARTIAL_CHARGES>
42
1 -0.43
10 -0.73
11 0.14
12 0.3
13 0.28
14 0.28
15 0.28
16 0.28
17 -0.14
18 0.09
19 0.54
2 -0.68
20 -0.15
21 0.08
22 0.08
23 0.08
24 0.63
25 0.56
26 0.09
27 -0.15
28 -0.15
29 -0.15
3 -0.68
30 -0.15
31 -0.15
38 0.37
39 0.15
4 -0.68
40 0.4
41 0.4
42 0.4
45 0.45
46 0.15
47 0.15
48 0.15
49 0.15
5 -0.57
50 0.15
6 -0.36
7 -0.36
8 -0.53
9 -0.57

> <PUBCHEM_EFFECTIVE_ROTOR_COUNT>
4.6

> <PUBCHEM_PHARMACOPHORE_FEATURES>
17
1 10 donor
1 2 acceptor
1 2 donor
1 3 acceptor
1 3 donor
1 4 acceptor
1 4 donor
1 5 acceptor
1 6 acceptor
1 7 acceptor
1 8 donor
1 9 acceptor
5 6 7 22 23 25 rings
6 10 11 12 17 18 19 rings
6 11 12 13 14 15 16 rings
6 17 18 20 21 22 23 rings
6 26 27 28 29 30 31 rings

> <PUBCHEM_HEAVY_ATOM_COUNT>
31

> <PUBCHEM_ATOM_DEF_STEREO_COUNT>
6

> <PUBCHEM_ATOM_UDEF_STEREO_COUNT>
0

> <PUBCHEM_BOND_DEF_STEREO_COUNT>
0

> <PUBCHEM_BOND_UDEF_STEREO_COUNT>
0

> <PUBCHEM_ISOTOPIC_ATOM_COUNT>
0

> <PUBCHEM_COMPONENT_COUNT>
1

> <PUBCHEM_CACTVS_TAUTO_COUNT>
22

> <PUBCHEM_CONFORMER_ID>
00A0422900000001

> <PUBCHEM_MMFF94_ENERGY>
101.4399

> <PUBCHEM_FEATURE_SELFOVERLAP>
86.489

> <PUBCHEM_SHAPE_FINGERPRINT>
11477941 20 17906494011387279558
11488393 25 18193289700420610728
11578080 2 16300597973226050732
12422481 6 17982700208567205112
12553582 1 18335140830424125675
12623949 98 17984715668852457263
12788726 201 17830735357477549992
133893 2 18050316895892799224
13544653 18 17560239116118092534
13690498 29 18334022691555186087
14251757 5 18190185585368086231
14790565 3 17544474159085226629
14932701 244 15432326903545944067
15475509 8 18126567817469596061
15664445 248 17826803834603798037
17357779 13 17988074466378963686
17909252 39 18266188407694637128
19315092 285 16341989179075168559
19319366 153 16952534576843214067
20028762 73 16679800060512822539
20693207 138 18410568487857140863
20775530 9 18412549824737542035
22182313 1 18339346565342251833
22393880 68 18260545602436111030
22440779 20 16880230851600166657
2260408 40 17616004391996411587
23559900 14 18336254726087195133
3886686 26 11887131846498216420
4280585 95 18335134242519065690
437815 12 18059859415950866267
46194498 28 18264491852452015302
5895379 119 14131545183959656951
6823239 73 18335977640297990402
70251023 43 18335714887332149875
9709674 26 18262787588418141481

> <PUBCHEM_SHAPE_MULTIPOLES>
580.16
9.72
4.35
2.07
1.26
1.27
0.22
-10
-4.08
-0.55
-0.46
1.1
0.19
3.15

> <PUBCHEM_SHAPE_SELFOVERLAP>
1300.491

> <PUBCHEM_SHAPE_VOLUME>
301.3

> <PUBCHEM_COORDINATE_TYPE>
2
5
10

$$$$
