REMARK  Name = 10502358
REMARK  10 active torsions:
REMARK  status: ('A' for Active; 'I' for Inactive)
REMARK    1  A    between atoms: C_5  and  C_22
REMARK    2  A    between atoms: C_9  and  O_20
REMARK    3  A    between atoms: C_22  and  C_23
REMARK    4  A    between atoms: C_23  and  O_24
REMARK    5  A    between atoms: C_23  and  C_26
REMARK    6  A    between atoms: C_26  and  O_27
REMARK    7  A    between atoms: C_26  and  C_29
REMARK    8  A    between atoms: C_29  and  O_31
REMARK    9  A    between atoms: C_29  and  C_33
REMARK   10  A    between atoms: C_33  and  O_34
REMARK                            x       y       z     vdW  Elec       q    Type
REMARK                         _______ _______ _______ _____ _____    ______ ____
ROOT
ATOM      1  C   UNL     1       3.207   0.625   0.138  0.00  0.00    +0.040 C 
ATOM      2  C   UNL     1       1.723   0.733   0.557  0.00  0.00    +0.006 C 
ATOM      3  C   UNL     1       0.782  -0.277  -0.168  0.00  0.00    +0.004 C 
ATOM      4  C   UNL     1       1.377  -1.725  -0.279  0.00  0.00    +0.018 C 
ATOM      5  C   UNL     1      -0.649  -0.461   0.498  0.00  0.00    +0.003 C 
ATOM      6  C   UNL     1       3.318   1.495  -1.153  0.00  0.00    +0.006 C 
ATOM      7  C   UNL     1       3.692  -0.797   0.048  0.00  0.00    -0.047 C 
ATOM      8  C   UNL     1       1.383   2.188   0.216  0.00  0.00    +0.000 C 
ATOM      9  C   UNL     1       4.163   1.123   1.263  0.00  0.00    +0.114 C 
ATOM     10  C   UNL     1       0.645  -2.483   0.838  0.00  0.00    +0.004 C 
ATOM     11  C   UNL     1      -0.786  -1.981   0.745  0.00  0.00    +0.000 C 
ATOM     12  C   UNL     1       2.166   2.513  -1.054  0.00  0.00    +0.000 C 
ATOM     13  C   UNL     1       2.869  -1.844  -0.096  0.00  0.00    -0.035 C 
ATOM     14  C   UNL     1       5.151  -0.918   0.433  0.00  0.00    +0.020 C 
ATOM     15  C   UNL     1       5.510   0.497   0.896  0.00  0.00    +0.034 C 
ATOM     16  C   UNL     1       1.040  -2.352  -1.651  0.00  0.00    +0.004 C 
ATOM     17  C   UNL     1      -0.864   0.257   1.845  0.00  0.00    +0.000 C 
ATOM     18  C   UNL     1       3.255   0.757  -2.491  0.00  0.00    +0.000 C 
ATOM     19  C   UNL     1       6.061  -1.408  -0.684  0.00  0.00    +0.004 C 
ENDROOT
BRANCH   9  20
ATOM     20  O   UNL     1       4.262   2.529   1.395  0.00  0.00    -0.384 OA
ATOM     21  H   UNL     1       3.394   2.894   1.628  0.00  0.00    +0.210 HD
ENDBRANCH   9  20
BRANCH   5  22
ATOM     22  C   UNL     1      -1.752   0.012  -0.466  0.00  0.00    +0.032 C 
BRANCH  22  23
ATOM     23  C   UNL     1      -3.171  -0.144   0.093  0.00  0.00    +0.140 C 
BRANCH  23  24
ATOM     24  O   UNL     1      -3.387  -1.502   0.467  0.00  0.00    -0.382 OA
ATOM     25  H   UNL     1      -2.684  -1.786   1.072  0.00  0.00    +0.210 HD
ENDBRANCH  23  24
BRANCH  23  26
ATOM     26  C   UNL     1      -4.285   0.319  -0.872  0.00  0.00    +0.164 C 
BRANCH  26  27
ATOM     27  O   UNL     1      -4.047   1.675  -1.246  0.00  0.00    -0.380 OA
ATOM     28  H   UNL     1      -3.137   1.767  -1.569  0.00  0.00    +0.211 HD
ENDBRANCH  26  27
BRANCH  26  29
ATOM     29  C   UNL     1      -5.745   0.160  -0.350  0.00  0.00    +0.142 C 
ATOM     30  C   UNL     1      -6.799   0.634  -1.358  0.00  0.00    +0.034 C 
BRANCH  29  31
ATOM     31  O   UNL     1      -6.007  -1.226  -0.101  0.00  0.00    -0.382 OA
ATOM     32  H   UNL     1      -5.359  -1.568   0.535  0.00  0.00    +0.210 HD
ENDBRANCH  29  31
BRANCH  29  33
ATOM     33  C   UNL     1      -5.911   0.908   0.989  0.00  0.00    +0.166 C 
BRANCH  33  34
ATOM     34  O   UNL     1      -7.203   0.694   1.547  0.00  0.00    -0.379 OA
ATOM     35  H   UNL     1      -7.277   1.175   2.386  0.00  0.00    +0.211 HD
ENDBRANCH  33  34
ENDBRANCH  29  33
ENDBRANCH  26  29
ENDBRANCH  23  26
ENDBRANCH  22  23
ENDBRANCH   5  22
TORSDOF 10
