105007
  -OEChem-03292013323D

 66 68  0     1  0  0  0  0  0999 V2000
   -0.5449   -2.9766   -0.9238 O   0  0  0  0  0  0  0  0  0  0  0  0
   -3.3748   -1.0263   -0.4383 O   0  0  0  0  0  0  0  0  0  0  0  0
    3.0852    0.0642   -0.4369 O   0  0  0  0  0  0  0  0  0  0  0  0
   -4.0769   -3.7331   -0.5011 O   0  0  0  0  0  0  0  0  0  0  0  0
   -1.7361    2.8867    1.7797 O   0  0  0  0  0  0  0  0  0  0  0  0
    3.6725   -1.0496    3.4418 O   0  0  0  0  0  0  0  0  0  0  0  0
   -1.7614    5.0851    0.2688 O   0  0  0  0  0  0  0  0  0  0  0  0
    4.5342    1.8296   -1.5537 O   0  0  0  0  0  0  0  0  0  0  0  0
    5.8349    2.2147    0.2875 O   0  0  0  0  0  0  0  0  0  0  0  0
    1.2838   -1.4458   -0.6759 C   0  0  0  0  0  0  0  0  0  0  0  0
    1.1180   -0.9966   -2.0925 C   0  0  0  0  0  0  0  0  0  0  0  0
    0.4357   -2.4239   -0.1554 C   0  0  0  0  0  0  0  0  0  0  0  0
    2.2807   -0.8938    0.1286 C   0  0  0  0  0  0  0  0  0  0  0  0
   -2.9123   -3.2723   -1.1902 C   0  0  2  0  0  0  0  0  0  0  0  0
   -2.5547    0.9226    0.6935 C   0  0  0  0  0  0  0  0  0  0  0  0
    1.9574   -1.8335   -3.0657 C   0  0  0  0  0  0  0  0  0  0  0  0
   -1.7220   -3.4194   -0.2515 C   0  0  0  0  0  0  0  0  0  0  0  0
    2.4274   -1.3198    1.4494 C   0  0  0  0  0  0  0  0  0  0  0  0
   -2.6172    0.2096    2.0063 C   0  0  0  0  0  0  0  0  0  0  0  0
   -3.1266   -1.8184   -1.5951 C   0  0  0  0  0  0  0  0  0  0  0  0
   -2.9374    0.2710   -0.4750 C   0  0  0  0  0  0  0  0  0  0  0  0
    0.5835   -2.8491    1.1658 C   0  0  0  0  0  0  0  0  0  0  0  0
    1.5798   -2.2986    1.9733 C   0  0  0  0  0  0  0  0  0  0  0  0
   -3.9749    0.3887    2.6968 C   0  0  0  0  0  0  0  0  0  0  0  0
   -2.1121    2.2442    0.6362 C   0  0  0  0  0  0  0  0  0  0  0  0
   -2.0542    2.9077   -0.5896 C   0  0  0  0  0  0  0  0  0  0  0  0
    3.4877   -0.7209    2.2782 C   0  0  0  0  0  0  0  0  0  0  0  0
   -2.8818    0.9283   -1.7003 C   0  0  0  0  0  0  0  0  0  0  0  0
    1.7584   -1.3928   -4.5071 C   0  0  0  0  0  0  0  0  0  0  0  0
   -2.4392    2.2497   -1.7577 C   0  0  0  0  0  0  0  0  0  0  0  0
    4.0750    0.6181    0.3474 C   0  0  0  0  0  0  0  0  0  0  0  0
    4.3261    0.3044    1.6243 C   0  0  0  0  0  0  0  0  0  0  0  0
   -4.0429   -0.3660    4.0149 C   0  0  0  0  0  0  0  0  0  0  0  0
   -1.5957    4.2875   -0.6742 C   0  0  0  0  0  0  0  0  0  0  0  0
    4.9221    1.6369   -0.2754 C   0  0  0  0  0  0  0  0  0  0  0  0
   -0.8972    4.7874   -1.9328 C   0  0  0  0  0  0  0  0  0  0  0  0
    0.0620   -1.0423   -2.3837 H   0  0  0  0  0  0  0  0  0  0  0  0
    1.3789    0.0648   -2.1925 H   0  0  0  0  0  0  0  0  0  0  0  0
   -2.7664   -3.8867   -2.0857 H   0  0  0  0  0  0  0  0  0  0  0  0
    3.0210   -1.7532   -2.8098 H   0  0  0  0  0  0  0  0  0  0  0  0
    1.6905   -2.8937   -2.9776 H   0  0  0  0  0  0  0  0  0  0  0  0
   -1.6030   -4.4746    0.0240 H   0  0  0  0  0  0  0  0  0  0  0  0
   -1.9262   -2.8591    0.6695 H   0  0  0  0  0  0  0  0  0  0  0  0
   -1.8144    0.5589    2.6683 H   0  0  0  0  0  0  0  0  0  0  0  0
   -2.4106   -0.8584    1.8682 H   0  0  0  0  0  0  0  0  0  0  0  0
   -4.0090   -1.7484   -2.2425 H   0  0  0  0  0  0  0  0  0  0  0  0
   -2.2466   -1.4860   -2.1573 H   0  0  0  0  0  0  0  0  0  0  0  0
   -0.0327   -3.6313    1.5993 H   0  0  0  0  0  0  0  0  0  0  0  0
   -4.1649    1.4529    2.8826 H   0  0  0  0  0  0  0  0  0  0  0  0
   -4.7798    0.0338    2.0417 H   0  0  0  0  0  0  0  0  0  0  0  0
    1.6844   -2.6469    2.9969 H   0  0  0  0  0  0  0  0  0  0  0  0
   -3.2077    0.4695   -2.6288 H   0  0  0  0  0  0  0  0  0  0  0  0
    2.3683   -2.0049   -5.1788 H   0  0  0  0  0  0  0  0  0  0  0  0
    2.0512   -0.3465   -4.6403 H   0  0  0  0  0  0  0  0  0  0  0  0
    0.7111   -1.4980   -4.8077 H   0  0  0  0  0  0  0  0  0  0  0  0
   -2.4257    2.7471   -2.7236 H   0  0  0  0  0  0  0  0  0  0  0  0
    5.1125    0.7572    2.2167 H   0  0  0  0  0  0  0  0  0  0  0  0
   -3.8968   -1.4397    3.8592 H   0  0  0  0  0  0  0  0  0  0  0  0
   -3.2746   -0.0112    4.7092 H   0  0  0  0  0  0  0  0  0  0  0  0
   -5.0202   -0.2205    4.4855 H   0  0  0  0  0  0  0  0  0  0  0  0
   -4.8293   -3.6495   -1.1116 H   0  0  0  0  0  0  0  0  0  0  0  0
   -1.3525    3.7548    1.5795 H   0  0  0  0  0  0  0  0  0  0  0  0
   -1.6397    5.1700   -2.6372 H   0  0  0  0  0  0  0  0  0  0  0  0
   -0.3086    3.9896   -2.3939 H   0  0  0  0  0  0  0  0  0  0  0  0
   -0.2047    5.5898   -1.6609 H   0  0  0  0  0  0  0  0  0  0  0  0
    5.0797    2.5076   -2.0064 H   0  0  0  0  0  0  0  0  0  0  0  0
  1 12  1  0  0  0  0
  1 17  1  0  0  0  0
  2 20  1  0  0  0  0
  2 21  1  0  0  0  0
  3 13  1  0  0  0  0
  3 31  1  0  0  0  0
  4 14  1  0  0  0  0
  4 61  1  0  0  0  0
  5 25  1  0  0  0  0
  5 62  1  0  0  0  0
  6 27  2  0  0  0  0
  7 34  2  0  0  0  0
  8 35  1  0  0  0  0
  8 66  1  0  0  0  0
  9 35  2  0  0  0  0
 10 11  1  0  0  0  0
 10 12  2  0  0  0  0
 10 13  1  0  0  0  0
 11 16  1  0  0  0  0
 11 37  1  0  0  0  0
 11 38  1  0  0  0  0
 12 22  1  0  0  0  0
 13 18  2  0  0  0  0
 14 17  1  0  0  0  0
 14 20  1  0  0  0  0
 14 39  1  0  0  0  0
 15 19  1  0  0  0  0
 15 21  2  0  0  0  0
 15 25  1  0  0  0  0
 16 29  1  0  0  0  0
 16 40  1  0  0  0  0
 16 41  1  0  0  0  0
 17 42  1  0  0  0  0
 17 43  1  0  0  0  0
 18 23  1  0  0  0  0
 18 27  1  0  0  0  0
 19 24  1  0  0  0  0
 19 44  1  0  0  0  0
 19 45  1  0  0  0  0
 20 46  1  0  0  0  0
 20 47  1  0  0  0  0
 21 28  1  0  0  0  0
 22 23  2  0  0  0  0
 22 48  1  0  0  0  0
 23 51  1  0  0  0  0
 24 33  1  0  0  0  0
 24 49  1  0  0  0  0
 24 50  1  0  0  0  0
 25 26  2  0  0  0  0
 26 30  1  0  0  0  0
 26 34  1  0  0  0  0
 27 32  1  0  0  0  0
 28 30  2  0  0  0  0
 28 52  1  0  0  0  0
 29 53  1  0  0  0  0
 29 54  1  0  0  0  0
 29 55  1  0  0  0  0
 30 56  1  0  0  0  0
 31 32  2  0  0  0  0
 31 35  1  0  0  0  0
 32 57  1  0  0  0  0
 33 58  1  0  0  0  0
 33 59  1  0  0  0  0
 33 60  1  0  0  0  0
 34 36  1  0  0  0  0
 36 63  1  0  0  0  0
 36 64  1  0  0  0  0
 36 65  1  0  0  0  0
M  END
> <PUBCHEM_COMPOUND_CID>
105007

> <PUBCHEM_CONFORMER_RMSD>
1.2

> <PUBCHEM_CONFORMER_DIVERSEORDER>
4
50
92
38
95
94
98
6
55
45
96
43
101
70
83
72
21
30
41
26
31
67
48
102
89
11
9
105
91
28
29
60
71
14
104
75
62
20
51
61
47
57
59
34
54
33
78
90
68
74
37
10
82
76
39
73
88
80
15
8
13
18
22
32
77
84
35
53
69
85
17
87
81
3
58
97
63
23
93
24
103
40
5
25
42
49
64
44
16
2
79
36
52
19
46
86
56
99
1
27
100
7
65
66
12

> <PUBCHEM_MMFF94_PARTIAL_CHARGES>
40
1 -0.36
10 -0.14
11 0.14
12 0.08
13 0.08
14 0.28
15 -0.14
17 0.28
18 0.09
19 0.14
2 -0.36
20 0.28
21 0.08
22 -0.15
23 -0.15
25 0.08
26 0.09
27 0.47
28 -0.15
3 -0.16
30 -0.15
31 0.09
32 -0.14
34 0.42
35 0.71
36 0.06
4 -0.68
48 0.15
5 -0.53
51 0.15
52 0.15
56 0.15
57 0.15
6 -0.57
61 0.4
62 0.45
66 0.5
7 -0.57
8 -0.65
9 -0.57

> <PUBCHEM_EFFECTIVE_ROTOR_COUNT>
12

> <PUBCHEM_PHARMACOPHORE_FEATURES>
16
1 1 acceptor
1 2 acceptor
1 29 hydrophobe
1 3 acceptor
1 33 hydrophobe
1 4 acceptor
1 4 donor
1 5 donor
1 6 acceptor
1 7 acceptor
1 8 acceptor
1 9 acceptor
3 8 9 35 anion
6 10 12 13 18 22 23 rings
6 15 21 25 26 28 30 rings
6 3 13 18 27 31 32 rings

> <PUBCHEM_HEAVY_ATOM_COUNT>
36

> <PUBCHEM_ATOM_DEF_STEREO_COUNT>
0

> <PUBCHEM_ATOM_UDEF_STEREO_COUNT>
1

> <PUBCHEM_BOND_DEF_STEREO_COUNT>
0

> <PUBCHEM_BOND_UDEF_STEREO_COUNT>
0

> <PUBCHEM_ISOTOPIC_ATOM_COUNT>
0

> <PUBCHEM_COMPONENT_COUNT>
1

> <PUBCHEM_CACTVS_TAUTO_COUNT>
9

> <PUBCHEM_CONFORMER_ID>
00019A2F00000004

> <PUBCHEM_MMFF94_ENERGY>
104.8566

> <PUBCHEM_FEATURE_SELFOVERLAP>
81.304

> <PUBCHEM_SHAPE_FINGERPRINT>
10165383 225 17409975394701114815
11434127 23 15337112482768866848
12156800 1 15691586308226503571
12788726 201 18191571142124016610
14415361 192 17896602984724202149
14468879 13 17976531716233405233
14840074 17 18337964466816203721
150020 26 16967186514197271597
16067690 210 17900854792057875492
19315092 285 17026241614211210906
20642791 239 18047173427084212679
35225 105 17483628486872945110
44802255 64 17700137896846140276
469060 322 18337111276021675915
50677037 204 18119818156205730668
5252454 2 18059866021141368674
550186 7 18200860860264708014
9981440 41 17906145392622483169

> <PUBCHEM_SHAPE_MULTIPOLES>
688.04
8.9
5.66
3.78
7.37
4.55
-0.06
2.96
3.92
-4.54
-2.33
0.17
-1.56
-0.29

> <PUBCHEM_SHAPE_SELFOVERLAP>
1468.098

> <PUBCHEM_SHAPE_VOLUME>
381.2

> <PUBCHEM_COORDINATE_TYPE>
2
5
10

$$$$
