10502352
  -OEChem-03292013303D

 50 51  0     1  0  0  0  0  0999 V2000
   -2.5510   -0.5724   -2.5200 S   0  0  0  0  0  0  0  0  0  0  0  0
   -4.6053    0.9795    2.1034 S   0  0  0  0  0  0  0  0  0  0  0  0
    3.6404    2.6241   -0.0802 O   0  0  0  0  0  0  0  0  0  0  0  0
    4.0221    0.8521    2.0899 O   0  0  0  0  0  0  0  0  0  0  0  0
    1.8440   -2.7784    0.4586 O   0  0  0  0  0  0  0  0  0  0  0  0
    4.0274   -2.9143   -0.2797 O   0  0  0  0  0  0  0  0  0  0  0  0
   -7.5338    0.2083    1.8086 O   0  0  0  0  0  0  0  0  0  0  0  0
   -1.0257    0.5266   -0.7456 N   0  0  0  0  0  0  0  0  0  0  0  0
   -4.6428   -0.0545   -0.2656 N   0  0  0  0  0  0  0  0  0  0  0  0
    4.1800    0.2570   -0.2721 C   0  0  1  0  0  0  0  0  0  0  0  0
    3.3312    1.4387   -0.8096 C   0  0  1  0  0  0  0  0  0  0  0  0
    5.6791    0.5668   -0.3802 C   0  0  0  0  0  0  0  0  0  0  0  0
    3.8260   -0.1434    1.1533 C   0  0  0  0  0  0  0  0  0  0  0  0
    1.8506    1.1253   -0.8136 C   0  0  0  0  0  0  0  0  0  0  0  0
    1.1655    0.5431   -1.8138 C   0  0  0  0  0  0  0  0  0  0  0  0
    3.3661   -1.3735    1.4458 C   0  0  0  0  0  0  0  0  0  0  0  0
    3.3836    3.7878   -0.8516 C   0  0  0  0  0  0  0  0  0  0  0  0
   -0.2412    0.2240   -1.8415 C   0  0  0  0  0  0  0  0  0  0  0  0
    3.1614   -2.4388    0.4366 C   0  0  0  0  0  0  0  0  0  0  0  0
    4.9577    0.4427    3.0678 C   0  0  0  0  0  0  0  0  0  0  0  0
   -0.8905   -0.3751   -2.9005 C   0  0  0  0  0  0  0  0  0  0  0  0
   -2.2615    0.1513   -0.9912 C   0  0  0  0  0  0  0  0  0  0  0  0
   -3.3463    0.3430   -0.0036 C   0  0  0  0  0  0  0  0  0  0  0  0
   -3.1312    0.9237    1.2287 C   0  0  0  0  0  0  0  0  0  0  0  0
   -5.3934    0.2318    0.7751 C   0  0  0  0  0  0  0  0  0  0  0  0
    1.4569   -3.8025   -0.4635 C   0  0  0  0  0  0  0  0  0  0  0  0
   -6.7879   -0.0516    0.8287 C   0  0  0  0  0  0  0  0  0  0  0  0
   -7.4816   -0.7216   -0.3644 C   0  0  0  0  0  0  0  0  0  0  0  0
    3.9988   -0.5733   -0.9631 H   0  0  0  0  0  0  0  0  0  0  0  0
    3.6473    1.5872   -1.8533 H   0  0  0  0  0  0  0  0  0  0  0  0
    6.2781   -0.2971   -0.0708 H   0  0  0  0  0  0  0  0  0  0  0  0
    5.9499    0.8024   -1.4152 H   0  0  0  0  0  0  0  0  0  0  0  0
    5.9723    1.4187    0.2426 H   0  0  0  0  0  0  0  0  0  0  0  0
    1.3194    1.3881    0.0999 H   0  0  0  0  0  0  0  0  0  0  0  0
    1.7288    0.2799   -2.7078 H   0  0  0  0  0  0  0  0  0  0  0  0
    3.0669   -1.6253    2.4588 H   0  0  0  0  0  0  0  0  0  0  0  0
    3.6201    4.6613   -0.2374 H   0  0  0  0  0  0  0  0  0  0  0  0
    2.3301    3.8486   -1.1408 H   0  0  0  0  0  0  0  0  0  0  0  0
    4.0228    3.8126   -1.7398 H   0  0  0  0  0  0  0  0  0  0  0  0
    5.2356    1.3227    3.6562 H   0  0  0  0  0  0  0  0  0  0  0  0
    5.8739    0.0414    2.6192 H   0  0  0  0  0  0  0  0  0  0  0  0
    4.5208   -0.2873    3.7572 H   0  0  0  0  0  0  0  0  0  0  0  0
   -0.4897   -0.6989   -3.8512 H   0  0  0  0  0  0  0  0  0  0  0  0
   -2.2152    1.3087    1.6555 H   0  0  0  0  0  0  0  0  0  0  0  0
    1.6469   -3.4772   -1.4909 H   0  0  0  0  0  0  0  0  0  0  0  0
    1.9930   -4.7311   -0.2457 H   0  0  0  0  0  0  0  0  0  0  0  0
    0.3845   -3.9790   -0.3445 H   0  0  0  0  0  0  0  0  0  0  0  0
   -7.0285   -1.6994   -0.5478 H   0  0  0  0  0  0  0  0  0  0  0  0
   -7.3806   -0.0867   -1.2487 H   0  0  0  0  0  0  0  0  0  0  0  0
   -8.5448   -0.8594   -0.1477 H   0  0  0  0  0  0  0  0  0  0  0  0
  1 21  1  0  0  0  0
  1 22  1  0  0  0  0
  2 24  1  0  0  0  0
  2 25  1  0  0  0  0
  3 11  1  0  0  0  0
  3 17  1  0  0  0  0
  4 13  1  0  0  0  0
  4 20  1  0  0  0  0
  5 19  1  0  0  0  0
  5 26  1  0  0  0  0
  6 19  2  0  0  0  0
  7 27  2  0  0  0  0
  8 18  1  0  0  0  0
  8 22  2  0  0  0  0
  9 23  1  0  0  0  0
  9 25  2  0  0  0  0
 10 11  1  0  0  0  0
 10 12  1  0  0  0  0
 10 13  1  0  0  0  0
 10 29  1  0  0  0  0
 11 14  1  0  0  0  0
 11 30  1  0  0  0  0
 12 31  1  0  0  0  0
 12 32  1  0  0  0  0
 12 33  1  0  0  0  0
 13 16  2  0  0  0  0
 14 15  2  0  0  0  0
 14 34  1  0  0  0  0
 15 18  1  0  0  0  0
 15 35  1  0  0  0  0
 16 19  1  0  0  0  0
 16 36  1  0  0  0  0
 17 37  1  0  0  0  0
 17 38  1  0  0  0  0
 17 39  1  0  0  0  0
 18 21  2  0  0  0  0
 20 40  1  0  0  0  0
 20 41  1  0  0  0  0
 20 42  1  0  0  0  0
 21 43  1  0  0  0  0
 22 23  1  0  0  0  0
 23 24  2  0  0  0  0
 24 44  1  0  0  0  0
 25 27  1  0  0  0  0
 26 45  1  0  0  0  0
 26 46  1  0  0  0  0
 26 47  1  0  0  0  0
 27 28  1  0  0  0  0
 28 48  1  0  0  0  0
 28 49  1  0  0  0  0
 28 50  1  0  0  0  0
M  END
> <PUBCHEM_COMPOUND_CID>
10502352

> <PUBCHEM_CONFORMER_RMSD>
1

> <PUBCHEM_CONFORMER_DIVERSEORDER>
1
279
252
217
133
144
97
172
95
218
212
17
31
131
46
293
204
301
150
68
157
255
219
167
261
265
181
100
169
284
63
50
312
311
18
163
316
20
272
72
206
195
108
248
197
148
109
140
193
139
64
309
120
238
286
161
317
142
61
30
89
232
116
94
24
179
15
191
292
287
282
47
106
274
126
231
300
67
87
12
125
253
254
158
127
296
152
170
122
180
151
241
137
39
160
32
123
224
13
119
101
6
222
196
129
104
83
271
275
228
26
302
239
92
58
211
48
66
29
88
194
112
35
315
215
226
251
276
260
190
84
250
65
23
34
114
79
205
183
149
98
10
247
99
290
74
220
115
209
166
80
141
237
90
294
305
49
270
263
5
210
135
246
229
96
78
57
43
37
143
77
298
165
147
45
313
19
291
93
187
314
175
173
28
132
73
111
307
319
25
42
55
188
242
81
145
75
185
176
69
207
184
76
285
62
118
105
154
21
156
107
134
236
38
182
52
159
22
308
306
208
269
53
44
267
178
102
56
262
124
200
177
168
256
162
9
289
117
310
192
189
60
257
91
278
225
82
281
227
71
202
234
277
27
86
268
138
230
273
198
244
164
243
136
249
201
258
70
113
85
303
59
203
7
41
259
235
295
174
146
36
155
171
297
280
214
54
2
223
240
233
153
245
264
130
186
304
121
11
221
318
3
128
288
40
14
299
103
283
16
213
199
110
33
4
51
216
266
320
8

> <PUBCHEM_MMFF94_PARTIAL_CHARGES>
32
1 -0.08
10 0.14
11 0.42
13 -0.06
14 -0.29
15 -0.1
16 -0.14
17 0.28
18 0.18
19 0.71
2 -0.08
20 0.28
21 -0.11
22 0.38
23 0.23
24 -0.11
25 0.29
26 0.28
27 0.59
28 0.06
3 -0.56
34 0.15
35 0.15
36 0.15
4 -0.36
43 0.15
44 0.15
5 -0.43
6 -0.57
7 -0.57
8 -0.57
9 -0.57

> <PUBCHEM_EFFECTIVE_ROTOR_COUNT>
10

> <PUBCHEM_PHARMACOPHORE_FEATURES>
9
1 12 hydrophobe
1 3 acceptor
1 4 acceptor
1 6 acceptor
1 7 acceptor
1 8 acceptor
1 9 acceptor
5 1 8 18 21 22 rings
5 2 9 23 24 25 rings

> <PUBCHEM_HEAVY_ATOM_COUNT>
28

> <PUBCHEM_ATOM_DEF_STEREO_COUNT>
0

> <PUBCHEM_ATOM_UDEF_STEREO_COUNT>
2

> <PUBCHEM_BOND_DEF_STEREO_COUNT>
2

> <PUBCHEM_BOND_UDEF_STEREO_COUNT>
0

> <PUBCHEM_ISOTOPIC_ATOM_COUNT>
0

> <PUBCHEM_COMPONENT_COUNT>
1

> <PUBCHEM_CACTVS_TAUTO_COUNT>
2

> <PUBCHEM_CONFORMER_ID>
00A040D000000001

> <PUBCHEM_MMFF94_ENERGY>
56.8699

> <PUBCHEM_FEATURE_SELFOVERLAP>
45.679

> <PUBCHEM_SHAPE_FINGERPRINT>
10674148 151 17846788404164375252
10816530 23 18119820363269476504
11595378 159 17917149399282351753
11796584 16 12612759038185510249
1200032 147 16845574274972529248
12128747 34 17896032140647771021
12373685 5 18411980274811973623
12596602 18 18269561692331053593
12633257 1 18114453544082708058
12778500 126 17275103899801090098
13402501 40 16732704947667186360
13533116 47 18334301954892225105
13583140 156 18270946973839857477
13773456 73 16056879092226712239
13965767 371 17632287944180848284
14211702 104 17169007728181100675
15183329 4 13912598395124525045
173720 79 17703789211257419333
19377110 9 18060137640064725495
1979834 28 18335136479733043730
20397935 70 18041289807129962611
20403669 9 16443064984950519371
21623969 137 17894629249161006238
21796203 349 18187632601880351384
23559900 14 16340633253863238789
3004659 81 12540692630637028065
3178227 256 18113616816309243028
3459 39 16128090028041132801
3633792 109 18260543382839884743
439807 62 15213290894321750136
465052 167 17167577189868486340
7808743 9 16056300830282103754
86090 222 17458921348358837283
8988823 20 18186522124515266141
9658208 31 15339121268969016533

> <PUBCHEM_SHAPE_MULTIPOLES>
544.62
16.6
2.92
2.62
25.86
1.39
0.12
-1.99
9.56
-5.56
-0.34
-0.13
-0.35
-1.76

> <PUBCHEM_SHAPE_SELFOVERLAP>
1101.826

> <PUBCHEM_SHAPE_VOLUME>
323

> <PUBCHEM_COORDINATE_TYPE>
2
5
10

$$$$
