REMARK  Name = 10502019
REMARK  7 active torsions:
REMARK  status: ('A' for Active; 'I' for Inactive)
REMARK    1  A    between atoms: C_4  and  C_31
REMARK    2  A    between atoms: C_8  and  C_21
REMARK    3  A    between atoms: C_9  and  O_29
REMARK    4  A    between atoms: C_20  and  C_26
REMARK    5  A    between atoms: C_22  and  O_24
REMARK    6  A    between atoms: C_26  and  O_27
REMARK    7  A    between atoms: C_31  and  C_32
REMARK                            x       y       z     vdW  Elec       q    Type
REMARK                         _______ _______ _______ _____ _____    ______ ____
ROOT
ATOM      1  O   UNL     1      -5.093   0.484   0.857  0.00  0.00    -0.479 OA
ATOM      2  O   UNL     1       1.395   0.907   0.783  0.00  0.00    -0.287 OA
ATOM      3  O   UNL     1       0.054  -3.908  -1.107  0.00  0.00    -0.287 OA
ATOM      4  C   UNL     1      -3.778   1.040   0.666  0.00  0.00    +0.191 C 
ATOM      5  C   UNL     1      -2.690   0.038   0.353  0.00  0.00    +0.051 C 
ATOM      6  C   UNL     1      -0.341  -0.560   0.178  0.00  0.00    +0.075 C 
ATOM      7  C   UNL     1      -3.042  -1.224  -0.135  0.00  0.00    +0.005 C 
ATOM      8  C   UNL     1       2.110  -1.204  -0.018  0.00  0.00    +0.076 C 
ATOM      9  C   UNL     1      -1.336   0.367   0.510  0.00  0.00    +0.136 C 
ATOM     10  C   UNL     1      -0.699  -1.815  -0.316  0.00  0.00    +0.045 C 
ATOM     11  C   UNL     1       1.080  -0.195   0.349  0.00  0.00    +0.199 C 
ATOM     12  C   UNL     1      -2.049  -2.149  -0.474  0.00  0.00    +0.003 C 
ATOM     13  C   UNL     1       1.750  -2.403  -0.490  0.00  0.00    +0.046 C 
ATOM     14  C   UNL     1      -4.458  -1.541  -0.274  0.00  0.00    +0.032 C 
ATOM     15  C   UNL     1       0.339  -2.799  -0.673  0.00  0.00    +0.196 C 
ATOM     16  C   UNL     1      -5.384  -0.708   0.228  0.00  0.00    +0.117 C 
ATOM     17  C   UNL     1      -6.848  -1.010   0.166  0.00  0.00    +0.072 C 
ENDROOT
BRANCH   8  21
ATOM     18  O   UNL     1       3.784   0.321  -0.669  0.00  0.00    -0.324 OA
ATOM     19  O   UNL     1       3.747  -0.529   1.548  0.00  0.00    -0.324 OA
ATOM     20  C   UNL     1       5.141   0.761  -0.554  0.00  0.00    +0.176 C 
ATOM     21  C   UNL     1       3.535  -0.813   0.163  0.00  0.00    +0.263 C 
ATOM     22  C   UNL     1       5.456   1.065   0.916  0.00  0.00    +0.170 C 
ATOM     23  C   UNL     1       5.096  -0.137   1.783  0.00  0.00    +0.177 C 
BRANCH  22  24
ATOM     24  O   UNL     1       6.830   1.365   1.101  0.00  0.00    -0.379 OA
ATOM     25  H   UNL     1       7.071   2.128   0.554  0.00  0.00    +0.211 HD
ENDBRANCH  22  24
BRANCH  20  26
ATOM     26  C   UNL     1       5.309   1.982  -1.450  0.00  0.00    +0.169 C 
BRANCH  26  27
ATOM     27  O   UNL     1       5.010   1.609  -2.783  0.00  0.00    -0.379 OA
ATOM     28  H   UNL     1       5.113   2.379  -3.365  0.00  0.00    +0.211 HD
ENDBRANCH  26  27
ENDBRANCH  20  26
ENDBRANCH   8  21
BRANCH   9  29
ATOM     29  O   UNL     1      -1.023   1.603   0.999  0.00  0.00    -0.506 OA
ATOM     30  H   UNL     1      -1.705   2.208   1.215  0.00  0.00    +0.292 HD
ENDBRANCH   9  29
BRANCH   4  31
ATOM     31  C   UNL     1      -3.877   2.115  -0.417  0.00  0.00    +0.048 C 
BRANCH  31  32
ATOM     32  C   UNL     1      -4.949   3.142  -0.075  0.00  0.00    +0.004 C 
ATOM     33  C   UNL     1      -5.066   4.196  -1.164  0.00  0.00    +0.000 C 
ENDBRANCH  31  32
ENDBRANCH   4  31
TORSDOF 7
