REMARK  Name = 105007
REMARK  15 active torsions:
REMARK  status: ('A' for Active; 'I' for Inactive)
REMARK    1  A    between atoms: C_1  and  O_2
REMARK    2  A    between atoms: C_1  and  C_21
REMARK    3  A    between atoms: O_2  and  C_6
REMARK    4  A    between atoms: C_5  and  C_18
REMARK    5  A    between atoms: C_12  and  C_15
REMARK    6  A    between atoms: C_15  and  O_16
REMARK    7  A    between atoms: C_18  and  C_19
REMARK    8  A    between atoms: C_21  and  O_22
REMARK    9  A    between atoms: C_21  and  C_24
REMARK   10  A    between atoms: C_24  and  O_25
REMARK   11  A    between atoms: O_25  and  C_27
REMARK   12  A    between atoms: C_26  and  C_37
REMARK   13  A    between atoms: C_28  and  O_35
REMARK   14  A    between atoms: C_29  and  C_33
REMARK   15  A    between atoms: C_37  and  C_38
REMARK                            x       y       z     vdW  Elec       q    Type
REMARK                         _______ _______ _______ _____ _____    ______ ____
ROOT
ATOM      1  C   UNL     1      -1.722  -3.419  -0.252  0.00  0.00    +0.238 C 
ENDROOT
BRANCH   1   2
ATOM      2  O   UNL     1      -0.545  -2.977  -0.924  0.00  0.00    -0.473 OA
BRANCH   2   6
ATOM      3  O   UNL     1       3.085   0.064  -0.437  0.00  0.00    -0.447 OA
ATOM      4  O   UNL     1       3.672  -1.050   3.442  0.00  0.00    -0.286 OA
ATOM      5  C   UNL     1       1.284  -1.446  -0.676  0.00  0.00    +0.046 C 
ATOM      6  C   UNL     1       0.436  -2.424  -0.155  0.00  0.00    +0.138 C 
ATOM      7  C   UNL     1       2.281  -0.894   0.129  0.00  0.00    +0.147 C 
ATOM      8  C   UNL     1       2.427  -1.320   1.449  0.00  0.00    +0.073 C 
ATOM      9  C   UNL     1       0.584  -2.849   1.166  0.00  0.00    +0.037 C 
ATOM     10  C   UNL     1       1.580  -2.299   1.973  0.00  0.00    +0.009 C 
ATOM     11  C   UNL     1       3.488  -0.721   2.278  0.00  0.00    +0.202 C 
ATOM     12  C   UNL     1       4.075   0.618   0.347  0.00  0.00    +0.223 C 
ATOM     13  C   UNL     1       4.326   0.304   1.624  0.00  0.00    +0.086 C 
BRANCH  12  15
ATOM     14  O   UNL     1       5.835   2.215   0.287  0.00  0.00    -0.242 OA
ATOM     15  C   UNL     1       4.922   1.637  -0.275  0.00  0.00    +0.373 C 
BRANCH  15  16
ATOM     16  O   UNL     1       4.534   1.830  -1.554  0.00  0.00    -0.475 OA
ATOM     17  H   UNL     1       3.818   1.338  -1.905  0.00  0.00    +0.296 HD
ENDBRANCH  15  16
ENDBRANCH  12  15
BRANCH   5  18
ATOM     18  C   UNL     1       1.118  -0.997  -2.092  0.00  0.00    +0.033 C 
BRANCH  18  19
ATOM     19  C   UNL     1       1.957  -1.833  -3.066  0.00  0.00    +0.005 C 
ATOM     20  C   UNL     1       1.758  -1.393  -4.507  0.00  0.00    +0.000 C 
ENDBRANCH  18  19
ENDBRANCH   5  18
ENDBRANCH   2   6
ENDBRANCH   1   2
BRANCH   1  21
ATOM     21  C   UNL     1      -2.912  -3.272  -1.190  0.00  0.00    +0.198 C 
BRANCH  21  22
ATOM     22  O   UNL     1      -4.077  -3.733  -0.501  0.00  0.00    -0.378 OA
ATOM     23  H   UNL     1      -3.952  -4.658  -0.238  0.00  0.00    +0.211 HD
ENDBRANCH  21  22
BRANCH  21  24
ATOM     24  C   UNL     1      -3.127  -1.818  -1.595  0.00  0.00    +0.238 C 
BRANCH  24  25
ATOM     25  O   UNL     1      -3.375  -1.026  -0.438  0.00  0.00    -0.473 OA
BRANCH  25  27
ATOM     26  C   UNL     1      -2.555   0.923   0.694  0.00  0.00    +0.045 C 
ATOM     27  C   UNL     1      -2.937   0.271  -0.475  0.00  0.00    +0.138 C 
ATOM     28  C   UNL     1      -2.112   2.244   0.636  0.00  0.00    +0.135 C 
ATOM     29  C   UNL     1      -2.054   2.908  -0.590  0.00  0.00    +0.068 C 
ATOM     30  C   UNL     1      -2.882   0.928  -1.700  0.00  0.00    +0.037 C 
ATOM     31  C   UNL     1      -2.439   2.250  -1.758  0.00  0.00    +0.009 C 
BRANCH  29  33
ATOM     32  O   UNL     1      -1.761   5.085   0.269  0.00  0.00    -0.291 OA
ATOM     33  C   UNL     1      -1.596   4.287  -0.674  0.00  0.00    +0.176 C 
ATOM     34  C   UNL     1      -0.897   4.787  -1.933  0.00  0.00    +0.077 C 
ENDBRANCH  29  33
BRANCH  28  35
ATOM     35  O   UNL     1      -1.736   2.887   1.780  0.00  0.00    -0.506 OA
ATOM     36  H   UNL     1      -1.775   2.440   2.603  0.00  0.00    +0.292 HD
ENDBRANCH  28  35
BRANCH  26  37
ATOM     37  C   UNL     1      -2.617   0.210   2.006  0.00  0.00    +0.033 C 
BRANCH  37  38
ATOM     38  C   UNL     1      -3.975   0.389   2.697  0.00  0.00    +0.005 C 
ATOM     39  C   UNL     1      -4.043  -0.366   4.015  0.00  0.00    +0.000 C 
ENDBRANCH  37  38
ENDBRANCH  26  37
ENDBRANCH  25  27
ENDBRANCH  24  25
ENDBRANCH  21  24
ENDBRANCH   1  21
TORSDOF 15
