10501396
  -OEChem-03292013303D

 53 55  0     1  0  0  0  0  0999 V2000
    0.1361    0.7043   -0.1740 O   0  0  0  0  0  0  0  0  0  0  0  0
    0.8196   -2.0876   -0.3262 O   0  0  0  0  0  0  0  0  0  0  0  0
   -1.0857   -3.9364    0.3390 O   0  0  0  0  0  0  0  0  0  0  0  0
    3.4414   -2.8033   -0.3629 O   0  0  0  0  0  0  0  0  0  0  0  0
   -5.1862    1.2694   -2.1288 O   0  0  0  0  0  0  0  0  0  0  0  0
   -4.2361    1.1384    2.5634 O   0  0  0  0  0  0  0  0  0  0  0  0
   -5.9858    1.6926    0.4888 O   0  0  0  0  0  0  0  0  0  0  0  0
    8.2049    2.2472    0.6425 O   0  0  0  0  0  0  0  0  0  0  0  0
   -0.7973   -0.2967   -0.6170 C   0  0  1  0  0  0  0  0  0  0  0  0
   -0.4894   -1.6391    0.0667 C   0  0  1  0  0  0  0  0  0  0  0  0
   -2.1829    0.2348   -0.3216 C   0  0  0  0  0  0  0  0  0  0  0  0
   -1.4601   -2.7474   -0.3320 C   0  0  0  0  0  0  0  0  0  0  0  0
    1.7596   -1.0971   -0.2457 C   0  0  0  0  0  0  0  0  0  0  0  0
    1.4280    0.2545   -0.1617 C   0  0  0  0  0  0  0  0  0  0  0  0
   -2.5813    0.4470    0.9979 C   0  0  0  0  0  0  0  0  0  0  0  0
   -3.0604    0.5128   -1.3692 C   0  0  0  0  0  0  0  0  0  0  0  0
    3.0988   -1.4884   -0.2639 C   0  0  0  0  0  0  0  0  0  0  0  0
    2.4338    1.2151   -0.0508 C   0  0  0  0  0  0  0  0  0  0  0  0
    3.7725    0.8231   -0.0546 C   0  0  0  0  0  0  0  0  0  0  0  0
   -4.3375    1.0036   -1.0969 C   0  0  0  0  0  0  0  0  0  0  0  0
   -3.8584    0.9376    1.2701 C   0  0  0  0  0  0  0  0  0  0  0  0
    4.1048   -0.5270   -0.1665 C   0  0  0  0  0  0  0  0  0  0  0  0
   -4.7364    1.2158    0.2227 C   0  0  0  0  0  0  0  0  0  0  0  0
    4.8230    1.8234    0.0534 C   0  0  0  0  0  0  0  0  0  0  0  0
    3.5928   -3.5270    0.8568 C   0  0  0  0  0  0  0  0  0  0  0  0
    6.1155    1.6571   -0.3086 C   0  0  0  0  0  0  0  0  0  0  0  0
   -6.0327    0.2064   -2.5621 C   0  0  0  0  0  0  0  0  0  0  0  0
   -4.8587    0.0444    3.2340 C   0  0  0  0  0  0  0  0  0  0  0  0
    7.1582    2.7223   -0.1927 C   0  0  0  0  0  0  0  0  0  0  0  0
   -0.6649   -0.3977   -1.7040 H   0  0  0  0  0  0  0  0  0  0  0  0
   -0.4719   -1.5447    1.1614 H   0  0  0  0  0  0  0  0  0  0  0  0
   -1.4064   -2.9479   -1.4069 H   0  0  0  0  0  0  0  0  0  0  0  0
   -2.4957   -2.5156   -0.0684 H   0  0  0  0  0  0  0  0  0  0  0  0
   -1.9027    0.2416    1.8220 H   0  0  0  0  0  0  0  0  0  0  0  0
   -2.7569    0.3500   -2.4004 H   0  0  0  0  0  0  0  0  0  0  0  0
    2.1639    2.2663    0.0260 H   0  0  0  0  0  0  0  0  0  0  0  0
    5.1354   -0.8713   -0.1585 H   0  0  0  0  0  0  0  0  0  0  0  0
   -1.1634   -3.7735    1.2945 H   0  0  0  0  0  0  0  0  0  0  0  0
    4.5190    2.7887    0.4533 H   0  0  0  0  0  0  0  0  0  0  0  0
   -6.4378    1.8668   -0.3546 H   0  0  0  0  0  0  0  0  0  0  0  0
    2.6567   -3.5278    1.4240 H   0  0  0  0  0  0  0  0  0  0  0  0
    3.8538   -4.5601    0.6118 H   0  0  0  0  0  0  0  0  0  0  0  0
    4.3978   -3.0963    1.4607 H   0  0  0  0  0  0  0  0  0  0  0  0
    6.4614    0.7229   -0.7414 H   0  0  0  0  0  0  0  0  0  0  0  0
   -6.6643   -0.1477   -1.7412 H   0  0  0  0  0  0  0  0  0  0  0  0
   -5.4342   -0.6203   -2.9577 H   0  0  0  0  0  0  0  0  0  0  0  0
   -6.6767    0.5852   -3.3604 H   0  0  0  0  0  0  0  0  0  0  0  0
   -5.7817   -0.2466    2.7228 H   0  0  0  0  0  0  0  0  0  0  0  0
   -5.1071    0.3620    4.2504 H   0  0  0  0  0  0  0  0  0  0  0  0
   -4.1756   -0.8090    3.2909 H   0  0  0  0  0  0  0  0  0  0  0  0
    6.7590    3.6451    0.2397 H   0  0  0  0  0  0  0  0  0  0  0  0
    7.5720    2.9458   -1.1809 H   0  0  0  0  0  0  0  0  0  0  0  0
    8.8769    2.9488    0.6847 H   0  0  0  0  0  0  0  0  0  0  0  0
  1  9  1  0  0  0  0
  1 14  1  0  0  0  0
  2 10  1  0  0  0  0
  2 13  1  0  0  0  0
  3 12  1  0  0  0  0
  3 38  1  0  0  0  0
  4 17  1  0  0  0  0
  4 25  1  0  0  0  0
  5 20  1  0  0  0  0
  5 27  1  0  0  0  0
  6 21  1  0  0  0  0
  6 28  1  0  0  0  0
  7 23  1  0  0  0  0
  7 40  1  0  0  0  0
  8 29  1  0  0  0  0
  8 53  1  0  0  0  0
  9 10  1  0  0  0  0
  9 11  1  0  0  0  0
  9 30  1  0  0  0  0
 10 12  1  0  0  0  0
 10 31  1  0  0  0  0
 11 15  2  0  0  0  0
 11 16  1  0  0  0  0
 12 32  1  0  0  0  0
 12 33  1  0  0  0  0
 13 14  2  0  0  0  0
 13 17  1  0  0  0  0
 14 18  1  0  0  0  0
 15 21  1  0  0  0  0
 15 34  1  0  0  0  0
 16 20  2  0  0  0  0
 16 35  1  0  0  0  0
 17 22  2  0  0  0  0
 18 19  2  0  0  0  0
 18 36  1  0  0  0  0
 19 22  1  0  0  0  0
 19 24  1  0  0  0  0
 20 23  1  0  0  0  0
 21 23  2  0  0  0  0
 22 37  1  0  0  0  0
 24 26  2  0  0  0  0
 24 39  1  0  0  0  0
 25 41  1  0  0  0  0
 25 42  1  0  0  0  0
 25 43  1  0  0  0  0
 26 29  1  0  0  0  0
 26 44  1  0  0  0  0
 27 45  1  0  0  0  0
 27 46  1  0  0  0  0
 27 47  1  0  0  0  0
 28 48  1  0  0  0  0
 28 49  1  0  0  0  0
 28 50  1  0  0  0  0
 29 51  1  0  0  0  0
 29 52  1  0  0  0  0
M  END
> <PUBCHEM_COMPOUND_CID>
10501396

> <PUBCHEM_CONFORMER_RMSD>
1

> <PUBCHEM_CONFORMER_DIVERSEORDER>
1
4
6
2
9
12
11
3
8
5
7
10

> <PUBCHEM_MMFF94_PARTIAL_CHARGES>
38
1 -0.36
10 0.28
11 -0.14
12 0.28
13 0.08
14 0.08
15 -0.15
16 -0.15
17 0.08
18 -0.15
19 0.03
2 -0.36
20 0.08
21 0.08
22 -0.15
23 0.08
24 -0.18
25 0.28
26 -0.29
27 0.28
28 0.28
29 0.42
3 -0.68
34 0.15
35 0.15
36 0.15
37 0.15
38 0.4
39 0.15
4 -0.36
40 0.45
44 0.15
5 -0.36
53 0.4
6 -0.36
7 -0.53
8 -0.68
9 0.42

> <PUBCHEM_EFFECTIVE_ROTOR_COUNT>
7.8

> <PUBCHEM_PHARMACOPHORE_FEATURES>
13
1 1 acceptor
1 2 acceptor
1 3 acceptor
1 3 donor
1 4 acceptor
1 5 acceptor
1 6 acceptor
1 7 donor
1 8 acceptor
1 8 donor
6 1 2 9 10 13 14 rings
6 11 15 16 20 21 23 rings
6 13 14 17 18 19 22 rings

> <PUBCHEM_HEAVY_ATOM_COUNT>
29

> <PUBCHEM_ATOM_DEF_STEREO_COUNT>
2

> <PUBCHEM_ATOM_UDEF_STEREO_COUNT>
0

> <PUBCHEM_BOND_DEF_STEREO_COUNT>
1

> <PUBCHEM_BOND_UDEF_STEREO_COUNT>
0

> <PUBCHEM_ISOTOPIC_ATOM_COUNT>
0

> <PUBCHEM_COMPONENT_COUNT>
1

> <PUBCHEM_CACTVS_TAUTO_COUNT>
2

> <PUBCHEM_CONFORMER_ID>
00A03D1400000001

> <PUBCHEM_MMFF94_ENERGY>
116.8114

> <PUBCHEM_FEATURE_SELFOVERLAP>
66.029

> <PUBCHEM_SHAPE_FINGERPRINT>
10 15 17822295729777318640
10319926 262 16298387924831523864
10906281 52 17917161545702831972
10912923 1 17846777365154126309
11007060 377 18411699906564811251
11135609 187 18340758295823933085
11135926 11 18412830188150770040
12236239 1 17774437171348744637
12390115 104 18269004244520745894
12403259 118 17095248042017526445
12403259 415 17968942981235387869
12422481 6 17313381292604286564
12616971 3 18058447604555915885
12788726 201 17202780197878887280
13140716 1 18408889507980208850
13583140 156 17022895774689777393
13631057 29 18126560356700147847
15183329 4 16056889013612040044
17980427 23 17386850698395113918
18681886 176 16056873676399935504
20554085 129 17987214777873547072
21033648 144 18410853256941840839
21033648 29 17676488302831992605
21033650 10 15554456188514750451
21065201 7 16371302021453316163
21236236 1 18267303321412623350
21756936 100 17703241692704858537
22122407 14 18125733283833589305
23559900 14 16589156991727839939
23569914 152 8092095836592370496
23569943 247 17196015842994286606
249057 25 17703219603382184194
25147074 1 18271511062112703798
283562 15 17905882935613941170
312425 54 15213009445521492880
335352 9 18410289186978278046
4258327 124 18042688484235425765
474 4 18201159845580185559
5080951 261 17095522942433086907
5104073 3 18337387249540581546
633830 44 17987532411452077903
6608658 132 17346605136275853209
9981440 41 16911117348098447441

> <PUBCHEM_SHAPE_MULTIPOLES>
549.85
16.76
3.36
1.83
13.59
3.58
-0.87
-15.56
-0.23
4.69
-0.29
-5.35
-0.5
0.04

> <PUBCHEM_SHAPE_SELFOVERLAP>
1175.745

> <PUBCHEM_SHAPE_VOLUME>
305.5

> <PUBCHEM_COORDINATE_TYPE>
2
5
10

$$$$
