REMARK  Name = 10503176
REMARK  12 active torsions:
REMARK  status: ('A' for Active; 'I' for Inactive)
REMARK    1  A    between atoms: C_1  and  C_18
REMARK    2  A    between atoms: C_2  and  C_5
REMARK    3  A    between atoms: C_6  and  C_11
REMARK    4  A    between atoms: C_10  and  C_13
REMARK    5  A    between atoms: C_13  and  C_15
REMARK    6  A    between atoms: C_15  and  O_16
REMARK    7  A    between atoms: C_18  and  O_19
REMARK    8  A    between atoms: C_18  and  C_21
REMARK    9  A    between atoms: C_21  and  C_23
REMARK   10  A    between atoms: C_23  and  O_25
REMARK   11  A    between atoms: C_24  and  C_28
REMARK   12  A    between atoms: C_28  and  O_29
REMARK                            x       y       z     vdW  Elec       q    Type
REMARK                         _______ _______ _______ _____ _____    ______ ____
ROOT
ATOM      1  C   UNL     1      -2.169  -1.233  -0.480  0.00  0.00    +0.006 C 
ATOM      2  C   UNL     1      -1.500  -1.885   0.487  0.00  0.00    +0.026 C 
ENDROOT
BRANCH   2   5
ATOM      3  S   UNL     1       2.230  -2.190   1.734  0.00  0.00    -0.073 S 
ATOM      4  N   UNL     1       0.730  -1.050  -0.036  0.00  0.00    -0.397 NA
ATOM      5  C   UNL     1      -0.083  -1.837   0.756  0.00  0.00    +0.121 C 
ATOM      6  C   UNL     1       1.970  -1.159   0.388  0.00  0.00    +0.183 C 
ATOM      7  C   UNL     1       0.549  -2.530   1.767  0.00  0.00    +0.123 C 
BRANCH   6  11
ATOM      8  S   UNL     1       4.397   1.072  -1.824  0.00  0.00    -0.079 S 
ATOM      9  N   UNL     1       4.383  -0.549   0.190  0.00  0.00    -0.400 NA
ATOM     10  C   UNL     1       5.162   0.199  -0.560  0.00  0.00    +0.136 C 
ATOM     11  C   UNL     1       3.083  -0.431  -0.260  0.00  0.00    +0.156 C 
ATOM     12  C   UNL     1       2.893   0.403  -1.343  0.00  0.00    +0.126 C 
BRANCH  10  13
ATOM     13  C   UNL     1       6.624   0.329  -0.378  0.00  0.00    +0.088 C 
ATOM     14  C   UNL     1       7.379  -1.010  -0.569  0.00  0.00    +0.011 C 
BRANCH  13  15
ATOM     15  C   UNL     1       7.035   0.920   0.997  0.00  0.00    +0.145 C 
BRANCH  15  16
ATOM     16  O   UNL     1       6.447   2.209   1.139  0.00  0.00    -0.382 OA
ATOM     17  H   UNL     1       6.699   2.586   1.996  0.00  0.00    +0.210 HD
ENDBRANCH  15  16
ENDBRANCH  13  15
ENDBRANCH  10  13
ENDBRANCH   6  11
ENDBRANCH   2   5
BRANCH   1  18
ATOM     18  C   UNL     1      -3.657  -1.311  -0.745  0.00  0.00    +0.144 C 
BRANCH  18  19
ATOM     19  O   UNL     1      -3.956  -1.871  -2.021  0.00  0.00    -0.349 OA
ATOM     20  C   UNL     1      -3.871  -3.288  -1.998  0.00  0.00    +0.174 C 
ENDBRANCH  18  19
BRANCH  18  21
ATOM     21  C   UNL     1      -4.352   0.066  -0.588  0.00  0.00    +0.088 C 
ATOM     22  C   UNL     1      -5.837  -0.025  -0.964  0.00  0.00    +0.011 C 
BRANCH  21  23
ATOM     23  C   UNL     1      -4.197   0.668   0.802  0.00  0.00    +0.125 C 
ATOM     24  C   UNL     1      -3.576   1.845   0.995  0.00  0.00    +0.114 C 
BRANCH  23  25
ATOM     25  O   UNL     1      -4.745  -0.093   1.816  0.00  0.00    -0.475 OA
ATOM     26  C   UNL     1      -5.751   0.631   2.498  0.00  0.00    +0.252 C 
ENDBRANCH  23  25
BRANCH  24  28
ATOM     27  O   UNL     1      -3.608   3.118  -1.046  0.00  0.00    -0.245 OA
ATOM     28  C   UNL     1      -2.993   2.658  -0.098  0.00  0.00    +0.344 C 
BRANCH  28  29
ATOM     29  O   UNL     1      -1.662   2.790   0.152  0.00  0.00    -0.441 OA
ATOM     30  C   UNL     1      -0.927   3.551  -0.811  0.00  0.00    +0.256 C 
ENDBRANCH  28  29
ENDBRANCH  24  28
ENDBRANCH  21  23
ENDBRANCH  18  21
ENDBRANCH   1  18
TORSDOF 12
