105100
  -OEChem-03292013323D

 68 72  0     1  0  0  0  0  0999 V2000
    2.1240   -0.6526   -0.7413 O   0  0  0  0  0  0  0  0  0  0  0  0
   -1.1577    0.3132   -2.1225 O   0  0  0  0  0  0  0  0  0  0  0  0
   -3.1113    0.4888    1.7097 O   0  0  0  0  0  0  0  0  0  0  0  0
   -5.7048    1.8288    1.4065 O   0  0  0  0  0  0  0  0  0  0  0  0
    3.3819   -0.0670    1.1013 O   0  0  0  0  0  0  0  0  0  0  0  0
   -5.6040   -3.4994    0.0376 O   0  0  0  0  0  0  0  0  0  0  0  0
   -0.1365   -1.6693   -0.4595 C   0  0  1  0  0  0  0  0  0  0  0  0
    0.9751   -0.8271    0.1012 C   0  0  1  0  0  0  0  0  0  0  0  0
    0.7144   -2.2001    0.6627 C   0  0  0  0  0  0  0  0  0  0  0  0
   -1.5297   -1.1100   -0.2223 C   0  0  1  0  0  0  0  0  0  0  0  0
   -1.5433    0.3792   -0.7311 C   0  0  1  0  0  0  0  0  0  0  0  0
    0.5540    0.4002    0.8516 C   0  0  0  0  0  0  0  0  0  0  0  0
   -0.4726    1.2469    0.0522 C   0  0  1  0  0  0  0  0  0  0  0  0
    1.6752   -3.2895    0.3139 C   0  0  0  0  0  0  0  0  0  0  0  0
    0.1366   -2.3701    2.0274 C   0  0  0  0  0  0  0  0  0  0  0  0
   -2.9894    0.9642   -0.7178 C   0  0  1  0  0  0  0  0  0  0  0  0
   -2.6348   -1.9936   -0.7547 C   0  0  0  0  0  0  0  0  0  0  0  0
   -3.8470    0.5498    0.4939 C   0  0  1  0  0  0  0  0  0  0  0  0
    0.3030    2.2331   -0.8371 C   0  0  0  0  0  0  0  0  0  0  0  0
   -3.9559   -1.8661   -0.5122 C   0  0  0  0  0  0  0  0  0  0  0  0
   -4.6433   -0.7380    0.2475 C   0  0  0  0  0  0  0  0  0  0  0  0
   -3.1611    2.4603   -0.7697 C   0  0  0  0  0  0  0  0  0  0  0  0
   -4.7077    1.7753    0.7018 C   0  0  0  0  0  0  0  0  0  0  0  0
    3.2659   -0.2681   -0.1000 C   0  0  0  0  0  0  0  0  0  0  0  0
   -4.1482    2.9416   -0.0077 C   0  0  0  0  0  0  0  0  0  0  0  0
   -4.9113   -2.9071   -1.0414 C   0  0  0  0  0  0  0  0  0  0  0  0
    4.3694   -0.1292   -1.1216 C   0  0  0  0  0  0  0  0  0  0  0  0
   -4.6601    4.3207    0.1306 C   0  0  0  0  0  0  0  0  0  0  0  0
    5.6911    0.2585   -0.5106 C   0  0  0  0  0  0  0  0  0  0  0  0
    6.0118    1.6013   -0.3743 C   0  0  0  0  0  0  0  0  0  0  0  0
    6.5668   -0.7333   -0.0933 C   0  0  0  0  0  0  0  0  0  0  0  0
    7.2352    1.9603    0.1916 C   0  0  0  0  0  0  0  0  0  0  0  0
    7.7901   -0.3742    0.4727 C   0  0  0  0  0  0  0  0  0  0  0  0
    8.1242    0.9726    0.6150 C   0  0  0  0  0  0  0  0  0  0  0  0
    0.0008   -2.0642   -1.4600 H   0  0  0  0  0  0  0  0  0  0  0  0
   -1.7085   -1.0946    0.8506 H   0  0  0  0  0  0  0  0  0  0  0  0
    1.3928    1.0455    1.1263 H   0  0  0  0  0  0  0  0  0  0  0  0
    0.0982    0.1635    1.8156 H   0  0  0  0  0  0  0  0  0  0  0  0
   -0.9868    1.8594    0.8006 H   0  0  0  0  0  0  0  0  0  0  0  0
    2.0270   -3.2338   -0.7223 H   0  0  0  0  0  0  0  0  0  0  0  0
    2.5547   -3.2496    0.9658 H   0  0  0  0  0  0  0  0  0  0  0  0
    1.2062   -4.2718    0.4388 H   0  0  0  0  0  0  0  0  0  0  0  0
    0.9445   -2.3868    2.7686 H   0  0  0  0  0  0  0  0  0  0  0  0
   -0.5757   -1.6211    2.3718 H   0  0  0  0  0  0  0  0  0  0  0  0
   -0.3813   -3.3345    2.0918 H   0  0  0  0  0  0  0  0  0  0  0  0
   -3.4956    0.6301   -1.6380 H   0  0  0  0  0  0  0  0  0  0  0  0
   -2.3053   -2.8554   -1.3332 H   0  0  0  0  0  0  0  0  0  0  0  0
    0.9509    1.7129   -1.5499 H   0  0  0  0  0  0  0  0  0  0  0  0
   -0.3684    2.8798   -1.4065 H   0  0  0  0  0  0  0  0  0  0  0  0
    0.9389    2.8849   -0.2276 H   0  0  0  0  0  0  0  0  0  0  0  0
   -1.7821   -0.2659   -2.5911 H   0  0  0  0  0  0  0  0  0  0  0  0
   -5.5438   -0.4681   -0.3218 H   0  0  0  0  0  0  0  0  0  0  0  0
   -4.9898   -1.1370    1.2096 H   0  0  0  0  0  0  0  0  0  0  0  0
   -2.5982    3.0839   -1.4508 H   0  0  0  0  0  0  0  0  0  0  0  0
   -2.6509    1.3319    1.8507 H   0  0  0  0  0  0  0  0  0  0  0  0
   -4.4070   -3.7002   -1.6037 H   0  0  0  0  0  0  0  0  0  0  0  0
   -5.6416   -2.4448   -1.7135 H   0  0  0  0  0  0  0  0  0  0  0  0
    4.0685    0.6252   -1.8588 H   0  0  0  0  0  0  0  0  0  0  0  0
    4.4765   -1.0832   -1.6521 H   0  0  0  0  0  0  0  0  0  0  0  0
   -5.7157    4.3693   -0.1539 H   0  0  0  0  0  0  0  0  0  0  0  0
   -4.1069    5.0183   -0.5063 H   0  0  0  0  0  0  0  0  0  0  0  0
   -4.5649    4.6620    1.1662 H   0  0  0  0  0  0  0  0  0  0  0  0
   -4.9491   -3.9396    0.6062 H   0  0  0  0  0  0  0  0  0  0  0  0
    5.3252    2.3781   -0.6987 H   0  0  0  0  0  0  0  0  0  0  0  0
    6.3148   -1.7848   -0.1976 H   0  0  0  0  0  0  0  0  0  0  0  0
    7.4952    3.0089    0.3031 H   0  0  0  0  0  0  0  0  0  0  0  0
    8.4822   -1.1432    0.8031 H   0  0  0  0  0  0  0  0  0  0  0  0
    9.0766    1.2520    1.0561 H   0  0  0  0  0  0  0  0  0  0  0  0
  1  8  1  0  0  0  0
  1 24  1  0  0  0  0
  2 11  1  0  0  0  0
  2 51  1  0  0  0  0
  3 18  1  0  0  0  0
  3 55  1  0  0  0  0
  4 23  2  0  0  0  0
  5 24  2  0  0  0  0
  6 26  1  0  0  0  0
  6 63  1  0  0  0  0
  7  8  1  0  0  0  0
  7  9  1  0  0  0  0
  7 10  1  0  0  0  0
  7 35  1  0  0  0  0
  8  9  1  0  0  0  0
  8 12  1  0  0  0  0
  9 14  1  0  0  0  0
  9 15  1  0  0  0  0
 10 11  1  0  0  0  0
 10 17  1  0  0  0  0
 10 36  1  0  0  0  0
 11 13  1  0  0  0  0
 11 16  1  0  0  0  0
 12 13  1  0  0  0  0
 12 37  1  0  0  0  0
 12 38  1  0  0  0  0
 13 19  1  0  0  0  0
 13 39  1  0  0  0  0
 14 40  1  0  0  0  0
 14 41  1  0  0  0  0
 14 42  1  0  0  0  0
 15 43  1  0  0  0  0
 15 44  1  0  0  0  0
 15 45  1  0  0  0  0
 16 18  1  0  0  0  0
 16 22  1  0  0  0  0
 16 46  1  0  0  0  0
 17 20  2  0  0  0  0
 17 47  1  0  0  0  0
 18 21  1  0  0  0  0
 18 23  1  0  0  0  0
 19 48  1  0  0  0  0
 19 49  1  0  0  0  0
 19 50  1  0  0  0  0
 20 21  1  0  0  0  0
 20 26  1  0  0  0  0
 21 52  1  0  0  0  0
 21 53  1  0  0  0  0
 22 25  2  0  0  0  0
 22 54  1  0  0  0  0
 23 25  1  0  0  0  0
 24 27  1  0  0  0  0
 25 28  1  0  0  0  0
 26 56  1  0  0  0  0
 26 57  1  0  0  0  0
 27 29  1  0  0  0  0
 27 58  1  0  0  0  0
 27 59  1  0  0  0  0
 28 60  1  0  0  0  0
 28 61  1  0  0  0  0
 28 62  1  0  0  0  0
 29 30  2  0  0  0  0
 29 31  1  0  0  0  0
 30 32  1  0  0  0  0
 30 64  1  0  0  0  0
 31 33  2  0  0  0  0
 31 65  1  0  0  0  0
 32 34  2  0  0  0  0
 32 66  1  0  0  0  0
 33 34  1  0  0  0  0
 33 67  1  0  0  0  0
 34 68  1  0  0  0  0
M  END
> <PUBCHEM_COMPOUND_CID>
105100

> <PUBCHEM_CONFORMER_RMSD>
0.8

> <PUBCHEM_CONFORMER_DIVERSEORDER>
1
63
36
41
46
54
6
51
38
35
69
48
26
74
30
49
8
42
66
13
73
2
50
15
56
14
59
27
64
29
68
9
19
57
61
18
44
47
3
62
10
20
75
40
65
12
70
34
4
39
45
16
53
22
72
25
17
52
43
67
31
5
60
32
58
7
33
11
55
37
24
28
71
21
23

> <PUBCHEM_MMFF94_PARTIAL_CHARGES>
43
1 -0.3
10 0.23
11 0.28
12 0.09
14 0.09
15 0.09
16 0.14
17 -0.29
18 0.34
2 -0.68
20 -0.28
21 0.14
22 -0.29
23 0.49
24 0.66
25 -0.12
26 0.42
27 0.2
28 0.14
29 -0.14
3 -0.68
30 -0.15
31 -0.15
32 -0.15
33 -0.15
34 -0.15
35 0.1
4 -0.57
47 0.15
5 -0.57
51 0.4
54 0.15
55 0.4
6 -0.68
63 0.4
64 0.15
65 0.15
66 0.15
67 0.15
68 0.15
7 -0.19
8 0.05
9 -0.19

> <PUBCHEM_EFFECTIVE_ROTOR_COUNT>
5.8

> <PUBCHEM_PHARMACOPHORE_FEATURES>
13
1 2 acceptor
1 2 donor
1 3 acceptor
1 3 donor
1 4 acceptor
1 5 acceptor
1 6 acceptor
1 6 donor
3 9 14 15 hydrophobe
5 16 18 22 23 25 rings
6 29 30 31 32 33 34 rings
7 10 11 16 17 18 20 21 rings
7 7 8 9 10 11 12 13 rings

> <PUBCHEM_HEAVY_ATOM_COUNT>
34

> <PUBCHEM_ATOM_DEF_STEREO_COUNT>
6

> <PUBCHEM_ATOM_UDEF_STEREO_COUNT>
1

> <PUBCHEM_BOND_DEF_STEREO_COUNT>
0

> <PUBCHEM_BOND_UDEF_STEREO_COUNT>
0

> <PUBCHEM_ISOTOPIC_ATOM_COUNT>
0

> <PUBCHEM_COMPONENT_COUNT>
1

> <PUBCHEM_CACTVS_TAUTO_COUNT>
3

> <PUBCHEM_CONFORMER_ID>
00019A8C00000001

> <PUBCHEM_MMFF94_ENERGY>
105.1314

> <PUBCHEM_FEATURE_SELFOVERLAP>
66.007

> <PUBCHEM_SHAPE_FINGERPRINT>
10 15 18334301945949233184
10050765 1 18339359647982232886
10411042 1 18123748923244002999
11007060 377 18336264638977183978
11101153 10 18265332996080121013
11578080 2 17242711127299691575
12107698 1 18199746011123614372
12422481 6 17167867409467470148
13140716 1 18046911764717831067
13540713 5 18191848064435783275
13631057 29 18342171215700500663
14068700 675 18265048218916982223
14394314 77 18335137566993311360
14790565 3 18408609179827870228
14856354 85 18410861000968673287
15021287 119 17385731300505008468
15064986 266 18335711585235060442
1577012 14 18334015004481253684
16087824 20 18411699873777027229
17980427 23 17530976773379706140
18608769 82 18341896324607610731
21130935 74 18411696579031377994
21236236 1 18411699910912753526
21304303 282 13408169848985817767
21424621 283 18408887313583515576
21756936 100 18343013376596766278
21927370 108 17749959968024212843
22311459 1 18338796848384302446
23522609 53 17896624854893579764
23569914 2 17411569781009123104
23569943 247 17097188564963093346
24771293 8 18335985350693305956
249057 25 17967536817717189796
25019877 29 18342744069722251350
2838139 119 18272363166644613084
32027 91 17771079189639158934
3383291 50 18042686277060494698
350125 39 18341896333461178785
392239 28 18408611357302611544
4098825 35 18342741806658931622
469060 322 17676483960546099671
5104073 3 17968944071925057138
5171179 24 17986944352724543601
7226269 152 18201720626691472680
7808743 9 18339641140238500193
9831232 110 18130518423416048806
9896288 288 18411706491452030299
99344 41 18410852123936007738
9996256 80 18411697716722600390

> <PUBCHEM_SHAPE_MULTIPOLES>
664.49
17.88
3.91
1.25
34.2
0.45
0.15
6.8
1.66
-6.82
0.14
-0.55
-0.19
-1.17

> <PUBCHEM_SHAPE_SELFOVERLAP>
1444.211

> <PUBCHEM_SHAPE_VOLUME>
358.5

> <PUBCHEM_COORDINATE_TYPE>
2
5
10

$$$$
