REMARK  Name = 10516185
REMARK  5 active torsions:
REMARK  status: ('A' for Active; 'I' for Inactive)
REMARK    1  A    between atoms: C_1  and  S_8
REMARK    2  A    between atoms: C_2  and  N_12
REMARK    3  A    between atoms: C_4  and  C_16
REMARK    4  A    between atoms: C_16  and  N_17
REMARK    5  A    between atoms: N_17  and  C_20
REMARK                            x       y       z     vdW  Elec       q    Type
REMARK                         _______ _______ _______ _____ _____    ______ ____
ROOT
ATOM      1  C   UNL     1      -1.549  -0.071   0.017  0.00  0.00    +0.119 C 
ATOM      2  C   UNL     1      -1.868   1.205  -0.445  0.00  0.00    +0.059 C 
ATOM      3  C   UNL     1       0.410   1.913  -0.065  0.00  0.00    -0.016 C 
ATOM      4  C   UNL     1       0.729   0.636   0.398  0.00  0.00    +0.053 C 
ATOM      5  C   UNL     1      -0.251  -0.356   0.439  0.00  0.00    +0.024 C 
ATOM      6  C   UNL     1      -0.888   2.197  -0.486  0.00  0.00    +0.011 C 
ATOM      7  C   UNL     1       1.440   2.994  -0.118  0.00  0.00    +0.031 C 
ENDROOT
BRANCH   1   8
ATOM      8  S   UNL     1      -2.751  -1.343   0.084  0.00  0.00    +0.012 S 
ATOM      9  O   UNL     1      -3.497  -1.314  -1.164  0.00  0.00    -0.169 OA
ATOM     10  O   UNL     1      -2.106  -2.573   0.516  0.00  0.00    -0.169 OA
ATOM     11  C   UNL     1      -3.846  -0.842   1.391  0.00  0.00    +0.182 C 
ENDBRANCH   1   8
BRANCH   2  12
ATOM     12  N   UNL     1      -3.176   1.518  -0.878  0.00  0.00    -0.356 N 
ATOM     13  H   UNL     1      -3.879   0.829  -0.856  0.00  0.00    +0.142 HD
ATOM     14  H   UNL     1      -3.383   2.424  -1.203  0.00  0.00    +0.142 HD
ENDBRANCH   2  12
BRANCH   4  16
ATOM     15  O   UNL     1       2.791   1.179   1.382  0.00  0.00    -0.268 OA
ATOM     16  C   UNL     1       2.077   0.312   0.845  0.00  0.00    +0.271 C 
BRANCH  16  17
ATOM     17  N   UNL     1       2.495  -1.005   0.679  0.00  0.00    -0.143 NA
BRANCH  17  20
ATOM     18  N   UNL     1       3.566  -2.622  -0.747  0.00  0.00    -0.372 N 
ATOM     19  N   UNL     1       3.331  -0.456  -1.424  0.00  0.00    -0.372 N 
ATOM     20  C   UNL     1       3.094  -1.370  -0.424  0.00  0.00    +0.185 C 
ATOM     21  H   UNL     1       3.458  -3.368  -0.114  0.00  0.00    +0.159 HD
ATOM     22  H   UNL     1       4.012  -2.772  -1.612  0.00  0.00    +0.159 HD
ATOM     23  H   UNL     1       3.041   0.478  -1.315  0.00  0.00    +0.159 HD
ATOM     24  H   UNL     1       3.791  -0.736  -2.248  0.00  0.00    +0.159 HD
ENDBRANCH  17  20
ENDBRANCH  16  17
ENDBRANCH   4  16
TORSDOF 5
