REMARK  Name = 1051
REMARK  7 active torsions:
REMARK  status: ('A' for Active; 'I' for Inactive)
REMARK    1  A    between atoms: C_2  and  C_12
REMARK    2  A    between atoms: C_3  and  C_11
REMARK    3  A    between atoms: C_4  and  O_8
REMARK    4  A    between atoms: C_12  and  O_13
REMARK    5  A    between atoms: O_13  and  P_14
REMARK    6  A    between atoms: P_14  and  O_16
REMARK    7  A    between atoms: P_14  and  O_18
REMARK                            x       y       z     vdW  Elec       q    Type
REMARK                         _______ _______ _______ _____ _____    ______ ____
ROOT
ATOM      1  N   UNL     1       2.075   1.998   0.154  0.00  0.00    -0.245 NA
ATOM      2  C   UNL     1       0.239   0.451   0.435  0.00  0.00    +0.033 C 
ATOM      3  C   UNL     1       1.077  -0.613   0.118  0.00  0.00    +0.077 C 
ATOM      4  C   UNL     1       2.413  -0.372  -0.181  0.00  0.00    +0.150 C 
ATOM      5  C   UNL     1       2.859   0.939  -0.149  0.00  0.00    +0.093 C 
ATOM      6  C   UNL     1       0.782   1.726   0.440  0.00  0.00    +0.097 C 
ATOM      7  C   UNL     1       4.285   1.254  -0.463  0.00  0.00    +0.055 C 
ENDROOT
BRANCH   4   8
ATOM      8  O   UNL     1       3.257  -1.390  -0.496  0.00  0.00    -0.504 OA
ATOM      9  H   UNL     1       2.941  -2.272  -0.513  0.00  0.00    +0.292 HD
ENDBRANCH   4   8
BRANCH   3  11
ATOM     10  O   UNL     1       1.253  -2.959   0.360  0.00  0.00    -0.283 OA
ATOM     11  C   UNL     1       0.559  -1.976   0.099  0.00  0.00    +0.237 C 
ENDBRANCH   3  11
BRANCH   2  12
ATOM     12  C   UNL     1      -1.201   0.256   0.765  0.00  0.00    +0.182 C 
BRANCH  12  13
ATOM     13  O   UNL     1      -1.975   0.333  -0.426  0.00  0.00    -0.268 OA
BRANCH  13  14
ATOM     14  P   UNL     1      -3.576   0.149  -0.313  0.00  0.00    +0.473 P 
ATOM     15  O   UNL     1      -4.321   0.244  -1.612  0.00  0.00    -0.227 OA
BRANCH  14  16
ATOM     16  O   UNL     1      -4.009   1.228   0.812  0.00  0.00    -0.303 OA
ATOM     17  H   UNL     1      -3.478   1.091   1.612  0.00  0.00    +0.222 HD
ENDBRANCH  14  16
BRANCH  14  18
ATOM     18  O   UNL     1      -3.720  -1.267   0.455  0.00  0.00    -0.303 OA
ATOM     19  H   UNL     1      -3.210  -1.240   1.280  0.00  0.00    +0.222 HD
ENDBRANCH  14  18
ENDBRANCH  13  14
ENDBRANCH  12  13
ENDBRANCH   2  12
TORSDOF 7
