REMARK  Name = 105100
REMARK  8 active torsions:
REMARK  status: ('A' for Active; 'I' for Inactive)
REMARK    1  A    between atoms: C_3  and  O_25
REMARK    2  A    between atoms: C_6  and  O_21
REMARK    3  A    between atoms: C_13  and  O_23
REMARK    4  A    between atoms: C_15  and  C_35
REMARK    5  A    between atoms: O_25  and  C_27
REMARK    6  A    between atoms: C_27  and  C_28
REMARK    7  A    between atoms: C_28  and  C_29
REMARK    8  A    between atoms: C_35  and  O_36
REMARK                            x       y       z     vdW  Elec       q    Type
REMARK                         _______ _______ _______ _____ _____    ______ ____
ROOT
ATOM      1  O   UNL     1      -5.705   1.829   1.407  0.00  0.00    -0.294 OA
ATOM      2  C   UNL     1      -0.137  -1.669  -0.460  0.00  0.00    +0.046 C 
ATOM      3  C   UNL     1       0.975  -0.827   0.101  0.00  0.00    +0.136 C 
ATOM      4  C   UNL     1       0.714  -2.200   0.663  0.00  0.00    +0.037 C 
ATOM      5  C   UNL     1      -1.530  -1.110  -0.222  0.00  0.00    +0.050 C 
ATOM      6  C   UNL     1      -1.543   0.379  -0.731  0.00  0.00    +0.095 C 
ATOM      7  C   UNL     1       0.554   0.400   0.852  0.00  0.00    +0.042 C 
ATOM      8  C   UNL     1      -0.473   1.247   0.052  0.00  0.00    +0.029 C 
ATOM      9  C   UNL     1       1.675  -3.289   0.314  0.00  0.00    +0.004 C 
ATOM     10  C   UNL     1       0.137  -2.370   2.027  0.00  0.00    +0.004 C 
ATOM     11  C   UNL     1      -2.989   0.964  -0.718  0.00  0.00    +0.057 C 
ATOM     12  C   UNL     1      -2.635  -1.994  -0.755  0.00  0.00    -0.030 C 
ATOM     13  C   UNL     1      -3.847   0.550   0.494  0.00  0.00    +0.145 C 
ATOM     14  C   UNL     1       0.303   2.233  -0.837  0.00  0.00    +0.003 C 
ATOM     15  C   UNL     1      -3.956  -1.866  -0.512  0.00  0.00    -0.017 C 
ATOM     16  C   UNL     1      -4.643  -0.738   0.247  0.00  0.00    +0.058 C 
ATOM     17  C   UNL     1      -3.161   2.460  -0.770  0.00  0.00    +0.013 C 
ATOM     18  C   UNL     1      -4.708   1.775   0.702  0.00  0.00    +0.174 C 
ATOM     19  C   UNL     1      -4.148   2.942  -0.008  0.00  0.00    +0.060 C 
ATOM     20  C   UNL     1      -4.660   4.321   0.131  0.00  0.00    +0.008 C 
ENDROOT
BRANCH   6  21
ATOM     21  O   UNL     1      -1.158   0.313  -2.123  0.00  0.00    -0.386 OA
ATOM     22  H   UNL     1      -0.259  -0.046  -2.192  0.00  0.00    +0.210 HD
ENDBRANCH   6  21
BRANCH  13  23
ATOM     23  O   UNL     1      -3.111   0.489   1.710  0.00  0.00    -0.379 OA
ATOM     24  H   UNL     1      -2.514  -0.275   1.688  0.00  0.00    +0.211 HD
ENDBRANCH  13  23
BRANCH   3  25
ATOM     25  O   UNL     1       2.124  -0.653  -0.741  0.00  0.00    -0.456 OA
BRANCH  25  27
ATOM     26  O   UNL     1       3.382  -0.067   1.101  0.00  0.00    -0.250 OA
ATOM     27  C   UNL     1       3.266  -0.268  -0.100  0.00  0.00    +0.321 C 
BRANCH  27  28
ATOM     28  C   UNL     1       4.369  -0.129  -1.122  0.00  0.00    +0.136 C 
BRANCH  28  29
ATOM     29  C   UNL     1       5.691   0.259  -0.511  0.00  0.00    -0.011 C 
ATOM     30  C   UNL     1       6.012   1.601  -0.374  0.00  0.00    -0.004 C 
ATOM     31  C   UNL     1       6.567  -0.733  -0.093  0.00  0.00    -0.004 C 
ATOM     32  C   UNL     1       7.235   1.960   0.192  0.00  0.00    -0.000 C 
ATOM     33  C   UNL     1       7.790  -0.374   0.473  0.00  0.00    -0.000 C 
ATOM     34  C   UNL     1       8.124   0.973   0.615  0.00  0.00    -0.000 C 
ENDBRANCH  28  29
ENDBRANCH  27  28
ENDBRANCH  25  27
ENDBRANCH   3  25
BRANCH  15  35
ATOM     35  C   UNL     1      -4.911  -2.907  -1.041  0.00  0.00    +0.159 C 
BRANCH  35  36
ATOM     36  O   UNL     1      -5.604  -3.499   0.038  0.00  0.00    -0.378 OA
ATOM     37  H   UNL     1      -6.219  -4.169  -0.301  0.00  0.00    +0.211 HD
ENDBRANCH  35  36
ENDBRANCH  15  35
TORSDOF 8
