REMARK  Name = 10527064
REMARK  8 active torsions:
REMARK  status: ('A' for Active; 'I' for Inactive)
REMARK    1  A    between atoms: C_4  and  C_25
REMARK    2  A    between atoms: C_9  and  C_32
REMARK    3  A    between atoms: C_11  and  O_30
REMARK    4  A    between atoms: C_12  and  C_15
REMARK    5  A    between atoms: C_18  and  O_21
REMARK    6  A    between atoms: C_20  and  O_23
REMARK    7  A    between atoms: C_25  and  O_28
REMARK    8  A    between atoms: C_32  and  C_33
REMARK                            x       y       z     vdW  Elec       q    Type
REMARK                         _______ _______ _______ _____ _____    ______ ____
ROOT
ATOM      1  O   UNL     1      -2.856   1.836  -0.080  0.00  0.00    -0.477 OA
ATOM      2  O   UNL     1       1.469   0.097  -0.027  0.00  0.00    -0.474 OA
ATOM      3  O   UNL     1       0.163  -3.674  -0.980  0.00  0.00    -0.291 OA
ATOM      4  C   UNL     1      -1.924   2.790   0.491  0.00  0.00    +0.195 C 
ATOM      5  C   UNL     1      -0.492   2.329   0.181  0.00  0.00    +0.078 C 
ATOM      6  C   UNL     1      -0.750   0.891  -0.062  0.00  0.00    +0.049 A 
ATOM      7  C   UNL     1      -2.113   0.692  -0.224  0.00  0.00    +0.137 A 
ATOM      8  C   UNL     1       0.136  -0.163  -0.184  0.00  0.00    +0.143 A 
ATOM      9  C   UNL     1      -2.644  -0.549  -0.521  0.00  0.00    +0.050 A 
ATOM     10  C   UNL     1      -0.379  -1.428  -0.494  0.00  0.00    +0.102 A 
ATOM     11  C   UNL     1      -1.763  -1.624  -0.657  0.00  0.00    +0.138 A 
ATOM     12  C   UNL     1       2.221  -1.061   0.365  0.00  0.00    +0.196 C 
ATOM     13  C   UNL     1       2.026  -2.205  -0.629  0.00  0.00    +0.117 C 
ATOM     14  C   UNL     1       0.561  -2.549  -0.704  0.00  0.00    +0.183 C 
ENDROOT
BRANCH  12  15
ATOM     15  C   UNL     1       3.680  -0.670   0.469  0.00  0.00    +0.021 C 
ATOM     16  C   UNL     1       4.369  -0.242  -0.665  0.00  0.00    +0.039 C 
ATOM     17  C   UNL     1       4.334  -0.740   1.699  0.00  0.00    +0.002 C 
ATOM     18  C   UNL     1       5.714   0.118  -0.570  0.00  0.00    +0.167 C 
ATOM     19  C   UNL     1       5.679  -0.381   1.794  0.00  0.00    +0.040 C 
ATOM     20  C   UNL     1       6.368   0.048   0.660  0.00  0.00    +0.167 C 
BRANCH  18  21
ATOM     21  O   UNL     1       6.376   0.536  -1.684  0.00  0.00    -0.503 OA
ATOM     22  H   UNL     1       5.929   0.580  -2.506  0.00  0.00    +0.292 HD
ENDBRANCH  18  21
BRANCH  20  23
ATOM     23  O   UNL     1       7.681   0.397   0.767  0.00  0.00    -0.503 OA
ATOM     24  H   UNL     1       8.152   0.686   0.010  0.00  0.00    +0.292 HD
ENDBRANCH  20  23
ENDBRANCH  12  15
BRANCH   4  25
ATOM     25  C   UNL     1      -2.226   4.170  -0.069  0.00  0.00    +0.125 C 
ATOM     26  C   UNL     1      -1.281   5.224   0.514  0.00  0.00    +0.033 C 
ATOM     27  C   UNL     1      -3.682   4.559   0.195  0.00  0.00    +0.033 C 
BRANCH  25  28
ATOM     28  O   UNL     1      -2.046   4.143  -1.488  0.00  0.00    -0.383 OA
ATOM     29  H   UNL     1      -1.129   3.899  -1.693  0.00  0.00    +0.210 HD
ENDBRANCH  25  28
ENDBRANCH   4  25
BRANCH  11  30
ATOM     30  O   UNL     1      -2.282  -2.850  -0.960  0.00  0.00    -0.506 OA
ATOM     31  H   UNL     1      -3.207  -2.954  -1.063  0.00  0.00    +0.292 HD
ENDBRANCH  11  30
BRANCH   9  32
ATOM     32  C   UNL     1      -4.115  -0.725  -0.694  0.00  0.00    +0.058 C 
BRANCH  32  33
ATOM     33  C   UNL     1      -4.822  -1.065   0.596  0.00  0.00    -0.030 C 
ATOM     34  C   UNL     1      -5.521  -2.179   0.891  0.00  0.00    -0.048 C 
ATOM     35  C   UNL     1      -6.203  -2.453   2.201  0.00  0.00    +0.026 C 
ATOM     36  C   UNL     1      -5.679  -3.272  -0.132  0.00  0.00    +0.026 C 
ENDBRANCH  32  33
ENDBRANCH   9  32
TORSDOF 8
