REMARK  Name = 10525258
REMARK  8 active torsions:
REMARK  status: ('A' for Active; 'I' for Inactive)
REMARK    1  A    between atoms: C_3  and  O_18
REMARK    2  A    between atoms: C_12  and  O_16
REMARK    3  A    between atoms: O_18  and  C_24
REMARK    4  A    between atoms: C_20  and  O_25
REMARK    5  A    between atoms: C_21  and  O_27
REMARK    6  A    between atoms: C_22  and  O_29
REMARK    7  A    between atoms: C_23  and  C_31
REMARK    8  A    between atoms: C_31  and  O_32
REMARK                            x       y       z     vdW  Elec       q    Type
REMARK                         _______ _______ _______ _____ _____    ______ ____
ROOT
ATOM      1  O   UNL     1      -3.214  -2.130   0.307  0.00  0.00    -0.453 OA
ATOM      2  O   UNL     1      -1.824   1.592  -0.672  0.00  0.00    -0.286 OA
ATOM      3  C   UNL     1       0.822  -1.674  -0.615  0.00  0.00    +0.142 C 
ATOM      4  C   UNL     1      -0.003  -0.550  -0.652  0.00  0.00    +0.043 C 
ATOM      5  C   UNL     1      -1.360  -0.681  -0.346  0.00  0.00    +0.077 A 
ATOM      6  C   UNL     1       0.294  -2.919  -0.274  0.00  0.00    +0.040 C 
ATOM      7  C   UNL     1      -1.893  -1.923  -0.005  0.00  0.00    +0.148 A 
ATOM      8  C   UNL     1      -1.062  -3.045   0.030  0.00  0.00    +0.041 C 
ATOM      9  C   UNL     1      -2.254   0.487  -0.377  0.00  0.00    +0.204 A 
ATOM     10  C   UNL     1      -3.665   0.245  -0.039  0.00  0.00    +0.107 A 
ATOM     11  C   UNL     1      -4.064  -1.052   0.284  0.00  0.00    +0.151 A 
ATOM     12  C   UNL     1      -4.590   1.293  -0.040  0.00  0.00    +0.145 C 
ATOM     13  C   UNL     1      -5.399  -1.304   0.608  0.00  0.00    +0.038 C 
ATOM     14  C   UNL     1      -5.922   1.035   0.284  0.00  0.00    +0.037 C 
ATOM     15  C   UNL     1      -6.326  -0.261   0.608  0.00  0.00    +0.006 C 
ENDROOT
BRANCH  12  16
ATOM     16  O   UNL     1      -4.248   2.574  -0.349  0.00  0.00    -0.471 OA
ATOM     17  C   UNL     1      -3.830   3.411   0.728  0.00  0.00    +0.252 C 
ENDBRANCH  12  16
BRANCH   3  18
ATOM     18  O   UNL     1       2.145  -1.555  -0.912  0.00  0.00    -0.451 OA
BRANCH  18  24
ATOM     19  O   UNL     1       2.886   0.640  -0.634  0.00  0.00    -0.316 OA
ATOM     20  C   UNL     1       5.283  -0.245   0.679  0.00  0.00    +0.173 C 
ATOM     21  C   UNL     1       5.104   1.188   0.177  0.00  0.00    +0.169 C 
ATOM     22  C   UNL     1       4.351  -1.209  -0.057  0.00  0.00    +0.210 C 
ATOM     23  C   UNL     1       3.623   1.575   0.156  0.00  0.00    +0.177 C 
ATOM     24  C   UNL     1       2.918  -0.678  -0.092  0.00  0.00    +0.318 C 
BRANCH  20  25
ATOM     25  O   UNL     1       6.640  -0.627   0.449  0.00  0.00    -0.379 OA
ATOM     26  H   UNL     1       7.231  -0.016   0.915  0.00  0.00    +0.211 HD
ENDBRANCH  20  25
BRANCH  21  27
ATOM     27  O   UNL     1       5.811   2.079   1.036  0.00  0.00    -0.379 OA
ATOM     28  H   UNL     1       6.750   1.836   1.051  0.00  0.00    +0.211 HD
ENDBRANCH  21  27
BRANCH  22  29
ATOM     29  O   UNL     1       4.345  -2.468   0.616  0.00  0.00    -0.377 OA
ATOM     30  H   UNL     1       5.248  -2.821   0.649  0.00  0.00    +0.211 HD
ENDBRANCH  22  29
BRANCH  23  31
ATOM     31  C   UNL     1       3.409   2.958  -0.450  0.00  0.00    +0.169 C 
BRANCH  31  32
ATOM     32  O   UNL     1       2.022   3.243  -0.447  0.00  0.00    -0.379 OA
ATOM     33  H   UNL     1       1.871   4.121  -0.831  0.00  0.00    +0.211 HD
ENDBRANCH  31  32
ENDBRANCH  23  31
ENDBRANCH  18  24
ENDBRANCH   3  18
TORSDOF 8
