10527064
  -OEChem-03292013303D

 60 63  0     1  0  0  0  0  0999 V2000
   -2.8558    1.8358   -0.0803 O   0  0  0  0  0  0  0  0  0  0  0  0
    1.4689    0.0972   -0.0270 O   0  0  0  0  0  0  0  0  0  0  0  0
   -2.0455    4.1432   -1.4885 O   0  0  0  0  0  0  0  0  0  0  0  0
   -2.2816   -2.8497   -0.9595 O   0  0  0  0  0  0  0  0  0  0  0  0
    0.1625   -3.6740   -0.9804 O   0  0  0  0  0  0  0  0  0  0  0  0
    6.3763    0.5359   -1.6839 O   0  0  0  0  0  0  0  0  0  0  0  0
    7.6808    0.3966    0.7667 O   0  0  0  0  0  0  0  0  0  0  0  0
   -1.9238    2.7902    0.4911 C   0  0  1  0  0  0  0  0  0  0  0  0
   -0.4918    2.3295    0.1808 C   0  0  0  0  0  0  0  0  0  0  0  0
   -2.2262    4.1703   -0.0694 C   0  0  0  0  0  0  0  0  0  0  0  0
   -0.7505    0.8915   -0.0620 C   0  0  0  0  0  0  0  0  0  0  0  0
   -2.1133    0.6915   -0.2238 C   0  0  0  0  0  0  0  0  0  0  0  0
    0.1364   -0.1633   -0.1839 C   0  0  0  0  0  0  0  0  0  0  0  0
   -2.6442   -0.5495   -0.5213 C   0  0  0  0  0  0  0  0  0  0  0  0
   -0.3793   -1.4278   -0.4938 C   0  0  0  0  0  0  0  0  0  0  0  0
   -1.7628   -1.6241   -0.6566 C   0  0  0  0  0  0  0  0  0  0  0  0
   -1.2810    5.2236    0.5144 C   0  0  0  0  0  0  0  0  0  0  0  0
   -3.6822    4.5591    0.1951 C   0  0  0  0  0  0  0  0  0  0  0  0
    2.2212   -1.0612    0.3651 C   0  0  1  0  0  0  0  0  0  0  0  0
    2.0260   -2.2046   -0.6290 C   0  0  0  0  0  0  0  0  0  0  0  0
    0.5608   -2.5489   -0.7036 C   0  0  0  0  0  0  0  0  0  0  0  0
   -4.1146   -0.7248   -0.6935 C   0  0  0  0  0  0  0  0  0  0  0  0
    3.6803   -0.6703    0.4689 C   0  0  0  0  0  0  0  0  0  0  0  0
   -4.8224   -1.0655    0.5955 C   0  0  0  0  0  0  0  0  0  0  0  0
    4.3693   -0.2417   -0.6652 C   0  0  0  0  0  0  0  0  0  0  0  0
    4.3344   -0.7401    1.6986 C   0  0  0  0  0  0  0  0  0  0  0  0
   -5.5207   -2.1786    0.8909 C   0  0  0  0  0  0  0  0  0  0  0  0
    5.7137    0.1176   -0.5695 C   0  0  0  0  0  0  0  0  0  0  0  0
    5.6786   -0.3808    1.7943 C   0  0  0  0  0  0  0  0  0  0  0  0
    6.3683    0.0481    0.6603 C   0  0  0  0  0  0  0  0  0  0  0  0
   -6.2029   -2.4528    2.2011 C   0  0  0  0  0  0  0  0  0  0  0  0
   -5.6788   -3.2724   -0.1317 C   0  0  0  0  0  0  0  0  0  0  0  0
   -2.0881    2.7790    1.5787 H   0  0  0  0  0  0  0  0  0  0  0  0
    0.1771    2.5071    1.0279 H   0  0  0  0  0  0  0  0  0  0  0  0
   -0.0697    2.7802   -0.7228 H   0  0  0  0  0  0  0  0  0  0  0  0
    1.8634   -1.3704    1.3585 H   0  0  0  0  0  0  0  0  0  0  0  0
   -1.5250    6.2203    0.1284 H   0  0  0  0  0  0  0  0  0  0  0  0
   -1.3421    5.2567    1.6071 H   0  0  0  0  0  0  0  0  0  0  0  0
   -0.2406    5.0390    0.2268 H   0  0  0  0  0  0  0  0  0  0  0  0
   -4.3786    3.8828   -0.3133 H   0  0  0  0  0  0  0  0  0  0  0  0
   -3.8957    5.5603   -0.1976 H   0  0  0  0  0  0  0  0  0  0  0  0
   -3.9111    4.5568    1.2658 H   0  0  0  0  0  0  0  0  0  0  0  0
    2.5824   -3.0910   -0.3042 H   0  0  0  0  0  0  0  0  0  0  0  0
    2.3408   -1.9410   -1.6449 H   0  0  0  0  0  0  0  0  0  0  0  0
   -4.5511    0.2174   -1.0539 H   0  0  0  0  0  0  0  0  0  0  0  0
   -4.3169   -1.4101   -1.5193 H   0  0  0  0  0  0  0  0  0  0  0  0
   -2.2298    5.0338   -1.8329 H   0  0  0  0  0  0  0  0  0  0  0  0
   -4.7537   -0.3013    1.3696 H   0  0  0  0  0  0  0  0  0  0  0  0
   -3.1940   -2.9188   -0.6446 H   0  0  0  0  0  0  0  0  0  0  0  0
    3.8615   -0.1737   -1.6239 H   0  0  0  0  0  0  0  0  0  0  0  0
    3.8107   -1.0722    2.5910 H   0  0  0  0  0  0  0  0  0  0  0  0
    6.1830   -0.4372    2.7552 H   0  0  0  0  0  0  0  0  0  0  0  0
   -6.0450   -1.6377    2.9150 H   0  0  0  0  0  0  0  0  0  0  0  0
   -7.2819   -2.5657    2.0556 H   0  0  0  0  0  0  0  0  0  0  0  0
   -5.8108   -3.3710    2.6499 H   0  0  0  0  0  0  0  0  0  0  0  0
   -5.4487   -2.9924   -1.1594 H   0  0  0  0  0  0  0  0  0  0  0  0
   -5.0551   -4.1304    0.1404 H   0  0  0  0  0  0  0  0  0  0  0  0
   -6.7213   -3.6119   -0.1470 H   0  0  0  0  0  0  0  0  0  0  0  0
    5.7661    0.5195   -2.4411 H   0  0  0  0  0  0  0  0  0  0  0  0
    7.9975    0.6677   -0.1125 H   0  0  0  0  0  0  0  0  0  0  0  0
  1  8  1  0  0  0  0
  1 12  1  0  0  0  0
  2 13  1  0  0  0  0
  2 19  1  0  0  0  0
  3 10  1  0  0  0  0
  3 47  1  0  0  0  0
  4 16  1  0  0  0  0
  4 49  1  0  0  0  0
  5 21  2  0  0  0  0
  6 28  1  0  0  0  0
  6 59  1  0  0  0  0
  7 30  1  0  0  0  0
  7 60  1  0  0  0  0
  8  9  1  0  0  0  0
  8 10  1  0  0  0  0
  8 33  1  0  0  0  0
  9 11  1  0  0  0  0
  9 34  1  0  0  0  0
  9 35  1  0  0  0  0
 10 17  1  0  0  0  0
 10 18  1  0  0  0  0
 11 12  2  0  0  0  0
 11 13  1  0  0  0  0
 12 14  1  0  0  0  0
 13 15  2  0  0  0  0
 14 16  2  0  0  0  0
 14 22  1  0  0  0  0
 15 16  1  0  0  0  0
 15 21  1  0  0  0  0
 17 37  1  0  0  0  0
 17 38  1  0  0  0  0
 17 39  1  0  0  0  0
 18 40  1  0  0  0  0
 18 41  1  0  0  0  0
 18 42  1  0  0  0  0
 19 20  1  0  0  0  0
 19 23  1  0  0  0  0
 19 36  1  0  0  0  0
 20 21  1  0  0  0  0
 20 43  1  0  0  0  0
 20 44  1  0  0  0  0
 22 24  1  0  0  0  0
 22 45  1  0  0  0  0
 22 46  1  0  0  0  0
 23 25  2  0  0  0  0
 23 26  1  0  0  0  0
 24 27  2  0  0  0  0
 24 48  1  0  0  0  0
 25 28  1  0  0  0  0
 25 50  1  0  0  0  0
 26 29  2  0  0  0  0
 26 51  1  0  0  0  0
 27 31  1  0  0  0  0
 27 32  1  0  0  0  0
 28 30  2  0  0  0  0
 29 30  1  0  0  0  0
 29 52  1  0  0  0  0
 31 53  1  0  0  0  0
 31 54  1  0  0  0  0
 31 55  1  0  0  0  0
 32 56  1  0  0  0  0
 32 57  1  0  0  0  0
 32 58  1  0  0  0  0
M  END
> <PUBCHEM_COMPOUND_CID>
10527064

> <PUBCHEM_CONFORMER_RMSD>
0.8

> <PUBCHEM_CONFORMER_DIVERSEORDER>
6
98
221
223
142
208
138
259
169
202
322
92
173
247
89
214
331
346
113
28
225
165
88
71
239
196
314
297
340
110
143
324
197
45
137
58
311
7
266
99
24
345
304
199
109
103
272
300
167
122
299
204
252
334
211
59
46
219
75
188
130
86
231
153
315
150
112
265
116
216
194
283
343
256
115
149
319
63
213
22
2
318
330
326
60
310
222
233
253
175
100
210
250
280
215
176
56
333
117
338
161
335
260
236
282
308
344
342
123
17
172
67
36
234
41
15
152
72
48
203
264
183
327
155
232
10
262
290
320
81
164
263
224
108
251
323
53
20
62
255
301
126
70
193
8
337
321
84
171
114
65
303
295
273
274
174
39
244
168
229
139
277
1
181
77
128
227
184
289
57
269
136
163
288
305
61
292
133
32
268
44
230
26
257
285
102
328
119
258
35
306
316
238
228
243
68
54
336
107
127
179
206
159
124
95
298
158
148
261
25
242
267
14
332
186
245
91
80
85
154
141
30
201
347
190
78
313
246
218
309
83
125
55
42
317
132
29
185
156
151
226
90
248
209
147
34
73
182
120
93
106
101
293
329
96
207
294
19
276
79
240
97
87
302
284
76
187
212
287
33
3
66
74
279
271
118
249
21
241
131
49
47
104
94
180
177
111
198
325
200
157
275
105
192
5
23
281
307
37
162
286
254
129
166
220
341
189
237
50
235
121
13
217
82
43
291
18
195
69
27
339
205
38
135
4
160
64
51
12
145
134
170
140
52
144
178
11
270
312
191
146
278
16
296
9
40
31

> <PUBCHEM_MMFF94_PARTIAL_CHARGES>
38
1 -0.36
10 0.28
11 -0.14
12 0.08
13 0.08
14 -0.14
15 0.09
16 0.08
19 0.42
2 -0.36
20 0.06
21 0.42
22 0.28
23 -0.14
24 -0.29
25 -0.15
26 -0.15
27 -0.28
28 0.08
29 -0.15
3 -0.68
30 0.08
31 0.14
32 0.14
4 -0.53
47 0.4
48 0.15
49 0.45
5 -0.57
50 0.15
51 0.15
52 0.15
59 0.45
6 -0.53
60 0.45
7 -0.53
8 0.28
9 0.14

> <PUBCHEM_EFFECTIVE_ROTOR_COUNT>
5.2

> <PUBCHEM_PHARMACOPHORE_FEATURES>
14
1 1 acceptor
1 2 acceptor
1 3 acceptor
1 3 donor
1 4 donor
1 5 acceptor
1 6 donor
1 7 donor
3 10 17 18 hydrophobe
3 27 31 32 hydrophobe
5 1 8 9 11 12 rings
6 11 12 13 14 15 16 rings
6 2 13 15 19 20 21 rings
6 23 25 26 28 29 30 rings

> <PUBCHEM_HEAVY_ATOM_COUNT>
32

> <PUBCHEM_ATOM_DEF_STEREO_COUNT>
0

> <PUBCHEM_ATOM_UDEF_STEREO_COUNT>
2

> <PUBCHEM_BOND_DEF_STEREO_COUNT>
0

> <PUBCHEM_BOND_UDEF_STEREO_COUNT>
0

> <PUBCHEM_ISOTOPIC_ATOM_COUNT>
0

> <PUBCHEM_COMPONENT_COUNT>
1

> <PUBCHEM_CACTVS_TAUTO_COUNT>
90

> <PUBCHEM_CONFORMER_ID>
00A0A15800000006

> <PUBCHEM_MMFF94_ENERGY>
95.4554

> <PUBCHEM_FEATURE_SELFOVERLAP>
71.185

> <PUBCHEM_SHAPE_FINGERPRINT>
10050765 1 18195526991851074830
102385 1 18051695443172983679
10290309 65 18129944468854509814
10411042 1 18196082468519066919
10670039 82 18411144602544695020
11059845 2 17689969286625947552
11135609 187 17979057303059657053
12058002 1 17532683193957173223
12166972 35 17604430816046869620
12236239 1 17894907439004888518
12390115 104 18059018267806747640
12596602 18 17603578630301049410
12741549 16 17822286934052906317
12788726 201 18334853917886994978
12930653 34 18268989787038640847
13140716 1 18195240242147914619
13383665 225 18266200364677913549
13540713 4 18056487153211016911
13617811 41 18339651130248015966
13726171 33 18342455890406891728
14028597 1 17749106665201599659
14068700 686 18270685264123444783
14294032 229 18341065037861228216
14713325 29 18338515223310057049
14856354 85 18338802333105129367
14955137 171 18193562396484077235
15131766 46 14044877400504207442
15183329 4 10807946958851795658
15775530 1 17626962876260479719
16087824 20 18341046342991909981
18608769 82 18272088348783126726
19246450 95 16457388048301047328
19427546 62 17618787955636676589
19611394 137 18189062060483765402
20739085 24 18196664097522044201
21033650 10 18265634125707574462
21049683 271 18044103581934368109
21796203 349 17975164185893508019
22122407 14 16298390128614036508
22182313 1 18058454213935968279
24771293 8 17987520484079990011
249057 25 17749391447703937068
25019877 29 17274548740312008311
2747138 104 18337115656692736170
283562 15 18410849928711645851
350125 39 18413386540465121856
3552219 110 17895769498474411837
376196 1 17405137436127671445
469060 322 18341066158879127345
5080951 261 16700016489065979758
5104073 3 18269273461271040858
5219985 9 18262237828525538083
550186 72 18411138017516616405
58083652 198 18264207092658558627
6677587 24 15005235618221089069
7808743 9 18340480059537608016
9849439 229 17835801898236785776
9896288 288 18337951173449486459
9962374 69 18123192566466691083
9981440 41 18338514115018649410

> <PUBCHEM_SHAPE_MULTIPOLES>
617.46
15
5.67
1.33
18.93
8.44
0.43
-7.01
5.19
-10.52
-0.37
0.37
-0.52
0.91

> <PUBCHEM_SHAPE_SELFOVERLAP>
1350.299

> <PUBCHEM_SHAPE_VOLUME>
336.3

> <PUBCHEM_COORDINATE_TYPE>
2
5
10

$$$$
