10526707
  -OEChem-03292013303D

 48 51  0     0  0  0  0  0  0999 V2000
   -3.2031   -1.0076    0.0927 O   0  0  0  0  0  0  0  0  0  0  0  0
    0.1024    0.3916   -0.7460 O   0  0  0  0  0  0  0  0  0  0  0  0
   -3.9062    3.7487   -0.5162 O   0  0  0  0  0  0  0  0  0  0  0  0
   -1.5621    2.6197   -0.7757 O   0  0  0  0  0  0  0  0  0  0  0  0
   -7.5284    0.8841    0.5877 O   0  0  0  0  0  0  0  0  0  0  0  0
    0.9389   -5.7499    0.0721 O   0  0  0  0  0  0  0  0  0  0  0  0
    0.5374    0.7300    1.5157 O   0  0  0  0  0  0  0  0  0  0  0  0
    8.7074    1.3219   -0.5751 O   0  0  0  0  0  0  0  0  0  0  0  0
   -3.4920    1.3815   -0.2240 C   0  0  0  0  0  0  0  0  0  0  0  0
   -3.9918    0.1134    0.0637 C   0  0  0  0  0  0  0  0  0  0  0  0
   -1.8481   -0.8698   -0.1640 C   0  0  0  0  0  0  0  0  0  0  0  0
   -1.2429    0.2941   -0.4632 C   0  0  0  0  0  0  0  0  0  0  0  0
   -2.0571    1.5324   -0.5108 C   0  0  0  0  0  0  0  0  0  0  0  0
   -1.1184   -2.1486   -0.1017 C   0  0  0  0  0  0  0  0  0  0  0  0
   -4.3439    2.4887   -0.2406 C   0  0  0  0  0  0  0  0  0  0  0  0
   -5.3494   -0.0562    0.3366 C   0  0  0  0  0  0  0  0  0  0  0  0
   -5.7012    2.3166    0.0333 C   0  0  0  0  0  0  0  0  0  0  0  0
   -6.2032    1.0468    0.3213 C   0  0  0  0  0  0  0  0  0  0  0  0
   -0.5485   -2.5696    1.1000 C   0  0  0  0  0  0  0  0  0  0  0  0
   -0.9965   -2.9387   -1.2452 C   0  0  0  0  0  0  0  0  0  0  0  0
    0.1427   -3.7797    1.1583 C   0  0  0  0  0  0  0  0  0  0  0  0
   -0.3053   -4.1489   -1.1868 C   0  0  0  0  0  0  0  0  0  0  0  0
    0.2643   -4.5695    0.0150 C   0  0  0  0  0  0  0  0  0  0  0  0
    0.8890    0.6174    0.3513 C   0  0  0  0  0  0  0  0  0  0  0  0
    4.7053    1.0236    0.4056 C   0  0  0  0  0  0  0  0  0  0  0  0
    2.2916    0.6949   -0.1244 C   0  0  0  0  0  0  0  0  0  0  0  0
    3.2780    0.9166    0.7561 C   0  0  0  0  0  0  0  0  0  0  0  0
    5.1507    0.4944   -0.7947 C   0  0  0  0  0  0  0  0  0  0  0  0
    5.5738    1.6509    1.2839 C   0  0  0  0  0  0  0  0  0  0  0  0
    6.5020    0.5953   -1.1257 C   0  0  0  0  0  0  0  0  0  0  0  0
    6.9251    1.7518    0.9527 C   0  0  0  0  0  0  0  0  0  0  0  0
    7.3892    1.2240   -0.2521 C   0  0  0  0  0  0  0  0  0  0  0  0
   -5.7428   -1.0445    0.5610 H   0  0  0  0  0  0  0  0  0  0  0  0
   -6.3656    3.1775    0.0208 H   0  0  0  0  0  0  0  0  0  0  0  0
   -0.6371   -1.9669    2.0006 H   0  0  0  0  0  0  0  0  0  0  0  0
   -1.4353   -2.6242   -2.1891 H   0  0  0  0  0  0  0  0  0  0  0  0
    0.5815   -4.0962    2.1008 H   0  0  0  0  0  0  0  0  0  0  0  0
   -0.2139   -4.7596   -2.0808 H   0  0  0  0  0  0  0  0  0  0  0  0
   -2.9516    3.7483   -0.6850 H   0  0  0  0  0  0  0  0  0  0  0  0
   -7.9695    1.7494    0.5341 H   0  0  0  0  0  0  0  0  0  0  0  0
    2.4552    0.5884   -1.1904 H   0  0  0  0  0  0  0  0  0  0  0  0
    3.0486    1.0420    1.8120 H   0  0  0  0  0  0  0  0  0  0  0  0
    4.5011   -0.0220   -1.4942 H   0  0  0  0  0  0  0  0  0  0  0  0
    5.2274    2.0682    2.2256 H   0  0  0  0  0  0  0  0  0  0  0  0
    6.8525    0.1758   -2.0650 H   0  0  0  0  0  0  0  0  0  0  0  0
    7.6115    2.2429    1.6373 H   0  0  0  0  0  0  0  0  0  0  0  0
    1.2658   -5.8825    0.9785 H   0  0  0  0  0  0  0  0  0  0  0  0
    8.8515    0.9044   -1.4418 H   0  0  0  0  0  0  0  0  0  0  0  0
  1 10  1  0  0  0  0
  1 11  1  0  0  0  0
  2 12  1  0  0  0  0
  2 24  1  0  0  0  0
  3 15  1  0  0  0  0
  3 39  1  0  0  0  0
  4 13  2  0  0  0  0
  5 18  1  0  0  0  0
  5 40  1  0  0  0  0
  6 23  1  0  0  0  0
  6 47  1  0  0  0  0
  7 24  2  0  0  0  0
  8 32  1  0  0  0  0
  8 48  1  0  0  0  0
  9 10  1  0  0  0  0
  9 13  1  0  0  0  0
  9 15  2  0  0  0  0
 10 16  2  0  0  0  0
 11 12  2  0  0  0  0
 11 14  1  0  0  0  0
 12 13  1  0  0  0  0
 14 19  2  0  0  0  0
 14 20  1  0  0  0  0
 15 17  1  0  0  0  0
 16 18  1  0  0  0  0
 16 33  1  0  0  0  0
 17 18  2  0  0  0  0
 17 34  1  0  0  0  0
 19 21  1  0  0  0  0
 19 35  1  0  0  0  0
 20 22  2  0  0  0  0
 20 36  1  0  0  0  0
 21 23  2  0  0  0  0
 21 37  1  0  0  0  0
 22 23  1  0  0  0  0
 22 38  1  0  0  0  0
 24 26  1  0  0  0  0
 25 27  1  0  0  0  0
 25 28  2  0  0  0  0
 25 29  1  0  0  0  0
 26 27  2  0  0  0  0
 26 41  1  0  0  0  0
 27 42  1  0  0  0  0
 28 30  1  0  0  0  0
 28 43  1  0  0  0  0
 29 31  2  0  0  0  0
 29 44  1  0  0  0  0
 30 32  2  0  0  0  0
 30 45  1  0  0  0  0
 31 32  1  0  0  0  0
 31 46  1  0  0  0  0
M  END
> <PUBCHEM_COMPOUND_CID>
10526707

> <PUBCHEM_CONFORMER_RMSD>
0.8

> <PUBCHEM_CONFORMER_DIVERSEORDER>
1
41
43
12
46
5
29
20
23
31
9
44
45
36
13
28
32
10
30
47
14
37
34
26
38
11
39
19
21
15
17
42
35
27
16
33
40
24
7
48
25
18
22
8
4
6
2
3

> <PUBCHEM_MMFF94_PARTIAL_CHARGES>
48
1 -0.16
10 0.08
11 0.05
12 0.09
13 0.47
14 0.03
15 0.08
16 -0.15
17 -0.15
18 0.08
19 -0.15
2 -0.23
20 -0.15
21 -0.15
22 -0.15
23 0.08
24 0.71
25 0.03
26 -0.14
27 -0.18
28 -0.15
29 -0.15
3 -0.53
30 -0.15
31 -0.15
32 0.08
33 0.15
34 0.15
35 0.15
36 0.15
37 0.15
38 0.15
39 0.45
4 -0.57
40 0.45
41 0.15
42 0.15
43 0.15
44 0.15
45 0.15
46 0.15
47 0.45
48 0.45
5 -0.53
6 -0.53
7 -0.57
8 -0.53
9 0.09

> <PUBCHEM_EFFECTIVE_ROTOR_COUNT>
5

> <PUBCHEM_PHARMACOPHORE_FEATURES>
11
1 1 acceptor
1 3 donor
1 4 acceptor
1 5 donor
1 6 donor
1 7 acceptor
1 8 donor
6 1 9 10 11 12 13 rings
6 14 19 20 21 22 23 rings
6 25 28 29 30 31 32 rings
6 9 10 15 16 17 18 rings

> <PUBCHEM_HEAVY_ATOM_COUNT>
32

> <PUBCHEM_ATOM_DEF_STEREO_COUNT>
0

> <PUBCHEM_ATOM_UDEF_STEREO_COUNT>
0

> <PUBCHEM_BOND_DEF_STEREO_COUNT>
1

> <PUBCHEM_BOND_UDEF_STEREO_COUNT>
0

> <PUBCHEM_ISOTOPIC_ATOM_COUNT>
0

> <PUBCHEM_COMPONENT_COUNT>
1

> <PUBCHEM_CACTVS_TAUTO_COUNT>
114

> <PUBCHEM_CONFORMER_ID>
00A09FF300000001

> <PUBCHEM_MMFF94_ENERGY>
101.6798

> <PUBCHEM_FEATURE_SELFOVERLAP>
55.851

> <PUBCHEM_SHAPE_FINGERPRINT>
10050765 1 18049722915829825109
10165383 225 18272373066670818073
10190206 1 18270665576467919191
102385 1 17690279730229465880
10290309 65 18265322924598122124
10369192 42 18334294253979310997
10411042 1 17833551572219199847
107951 10 18341894108436492158
10940486 97 18190462856094508540
11007060 377 18200027477083174579
11135926 11 18409443692701080999
11136131 41 18188766146075308539
11445158 3 17749112240148524613
11524674 6 18272932747415499390
11578080 2 16663452036557766311
13540713 4 17899136010897422925
13757389 114 18337957916521487878
14659021 117 17908406306520800642
14790565 3 18410852123091664240
14856354 85 17023187162461609072
15064986 266 18267026248930189974
15183329 4 16988847163905888488
15230672 131 18409728440469906978
15361156 5 18124597733256096940
15400415 2 18410853283476781856
15439362 3 18192992621732631555
15927050 60 18342453750854151967
16090146 7 18268731496654363224
20554085 129 18410301284972287805
21033648 29 18271795865583652104
21133410 171 16972739499628994298
21133665 82 18410296909334887110
21781055 127 18197243419163765500
22224240 67 18412824699093076897
22311459 1 18409168810399572533
23516275 137 18189631458264572146
23559900 14 18059289981035048632
249057 3 18336548309015050524
249999 5 18266457594796489059
25019877 29 18411140229392275364
3383291 50 18266175226208449467
3411729 13 18263079916751063051
3610482 184 17823991219999361956
4015057 19 16773511200387689288
4017518 198 18342181072613645862
4073 2 18268708489284321184
4408954 64 16376102733823190907
469060 322 11963670100837463472
508706 21 18127124402460995094
5104073 3 18122074101163386921
5265222 85 18339647857751960980
5385378 56 18340213968969825177
59755656 520 18341041990823748318
6669772 16 18343024350333855006
6703917 75 18411430513474081264

> <PUBCHEM_SHAPE_MULTIPOLES>
611.59
17.93
5.38
1.09
24.31
9.9
-0.08
-20.16
-0.34
-2.61
0.3
0.81
0.27
0.54

> <PUBCHEM_SHAPE_SELFOVERLAP>
1363.567

> <PUBCHEM_SHAPE_VOLUME>
321.8

> <PUBCHEM_COORDINATE_TYPE>
2
5
10

$$$$
