REMARK  Name = 10527469
REMARK  4 active torsions:
REMARK  status: ('A' for Active; 'I' for Inactive)
REMARK    1  A    between atoms: C_1  and  N_2
REMARK    2  A    between atoms: C_1  and  C_18
REMARK    3  A    between atoms: C_12  and  O_16
REMARK    4  A    between atoms: C_18  and  N_22
REMARK                            x       y       z     vdW  Elec       q    Type
REMARK                         _______ _______ _______ _____ _____    ______ ____
ROOT
ATOM      1  C   UNL     1       0.260   1.470  -0.353  0.00  0.00    -0.052 C 
ENDROOT
BRANCH   1   2
ATOM      2  N   UNL     1       1.608   1.920  -0.038  0.00  0.00    +0.388 N 
ATOM      3  C   UNL     1       3.841   2.186  -0.577  0.00  0.00    -0.018 C 
ATOM      4  C   UNL     1       3.785   1.375   0.735  0.00  0.00    -0.001 C 
ATOM      5  C   UNL     1       2.472   1.965  -1.218  0.00  0.00    -0.077 C 
ATOM      6  C   UNL     1       2.294   1.022   0.896  0.00  0.00    -0.073 C 
ATOM      7  C   UNL     1       5.022   1.861  -1.484  0.00  0.00    +0.003 C 
ATOM      8  C   UNL     1       4.657   0.142   0.797  0.00  0.00    -0.026 C 
ATOM      9  C   UNL     1       5.230   0.361  -1.660  0.00  0.00    +0.029 C 
ATOM     10  C   UNL     1       5.345  -0.337  -0.332  0.00  0.00    +0.008 C 
ATOM     11  C   UNL     1       4.780  -0.548   2.015  0.00  0.00    -0.004 C 
ATOM     12  C   UNL     1       6.111  -1.508  -0.232  0.00  0.00    +0.134 C 
ATOM     13  C   UNL     1       5.557  -1.703   2.107  0.00  0.00    +0.003 C 
ATOM     14  C   UNL     1       6.220  -2.184   0.982  0.00  0.00    +0.037 C 
ATOM     15  H   UNL     1       1.470   2.847   0.364  0.00  0.00    -0.080 HD
BRANCH  12  16
ATOM     16  O   UNL     1       6.765  -2.018  -1.315  0.00  0.00    -0.472 OA
ATOM     17  C   UNL     1       6.051  -2.954  -2.119  0.00  0.00    +0.252 C 
ENDBRANCH  12  16
ENDBRANCH   1   2
BRANCH   1  18
ATOM     18  C   UNL     1      -0.593   1.434   0.906  0.00  0.00    +0.091 C 
BRANCH  18  22
ATOM     19  S   UNL     1      -4.240  -2.253   0.342  0.00  0.00    -0.079 S 
ATOM     20  O   UNL     1      -1.397  -1.238   0.945  0.00  0.00    -0.266 OA
ATOM     21  O   UNL     1      -2.612   3.236   0.245  0.00  0.00    -0.246 OA
ATOM     22  N   UNL     1      -1.938   1.018   0.612  0.00  0.00    -0.251 N 
ATOM     23  N   UNL     1      -4.193   1.602   0.006  0.00  0.00    -0.305 N 
ATOM     24  N   UNL     1      -6.950   0.396  -0.560  0.00  0.00    -0.242 NA
ATOM     25  C   UNL     1      -2.232  -0.381   0.665  0.00  0.00    +0.272 A 
ATOM     26  C   UNL     1      -2.899   2.036   0.284  0.00  0.00    +0.330 A 
ATOM     27  C   UNL     1      -3.608  -0.681   0.355  0.00  0.00    +0.103 A 
ATOM     28  C   UNL     1      -4.544   0.266   0.041  0.00  0.00    +0.089 A 
ATOM     29  C   UNL     1      -5.826  -0.295  -0.222  0.00  0.00    +0.104 A 
ATOM     30  C   UNL     1      -5.808  -1.687  -0.092  0.00  0.00    +0.049 A 
ATOM     31  C   UNL     1      -6.977  -2.427  -0.312  0.00  0.00    +0.010 C 
ATOM     32  C   UNL     1      -8.126  -1.727  -0.656  0.00  0.00    +0.021 C 
ATOM     33  C   UNL     1      -8.054  -0.350  -0.762  0.00  0.00    +0.099 C 
ATOM     34  H   UNL     1      -4.880   2.269  -0.223  0.00  0.00    +0.170 HD
ENDBRANCH  18  22
ENDBRANCH   1  18
TORSDOF 4
