REMARK  Name = 10529169
REMARK  5 active torsions:
REMARK  status: ('A' for Active; 'I' for Inactive)
REMARK    1  A    between atoms: C_15  and  O_31
REMARK    2  A    between atoms: C_19  and  O_33
REMARK    3  A    between atoms: C_21  and  O_35
REMARK    4  A    between atoms: C_23  and  O_37
REMARK    5  A    between atoms: C_25  and  O_39
REMARK                            x       y       z     vdW  Elec       q    Type
REMARK                         _______ _______ _______ _____ _____    ______ ____
ROOT
ATOM      1  O   UNL     1       3.884   1.454  -0.019  0.00  0.00    -0.337 OA
ATOM      2  O   UNL     1       5.359   0.209   1.312  0.00  0.00    -0.330 OA
ATOM      3  O   UNL     1      -3.511   3.232  -0.741  0.00  0.00    -0.294 OA
ATOM      4  C   UNL     1       1.182  -0.578  -0.457  0.00  0.00    +0.003 C 
ATOM      5  C   UNL     1       0.411   0.607   0.173  0.00  0.00    +0.003 C 
ATOM      6  C   UNL     1       2.531  -0.474   0.316  0.00  0.00    +0.032 C 
ATOM      7  C   UNL     1      -0.979   0.819  -0.436  0.00  0.00    +0.008 C 
ATOM      8  C   UNL     1      -1.825  -0.480  -0.221  0.00  0.00    +0.005 C 
ATOM      9  C   UNL     1       2.691   1.026   0.623  0.00  0.00    +0.118 C 
ATOM     10  C   UNL     1      -3.292  -0.337  -0.817  0.00  0.00    +0.058 C 
ATOM     11  C   UNL     1       1.432   1.738   0.126  0.00  0.00    +0.030 C 
ATOM     12  C   UNL     1       0.379  -1.851  -0.154  0.00  0.00    +0.000 C 
ATOM     13  C   UNL     1      -1.065  -1.757  -0.682  0.00  0.00    +0.000 C 
ATOM     14  C   UNL     1       3.846  -0.850  -0.384  0.00  0.00    +0.054 C 
ATOM     15  C   UNL     1      -3.986   0.925  -0.169  0.00  0.00    +0.168 C 
ATOM     16  C   UNL     1      -1.665   2.037   0.183  0.00  0.00    +0.067 C 
ATOM     17  C   UNL     1       4.796   0.313  -0.002  0.00  0.00    +0.187 C 
ATOM     18  C   UNL     1       1.364  -0.442  -1.990  0.00  0.00    +0.000 C 
ATOM     19  C   UNL     1      -4.158  -1.614  -0.509  0.00  0.00    +0.142 C 
ATOM     20  C   UNL     1      -3.089   2.161  -0.304  0.00  0.00    +0.177 C 
ATOM     21  C   UNL     1      -4.322   0.707   1.332  0.00  0.00    +0.171 C 
ATOM     22  C   UNL     1      -3.225  -0.181  -2.364  0.00  0.00    +0.005 C 
ATOM     23  C   UNL     1      -4.463  -1.780   0.989  0.00  0.00    +0.166 C 
ATOM     24  C   UNL     1       4.248  -2.277  -0.050  0.00  0.00    +0.005 C 
ATOM     25  C   UNL     1      -5.155  -0.555   1.594  0.00  0.00    +0.169 C 
ATOM     26  C   UNL     1       5.864   0.650  -1.058  0.00  0.00    +0.061 C 
ATOM     27  C   UNL     1       7.112  -0.213  -0.967  0.00  0.00    +0.029 C 
ATOM     28  C   UNL     1       6.550  -0.565   1.461  0.00  0.00    +0.167 C 
ATOM     29  C   UNL     1       7.594  -0.197   0.452  0.00  0.00    -0.015 C 
ATOM     30  C   UNL     1       8.847   0.139   0.790  0.00  0.00    -0.007 C 
ENDROOT
BRANCH  15  31
ATOM     31  O   UNL     1      -5.210   1.236  -0.836  0.00  0.00    -0.377 OA
ATOM     32  H   UNL     1      -5.037   1.379  -1.780  0.00  0.00    +0.211 HD
ENDBRANCH  15  31
BRANCH  19  33
ATOM     33  O   UNL     1      -5.390  -1.588  -1.240  0.00  0.00    -0.382 OA
ATOM     34  H   UNL     1      -5.202  -1.484  -2.186  0.00  0.00    +0.210 HD
ENDBRANCH  19  33
BRANCH  21  35
ATOM     35  O   UNL     1      -5.026   1.844   1.836  0.00  0.00    -0.379 OA
ATOM     36  H   UNL     1      -4.505   2.646   1.674  0.00  0.00    +0.211 HD
ENDBRANCH  21  35
BRANCH  23  37
ATOM     37  O   UNL     1      -5.267  -2.943   1.178  0.00  0.00    -0.379 OA
ATOM     38  H   UNL     1      -4.819  -3.712   0.791  0.00  0.00    +0.211 HD
ENDBRANCH  23  37
BRANCH  25  39
ATOM     39  O   UNL     1      -6.462  -0.416   1.036  0.00  0.00    -0.379 OA
ATOM     40  H   UNL     1      -6.897   0.360   1.422  0.00  0.00    +0.211 HD
ENDBRANCH  25  39
TORSDOF 5
