REMARK  Name = 10526707
REMARK  9 active torsions:
REMARK  status: ('A' for Active; 'I' for Inactive)
REMARK    1  A    between atoms: C_5  and  C_12
REMARK    2  A    between atoms: C_6  and  O_24
REMARK    3  A    between atoms: C_8  and  O_20
REMARK    4  A    between atoms: C_11  and  O_22
REMARK    5  A    between atoms: C_17  and  O_18
REMARK    6  A    between atoms: O_24  and  C_26
REMARK    7  A    between atoms: C_26  and  C_27
REMARK    8  A    between atoms: C_28  and  C_29
REMARK    9  A    between atoms: C_34  and  O_35
REMARK                            x       y       z     vdW  Elec       q    Type
REMARK                         _______ _______ _______ _____ _____    ______ ____
ROOT
ATOM      1  O   UNL     1      -3.203  -1.008   0.093  0.00  0.00    -0.450 OA
ATOM      2  O   UNL     1      -1.562   2.620  -0.776  0.00  0.00    -0.283 OA
ATOM      3  C   UNL     1      -3.492   1.381  -0.224  0.00  0.00    +0.110 A 
ATOM      4  C   UNL     1      -3.992   0.113   0.064  0.00  0.00    +0.155 A 
ATOM      5  C   UNL     1      -1.848  -0.870  -0.164  0.00  0.00    +0.183 A 
ATOM      6  C   UNL     1      -1.243   0.294  -0.463  0.00  0.00    +0.222 A 
ATOM      7  C   UNL     1      -2.057   1.532  -0.511  0.00  0.00    +0.239 A 
ATOM      8  C   UNL     1      -4.344   2.489  -0.241  0.00  0.00    +0.143 C 
ATOM      9  C   UNL     1      -5.349  -0.056   0.337  0.00  0.00    +0.074 C 
ATOM     10  C   UNL     1      -5.701   2.317   0.033  0.00  0.00    +0.073 C 
ATOM     11  C   UNL     1      -6.203   1.047   0.321  0.00  0.00    +0.140 C 
ENDROOT
BRANCH   5  12
ATOM     12  C   UNL     1      -1.118  -2.149  -0.102  0.00  0.00    +0.038 C 
ATOM     13  C   UNL     1      -0.548  -2.570   1.100  0.00  0.00    +0.006 C 
ATOM     14  C   UNL     1      -0.997  -2.939  -1.245  0.00  0.00    +0.006 C 
ATOM     15  C   UNL     1       0.143  -3.780   1.158  0.00  0.00    +0.037 C 
ATOM     16  C   UNL     1      -0.305  -4.149  -1.187  0.00  0.00    +0.037 C 
ATOM     17  C   UNL     1       0.264  -4.569   0.015  0.00  0.00    +0.134 C 
BRANCH  17  18
ATOM     18  O   UNL     1       0.939  -5.750   0.072  0.00  0.00    -0.506 OA
ATOM     19  H   UNL     1       1.321  -6.032   0.879  0.00  0.00    +0.292 HD
ENDBRANCH  17  18
ENDBRANCH   5  12
BRANCH   8  20
ATOM     20  O   UNL     1      -3.906   3.749  -0.516  0.00  0.00    -0.505 OA
ATOM     21  H   UNL     1      -3.001   3.899  -0.704  0.00  0.00    +0.292 HD
ENDBRANCH   8  20
BRANCH  11  22
ATOM     22  O   UNL     1      -7.528   0.884   0.588  0.00  0.00    -0.505 OA
ATOM     23  H   UNL     1      -7.866   0.032   0.781  0.00  0.00    +0.292 HD
ENDBRANCH  11  22
BRANCH   6  24
ATOM     24  O   UNL     1       0.102   0.392  -0.746  0.00  0.00    -0.415 OA
BRANCH  24  26
ATOM     25  O   UNL     1       0.537   0.730   1.516  0.00  0.00    -0.244 OA
ATOM     26  C   UNL     1       0.889   0.617   0.351  0.00  0.00    +0.346 C 
BRANCH  26  27
ATOM     27  C   UNL     1       2.292   0.695  -0.124  0.00  0.00    +0.082 C 
ATOM     28  C   UNL     1       3.278   0.917   0.756  0.00  0.00    +0.007 C 
BRANCH  28  29
ATOM     29  C   UNL     1       4.705   1.024   0.406  0.00  0.00    +0.000 C 
ATOM     30  C   UNL     1       5.151   0.494  -0.795  0.00  0.00    +0.003 C 
ATOM     31  C   UNL     1       5.574   1.651   1.284  0.00  0.00    +0.003 C 
ATOM     32  C   UNL     1       6.502   0.595  -1.126  0.00  0.00    +0.037 C 
ATOM     33  C   UNL     1       6.925   1.752   0.953  0.00  0.00    +0.037 C 
ATOM     34  C   UNL     1       7.389   1.224  -0.252  0.00  0.00    +0.134 C 
BRANCH  34  35
ATOM     35  O   UNL     1       8.707   1.322  -0.575  0.00  0.00    -0.506 OA
ATOM     36  H   UNL     1       9.019   0.967  -1.384  0.00  0.00    +0.292 HD
ENDBRANCH  34  35
ENDBRANCH  28  29
ENDBRANCH  26  27
ENDBRANCH  24  26
ENDBRANCH   6  24
TORSDOF 9
