REMARK  Name = 10539198
REMARK  6 active torsions:
REMARK  status: ('A' for Active; 'I' for Inactive)
REMARK    1  A    between atoms: C_2  and  O_16
REMARK    2  A    between atoms: C_3  and  O_18
REMARK    3  A    between atoms: C_4  and  C_7
REMARK    4  A    between atoms: C_5  and  C_20
REMARK    5  A    between atoms: C_9  and  C_13
REMARK    6  A    between atoms: C_20  and  O_21
REMARK                            x       y       z     vdW  Elec       q    Type
REMARK                         _______ _______ _______ _____ _____    ______ ____
ROOT
ATOM      1  S   UNL     1      -1.714   0.513  -1.433  0.00  0.00    -0.127 S 
ATOM      2  C   UNL     1      -1.604  -0.846   0.864  0.00  0.00    +0.155 C 
ATOM      3  C   UNL     1      -3.080  -0.538   0.597  0.00  0.00    +0.151 C 
ATOM      4  C   UNL     1      -0.892  -0.822  -0.491  0.00  0.00    +0.134 C 
ATOM      5  C   UNL     1      -3.128   0.710  -0.287  0.00  0.00    +0.107 C 
ENDROOT
BRANCH   4   7
ATOM      6  O   UNL     1       1.373  -1.588  -0.954  0.00  0.00    -0.454 OA
ATOM      7  C   UNL     1       0.606  -0.621  -0.393  0.00  0.00    +0.135 C 
ATOM      8  C   UNL     1       1.381   0.364   0.160  0.00  0.00    +0.042 C 
ATOM      9  C   UNL     1       2.722  -0.021  -0.074  0.00  0.00    +0.093 C 
ATOM     10  C   UNL     1       2.664  -1.214  -0.755  0.00  0.00    +0.184 C 
BRANCH   9  13
ATOM     11  O   UNL     1       5.064   0.211   0.012  0.00  0.00    -0.270 OA
ATOM     12  N   UNL     1       3.824   1.872   0.993  0.00  0.00    -0.325 N 
ATOM     13  C   UNL     1       3.927   0.658   0.299  0.00  0.00    +0.246 C 
ATOM     14  H   UNL     1       4.638   2.357   1.260  0.00  0.00    +0.145 HD
ATOM     15  H   UNL     1       2.937   2.240   1.213  0.00  0.00    +0.145 HD
ENDBRANCH   9  13
ENDBRANCH   4   7
BRANCH   2  16
ATOM     16  O   UNL     1      -1.466  -2.131   1.461  0.00  0.00    -0.381 OA
ATOM     17  H   UNL     1      -1.919  -2.139   2.318  0.00  0.00    +0.210 HD
ENDBRANCH   2  16
BRANCH   3  18
ATOM     18  O   UNL     1      -3.686  -1.634  -0.094  0.00  0.00    -0.381 OA
ATOM     19  H   UNL     1      -3.655  -2.425   0.466  0.00  0.00    +0.210 HD
ENDBRANCH   3  18
BRANCH   5  20
ATOM     20  C   UNL     1      -2.970   2.004   0.501  0.00  0.00    +0.150 C 
BRANCH  20  21
ATOM     21  O   UNL     1      -3.021   3.082  -0.406  0.00  0.00    -0.381 OA
ATOM     22  H   UNL     1      -2.922   3.917   0.078  0.00  0.00    +0.210 HD
ENDBRANCH  20  21
ENDBRANCH   5  20
TORSDOF 6
