REMARK  Name = 10538309
REMARK  6 active torsions:
REMARK  status: ('A' for Active; 'I' for Inactive)
REMARK    1  A    between atoms: C_2  and  O_16
REMARK    2  A    between atoms: C_3  and  O_18
REMARK    3  A    between atoms: C_4  and  C_20
REMARK    4  A    between atoms: C_5  and  C_9
REMARK    5  A    between atoms: C_10  and  C_13
REMARK    6  A    between atoms: C_20  and  O_21
REMARK                            x       y       z     vdW  Elec       q    Type
REMARK                         _______ _______ _______ _____ _____    ______ ____
ROOT
ATOM      1  O   UNL     1      -1.457   0.559  -1.031  0.00  0.00    -0.336 OA
ATOM      2  C   UNL     1      -3.055  -0.263   0.523  0.00  0.00    +0.170 C 
ATOM      3  C   UNL     1      -1.733  -0.966   0.761  0.00  0.00    +0.182 C 
ATOM      4  C   UNL     1      -2.635   0.953  -0.294  0.00  0.00    +0.175 C 
ATOM      5  C   UNL     1      -0.988  -0.721  -0.547  0.00  0.00    +0.244 C 
ENDROOT
BRANCH   5   9
ATOM      6  O   UNL     1       2.511  -1.486  -0.363  0.00  0.00    -0.306 OA
ATOM      7  N   UNL     1       1.233   0.328  -0.061  0.00  0.00    -0.307 NA
ATOM      8  N   UNL     1       1.192  -1.895  -0.597  0.00  0.00    -0.009 NA
ATOM      9  C   UNL     1       0.508  -0.771  -0.399  0.00  0.00    +0.134 C 
ATOM     10  C   UNL     1       2.445  -0.165  -0.053  0.00  0.00    +0.370 C 
BRANCH  10  13
ATOM     11  O   UNL     1       4.779   0.011   0.210  0.00  0.00    -0.264 OA
ATOM     12  N   UNL     1       3.554   1.919   0.551  0.00  0.00    -0.320 N 
ATOM     13  C   UNL     1       3.638   0.549   0.237  0.00  0.00    +0.312 C 
ATOM     14  H   UNL     1       4.371   2.428   0.755  0.00  0.00    +0.145 HD
ATOM     15  H   UNL     1       2.677   2.368   0.567  0.00  0.00    +0.145 HD
ENDBRANCH  10  13
ENDBRANCH   5   9
BRANCH   2  16
ATOM     16  O   UNL     1      -3.929  -1.077  -0.258  0.00  0.00    -0.379 OA
ATOM     17  H   UNL     1      -4.198  -1.852   0.260  0.00  0.00    +0.211 HD
ENDBRANCH   2  16
BRANCH   3  18
ATOM     18  O   UNL     1      -1.886  -2.345   1.032  0.00  0.00    -0.379 OA
ATOM     19  H   UNL     1      -2.363  -2.459   1.870  0.00  0.00    +0.211 HD
ENDBRANCH   3  18
BRANCH   4  20
ATOM     20  C   UNL     1      -2.277   2.155   0.570  0.00  0.00    +0.169 C 
BRANCH  20  21
ATOM     21  O   UNL     1      -1.899   3.213  -0.282  0.00  0.00    -0.379 OA
ATOM     22  H   UNL     1      -1.667   3.990   0.251  0.00  0.00    +0.211 HD
ENDBRANCH  20  21
ENDBRANCH   4  20
TORSDOF 6
