10539198
  -OEChem-03292013303D

 30 31  0     1  0  0  0  0  0999 V2000
   -1.7139    0.5130   -1.4332 S   0  0  0  0  0  0  0  0  0  0  0  0
   -1.4661   -2.1307    1.4610 O   0  0  0  0  0  0  0  0  0  0  0  0
   -3.6855   -1.6339   -0.0937 O   0  0  0  0  0  0  0  0  0  0  0  0
    1.3726   -1.5881   -0.9536 O   0  0  0  0  0  0  0  0  0  0  0  0
   -3.0212    3.0821   -0.4060 O   0  0  0  0  0  0  0  0  0  0  0  0
    5.0645    0.2115    0.0120 O   0  0  0  0  0  0  0  0  0  0  0  0
    3.8239    1.8722    0.9928 N   0  0  0  0  0  0  0  0  0  0  0  0
   -1.6043   -0.8464    0.8640 C   0  0  2  0  0  0  0  0  0  0  0  0
   -3.0800   -0.5382    0.5966 C   0  0  1  0  0  0  0  0  0  0  0  0
   -0.8918   -0.8217   -0.4912 C   0  0  2  0  0  0  0  0  0  0  0  0
   -3.1282    0.7100   -0.2866 C   0  0  1  0  0  0  0  0  0  0  0  0
    0.6055   -0.6212   -0.3929 C   0  0  0  0  0  0  0  0  0  0  0  0
   -2.9697    2.0044    0.5013 C   0  0  0  0  0  0  0  0  0  0  0  0
    1.3808    0.3641    0.1603 C   0  0  0  0  0  0  0  0  0  0  0  0
    2.7223   -0.0207   -0.0745 C   0  0  0  0  0  0  0  0  0  0  0  0
    2.6639   -1.2145   -0.7552 C   0  0  0  0  0  0  0  0  0  0  0  0
    3.9272    0.6582    0.2990 C   0  0  0  0  0  0  0  0  0  0  0  0
   -1.1774   -0.1106    1.5561 H   0  0  0  0  0  0  0  0  0  0  0  0
   -3.6397   -0.4049    1.5287 H   0  0  0  0  0  0  0  0  0  0  0  0
   -1.0757   -1.7618   -1.0268 H   0  0  0  0  0  0  0  0  0  0  0  0
   -4.0388    0.7420   -0.8947 H   0  0  0  0  0  0  0  0  0  0  0  0
   -2.0328    2.0577    1.0659 H   0  0  0  0  0  0  0  0  0  0  0  0
   -3.7942    2.1202    1.2120 H   0  0  0  0  0  0  0  0  0  0  0  0
   -1.9722   -2.1215    2.2913 H   0  0  0  0  0  0  0  0  0  0  0  0
   -3.5767   -2.4229    0.4643 H   0  0  0  0  0  0  0  0  0  0  0  0
    1.0166    1.2461    0.6681 H   0  0  0  0  0  0  0  0  0  0  0  0
    3.4080   -1.8916   -1.1501 H   0  0  0  0  0  0  0  0  0  0  0  0
   -2.2783    2.9823   -1.0256 H   0  0  0  0  0  0  0  0  0  0  0  0
    2.9344    2.2881    1.2475 H   0  0  0  0  0  0  0  0  0  0  0  0
    4.6578    2.3814    1.2666 H   0  0  0  0  0  0  0  0  0  0  0  0
  1 10  1  0  0  0  0
  1 11  1  0  0  0  0
  2  8  1  0  0  0  0
  2 24  1  0  0  0  0
  3  9  1  0  0  0  0
  3 25  1  0  0  0  0
  4 12  1  0  0  0  0
  4 16  1  0  0  0  0
  5 13  1  0  0  0  0
  5 28  1  0  0  0  0
  6 17  2  0  0  0  0
  7 17  1  0  0  0  0
  7 29  1  0  0  0  0
  7 30  1  0  0  0  0
  8  9  1  0  0  0  0
  8 10  1  0  0  0  0
  8 18  1  0  0  0  0
  9 11  1  0  0  0  0
  9 19  1  0  0  0  0
 10 12  1  0  0  0  0
 10 20  1  0  0  0  0
 11 13  1  0  0  0  0
 11 21  1  0  0  0  0
 12 14  2  0  0  0  0
 13 22  1  0  0  0  0
 13 23  1  0  0  0  0
 14 15  1  0  0  0  0
 14 26  1  0  0  0  0
 15 16  2  0  0  0  0
 15 17  1  0  0  0  0
 16 27  1  0  0  0  0
M  END
> <PUBCHEM_COMPOUND_CID>
10539198

> <PUBCHEM_CONFORMER_RMSD>
0.6

> <PUBCHEM_CONFORMER_DIVERSEORDER>
1
28
21
29
19
9
11
16
22
7
17
5
26
30
20
6
14
13
15
12
18
3
27
24
4
25
23
8
10
2

> <PUBCHEM_MMFF94_PARTIAL_CHARGES>
24
1 -0.46
10 0.41
11 0.23
12 -0.04
13 0.28
14 -0.15
15 -0.09
16 -0.01
17 0.72
2 -0.68
24 0.4
25 0.4
26 0.15
27 0.15
28 0.4
29 0.37
3 -0.68
30 0.37
4 -0.28
5 -0.68
6 -0.57
7 -0.8
8 0.28
9 0.28

> <PUBCHEM_EFFECTIVE_ROTOR_COUNT>
4

> <PUBCHEM_PHARMACOPHORE_FEATURES>
11
1 2 acceptor
1 2 donor
1 3 acceptor
1 3 donor
1 4 acceptor
1 5 acceptor
1 5 donor
1 6 acceptor
1 7 donor
5 1 8 9 10 11 rings
5 4 12 14 15 16 rings

> <PUBCHEM_HEAVY_ATOM_COUNT>
17

> <PUBCHEM_ATOM_DEF_STEREO_COUNT>
4

> <PUBCHEM_ATOM_UDEF_STEREO_COUNT>
0

> <PUBCHEM_BOND_DEF_STEREO_COUNT>
0

> <PUBCHEM_BOND_UDEF_STEREO_COUNT>
0

> <PUBCHEM_ISOTOPIC_ATOM_COUNT>
0

> <PUBCHEM_COMPONENT_COUNT>
1

> <PUBCHEM_CACTVS_TAUTO_COUNT>
2

> <PUBCHEM_CONFORMER_ID>
00A0D0BE00000001

> <PUBCHEM_MMFF94_ENERGY>
26.5778

> <PUBCHEM_FEATURE_SELFOVERLAP>
55.834

> <PUBCHEM_SHAPE_FINGERPRINT>
10366900 7 18336267963144772546
10608611 8 18341614784852917140
10646746 165 18412262813964412880
11132069 177 18113903732386681549
11615756 256 18412270531857509704
12173636 292 18337673014698717839
122479 349 18339079293838466445
12251169 10 17967817188423243382
13214271 11 18413386536090630749
13296909 8 18335143089993563557
14178342 30 17894642439032258043
14289901 80 18260553350488417826
15219456 202 18341054029838878262
15279308 16 18413390921093938703
16945 1 18116170985503526223
18186145 218 18189337870450807478
19049666 15 18337680702184164954
200 152 18059849606340748471
20510252 161 18410015429508730201
20645477 56 18339368470192490793
20645477 70 17345761772328717726
20871999 31 10663814196085482920
22182937 141 18271814454260202673
231179 274 18060702775924209892
23402539 116 18261668281349824135
23419403 2 17179385094648489303
23493267 7 18335417959289298776
23500284 214 18337113362895408417
23557571 272 18334862757246155327
23559900 14 18127128572631529326
27216 239 18412541045961175233
5104073 3 18411420570582294970
81228 2 17967827071491326483
90316 7 17022894644886603900
9709674 26 18411989056806842190

> <PUBCHEM_SHAPE_MULTIPOLES>
319.37
8.04
2.22
1.1
6.36
1.06
-0.04
2.89
0.91
-1.78
0.29
-0.31
-0.17
1.11

> <PUBCHEM_SHAPE_SELFOVERLAP>
659.521

> <PUBCHEM_SHAPE_VOLUME>
185.9

> <PUBCHEM_COORDINATE_TYPE>
2
5
10

$$$$
