1053
  -OEChem-03292013323D

 29 29  0     0  0  0  0  0  0999 V2000
   -3.5356   -0.2490   -0.3330 P   0  0  0  0  0  0  0  0  0  0  0  0
   -1.9310   -0.4162   -0.4308 O   0  0  0  0  0  0  0  0  0  0  0  0
    3.2577    1.3874   -0.7714 O   0  0  0  0  0  0  0  0  0  0  0  0
   -3.7321    1.2401    0.2662 O   0  0  0  0  0  0  0  0  0  0  0  0
   -3.9181   -1.2051    0.9137 O   0  0  0  0  0  0  0  0  0  0  0  0
   -4.2834   -0.5336   -1.6027 O   0  0  0  0  0  0  0  0  0  0  0  0
    2.1559   -1.9064    0.3432 N   0  0  0  0  0  0  0  0  0  0  0  0
    0.6535    2.8543    0.9526 N   0  0  0  0  0  0  0  0  0  0  0  0
    1.1004    0.6533   -0.0408 C   0  0  0  0  0  0  0  0  0  0  0  0
    0.2875   -0.3742    0.4250 C   0  0  0  0  0  0  0  0  0  0  0  0
    2.4403    0.4026   -0.3147 C   0  0  0  0  0  0  0  0  0  0  0  0
   -1.1541   -0.1631    0.7342 C   0  0  0  0  0  0  0  0  0  0  0  0
    0.5392    2.0236   -0.2458 C   0  0  0  0  0  0  0  0  0  0  0  0
    2.9150   -0.8827   -0.1080 C   0  0  0  0  0  0  0  0  0  0  0  0
    0.8585   -1.6247    0.5986 C   0  0  0  0  0  0  0  0  0  0  0  0
    4.3464   -1.2063   -0.3862 C   0  0  0  0  0  0  0  0  0  0  0  0
   -1.4617   -0.8608    1.5222 H   0  0  0  0  0  0  0  0  0  0  0  0
   -1.3582    0.8372    1.1262 H   0  0  0  0  0  0  0  0  0  0  0  0
    1.0567    2.5259   -1.0726 H   0  0  0  0  0  0  0  0  0  0  0  0
   -0.5060    1.9871   -0.5712 H   0  0  0  0  0  0  0  0  0  0  0  0
    0.2767   -2.4686    0.9567 H   0  0  0  0  0  0  0  0  0  0  0  0
    5.0101   -0.6072    0.2453 H   0  0  0  0  0  0  0  0  0  0  0  0
    4.5541   -2.2603   -0.1707 H   0  0  0  0  0  0  0  0  0  0  0  0
    4.5856   -1.0357   -1.4407 H   0  0  0  0  0  0  0  0  0  0  0  0
    0.2622    3.7756    0.7598 H   0  0  0  0  0  0  0  0  0  0  0  0
    1.6381    3.0074    1.1688 H   0  0  0  0  0  0  0  0  0  0  0  0
    4.1589    1.0600   -0.9153 H   0  0  0  0  0  0  0  0  0  0  0  0
   -4.6405    1.5983    0.3588 H   0  0  0  0  0  0  0  0  0  0  0  0
   -4.8643   -1.3523    1.1261 H   0  0  0  0  0  0  0  0  0  0  0  0
  1  2  1  0  0  0  0
  1  4  1  0  0  0  0
  1  5  1  0  0  0  0
  1  6  2  0  0  0  0
  2 12  1  0  0  0  0
  3 11  1  0  0  0  0
  3 27  1  0  0  0  0
  4 28  1  0  0  0  0
  5 29  1  0  0  0  0
  7 14  2  0  0  0  0
  7 15  1  0  0  0  0
  8 13  1  0  0  0  0
  8 25  1  0  0  0  0
  8 26  1  0  0  0  0
  9 10  1  0  0  0  0
  9 11  2  0  0  0  0
  9 13  1  0  0  0  0
 10 12  1  0  0  0  0
 10 15  2  0  0  0  0
 11 14  1  0  0  0  0
 12 17  1  0  0  0  0
 12 18  1  0  0  0  0
 13 19  1  0  0  0  0
 13 20  1  0  0  0  0
 14 16  1  0  0  0  0
 15 21  1  0  0  0  0
 16 22  1  0  0  0  0
 16 23  1  0  0  0  0
 16 24  1  0  0  0  0
M  END
> <PUBCHEM_COMPOUND_CID>
1053

> <PUBCHEM_CONFORMER_RMSD>
0.6

> <PUBCHEM_CONFORMER_DIVERSEORDER>
1
11
5
9
10
6
8
7
3
12
2
4

> <PUBCHEM_MMFF94_PARTIAL_CHARGES>
22
1 1.51
10 -0.14
11 0.08
12 0.42
13 0.41
14 0.17
15 0.16
16 0.14
2 -0.55
21 0.15
25 0.36
26 0.36
27 0.45
28 0.5
29 0.5
3 -0.53
4 -0.77
5 -0.77
6 -0.7
7 -0.62
8 -0.99
9 -0.14

> <PUBCHEM_EFFECTIVE_ROTOR_COUNT>
4

> <PUBCHEM_PHARMACOPHORE_FEATURES>
9
1 3 donor
1 4 acceptor
1 5 acceptor
1 6 acceptor
1 7 acceptor
1 8 cation
1 8 donor
4 1 4 5 6 anion
6 7 9 10 11 14 15 rings

> <PUBCHEM_HEAVY_ATOM_COUNT>
16

> <PUBCHEM_ATOM_DEF_STEREO_COUNT>
0

> <PUBCHEM_ATOM_UDEF_STEREO_COUNT>
0

> <PUBCHEM_BOND_DEF_STEREO_COUNT>
0

> <PUBCHEM_BOND_UDEF_STEREO_COUNT>
0

> <PUBCHEM_ISOTOPIC_ATOM_COUNT>
0

> <PUBCHEM_COMPONENT_COUNT>
1

> <PUBCHEM_CACTVS_TAUTO_COUNT>
3

> <PUBCHEM_CONFORMER_ID>
0000041D00000001

> <PUBCHEM_MMFF94_ENERGY>
2.4211

> <PUBCHEM_FEATURE_SELFOVERLAP>
45.705

> <PUBCHEM_SHAPE_FINGERPRINT>
11471102 20 18334010601311353262
11578080 2 17702358707384841969
116883 192 17838903633285597574
12654215 9 18260541238627752612
13134695 92 18343015618491106028
14251717 144 18409443704436222870
14576447 43 18341603824170653271
14911166 2 18260557701728430974
14993402 34 18343863316212502982
15848700 24 18411694366494804004
16945 1 18269555103529318848
18186145 218 17821449045198036059
200 152 18411983525020476410
20339313 130 18342745108565505707
20645477 70 18410293614008268287
22112679 90 17916043298895208176
221490 88 18191594253068950747
23402539 116 18272647905432393782
23402655 69 18335136458331768127
23557571 272 17844529903436849136
23559900 14 18333737923245517530
23598291 2 18130503123834502911
25 1 18261114105507731546
2748010 2 17688601875727533664
2838139 119 15503239910891906750
7364860 26 18200305657862368385
84936 182 17986391315545345265

> <PUBCHEM_SHAPE_MULTIPOLES>
293.81
7.57
2.16
0.95
4.99
1.27
0.12
-2.41
2.01
-1.05
-0.46
0.62
0
-0.18

> <PUBCHEM_SHAPE_SELFOVERLAP>
590.131

> <PUBCHEM_SHAPE_VOLUME>
175.2

> <PUBCHEM_COORDINATE_TYPE>
2
5
10

$$$$
