REMARK  Name = 10546979
REMARK  4 active torsions:
REMARK  status: ('A' for Active; 'I' for Inactive)
REMARK    1  A    between atoms: C_3  and  C_15
REMARK    2  A    between atoms: C_5  and  O_28
REMARK    3  A    between atoms: C_6  and  C_22
REMARK    4  A    between atoms: C_9  and  O_30
REMARK                            x       y       z     vdW  Elec       q    Type
REMARK                         _______ _______ _______ _____ _____    ______ ____
ROOT
ATOM      1  O   UNL     1      -2.340   0.837   0.245  0.00  0.00    -0.474 OA
ATOM      2  O   UNL     1      -0.599  -2.852  -0.195  0.00  0.00    -0.291 OA
ATOM      3  C   UNL     1       1.804   0.619  -0.071  0.00  0.00    +0.063 C 
ATOM      4  C   UNL     1      -0.328  -0.512  -0.039  0.00  0.00    +0.102 C 
ATOM      5  C   UNL     1       1.064  -0.562  -0.148  0.00  0.00    +0.140 C 
ATOM      6  C   UNL     1      -3.052  -0.241  -0.383  0.00  0.00    +0.196 C 
ATOM      7  C   UNL     1      -2.606  -1.591   0.175  0.00  0.00    +0.117 C 
ATOM      8  C   UNL     1      -0.979   0.713   0.134  0.00  0.00    +0.147 C 
ATOM      9  C   UNL     1       1.158   1.840   0.123  0.00  0.00    +0.137 C 
ATOM     10  C   UNL     1      -1.127  -1.755  -0.058  0.00  0.00    +0.183 C 
ATOM     11  C   UNL     1      -0.233   1.888   0.231  0.00  0.00    +0.074 C 
ENDROOT
BRANCH   3  15
ATOM     12  O   UNL     1       5.457  -1.309   2.116  0.00  0.00    -0.253 OA
ATOM     13  N   UNL     1       3.894  -0.178   0.930  0.00  0.00    -0.287 N 
ATOM     14  N   UNL     1       6.167  -0.248   0.245  0.00  0.00    -0.289 N 
ATOM     15  C   UNL     1       3.320   0.579  -0.191  0.00  0.00    +0.101 C 
ATOM     16  C   UNL     1       3.745  -0.011  -1.544  0.00  0.00    +0.026 C 
ATOM     17  C   UNL     1       5.177   0.339  -1.956  0.00  0.00    +0.023 C 
ATOM     18  C   UNL     1       6.102   0.735  -0.818  0.00  0.00    +0.091 C 
ATOM     19  C   UNL     1       5.185  -0.601   1.139  0.00  0.00    +0.301 C 
ATOM     20  H   UNL     1       3.256  -0.420   1.640  0.00  0.00    +0.151 HD
ATOM     21  H   UNL     1       7.025  -0.723   0.339  0.00  0.00    +0.151 HD
ENDBRANCH   3  15
BRANCH   6  22
ATOM     22  C   UNL     1      -4.535  -0.024  -0.168  0.00  0.00    +0.018 C 
ATOM     23  C   UNL     1      -5.448  -0.442  -1.136  0.00  0.00    -0.001 C 
ATOM     24  C   UNL     1      -4.988   0.592   0.998  0.00  0.00    -0.001 C 
ATOM     25  C   UNL     1      -6.815  -0.243  -0.938  0.00  0.00    -0.000 C 
ATOM     26  C   UNL     1      -6.354   0.791   1.196  0.00  0.00    -0.000 C 
ATOM     27  C   UNL     1      -7.268   0.374   0.228  0.00  0.00    -0.000 C 
ENDBRANCH   6  22
BRANCH   5  28
ATOM     28  O   UNL     1       1.731  -1.738  -0.324  0.00  0.00    -0.505 OA
ATOM     29  H   UNL     1       2.665  -1.741  -0.394  0.00  0.00    +0.292 HD
ENDBRANCH   5  28
BRANCH   9  30
ATOM     30  O   UNL     1       1.869   2.999   0.208  0.00  0.00    -0.506 OA
ATOM     31  H   UNL     1       2.804   2.982   0.137  0.00  0.00    +0.292 HD
ENDBRANCH   9  30
TORSDOF 4
