10546979
  -OEChem-03292013303D

 47 50  0     1  0  0  0  0  0999 V2000
   -2.3402    0.8366    0.2450 O   0  0  0  0  0  0  0  0  0  0  0  0
    1.7309   -1.7385   -0.3236 O   0  0  0  0  0  0  0  0  0  0  0  0
    1.8694    2.9995    0.2082 O   0  0  0  0  0  0  0  0  0  0  0  0
   -0.5992   -2.8520   -0.1949 O   0  0  0  0  0  0  0  0  0  0  0  0
    5.4575   -1.3089    2.1161 O   0  0  0  0  0  0  0  0  0  0  0  0
    3.8937   -0.1782    0.9302 N   0  0  0  0  0  0  0  0  0  0  0  0
    6.1674   -0.2476    0.2455 N   0  0  0  0  0  0  0  0  0  0  0  0
    3.3199    0.5787   -0.1914 C   0  0  1  0  0  0  0  0  0  0  0  0
    3.7450   -0.0113   -1.5441 C   0  0  0  0  0  0  0  0  0  0  0  0
    1.8036    0.6187   -0.0713 C   0  0  0  0  0  0  0  0  0  0  0  0
    5.1766    0.3393   -1.9563 C   0  0  0  0  0  0  0  0  0  0  0  0
   -0.3282   -0.5118   -0.0387 C   0  0  0  0  0  0  0  0  0  0  0  0
    1.0637   -0.5620   -0.1485 C   0  0  0  0  0  0  0  0  0  0  0  0
   -3.0524   -0.2409   -0.3832 C   0  0  1  0  0  0  0  0  0  0  0  0
    6.1023    0.7349   -0.8177 C   0  0  0  0  0  0  0  0  0  0  0  0
   -2.6063   -1.5912    0.1746 C   0  0  0  0  0  0  0  0  0  0  0  0
   -0.9792    0.7131    0.1342 C   0  0  0  0  0  0  0  0  0  0  0  0
    1.1576    1.8402    0.1231 C   0  0  0  0  0  0  0  0  0  0  0  0
   -1.1268   -1.7548   -0.0576 C   0  0  0  0  0  0  0  0  0  0  0  0
   -0.2325    1.8880    0.2312 C   0  0  0  0  0  0  0  0  0  0  0  0
    5.1854   -0.6006    1.1391 C   0  0  0  0  0  0  0  0  0  0  0  0
   -4.5355   -0.0242   -0.1681 C   0  0  0  0  0  0  0  0  0  0  0  0
   -5.4483   -0.4420   -1.1362 C   0  0  0  0  0  0  0  0  0  0  0  0
   -4.9880    0.5924    0.9982 C   0  0  0  0  0  0  0  0  0  0  0  0
   -6.8146   -0.2427   -0.9381 C   0  0  0  0  0  0  0  0  0  0  0  0
   -6.3543    0.7915    1.1962 C   0  0  0  0  0  0  0  0  0  0  0  0
   -7.2675    0.3739    0.2280 C   0  0  0  0  0  0  0  0  0  0  0  0
    3.7308    1.5860   -0.1170 H   0  0  0  0  0  0  0  0  0  0  0  0
    3.0753    0.3329   -2.3436 H   0  0  0  0  0  0  0  0  0  0  0  0
    3.6778   -1.1050   -1.5454 H   0  0  0  0  0  0  0  0  0  0  0  0
    5.6029   -0.5113   -2.5029 H   0  0  0  0  0  0  0  0  0  0  0  0
    5.1449    1.1719   -2.6702 H   0  0  0  0  0  0  0  0  0  0  0  0
   -2.8488   -0.1814   -1.4627 H   0  0  0  0  0  0  0  0  0  0  0  0
    3.2509   -0.4153    1.6810 H   0  0  0  0  0  0  0  0  0  0  0  0
    7.1208    0.8491   -1.2058 H   0  0  0  0  0  0  0  0  0  0  0  0
    5.8252    1.6989   -0.3798 H   0  0  0  0  0  0  0  0  0  0  0  0
   -3.1355   -2.4083   -0.3282 H   0  0  0  0  0  0  0  0  0  0  0  0
   -2.7838   -1.6650    1.2540 H   0  0  0  0  0  0  0  0  0  0  0  0
   -0.7327    2.8419    0.3802 H   0  0  0  0  0  0  0  0  0  0  0  0
    7.0892   -0.6291    0.4357 H   0  0  0  0  0  0  0  0  0  0  0  0
    2.5789   -1.7046    0.1480 H   0  0  0  0  0  0  0  0  0  0  0  0
   -5.1078   -0.9255   -2.0479 H   0  0  0  0  0  0  0  0  0  0  0  0
   -4.2988    0.9147    1.7738 H   0  0  0  0  0  0  0  0  0  0  0  0
    2.6203    2.8580    0.8087 H   0  0  0  0  0  0  0  0  0  0  0  0
   -7.5259   -0.5685   -1.6914 H   0  0  0  0  0  0  0  0  0  0  0  0
   -6.7077    1.2688    2.1056 H   0  0  0  0  0  0  0  0  0  0  0  0
   -8.3314    0.5281    0.3827 H   0  0  0  0  0  0  0  0  0  0  0  0
  1 14  1  0  0  0  0
  1 17  1  0  0  0  0
  2 13  1  0  0  0  0
  2 41  1  0  0  0  0
  3 18  1  0  0  0  0
  3 44  1  0  0  0  0
  4 19  2  0  0  0  0
  5 21  2  0  0  0  0
  6  8  1  0  0  0  0
  6 21  1  0  0  0  0
  6 34  1  0  0  0  0
  7 15  1  0  0  0  0
  7 21  1  0  0  0  0
  7 40  1  0  0  0  0
  8  9  1  0  0  0  0
  8 10  1  0  0  0  0
  8 28  1  0  0  0  0
  9 11  1  0  0  0  0
  9 29  1  0  0  0  0
  9 30  1  0  0  0  0
 10 13  2  0  0  0  0
 10 18  1  0  0  0  0
 11 15  1  0  0  0  0
 11 31  1  0  0  0  0
 11 32  1  0  0  0  0
 12 13  1  0  0  0  0
 12 17  2  0  0  0  0
 12 19  1  0  0  0  0
 14 16  1  0  0  0  0
 14 22  1  0  0  0  0
 14 33  1  0  0  0  0
 15 35  1  0  0  0  0
 15 36  1  0  0  0  0
 16 19  1  0  0  0  0
 16 37  1  0  0  0  0
 16 38  1  0  0  0  0
 17 20  1  0  0  0  0
 18 20  2  0  0  0  0
 20 39  1  0  0  0  0
 22 23  2  0  0  0  0
 22 24  1  0  0  0  0
 23 25  1  0  0  0  0
 23 42  1  0  0  0  0
 24 26  2  0  0  0  0
 24 43  1  0  0  0  0
 25 27  2  0  0  0  0
 25 45  1  0  0  0  0
 26 27  1  0  0  0  0
 26 46  1  0  0  0  0
 27 47  1  0  0  0  0
M  END
> <PUBCHEM_COMPOUND_CID>
10546979

> <PUBCHEM_CONFORMER_RMSD>
0.8

> <PUBCHEM_CONFORMER_DIVERSEORDER>
3
12
14
15
13
7
11
1
5
10
8
9
4
2
6

> <PUBCHEM_MMFF94_PARTIAL_CHARGES>
35
1 -0.36
10 -0.14
12 0.09
13 0.08
14 0.42
15 0.3
16 0.06
17 0.08
18 0.08
19 0.42
2 -0.53
20 -0.15
21 0.69
22 -0.14
23 -0.15
24 -0.15
25 -0.15
26 -0.15
27 -0.15
3 -0.53
34 0.37
39 0.15
4 -0.57
40 0.37
41 0.45
42 0.15
43 0.15
44 0.45
45 0.15
46 0.15
47 0.15
5 -0.57
6 -0.73
7 -0.73
8 0.44

> <PUBCHEM_EFFECTIVE_ROTOR_COUNT>
3.8

> <PUBCHEM_PHARMACOPHORE_FEATURES>
11
1 1 acceptor
1 2 donor
1 3 donor
1 4 acceptor
1 5 acceptor
1 6 donor
1 7 donor
6 1 12 14 16 17 19 rings
6 10 12 13 17 18 20 rings
6 22 23 24 25 26 27 rings
7 6 7 8 9 11 15 21 rings

> <PUBCHEM_HEAVY_ATOM_COUNT>
27

> <PUBCHEM_ATOM_DEF_STEREO_COUNT>
1

> <PUBCHEM_ATOM_UDEF_STEREO_COUNT>
1

> <PUBCHEM_BOND_DEF_STEREO_COUNT>
0

> <PUBCHEM_BOND_UDEF_STEREO_COUNT>
0

> <PUBCHEM_ISOTOPIC_ATOM_COUNT>
0

> <PUBCHEM_COMPONENT_COUNT>
1

> <PUBCHEM_CACTVS_TAUTO_COUNT>
63

> <PUBCHEM_CONFORMER_ID>
00A0EF2300000003

> <PUBCHEM_MMFF94_ENERGY>
86.85

> <PUBCHEM_FEATURE_SELFOVERLAP>
55.89

> <PUBCHEM_SHAPE_FINGERPRINT>
10050765 1 18052536861456358789
10906281 52 18340784692249802894
1100329 8 18340766052255093387
11646440 116 17989214758816083377
11719270 70 18409163277558607131
12011746 2 18413395340631013333
12236239 1 17822009822087948618
12516196 113 17275386503663207353
12596602 18 14634874162968135333
12788726 201 18411705344131091192
12838862 33 18339628010665797212
13140716 1 18268146633360591896
13533116 47 18040429963425461522
13862211 1 18411696578017891385
14251764 18 18410291440738439777
14294032 229 18121512253962330701
14933364 13 15574715794247462029
15099037 51 18413111684006127503
15131766 46 16445055238746946062
15142383 8 17312814974921114198
15183329 4 18410857668100204189
15475509 8 18058751120751298204
15849732 13 16732704956246811574
18681886 176 17489583489710506123
19319366 153 17749382668353428458
20028762 73 18060416928270261967
20157964 124 14405181781684412010
21033648 29 17203598320576991050
21267235 1 18261955146784531674
21285901 2 18271254815557190276
21307412 95 17773061763501127438
21641784 216 18041576736219969637
21781051 124 18187945991968208875
22311459 1 18411419505303524836
22956985 138 17905043652039705142
23522609 53 18117021964543878485
23536379 177 16370724820529413605
23559900 14 18129379457015703040
23569917 315 18412827997491856215
23569943 247 17486512407099729038
23576562 1 18117847818066298621
24771293 8 18060129972931365560
3004659 81 18412550933192487036
3178227 256 18335151899113795857
335352 9 18412265064131520572
3411729 13 17986098833501196696
34797466 226 15769772472566263339
350125 39 18409730647328801093
3680242 22 18409167688547555530
397830 11 15286221603914147949
404807 14 15046153998771371551
4072396 5 18412257325027967510
4093350 32 17203327858065271080
4340502 62 15051728699097273052
5104073 3 18267867357881780531
5385378 56 18340495452341973531
57527293 21 17630296793743313690
59755656 215 18060143115451708695
59755656 520 17822006545566524411
6328613 192 18337679731701196516

> <PUBCHEM_SHAPE_MULTIPOLES>
516.34
17.52
1.91
1.28
9.38
0.03
0.01
0.71
0.07
-0.49
-0.22
-1.38
-0.15
-1.36

> <PUBCHEM_SHAPE_SELFOVERLAP>
1134.424

> <PUBCHEM_SHAPE_VOLUME>
273.4

> <PUBCHEM_COORDINATE_TYPE>
2
5
10

$$$$
