10547597
  -OEChem-03292013303D

 43 43  0     1  0  0  0  0  0999 V2000
   -3.6962    0.4440   -0.2122 S   0  0  2  0  0  0  0  0  0  0  0  0
   -5.5949    2.6368    0.5890 S   0  0  2  0  0  0  0  0  0  0  0  0
   -2.2976   -3.5928    1.5809 O   0  0  0  0  0  0  0  0  0  0  0  0
   -4.1116    0.4386   -1.6494 O   0  0  0  0  0  0  0  0  0  0  0  0
   -0.0615   -1.9802   -1.8633 O   0  0  0  0  0  0  0  0  0  0  0  0
   -6.1498    2.8095   -0.7942 O   0  0  0  0  0  0  0  0  0  0  0  0
    4.1432   -1.8672    0.7164 O   0  0  0  0  0  0  0  0  0  0  0  0
    6.6766    1.9409    1.1332 O   0  0  0  0  0  0  0  0  0  0  0  0
   -1.2183   -1.3845    0.0601 N   0  0  0  0  0  0  0  0  0  0  0  0
    4.7379    2.0118   -0.0938 N   0  0  0  0  0  0  0  0  0  0  0  0
    5.4133    0.0299    0.9255 N   0  0  0  0  0  0  0  0  0  0  0  0
   -2.4589   -2.0415   -0.2804 C   0  0  2  0  0  0  0  0  0  0  0  0
   -3.6483   -1.2976    0.3295 C   0  0  0  0  0  0  0  0  0  0  0  0
   -2.4164   -3.5050    0.1666 C   0  0  0  0  0  0  0  0  0  0  0  0
   -5.1449    0.8875    0.7885 C   0  0  0  0  0  0  0  0  0  0  0  0
   -0.1152   -1.4144   -0.7761 C   0  0  0  0  0  0  0  0  0  0  0  0
    1.0384   -0.6694   -0.2004 C   0  0  0  0  0  0  0  0  0  0  0  0
    3.3445    0.1057   -0.3790 C   0  0  0  0  0  0  0  0  0  0  0  0
    3.6098    1.4092   -0.6120 C   0  0  0  0  0  0  0  0  0  0  0  0
    2.1854   -0.5993   -0.8781 C   0  0  0  0  0  0  0  0  0  0  0  0
    4.3170   -0.6770    0.4609 C   0  0  0  0  0  0  0  0  0  0  0  0
   -6.9980    2.5911    1.7310 C   0  0  0  0  0  0  0  0  0  0  0  0
    2.7649    2.3528   -1.4288 C   0  0  0  0  0  0  0  0  0  0  0  0
    5.6805    1.3712    0.6862 C   0  0  0  0  0  0  0  0  0  0  0  0
   -2.5560   -2.0288   -1.3737 H   0  0  0  0  0  0  0  0  0  0  0  0
   -3.5819   -1.2905    1.4230 H   0  0  0  0  0  0  0  0  0  0  0  0
   -4.5913   -1.7735    0.0405 H   0  0  0  0  0  0  0  0  0  0  0  0
   -1.5624   -4.0256   -0.2799 H   0  0  0  0  0  0  0  0  0  0  0  0
   -3.3333   -4.0227   -0.1343 H   0  0  0  0  0  0  0  0  0  0  0  0
   -1.1500   -0.9367    0.9699 H   0  0  0  0  0  0  0  0  0  0  0  0
   -5.9920    0.2631    0.4913 H   0  0  0  0  0  0  0  0  0  0  0  0
   -4.9044    0.7150    1.8410 H   0  0  0  0  0  0  0  0  0  0  0  0
    0.9163   -0.1805    0.7609 H   0  0  0  0  0  0  0  0  0  0  0  0
   -2.2803   -4.5382    1.8075 H   0  0  0  0  0  0  0  0  0  0  0  0
    2.3186   -1.1037   -1.8309 H   0  0  0  0  0  0  0  0  0  0  0  0
    4.8841    2.9958   -0.3017 H   0  0  0  0  0  0  0  0  0  0  0  0
   -7.4695    3.5765    1.7423 H   0  0  0  0  0  0  0  0  0  0  0  0
   -6.6430    2.3489    2.7353 H   0  0  0  0  0  0  0  0  0  0  0  0
   -7.7245    1.8453    1.3994 H   0  0  0  0  0  0  0  0  0  0  0  0
    2.4068    3.1787   -0.8046 H   0  0  0  0  0  0  0  0  0  0  0  0
    1.8884    1.8671   -1.8671 H   0  0  0  0  0  0  0  0  0  0  0  0
    3.3516    2.7713   -2.2539 H   0  0  0  0  0  0  0  0  0  0  0  0
    6.0831   -0.4791    1.4953 H   0  0  0  0  0  0  0  0  0  0  0  0
  1  4  2  0  0  0  0
  1 13  1  0  0  0  0
  1 15  1  0  0  0  0
  2  6  2  0  0  0  0
  2 15  1  0  0  0  0
  2 22  1  0  0  0  0
  3 14  1  0  0  0  0
  3 34  1  0  0  0  0
  5 16  2  0  0  0  0
  7 21  2  0  0  0  0
  8 24  2  0  0  0  0
  9 12  1  0  0  0  0
  9 16  1  0  0  0  0
  9 30  1  0  0  0  0
 10 19  1  0  0  0  0
 10 24  1  0  0  0  0
 10 36  1  0  0  0  0
 11 21  1  0  0  0  0
 11 24  1  0  0  0  0
 11 43  1  0  0  0  0
 12 13  1  0  0  0  0
 12 14  1  0  0  0  0
 12 25  1  0  0  0  0
 13 26  1  0  0  0  0
 13 27  1  0  0  0  0
 14 28  1  0  0  0  0
 14 29  1  0  0  0  0
 15 31  1  0  0  0  0
 15 32  1  0  0  0  0
 16 17  1  0  0  0  0
 17 20  2  0  0  0  0
 17 33  1  0  0  0  0
 18 19  2  0  0  0  0
 18 20  1  0  0  0  0
 18 21  1  0  0  0  0
 19 23  1  0  0  0  0
 20 35  1  0  0  0  0
 22 37  1  0  0  0  0
 22 38  1  0  0  0  0
 22 39  1  0  0  0  0
 23 40  1  0  0  0  0
 23 41  1  0  0  0  0
 23 42  1  0  0  0  0
M  END
> <PUBCHEM_COMPOUND_CID>
10547597

> <PUBCHEM_CONFORMER_RMSD>
1

> <PUBCHEM_CONFORMER_DIVERSEORDER>
1
30
81
170
155
18
181
171
24
53
93
175
103
25
43
78
62
54
146
144
88
169
94
35
17
111
179
183
123
156
135
182
57
152
164
147
21
45
140
12
143
149
70
58
118
136
95
37
15
89
69
19
148
74
163
84
174
177
32
13
165
107
154
86
52
23
8
130
47
76
31
112
20
27
80
67
104
153
159
9
168
4
108
117
29
114
11
39
40
178
16
106
124
110
72
101
59
65
87
41
42
145
28
10
109
6
68
3
132
166
14
85
44
162
55
75
90
36
167
138
2
160
46
115
105
50
22
139
7
51
157
129
150
77
151
38
134
96
34
180
158
71
64
102
5
128
82
49
26
126
120
121
79
97
73
98
99
161
92
113
63
83
137
176
33
119
60
173
91
122
116
56
172
66
142
133
125
131
61
127
48
141
100

> <PUBCHEM_MMFF94_PARTIAL_CHARGES>
30
1 0.11
10 -0.54
11 -0.49
12 0.3
13 0.19
14 0.28
15 0.39
16 0.62
17 -0.14
18 0.01
19 -0.03
2 0.11
20 -0.15
21 0.62
22 0.19
23 0.14
24 0.69
3 -0.68
30 0.37
33 0.15
34 0.4
35 0.15
36 0.37
4 -0.5
43 0.37
5 -0.57
6 -0.5
7 -0.57
8 -0.57
9 -0.73

> <PUBCHEM_EFFECTIVE_ROTOR_COUNT>
9

> <PUBCHEM_PHARMACOPHORE_FEATURES>
11
1 10 donor
1 11 donor
1 3 acceptor
1 3 donor
1 4 acceptor
1 5 acceptor
1 6 acceptor
1 7 acceptor
1 8 acceptor
1 9 donor
6 10 11 18 19 21 24 rings

> <PUBCHEM_HEAVY_ATOM_COUNT>
24

> <PUBCHEM_ATOM_DEF_STEREO_COUNT>
3

> <PUBCHEM_ATOM_UDEF_STEREO_COUNT>
0

> <PUBCHEM_BOND_DEF_STEREO_COUNT>
1

> <PUBCHEM_BOND_UDEF_STEREO_COUNT>
0

> <PUBCHEM_ISOTOPIC_ATOM_COUNT>
0

> <PUBCHEM_COMPONENT_COUNT>
1

> <PUBCHEM_CACTVS_TAUTO_COUNT>
21

> <PUBCHEM_CONFORMER_ID>
00A0F18D00000001

> <PUBCHEM_MMFF94_ENERGY>
41.4127

> <PUBCHEM_FEATURE_SELFOVERLAP>
55.873

> <PUBCHEM_SHAPE_FINGERPRINT>
10074138 170 17604446179952236499
11135609 201 18341051831675264777
11370993 144 18260546718864188694
12107183 9 18263356993502233106
12403259 118 18266740371285070318
12895837 130 17846776326168199397
13073987 5 18409165545206348563
13583140 156 18198337562403888970
14123256 34 8214137473857591881
14251764 30 7853563613411626801
14251764 38 18267025135953820909
14565420 104 18192724350107784147
15238133 3 18260555549981250084
15519825 34 16878804810872913985
20715895 44 18341897342282946105
21054139 6 10519714388731028652
21401589 2 18411707565351382483
23522609 53 17531823475507973820
23559900 14 18341348712188704014
270888 7 18200877284282834193
2748736 6 18200873964273393985
2838139 119 18201712951494853885
3680242 22 18335708187109119737
465052 167 12324247152543894472
5104073 3 18187361043139244914
8863177 126 11386375858701496861
9981440 41 18341899610395372291

> <PUBCHEM_SHAPE_MULTIPOLES>
451.45
17.44
3.97
1.38
2.9
1.36
-0.12
-18.19
6.65
4.68
0.73
0.48
-0.15
-0.51

> <PUBCHEM_SHAPE_SELFOVERLAP>
880.897

> <PUBCHEM_SHAPE_VOLUME>
272.2

> <PUBCHEM_COORDINATE_TYPE>
2
5
10

$$$$
