REMARK  Name = 10547597
REMARK  9 active torsions:
REMARK  status: ('A' for Active; 'I' for Inactive)
REMARK    1  A    between atoms: N_2  and  C_18
REMARK    2  A    between atoms: C_3  and  C_5
REMARK    3  A    between atoms: C_6  and  C_11
REMARK    4  A    between atoms: C_18  and  C_19
REMARK    5  A    between atoms: C_18  and  C_26
REMARK    6  A    between atoms: C_19  and  S_20
REMARK    7  A    between atoms: S_20  and  C_22
REMARK    8  A    between atoms: C_22  and  S_23
REMARK    9  A    between atoms: C_26  and  O_27
REMARK                            x       y       z     vdW  Elec       q    Type
REMARK                         _______ _______ _______ _____ _____    ______ ____
ROOT
ATOM      1  O   UNK A   0      -0.061  -1.980  -1.863  0.00  0.00    -0.270 OA
ATOM      2  N   UNK A   1      -1.218  -1.385   0.060  0.00  0.00    -0.299 N 
ATOM      3  C   UNK A   0      -0.115  -1.414  -0.776  0.00  0.00    +0.246 C 
ATOM      4  H   UNK A   1      -1.155  -0.900   0.915  0.00  0.00    +0.150 HD
ENDROOT
BRANCH   3   5
ATOM      5  C   UNK A   0       1.038  -0.669  -0.200  0.00  0.00    +0.058 C 
ATOM      6  C   UNK A   0       2.185  -0.599  -0.878  0.00  0.00    +0.011 C 
BRANCH   6  11
ATOM      7  O   UNK A   0       4.143  -1.867   0.716  0.00  0.00    -0.267 OA
ATOM      8  O   UNK A   0       6.677   1.941   1.133  0.00  0.00    -0.247 OA
ATOM      9  N   UNK A   0       4.738   2.012  -0.094  0.00  0.00    -0.310 N 
ATOM     10  N   UNK A   0       5.413   0.030   0.925  0.00  0.00    -0.275 N 
ATOM     11  C   UNK A   0       3.345   0.106  -0.379  0.00  0.00    +0.068 A 
ATOM     12  C   UNK A   0       3.610   1.409  -0.612  0.00  0.00    +0.042 A 
ATOM     13  C   UNK A   0       4.317  -0.677   0.461  0.00  0.00    +0.262 A 
ATOM     14  C   UNK A   0       2.765   2.353  -1.429  0.00  0.00    +0.050 C 
ATOM     15  C   UNK A   0       5.681   1.371   0.686  0.00  0.00    +0.327 A 
ATOM     16  H   UNK A   0       4.881   2.965  -0.294  0.00  0.00    +0.170 HD
ATOM     17  H   UNK A   0       6.063  -0.464   1.476  0.00  0.00    +0.173 HD
ENDBRANCH   6  11
ENDBRANCH   3   5
BRANCH   2  18
ATOM     18  C   UNK A   1      -2.459  -2.042  -0.280  0.00  0.00    +0.114 C 
BRANCH  18  19
ATOM     19  C   UNK A   1      -3.648  -1.298   0.330  0.00  0.00    +0.115 C 
BRANCH  19  20
ATOM     20  S   UNK A   1      -3.696   0.444  -0.212  0.00  0.00    +0.057 S 
ATOM     21  O   UNK A   1      -4.112   0.439  -1.649  0.00  0.00    -0.255 OA
BRANCH  20  22
ATOM     22  C   UNK A   1      -5.145   0.887   0.788  0.00  0.00    +0.183 C 
BRANCH  22  23
ATOM     23  S   UNK A   1      -5.595   2.637   0.589  0.00  0.00    +0.056 S 
ATOM     24  O   UNK A   1      -6.150   2.809  -0.794  0.00  0.00    -0.255 OA
ATOM     25  C   UNK A   1      -6.998   2.591   1.731  0.00  0.00    +0.107 C 
ENDBRANCH  22  23
ENDBRANCH  20  22
ENDBRANCH  19  20
ENDBRANCH  18  19
BRANCH  18  26
ATOM     26  C   UNK A   1      -2.416  -3.505   0.167  0.00  0.00    +0.158 C 
BRANCH  26  27
ATOM     27  O   UNK A   1      -2.298  -3.593   1.581  0.00  0.00    -0.380 OA
ATOM     28  H   UNK A   1      -2.272  -4.526   1.846  0.00  0.00    +0.211 HD
ENDBRANCH  26  27
ENDBRANCH  18  26
ENDBRANCH   2  18
TORSDOF 9
