REMARK  Name = 10552003
REMARK  5 active torsions:
REMARK  status: ('A' for Active; 'I' for Inactive)
REMARK    1  A    between atoms: C_5  and  O_29
REMARK    2  A    between atoms: C_5  and  C_32
REMARK    3  A    between atoms: C_11  and  C_26
REMARK    4  A    between atoms: C_20  and  O_35
REMARK    5  A    between atoms: C_32  and  O_33
REMARK                            x       y       z     vdW  Elec       q    Type
REMARK                         _______ _______ _______ _____ _____    ______ ____
ROOT
ATOM      1  O   UNL     1      -0.907   0.495  -0.205  0.00  0.00    -0.453 OA
ATOM      2  O   UNL     1      -5.700   0.089   0.135  0.00  0.00    -0.478 OA
ATOM      3  O   UNL     1       0.557   2.899  -0.604  0.00  0.00    -0.291 OA
ATOM      4  O   UNL     1      -0.486  -3.542   0.232  0.00  0.00    -0.286 OA
ATOM      5  C   UNL     1       3.778   1.272  -0.601  0.00  0.00    +0.204 C 
ATOM      6  C   UNL     1       2.741   0.205  -0.396  0.00  0.00    +0.018 C 
ATOM      7  C   UNL     1       1.444   0.711  -0.376  0.00  0.00    +0.068 C 
ATOM      8  C   UNL     1       2.967   2.583  -0.662  0.00  0.00    +0.111 C 
ATOM      9  C   UNL     1       1.521   2.156  -0.556  0.00  0.00    +0.179 C 
ATOM     10  C   UNL     1       0.326  -0.093  -0.214  0.00  0.00    +0.151 A 
ATOM     11  C   UNL     1       2.944  -1.162  -0.262  0.00  0.00    -0.005 C 
ATOM     12  C   UNL     1       0.539  -1.461  -0.071  0.00  0.00    +0.074 A 
ATOM     13  C   UNL     1       1.837  -2.000  -0.095  0.00  0.00    +0.006 C 
ATOM     14  C   UNL     1      -2.023  -0.296  -0.046  0.00  0.00    +0.154 A 
ATOM     15  C   UNL     1      -1.949  -1.683   0.109  0.00  0.00    +0.107 A 
ATOM     16  C   UNL     1      -0.629  -2.335   0.102  0.00  0.00    +0.204 A 
ATOM     17  C   UNL     1      -3.277   0.343  -0.040  0.00  0.00    +0.069 C 
ATOM     18  C   UNL     1      -5.883   1.517   0.059  0.00  0.00    +0.152 C 
ATOM     19  C   UNL     1      -4.435  -0.427   0.121  0.00  0.00    +0.145 C 
ATOM     20  C   UNL     1      -3.107  -2.445   0.267  0.00  0.00    +0.143 C 
ATOM     21  C   UNL     1      -3.411   1.786  -0.203  0.00  0.00    +0.005 C 
ATOM     22  C   UNL     1      -4.630   2.328  -0.154  0.00  0.00    +0.013 C 
ATOM     23  C   UNL     1      -4.348  -1.814   0.271  0.00  0.00    +0.074 C 
ATOM     24  C   UNL     1      -6.846   1.762  -1.109  0.00  0.00    +0.048 C 
ATOM     25  C   UNL     1      -6.548   1.944   1.373  0.00  0.00    +0.048 C 
ENDROOT
BRANCH  11  26
ATOM     26  C   UNL     1       4.272  -1.757  -0.294  0.00  0.00    -0.022 C 
ATOM     27  C   UNL     1       4.856  -2.180  -1.630  0.00  0.00    +0.031 C 
ATOM     28  C   UNL     1       5.018  -1.936   0.828  0.00  0.00    -0.005 C 
ENDBRANCH  11  26
BRANCH   5  29
ATOM     29  O   UNL     1       4.451   1.049  -1.826  0.00  0.00    -0.372 OA
ATOM     30  H   UNL     1       3.804   1.008  -2.548  0.00  0.00    +0.211 HD
ENDBRANCH   5  29
BRANCH   5  32
ATOM     31  O   UNL     1       5.993   1.170   0.366  0.00  0.00    -0.247 OA
ATOM     32  C   UNL     1       4.782   1.335   0.511  0.00  0.00    +0.346 C 
BRANCH  32  33
ATOM     33  O   UNL     1       4.182   1.601   1.712  0.00  0.00    -0.443 OA
ATOM     34  C   UNL     1       5.056   1.684   2.843  0.00  0.00    +0.256 C 
ENDBRANCH  32  33
ENDBRANCH   5  32
BRANCH  20  35
ATOM     35  O   UNL     1      -3.085  -3.799   0.419  0.00  0.00    -0.505 OA
ATOM     36  H   UNL     1      -2.267  -4.257   0.421  0.00  0.00    +0.292 HD
ENDBRANCH  20  35
TORSDOF 5
