10552643
  -OEChem-03292013303D

 64 67  0     1  0  0  0  0  0999 V2000
   -6.7180   -0.7327   -1.6766 O   0  0  0  0  0  0  0  0  0  0  0  0
   -1.8271    0.3657   -0.1955 O   0  0  0  0  0  0  0  0  0  0  0  0
   -3.5337    2.5156    2.1263 O   0  0  0  0  0  0  0  0  0  0  0  0
   -2.1942    4.0068    0.2488 O   0  0  0  0  0  0  0  0  0  0  0  0
   -9.6958   -1.1307    0.9136 O   0  0  0  0  0  0  0  0  0  0  0  0
    3.9257    0.2523   -0.7238 O   0  0  0  0  0  0  0  0  0  0  0  0
    7.2088   -1.1041    0.2544 O   0  0  0  0  0  0  0  0  0  0  0  0
   10.6889   -0.7847    0.2771 O   0  5  0  0  0  0  0  0  0  0  0  0
    9.3556   -2.3338    1.0897 O   0  0  0  0  0  0  0  0  0  0  0  0
    2.8995   -1.5215    0.2328 N   0  0  0  0  0  0  0  0  0  0  0  0
    9.5247   -1.2421    0.4716 N   0  3  0  0  0  0  0  0  0  0  0  0
   -5.5796   -0.7358   -0.8054 C   0  0  2  0  0  0  0  0  0  0  0  0
   -6.9806   -0.7800   -0.2683 C   0  0  2  0  0  0  0  0  0  0  0  0
   -4.7965    0.5341   -0.8037 C   0  0  0  0  0  0  0  0  0  0  0  0
   -4.1250    0.7790    0.5511 C   0  0  2  0  0  0  0  0  0  0  0  0
   -7.5756   -2.0512    0.2041 C   0  0  2  0  0  0  0  0  0  0  0  0
   -3.7836    2.2663    0.7394 C   0  0  2  0  0  0  0  0  0  0  0  0
   -2.8587   -0.0791    0.6846 C   0  0  0  0  0  0  0  0  0  0  0  0
   -2.5672    2.6792   -0.1008 C   0  0  2  0  0  0  0  0  0  0  0  0
   -1.3968    1.7027    0.0851 C   0  0  2  0  0  0  0  0  0  0  0  0
   -9.1225   -2.1255    0.0636 C   0  0  2  0  0  0  0  0  0  0  0  0
   -7.1679   -2.3586    1.6580 C   0  0  0  0  0  0  0  0  0  0  0  0
   -0.2380    2.0083   -0.8596 C   0  0  0  0  0  0  0  0  0  0  0  0
   -9.6456   -1.9247   -1.3545 C   0  0  0  0  0  0  0  0  0  0  0  0
    1.0606    1.3661   -0.4188 C   0  0  0  0  0  0  0  0  0  0  0  0
    1.9119    2.2098    0.4970 C   0  0  0  0  0  0  0  0  0  0  0  0
    1.5102    0.1587   -0.8170 C   0  0  0  0  0  0  0  0  0  0  0  0
    2.7647   -0.3918   -0.4244 C   0  0  0  0  0  0  0  0  0  0  0  0
    4.8852   -0.5597   -0.1990 C   0  0  0  0  0  0  0  0  0  0  0  0
    4.2582   -1.6345    0.3807 C   0  0  0  0  0  0  0  0  0  0  0  0
    6.2705   -0.2771   -0.2770 C   0  0  0  0  0  0  0  0  0  0  0  0
    6.8660    0.8131   -0.8674 C   0  0  0  0  0  0  0  0  0  0  0  0
    8.2597    0.6454   -0.6869 C   0  0  0  0  0  0  0  0  0  0  0  0
    8.4165   -0.5356    0.0007 C   0  0  0  0  0  0  0  0  0  0  0  0
   -4.9703   -1.6285   -0.7870 H   0  0  0  0  0  0  0  0  0  0  0  0
   -7.3846    0.1039    0.2071 H   0  0  0  0  0  0  0  0  0  0  0  0
   -5.4728    1.3680   -1.0331 H   0  0  0  0  0  0  0  0  0  0  0  0
   -4.0614    0.5043   -1.6163 H   0  0  0  0  0  0  0  0  0  0  0  0
   -4.8141    0.4734    1.3498 H   0  0  0  0  0  0  0  0  0  0  0  0
   -7.1732   -2.8726   -0.4063 H   0  0  0  0  0  0  0  0  0  0  0  0
   -4.6379    2.9017    0.4771 H   0  0  0  0  0  0  0  0  0  0  0  0
   -2.4804   -0.0522    1.7140 H   0  0  0  0  0  0  0  0  0  0  0  0
   -3.0632   -1.1291    0.4544 H   0  0  0  0  0  0  0  0  0  0  0  0
   -2.8587    2.6810   -1.1588 H   0  0  0  0  0  0  0  0  0  0  0  0
   -1.0388    1.7565    1.1222 H   0  0  0  0  0  0  0  0  0  0  0  0
   -9.4634   -3.1022    0.4278 H   0  0  0  0  0  0  0  0  0  0  0  0
   -7.5048   -1.5727    2.3424 H   0  0  0  0  0  0  0  0  0  0  0  0
   -7.5878   -3.3131    1.9914 H   0  0  0  0  0  0  0  0  0  0  0  0
   -6.0774   -2.4205    1.7442 H   0  0  0  0  0  0  0  0  0  0  0  0
   -0.0736    3.0891   -0.9487 H   0  0  0  0  0  0  0  0  0  0  0  0
   -0.4818    1.6524   -1.8698 H   0  0  0  0  0  0  0  0  0  0  0  0
   -9.1842   -2.6309   -2.0509 H   0  0  0  0  0  0  0  0  0  0  0  0
  -10.7310   -2.0713   -1.3810 H   0  0  0  0  0  0  0  0  0  0  0  0
   -9.4655   -0.9037   -1.7062 H   0  0  0  0  0  0  0  0  0  0  0  0
   -4.3421    2.2866    2.6159 H   0  0  0  0  0  0  0  0  0  0  0  0
   -2.9655    4.5790    0.0962 H   0  0  0  0  0  0  0  0  0  0  0  0
  -10.6627   -1.2132    0.8506 H   0  0  0  0  0  0  0  0  0  0  0  0
    2.6450    1.6482    1.0821 H   0  0  0  0  0  0  0  0  0  0  0  0
    1.2775    2.7198    1.2313 H   0  0  0  0  0  0  0  0  0  0  0  0
    2.4377    2.9771   -0.0808 H   0  0  0  0  0  0  0  0  0  0  0  0
    0.8792   -0.4592   -1.4494 H   0  0  0  0  0  0  0  0  0  0  0  0
    4.6996   -2.4777    0.8923 H   0  0  0  0  0  0  0  0  0  0  0  0
    6.3687    1.6324   -1.3680 H   0  0  0  0  0  0  0  0  0  0  0  0
    9.0467    1.3072   -1.0199 H   0  0  0  0  0  0  0  0  0  0  0  0
  1 12  1  0  0  0  0
  1 13  1  0  0  0  0
  2 18  1  0  0  0  0
  2 20  1  0  0  0  0
  3 17  1  0  0  0  0
  3 55  1  0  0  0  0
  4 19  1  0  0  0  0
  4 56  1  0  0  0  0
  5 21  1  0  0  0  0
  5 57  1  0  0  0  0
  6 28  1  0  0  0  0
  6 29  1  0  0  0  0
  7 31  1  0  0  0  0
  7 34  1  0  0  0  0
  8 11  1  0  0  0  0
  9 11  2  0  0  0  0
 10 28  2  0  0  0  0
 10 30  1  0  0  0  0
 11 34  1  0  0  0  0
 12 13  1  0  0  0  0
 12 14  1  0  0  0  0
 12 35  1  0  0  0  0
 13 16  1  0  0  0  0
 13 36  1  0  0  0  0
 14 15  1  0  0  0  0
 14 37  1  0  0  0  0
 14 38  1  0  0  0  0
 15 17  1  0  0  0  0
 15 18  1  0  0  0  0
 15 39  1  0  0  0  0
 16 21  1  0  0  0  0
 16 22  1  0  0  0  0
 16 40  1  0  0  0  0
 17 19  1  0  0  0  0
 17 41  1  0  0  0  0
 18 42  1  0  0  0  0
 18 43  1  0  0  0  0
 19 20  1  0  0  0  0
 19 44  1  0  0  0  0
 20 23  1  0  0  0  0
 20 45  1  0  0  0  0
 21 24  1  0  0  0  0
 21 46  1  0  0  0  0
 22 47  1  0  0  0  0
 22 48  1  0  0  0  0
 22 49  1  0  0  0  0
 23 25  1  0  0  0  0
 23 50  1  0  0  0  0
 23 51  1  0  0  0  0
 24 52  1  0  0  0  0
 24 53  1  0  0  0  0
 24 54  1  0  0  0  0
 25 26  1  0  0  0  0
 25 27  2  0  0  0  0
 26 58  1  0  0  0  0
 26 59  1  0  0  0  0
 26 60  1  0  0  0  0
 27 28  1  0  0  0  0
 27 61  1  0  0  0  0
 29 30  2  0  0  0  0
 29 31  1  0  0  0  0
 30 62  1  0  0  0  0
 31 32  2  0  0  0  0
 32 33  1  0  0  0  0
 32 63  1  0  0  0  0
 33 34  2  0  0  0  0
 33 64  1  0  0  0  0
M  CHG  2   8  -1  11   1
M  END
> <PUBCHEM_COMPOUND_CID>
10552643

> <PUBCHEM_CONFORMER_RMSD>
1.4

> <PUBCHEM_CONFORMER_DIVERSEORDER>
1
41
65
108
12
117
64
33
42
112
98
137
89
27
90
68
134
58
36
118
34
123
69
67
54
135
74
25
15
7
107
24
48
57
106
11
94
30
19
38
3
93
116
95
39
77
59
71
49
40
132
131
70
79
56
53
61
16
136
73
102
80
43
121
104
55
35
88
125
31
66
52
32
111
5
119
91
45
63
26
29
76
109
114
127
22
23
8
50
115
126
84
82
62
113
122
20
81
130
72
46
10
13
6
86
105
97
18
51
75
139
96
60
100
133
124
99
92
141
44
37
128
103
17
28
129
83
110
21
14
101
87
85
2
138
47
78
9
120
140
4

> <PUBCHEM_MMFF94_PARTIAL_CHARGES>
40
1 -0.3
10 -0.57
11 0.96
12 -0.05
13 -0.05
14 0.09
16 0.09
17 0.28
18 0.28
19 0.28
2 -0.56
20 0.28
21 0.28
23 0.14
25 -0.28
26 0.14
27 -0.11
28 0.43
29 0.14
3 -0.68
30 0.08
31 0.14
32 -0.15
33 -0.15
34 0.22
35 0.1
36 0.1
4 -0.68
5 -0.68
55 0.4
56 0.4
57 0.4
6 -0.28
61 0.15
62 0.15
63 0.15
64 0.15
7 -0.28
8 -0.52
9 -0.52

> <PUBCHEM_EFFECTIVE_ROTOR_COUNT>
10.8

> <PUBCHEM_PHARMACOPHORE_FEATURES>
17
1 1 acceptor
1 2 acceptor
1 22 hydrophobe
1 26 hydrophobe
1 3 acceptor
1 3 donor
1 4 acceptor
1 4 donor
1 5 acceptor
1 5 donor
1 7 acceptor
1 8 acceptor
1 8 anion
1 9 acceptor
5 6 10 28 29 30 rings
5 7 31 32 33 34 rings
6 2 15 17 18 19 20 rings

> <PUBCHEM_HEAVY_ATOM_COUNT>
34

> <PUBCHEM_ATOM_DEF_STEREO_COUNT>
8

> <PUBCHEM_ATOM_UDEF_STEREO_COUNT>
0

> <PUBCHEM_BOND_DEF_STEREO_COUNT>
1

> <PUBCHEM_BOND_UDEF_STEREO_COUNT>
0

> <PUBCHEM_ISOTOPIC_ATOM_COUNT>
0

> <PUBCHEM_COMPONENT_COUNT>
1

> <PUBCHEM_CACTVS_TAUTO_COUNT>
1

> <PUBCHEM_CONFORMER_ID>
00A1054300000001

> <PUBCHEM_MMFF94_ENERGY>
68.4748

> <PUBCHEM_FEATURE_SELFOVERLAP>
86.379

> <PUBCHEM_SHAPE_FINGERPRINT>
10 15 11887681676233181415
10162869 55 17894349982910341646
10580692 12 18412263914368000062
106641 1 17704070707550665068
11135609 99 18336829796359458255
11211813 128 18273500057462424142
11297750 10 18341603846226459537
11410812 94 16588295052078850805
12539747 363 17703794739033940921
13165054 27 10015320005564430171
13530399 1 11455594523114408506
13631057 29 18410575063225588217
13947934 56 18338800001232740893
14150022 121 16773807961474766481
14202775 3 18339364068585210022
15198563 99 14851880306387567006
15350500 55 11743575254301991563
15399244 38 18343300388336234423
15461852 350 17894912910529168094
15890870 6 18186517726938987547
16992610 120 11530478931096564937
17686467 74 18413103983199045672
18335252 98 17917994958695688974
19302320 297 11455889186864526707
20105231 36 17346324795412387470
20505436 4 11024109819781134277
20721686 146 9582977748376764339
20771845 65 18337956800632747077
21095123 293 12031784782276526746
21130935 74 18198905800089721090
21792961 116 18261107483712581903
232437 2 18260547831255339726
23389318 12 18114470036994592796
23569917 315 18268432340194593702
23576562 1 14852182804685676519
23729398 52 18195530517571592121
335507 130 17918273160711985556
3383291 50 18411985793038262467
3711267 37 10807934911922191554
4461854 278 17775289395344200303
54039377 194 18409729586787844863
57527295 17 17168130193190152305
59682541 35 18272646862393274224
6086070 43 13623537895455920685
9663363 56 18202280308844317823
9953998 17 15554445215300265719
9962374 69 17916861439078766645

> <PUBCHEM_SHAPE_MULTIPOLES>
636.92
36.11
3.04
1.17
23.44
1.9
0.15
-32.59
0.49
-3.68
0.91
-1.81
-0.03
-1.73

> <PUBCHEM_SHAPE_SELFOVERLAP>
1343.955

> <PUBCHEM_SHAPE_VOLUME>
358.5

> <PUBCHEM_COORDINATE_TYPE>
2
5
10

$$$$
