REMARK  Name = 10552643
REMARK  12 active torsions:
REMARK  status: ('A' for Active; 'I' for Inactive)
REMARK    1  A    between atoms: C_2  and  C_11
REMARK    2  A    between atoms: C_3  and  O_7
REMARK    3  A    between atoms: C_5  and  O_9
REMARK    4  A    between atoms: C_6  and  C_21
REMARK    5  A    between atoms: C_11  and  C_13
REMARK    6  A    between atoms: C_14  and  C_15
REMARK    7  A    between atoms: C_15  and  C_17
REMARK    8  A    between atoms: C_17  and  O_19
REMARK    9  A    between atoms: C_21  and  C_22
REMARK   10  A    between atoms: C_24  and  C_27
REMARK   11  A    between atoms: C_28  and  C_31
REMARK   12  A    between atoms: C_34  and  N_37
REMARK                            x       y       z     vdW  Elec       q    Type
REMARK                         _______ _______ _______ _____ _____    ______ ____
ROOT
ATOM      1  O   UNL     1      -1.827   0.366  -0.196  0.00  0.00    -0.353 OA
ATOM      2  C   UNL     1      -4.125   0.779   0.551  0.00  0.00    +0.062 C 
ATOM      3  C   UNL     1      -3.784   2.266   0.739  0.00  0.00    +0.142 C 
ATOM      4  C   UNL     1      -2.859  -0.079   0.685  0.00  0.00    +0.145 C 
ATOM      5  C   UNL     1      -2.567   2.679  -0.101  0.00  0.00    +0.165 C 
ATOM      6  C   UNL     1      -1.397   1.703   0.085  0.00  0.00    +0.148 C 
ENDROOT
BRANCH   3   7
ATOM      7  O   UNL     1      -3.534   2.516   2.126  0.00  0.00    -0.382 OA
ATOM      8  H   UNL     1      -4.308   2.251   2.647  0.00  0.00    +0.210 HD
ENDBRANCH   3   7
BRANCH   5   9
ATOM      9  O   UNL     1      -2.194   4.007   0.249  0.00  0.00    -0.380 OA
ATOM     10  H   UNL     1      -2.951   4.600   0.122  0.00  0.00    +0.211 HD
ENDBRANCH   5   9
BRANCH   2  11
ATOM     11  C   UNL     1      -4.796   0.534  -0.804  0.00  0.00    +0.037 C 
BRANCH  11  13
ATOM     12  O   UNL     1      -6.718  -0.733  -1.677  0.00  0.00    -0.354 OA
ATOM     13  C   UNL     1      -5.580  -0.736  -0.805  0.00  0.00    +0.142 C 
ATOM     14  C   UNL     1      -6.981  -0.780  -0.268  0.00  0.00    +0.144 C 
BRANCH  14  15
ATOM     15  C   UNL     1      -7.576  -2.051   0.204  0.00  0.00    +0.057 C 
ATOM     16  C   UNL     1      -7.168  -2.359   1.658  0.00  0.00    +0.005 C 
BRANCH  15  17
ATOM     17  C   UNL     1      -9.123  -2.126   0.064  0.00  0.00    +0.113 C 
ATOM     18  C   UNL     1      -9.646  -1.925  -1.355  0.00  0.00    +0.032 C 
BRANCH  17  19
ATOM     19  O   UNL     1      -9.696  -1.131   0.914  0.00  0.00    -0.384 OA
ATOM     20  H   UNL     1      -9.368  -1.251   1.819  0.00  0.00    +0.210 HD
ENDBRANCH  17  19
ENDBRANCH  15  17
ENDBRANCH  14  15
ENDBRANCH  11  13
ENDBRANCH   2  11
BRANCH   6  21
ATOM     21  C   UNL     1      -0.238   2.008  -0.860  0.00  0.00    +0.054 C 
BRANCH  21  22
ATOM     22  C   UNL     1       1.061   1.366  -0.419  0.00  0.00    -0.037 C 
ATOM     23  C   UNL     1       1.912   2.210   0.497  0.00  0.00    +0.027 C 
ATOM     24  C   UNL     1       1.510   0.159  -0.817  0.00  0.00    +0.050 C 
BRANCH  24  27
ATOM     25  O   UNL     1       3.926   0.252  -0.724  0.00  0.00    -0.431 OA
ATOM     26  N   UNL     1       2.900  -1.522   0.233  0.00  0.00    -0.207 NA
ATOM     27  C   UNL     1       2.765  -0.392  -0.424  0.00  0.00    +0.229 C 
ATOM     28  C   UNL     1       4.885  -0.560  -0.199  0.00  0.00    +0.201 C 
ATOM     29  C   UNL     1       4.258  -1.635   0.381  0.00  0.00    +0.143 C 
BRANCH  28  31
ATOM     30  O   UNL     1       7.209  -1.104   0.254  0.00  0.00    -0.430 OA
ATOM     31  C   UNL     1       6.271  -0.277  -0.277  0.00  0.00    +0.183 C 
ATOM     32  C   UNL     1       6.866   0.813  -0.867  0.00  0.00    +0.046 C 
ATOM     33  C   UNL     1       8.260   0.645  -0.687  0.00  0.00    +0.066 C 
ATOM     34  C   UNL     1       8.416  -0.536   0.001  0.00  0.00    +0.289 C 
BRANCH  34  37
ATOM     35  O   UNL     1      10.689  -0.785   0.277  0.00  0.00    -0.123 OA
ATOM     36  O   UNL     1       9.356  -2.334   1.090  0.00  0.00    -0.123 OA
ATOM     37  N   UNL     1       9.525  -1.242   0.472  0.00  0.00    +0.093 N 
ENDBRANCH  34  37
ENDBRANCH  28  31
ENDBRANCH  24  27
ENDBRANCH  21  22
ENDBRANCH   6  21
TORSDOF 12
