REMARK  Name = 10552945
REMARK  6 active torsions:
REMARK  status: ('A' for Active; 'I' for Inactive)
REMARK    1  A    between atoms: C_7  and  O_25
REMARK    2  A    between atoms: C_7  and  C_32
REMARK    3  A    between atoms: C_21  and  O_27
REMARK    4  A    between atoms: C_22  and  O_29
REMARK    5  A    between atoms: C_24  and  O_35
REMARK    6  A    between atoms: C_32  and  O_33
REMARK                            x       y       z     vdW  Elec       q    Type
REMARK                         _______ _______ _______ _____ _____    ______ ____
ROOT
ATOM      1  O   UNL     1      -1.175   2.791   1.208  0.00  0.00    -0.274 OA
ATOM      2  O   UNL     1       1.062  -2.679   1.785  0.00  0.00    -0.226 OA
ATOM      3  N   UNL     1       0.939  -0.813   0.391  0.00  0.00    -0.222 N 
ATOM      4  N   UNL     1      -2.592   2.165  -0.550  0.00  0.00    -0.279 N 
ATOM      5  C   UNL     1      -0.529  -0.372   0.491  0.00  0.00    +0.115 C 
ATOM      6  C   UNL     1      -0.547   1.020  -0.375  0.00  0.00    +0.109 C 
ATOM      7  C   UNL     1      -1.566  -1.482   0.060  0.00  0.00    +0.197 C 
ATOM      8  C   UNL     1      -1.029   0.991  -1.848  0.00  0.00    +0.036 C 
ATOM      9  C   UNL     1      -0.833  -0.113   2.013  0.00  0.00    +0.048 C 
ATOM     10  C   UNL     1       0.918   1.386  -0.368  0.00  0.00    +0.004 C 
ATOM     11  C   UNL     1      -1.427   2.125   0.212  0.00  0.00    +0.230 C 
ATOM     12  C   UNL     1       1.721   0.313   0.007  0.00  0.00    +0.090 C 
ATOM     13  C   UNL     1      -3.031  -1.027   0.228  0.00  0.00    +0.061 C 
ATOM     14  C   UNL     1      -2.434   1.571  -1.855  0.00  0.00    +0.094 C 
ATOM     15  C   UNL     1      -3.253  -0.060   1.373  0.00  0.00    -0.045 C 
ATOM     16  C   UNL     1      -2.276   0.243   2.248  0.00  0.00    -0.033 C 
ATOM     17  C   UNL     1      -3.870   2.678  -0.070  0.00  0.00    +0.094 C 
ATOM     18  C   UNL     1      -4.590   0.643   1.437  0.00  0.00    +0.024 C 
ATOM     19  C   UNL     1       1.477   2.612  -0.730  0.00  0.00    +0.001 C 
ATOM     20  C   UNL     1      -4.899   1.569   0.235  0.00  0.00    +0.026 C 
ATOM     21  C   UNL     1       1.481  -2.023   0.836  0.00  0.00    +0.409 C 
ATOM     22  C   UNL     1       3.105   0.469   0.054  0.00  0.00    +0.186 C 
ATOM     23  C   UNL     1       2.861   2.763  -0.700  0.00  0.00    +0.040 C 
ATOM     24  C   UNL     1       3.671   1.696  -0.308  0.00  0.00    +0.174 C 
ENDROOT
BRANCH   7  25
ATOM     25  O   UNL     1      -1.437  -2.648   0.894  0.00  0.00    -0.375 OA
ATOM     26  H   UNL     1      -1.580  -2.400   1.821  0.00  0.00    +0.211 HD
ENDBRANCH   7  25
BRANCH  21  27
ATOM     27  O   UNL     1       2.523  -2.457   0.058  0.00  0.00    -0.430 OA
ATOM     28  C   UNL     1       3.101  -3.719   0.413  0.00  0.00    +0.257 C 
ENDBRANCH  21  27
BRANCH  22  29
ATOM     29  O   UNL     1       3.946  -0.486   0.536  0.00  0.00    -0.467 OA
ATOM     30  C   UNL     1       4.251  -0.441   1.929  0.00  0.00    +0.253 C 
ENDBRANCH  22  29
BRANCH   7  32
ATOM     31  O   UNL     1      -0.235  -2.051  -1.864  0.00  0.00    -0.247 OA
ATOM     32  C   UNL     1      -1.312  -2.094  -1.284  0.00  0.00    +0.343 C 
BRANCH  32  33
ATOM     33  O   UNL     1      -2.451  -2.690  -1.737  0.00  0.00    -0.443 OA
ATOM     34  C   UNL     1      -2.350  -3.318  -3.019  0.00  0.00    +0.256 C 
ENDBRANCH  32  33
ENDBRANCH   7  32
BRANCH  24  35
ATOM     35  O   UNL     1       5.022   1.876  -0.261  0.00  0.00    -0.468 OA
ATOM     36  C   UNL     1       5.757   1.563  -1.442  0.00  0.00    +0.253 C 
ENDBRANCH  24  35
TORSDOF 6
