REMARK  Name = 10566365
REMARK  3 active torsions:
REMARK  status: ('A' for Active; 'I' for Inactive)
REMARK    1  A    between atoms: C_6  and  C_10
REMARK    2  A    between atoms: C_8  and  C_18
REMARK    3  A    between atoms: C_13  and  O_16
REMARK                            x       y       z     vdW  Elec       q    Type
REMARK                         _______ _______ _______ _____ _____    ______ ____
ROOT
ATOM      1  S   UNL     1       1.136   2.762  -0.072  0.00  0.00    +0.073 S 
ATOM      2  O   UNL     1      -1.315  -1.175   0.334  0.00  0.00    -0.275 OA
ATOM      3  N   UNL     1      -0.941   1.146   0.161  0.00  0.00    -0.252 N 
ATOM      4  N   UNL     1       1.309   0.238   0.080  0.00  0.00    -0.326 NA
ATOM      5  N   UNL     1       2.690   2.144  -0.129  0.00  0.00    -0.142 NA
ATOM      6  C   UNL     1      -1.698  -0.012   0.282  0.00  0.00    +0.228 C 
ATOM      7  C   UNL     1       0.452   1.210   0.070  0.00  0.00    +0.246 C 
ATOM      8  C   UNL     1       2.559   0.821  -0.035  0.00  0.00    +0.096 C 
ATOM      9  H   UNL     1      -1.430   2.000   0.136  0.00  0.00    +0.158 HD
ENDROOT
BRANCH   6  10
ATOM     10  C   UNL     1      -3.159   0.313   0.355  0.00  0.00    +0.077 C 
ATOM     11  C   UNL     1      -3.734   0.365  -1.061  0.00  0.00    +0.012 C 
ATOM     12  C   UNL     1      -3.880  -0.724   1.216  0.00  0.00    +0.012 C 
ATOM     13  C   UNL     1      -5.979  -0.420  -0.175  0.00  0.00    +0.111 C 
ATOM     14  C   UNL     1      -5.246   0.600  -1.045  0.00  0.00    +0.030 C 
ATOM     15  C   UNL     1      -5.390  -0.485   1.235  0.00  0.00    +0.030 C 
BRANCH  13  16
ATOM     16  O   UNL     1      -5.887  -1.701  -0.796  0.00  0.00    -0.384 OA
ATOM     17  H   UNL     1      -6.262  -1.654  -1.690  0.00  0.00    +0.210 HD
ENDBRANCH  13  16
ENDBRANCH   6  10
BRANCH   8  18
ATOM     18  C   UNL     1       3.723  -0.027  -0.053  0.00  0.00    +0.075 C 
ATOM     19  C   UNL     1       3.593  -1.377  -0.372  0.00  0.00    +0.011 C 
ATOM     20  C   UNL     1       4.974   0.505   0.249  0.00  0.00    +0.011 C 
ATOM     21  C   UNL     1       4.720  -2.198  -0.389  0.00  0.00    +0.001 C 
ATOM     22  C   UNL     1       6.101  -0.316   0.233  0.00  0.00    +0.001 C 
ATOM     23  C   UNL     1       5.974  -1.668  -0.087  0.00  0.00    +0.000 C 
ENDBRANCH   8  18
TORSDOF 3
