REMARK  Name = 10571026
REMARK  5 active torsions:
REMARK  status: ('A' for Active; 'I' for Inactive)
REMARK    1  A    between atoms: C_4  and  C_20
REMARK    2  A    between atoms: C_14  and  O_24
REMARK    3  A    between atoms: C_16  and  O_26
REMARK    4  A    between atoms: C_17  and  O_28
REMARK    5  A    between atoms: C_19  and  O_30
REMARK                            x       y       z     vdW  Elec       q    Type
REMARK                         _______ _______ _______ _____ _____    ______ ____
ROOT
ATOM      1  O   UNL     1       2.235   1.144  -0.888  0.00  0.00    -0.470 OA
ATOM      2  O   UNL     1      -0.888  -1.544   0.084  0.00  0.00    -0.453 OA
ATOM      3  O   UNL     1      -1.841   2.360  -0.604  0.00  0.00    -0.286 OA
ATOM      4  C   UNL     1       0.958   1.717  -0.550  0.00  0.00    +0.145 C 
ATOM      5  C   UNL     1      -0.153   0.724  -0.336  0.00  0.00    +0.107 A 
ATOM      6  C   UNL     1       0.077  -0.579  -0.120  0.00  0.00    +0.151 A 
ATOM      7  C   UNL     1       1.471  -1.029  -0.092  0.00  0.00    +0.059 C 
ATOM      8  C   UNL     1       2.481  -0.140  -0.481  0.00  0.00    +0.216 C 
ATOM      9  C   UNL     1      -1.564   1.188  -0.385  0.00  0.00    +0.207 A 
ATOM     10  C   UNL     1      -2.596   0.162  -0.163  0.00  0.00    +0.107 A 
ATOM     11  C   UNL     1      -2.202  -1.156   0.062  0.00  0.00    +0.154 A 
ATOM     12  C   UNL     1       1.830  -2.331   0.287  0.00  0.00    +0.042 C 
ATOM     13  C   UNL     1       3.818  -0.548  -0.510  0.00  0.00    +0.061 C 
ATOM     14  C   UNL     1      -3.952   0.498  -0.176  0.00  0.00    +0.143 C 
ATOM     15  C   UNL     1      -3.162  -2.146   0.275  0.00  0.00    +0.074 C 
ATOM     16  C   UNL     1       3.168  -2.733   0.271  0.00  0.00    +0.167 C 
ATOM     17  C   UNL     1       4.160  -1.843  -0.130  0.00  0.00    +0.167 C 
ATOM     18  C   UNL     1      -4.911  -0.493   0.037  0.00  0.00    +0.073 C 
ATOM     19  C   UNL     1      -4.517  -1.813   0.263  0.00  0.00    +0.140 C 
ENDROOT
BRANCH   4  20
ATOM     20  C   UNL     1       1.160   2.609   0.639  0.00  0.00    +0.029 C 
ATOM     21  C   UNL     1       1.595   3.883   0.664  0.00  0.00    -0.041 C 
ATOM     22  C   UNL     1       1.950   4.590  -0.617  0.00  0.00    +0.026 C 
ATOM     23  C   UNL     1       1.774   4.719   1.899  0.00  0.00    +0.026 C 
ENDBRANCH   4  20
BRANCH  14  24
ATOM     24  O   UNL     1      -4.392   1.770  -0.389  0.00  0.00    -0.505 OA
ATOM     25  H   UNL     1      -3.776   2.460  -0.536  0.00  0.00    +0.292 HD
ENDBRANCH  14  24
BRANCH  16  26
ATOM     26  O   UNL     1       3.488  -4.004   0.646  0.00  0.00    -0.503 OA
ATOM     27  H   UNL     1       2.814  -4.597   0.914  0.00  0.00    +0.292 HD
ENDBRANCH  16  26
BRANCH  17  28
ATOM     28  O   UNL     1       5.467  -2.227  -0.156  0.00  0.00    -0.503 OA
ATOM     29  H   UNL     1       6.128  -1.620  -0.427  0.00  0.00    +0.292 HD
ENDBRANCH  17  28
BRANCH  19  30
ATOM     30  O   UNL     1      -5.455  -2.777   0.469  0.00  0.00    -0.505 OA
ATOM     31  H   UNL     1      -5.191  -3.663   0.620  0.00  0.00    +0.292 HD
ENDBRANCH  19  30
TORSDOF 5
