REMARK  Name = 10577
REMARK  13 active torsions:
REMARK  status: ('A' for Active; 'I' for Inactive)
REMARK    1  A    between atoms: C_4  and  O_21
REMARK    2  A    between atoms: C_8  and  O_30
REMARK    3  A    between atoms: C_18  and  O_19
REMARK    4  A    between atoms: O_21  and  C_23
REMARK    5  A    between atoms: C_23  and  C_24
REMARK    6  A    between atoms: C_24  and  C_25
REMARK    7  A    between atoms: C_25  and  C_27
REMARK    8  A    between atoms: C_27  and  O_28
REMARK    9  A    between atoms: O_30  and  C_32
REMARK   10  A    between atoms: C_32  and  C_33
REMARK   11  A    between atoms: C_33  and  C_34
REMARK   12  A    between atoms: C_34  and  C_36
REMARK   13  A    between atoms: C_36  and  O_37
REMARK                            x       y       z     vdW  Elec       q    Type
REMARK                         _______ _______ _______ _____ _____    ______ ____
ROOT
ATOM      1  C   UNL     1       0.549   0.504  -0.408  0.00  0.00    +0.041 C 
ATOM      2  C   UNL     1       1.180  -0.897  -0.258  0.00  0.00    +0.008 C 
ATOM      3  C   UNL     1       2.692  -0.877  -0.489  0.00  0.00    +0.005 C 
ATOM      4  C   UNL     1      -0.928   0.128  -0.180  0.00  0.00    +0.208 C 
ATOM      5  C   UNL     1       3.349   0.047   0.580  0.00  0.00    +0.022 C 
ATOM      6  C   UNL     1       0.300  -1.786  -1.139  0.00  0.00    +0.048 C 
ATOM      7  C   UNL     1       1.153   1.414   0.668  0.00  0.00    +0.004 C 
ATOM      8  C   UNL     1      -1.109  -1.176  -0.987  0.00  0.00    +0.208 C 
ATOM      9  C   UNL     1       2.692   1.454   0.589  0.00  0.00    +0.004 C 
ATOM     10  C   UNL     1       3.318  -2.270  -0.394  0.00  0.00    +0.005 C 
ATOM     11  C   UNL     1       0.737   1.157  -1.800  0.00  0.00    +0.004 C 
ATOM     12  C   UNL     1       4.870   0.045   0.452  0.00  0.00    -0.026 C 
ATOM     13  C   UNL     1       4.794  -2.201  -0.774  0.00  0.00    +0.026 C 
ATOM     14  C   UNL     1       5.537  -1.044  -0.151  0.00  0.00    -0.023 C 
ATOM     15  C   UNL     1       5.649   1.076   1.006  0.00  0.00    -0.001 C 
ATOM     16  C   UNL     1       6.941  -1.049  -0.231  0.00  0.00    +0.032 C 
ATOM     17  C   UNL     1       7.043   1.054   0.928  0.00  0.00    +0.036 C 
ATOM     18  C   UNL     1       7.689  -0.006   0.306  0.00  0.00    +0.133 C 
ENDROOT
BRANCH  18  19
ATOM     19  O   UNL     1       9.047  -0.027   0.226  0.00  0.00    -0.506 OA
ATOM     20  H   UNL     1       9.480  -0.744  -0.195  0.00  0.00    +0.292 HD
ENDBRANCH  18  19
BRANCH   4  21
ATOM     21  O   UNL     1      -1.837   1.119  -0.628  0.00  0.00    -0.448 OA
BRANCH  21  23
ATOM     22  O   UNL     1      -1.890   2.047   1.482  0.00  0.00    -0.250 OA
ATOM     23  C   UNL     1      -2.247   2.031   0.313  0.00  0.00    +0.318 C 
BRANCH  23  24
ATOM     24  C   UNL     1      -3.210   3.009  -0.325  0.00  0.00    +0.121 C 
BRANCH  24  25
ATOM     25  C   UNL     1      -3.655   4.116   0.624  0.00  0.00    +0.121 C 
BRANCH  25  27
ATOM     26  O   UNL     1      -4.917   4.998  -1.237  0.00  0.00    -0.250 OA
ATOM     27  C   UNL     1      -4.568   5.097  -0.068  0.00  0.00    +0.314 C 
BRANCH  27  28
ATOM     28  O   UNL     1      -4.982   6.094   0.752  0.00  0.00    -0.480 OA
ATOM     29  H   UNL     1      -4.684   6.124   1.640  0.00  0.00    +0.295 HD
ENDBRANCH  27  28
ENDBRANCH  25  27
ENDBRANCH  24  25
ENDBRANCH  23  24
ENDBRANCH  21  23
ENDBRANCH   4  21
BRANCH   8  30
ATOM     30  O   UNL     1      -1.960  -2.055  -0.263  0.00  0.00    -0.448 OA
BRANCH  30  32
ATOM     31  O   UNL     1      -3.796  -1.204  -1.369  0.00  0.00    -0.250 OA
ATOM     32  C   UNL     1      -3.297  -1.966  -0.553  0.00  0.00    +0.318 C 
BRANCH  32  33
ATOM     33  C   UNL     1      -4.057  -2.959   0.300  0.00  0.00    +0.121 C 
BRANCH  33  34
ATOM     34  C   UNL     1      -5.549  -2.997  -0.012  0.00  0.00    +0.121 C 
BRANCH  34  36
ATOM     35  O   UNL     1      -5.698  -4.743   1.653  0.00  0.00    -0.250 OA
ATOM     36  C   UNL     1      -6.255  -4.038   0.821  0.00  0.00    +0.314 C 
BRANCH  36  37
ATOM     37  O   UNL     1      -7.586  -4.095   0.567  0.00  0.00    -0.480 OA
ATOM     38  H   UNL     1      -7.964  -3.533  -0.080  0.00  0.00    +0.295 HD
ENDBRANCH  36  37
ENDBRANCH  34  36
ENDBRANCH  33  34
ENDBRANCH  32  33
ENDBRANCH  30  32
ENDBRANCH   8  30
TORSDOF 13
