REMARK  Name = 10572099
REMARK  7 active torsions:
REMARK  status: ('A' for Active; 'I' for Inactive)
REMARK    1  A    between atoms: C_1  and  C_26
REMARK    2  A    between atoms: C_2  and  O_18
REMARK    3  A    between atoms: C_6  and  O_20
REMARK    4  A    between atoms: C_7  and  O_22
REMARK    5  A    between atoms: C_8  and  O_24
REMARK    6  A    between atoms: C_26  and  C_29
REMARK    7  A    between atoms: C_29  and  O_30
REMARK                            x       y       z     vdW  Elec       q    Type
REMARK                         _______ _______ _______ _____ _____    ______ ____
ROOT
ATOM      1  C   UNL     1      -1.584  -0.529  -0.721  0.00  0.00    +0.031 C 
ATOM      2  C   UNL     1       0.614  -2.979  -0.502  0.00  0.00    +0.113 C 
ATOM      3  C   UNL     1      -1.647  -1.902  -1.417  0.00  0.00    +0.007 C 
ATOM      4  C   UNL     1      -0.832   0.532  -1.560  0.00  0.00    +0.036 C 
ATOM      5  C   UNL     1      -0.318  -2.636  -1.704  0.00  0.00    +0.030 C 
ATOM      6  C   UNL     1      -0.227   1.663  -0.695  0.00  0.00    +0.135 C 
ATOM      7  C   UNL     1       0.954   2.418  -1.363  0.00  0.00    +0.113 C 
ATOM      8  C   UNL     1       1.608  -1.827  -0.163  0.00  0.00    +0.135 C 
ATOM      9  C   UNL     1       1.667   3.395  -0.386  0.00  0.00    +0.034 C 
ATOM     10  C   UNL     1       2.436  -2.037   1.123  0.00  0.00    +0.036 C 
ATOM     11  C   UNL     1       1.377  -4.274  -0.843  0.00  0.00    +0.032 C 
ATOM     12  C   UNL     1       0.497   3.215  -2.598  0.00  0.00    +0.032 C 
ATOM     13  C   UNL     1       2.066   2.857   1.007  0.00  0.00    +0.028 C 
ATOM     14  C   UNL     1       3.326  -0.832   1.499  0.00  0.00    +0.024 C 
ATOM     15  C   UNL     1       2.565   0.459   1.741  0.00  0.00    -0.048 C 
ATOM     16  C   UNL     1       2.817   1.552   0.993  0.00  0.00    -0.035 C 
ATOM     17  C   UNL     1       1.543   0.407   2.845  0.00  0.00    +0.026 C 
ENDROOT
BRANCH   2  18
ATOM     18  O   UNL     1      -0.217  -3.249   0.629  0.00  0.00    -0.384 OA
ATOM     19  H   UNL     1      -0.711  -2.448   0.866  0.00  0.00    +0.210 HD
ENDBRANCH   2  18
BRANCH   6  20
ATOM     20  O   UNL     1      -1.235   2.603  -0.333  0.00  0.00    -0.382 OA
ATOM     21  H   UNL     1      -1.976   2.137   0.085  0.00  0.00    +0.210 HD
ENDBRANCH   6  20
BRANCH   7  22
ATOM     22  O   UNL     1       1.943   1.479  -1.800  0.00  0.00    -0.384 OA
ATOM     23  H   UNL     1       2.253   0.959  -1.042  0.00  0.00    +0.210 HD
ENDBRANCH   7  22
BRANCH   8  24
ATOM     24  O   UNL     1       2.525  -1.620  -1.237  0.00  0.00    -0.382 OA
ATOM     25  H   UNL     1       2.032  -1.485  -2.061  0.00  0.00    +0.210 HD
ENDBRANCH   8  24
BRANCH   1  26
ATOM     26  C   UNL     1      -2.983  -0.072  -0.419  0.00  0.00    +0.053 C 
ATOM     27  C   UNL     1      -3.877   0.190  -1.384  0.00  0.00    +0.002 C 
BRANCH  26  29
ATOM     28  O   UNL     1      -4.578  -0.043   1.380  0.00  0.00    -0.245 OA
ATOM     29  C   UNL     1      -3.428   0.107   0.991  0.00  0.00    +0.337 C 
BRANCH  29  30
ATOM     30  O   UNL     1      -2.364   0.458   1.764  0.00  0.00    -0.442 OA
ATOM     31  C   UNL     1      -2.647   0.663   3.152  0.00  0.00    +0.256 C 
ENDBRANCH  29  30
ENDBRANCH  26  29
ENDBRANCH   1  26
TORSDOF 7
