REMARK  Name = 10575150
REMARK  8 active torsions:
REMARK  status: ('A' for Active; 'I' for Inactive)
REMARK    1  A    between atoms: C_7  and  O_20
REMARK    2  A    between atoms: C_12  and  C_22
REMARK    3  A    between atoms: C_15  and  O_27
REMARK    4  A    between atoms: C_23  and  C_24
REMARK    5  A    between atoms: O_27  and  C_29
REMARK    6  A    between atoms: C_29  and  C_30
REMARK    7  A    between atoms: C_30  and  C_31
REMARK    8  A    between atoms: C_31  and  O_33
REMARK                            x       y       z     vdW  Elec       q    Type
REMARK                         _______ _______ _______ _____ _____    ______ ____
ROOT
ATOM      1  O   UNL     1       3.870  -0.087   0.182  0.00  0.00    -0.475 OA
ATOM      2  O   UNL     1      -2.561   2.631   0.368  0.00  0.00    -0.287 OA
ATOM      3  O   UNL     1      -2.514  -1.471  -1.843  0.00  0.00    -0.287 OA
ATOM      4  N   UNL     1       1.640   2.719   0.408  0.00  0.00    -0.301 N 
ATOM      5  C   UNL     1       2.393   1.655  -0.223  0.00  0.00    +0.141 C 
ATOM      6  C   UNL     1       3.464   1.175   0.727  0.00  0.00    +0.215 C 
ATOM      7  C   UNL     1       4.500   2.276   0.897  0.00  0.00    +0.154 C 
ATOM      8  C   UNL     1       1.671   0.363  -0.394  0.00  0.00    +0.033 C 
ATOM      9  C   UNL     1       3.762   3.498   1.494  0.00  0.00    +0.054 C 
ATOM     10  C   UNL     1       2.453   3.892   0.758  0.00  0.00    +0.094 C 
ATOM     11  C   UNL     1       0.232   0.445  -0.618  0.00  0.00    +0.008 C 
ATOM     12  C   UNL     1       2.593  -0.593  -0.201  0.00  0.00    +0.136 C 
ATOM     13  C   UNL     1       0.256   2.712   0.311  0.00  0.00    +0.065 C 
ATOM     14  C   UNL     1      -0.454   1.674  -0.176  0.00  0.00    +0.053 C 
ATOM     15  C   UNL     1      -2.610   0.870  -1.274  0.00  0.00    +0.244 C 
ATOM     16  C   UNL     1      -1.933   1.799  -0.284  0.00  0.00    +0.217 C 
ATOM     17  C   UNL     1      -0.449  -0.543  -1.224  0.00  0.00    +0.041 C 
ATOM     18  C   UNL     1      -1.914  -0.465  -1.465  0.00  0.00    +0.216 C 
ATOM     19  C   UNL     1      -2.703   1.575  -2.627  0.00  0.00    +0.060 C 
ENDROOT
BRANCH   7  20
ATOM     20  O   UNL     1       5.078   2.642  -0.350  0.00  0.00    -0.381 OA
ATOM     21  H   UNL     1       5.541   1.878  -0.728  0.00  0.00    +0.210 HD
ENDBRANCH   7  20
BRANCH  12  22
ATOM     22  C   UNL     1       2.486  -2.018  -0.211  0.00  0.00    +0.037 C 
ATOM     23  C   UNL     1       3.525  -2.843   0.005  0.00  0.00    +0.003 C 
BRANCH  23  24
ATOM     24  C   UNL     1       3.407  -4.285  -0.009  0.00  0.00    -0.004 C 
ATOM     25  C   UNL     1       4.444  -5.107   0.207  0.00  0.00    -0.026 C 
ATOM     26  C   UNL     1       4.336  -6.597   0.194  0.00  0.00    +0.031 C 
ENDBRANCH  23  24
ENDBRANCH  12  22
BRANCH  15  27
ATOM     27  O   UNL     1      -3.931   0.623  -0.829  0.00  0.00    -0.441 OA
BRANCH  27  29
ATOM     28  O   UNL     1      -3.116  -0.458   1.039  0.00  0.00    -0.250 OA
ATOM     29  C   UNL     1      -4.050  -0.058   0.356  0.00  0.00    +0.320 C 
BRANCH  29  30
ATOM     30  C   UNL     1      -5.517  -0.235   0.688  0.00  0.00    +0.139 C 
BRANCH  30  31
ATOM     31  C   UNL     1      -5.780  -1.493   1.518  0.00  0.00    +0.122 C 
ATOM     32  C   UNL     1      -7.268  -1.671   1.789  0.00  0.00    +0.032 C 
BRANCH  31  33
ATOM     33  O   UNL     1      -5.312  -2.626   0.789  0.00  0.00    -0.384 OA
ATOM     34  H   UNL     1      -4.364  -2.525   0.609  0.00  0.00    +0.210 HD
ENDBRANCH  31  33
ENDBRANCH  30  31
ENDBRANCH  29  30
ENDBRANCH  27  29
ENDBRANCH  15  27
TORSDOF 8
