REMARK  Name = 10572193
REMARK  3 active torsions:
REMARK  status: ('A' for Active; 'I' for Inactive)
REMARK    1  A    between atoms: C_8  and  O_26
REMARK    2  A    between atoms: C_13  and  O_24
REMARK    3  A    between atoms: O_26  and  C_27
REMARK                            x       y       z     vdW  Elec       q    Type
REMARK                         _______ _______ _______ _____ _____    ______ ____
ROOT
ATOM      1  O   UNL     1       2.321  -1.009   0.494  0.00  0.00    -0.448 OA
ATOM      2  O   UNL     1      -2.374   1.682   0.514  0.00  0.00    -0.445 OA
ATOM      3  O   UNL     1      -2.687  -1.443   0.329  0.00  0.00    -0.449 OA
ATOM      4  O   UNL     1       0.372   3.088   1.546  0.00  0.00    -0.292 OA
ATOM      5  O   UNL     1       3.474  -0.051  -1.259  0.00  0.00    -0.247 OA
ATOM      6  O   UNL     1      -3.837   2.060  -1.234  0.00  0.00    -0.250 OA
ATOM      7  O   UNL     1      -2.083  -2.665  -1.539  0.00  0.00    -0.245 OA
ATOM      8  C   UNL     1       2.081   1.312   0.192  0.00  0.00    +0.221 C 
ATOM      9  C   UNL     1       0.577   1.313  -0.076  0.00  0.00    +0.109 C 
ATOM     10  C   UNL     1       2.773  -2.340   0.149  0.00  0.00    +0.200 C 
ATOM     11  C   UNL     1      -1.545   2.783   0.111  0.00  0.00    +0.225 C 
ATOM     12  C   UNL     1      -0.143   2.463   0.619  0.00  0.00    +0.193 C 
ATOM     13  C   UNL     1       1.680  -3.327   0.595  0.00  0.00    +0.173 C 
ATOM     14  C   UNL     1       2.716   0.026  -0.301  0.00  0.00    +0.345 C 
ATOM     15  C   UNL     1      -3.929  -1.008  -0.267  0.00  0.00    +0.180 C 
ATOM     16  C   UNL     1      -4.302   0.326   0.377  0.00  0.00    +0.153 C 
ATOM     17  C   UNL     1       4.103  -2.588   0.856  0.00  0.00    +0.050 C 
ATOM     18  C   UNL     1      -2.084   4.076   0.707  0.00  0.00    +0.056 C 
ATOM     19  C   UNL     1       0.400  -3.080  -0.161  0.00  0.00    +0.013 C 
ATOM     20  C   UNL     1      -3.500   1.457  -0.223  0.00  0.00    +0.321 C 
ATOM     21  C   UNL     1      -4.994  -2.061   0.016  0.00  0.00    +0.048 C 
ATOM     22  C   UNL     1      -0.683  -2.534   0.406  0.00  0.00    +0.080 C 
ATOM     23  C   UNL     1      -1.882  -2.252  -0.409  0.00  0.00    +0.341 C 
ENDROOT
BRANCH  13  24
ATOM     24  O   UNL     1       2.077  -4.669   0.330  0.00  0.00    -0.377 OA
ATOM     25  H   UNL     1       2.901  -4.862   0.804  0.00  0.00    +0.211 HD
ENDBRANCH  13  24
BRANCH   8  26
ATOM     26  O   UNL     1       2.693   2.395  -0.495  0.00  0.00    -0.345 OA
BRANCH  26  27
ATOM     27  C   UNL     1       4.092   2.442  -0.253  0.00  0.00    +0.143 C 
ATOM     28  C   UNL     1       4.686   3.604  -1.021  0.00  0.00    +0.035 C 
ENDBRANCH  26  27
ENDBRANCH   8  26
TORSDOF 3
