REMARK  Name = 10575981
REMARK  11 active torsions:
REMARK  status: ('A' for Active; 'I' for Inactive)
REMARK    1  A    between atoms: C_1  and  C_12
REMARK    2  A    between atoms: C_1  and  N_21
REMARK    3  A    between atoms: C_1  and  C_36
REMARK    4  A    between atoms: C_7  and  C_15
REMARK    5  A    between atoms: C_10  and  O_18
REMARK    6  A    between atoms: C_22  and  C_24
REMARK    7  A    between atoms: C_24  and  O_25
REMARK    8  A    between atoms: C_24  and  C_27
REMARK    9  A    between atoms: C_27  and  C_28
REMARK   10  A    between atoms: C_33  and  O_34
REMARK   11  A    between atoms: C_36  and  C_37
REMARK                            x       y       z     vdW  Elec       q    Type
REMARK                         _______ _______ _______ _____ _____    ______ ____
ROOT
ATOM      1  C   UNL     1      -0.633  -1.155   0.406  0.00  0.00    +0.149 C 
ENDROOT
BRANCH   1  12
ATOM      2  O   UNL     1      -1.060   0.757   1.742  0.00  0.00    -0.273 OA
ATOM      3  N   UNL     1      -2.873  -0.143   0.599  0.00  0.00    -0.273 N 
ATOM      4  C   UNL     1      -5.252   0.119   0.679  0.00  0.00    +0.021 C 
ATOM      5  C   UNL     1      -3.933   0.527   1.368  0.00  0.00    +0.078 C 
ATOM      6  C   UNL     1      -4.911  -1.253   0.083  0.00  0.00    +0.031 C 
ATOM      7  C   UNL     1      -3.437  -1.144  -0.305  0.00  0.00    +0.152 C 
ATOM      8  C   UNL     1      -5.777   1.077  -0.402  0.00  0.00    +0.004 C 
ATOM      9  C   UNL     1      -3.775   2.038   1.559  0.00  0.00    +0.049 C 
ATOM     10  C   UNL     1      -4.200   2.861   0.351  0.00  0.00    +0.112 C 
ATOM     11  C   UNL     1      -5.641   2.541  -0.022  0.00  0.00    +0.029 C 
ATOM     12  C   UNL     1      -1.534  -0.088   0.980  0.00  0.00    +0.244 C 
BRANCH   7  15
ATOM     13  O   UNL     1      -2.692   0.348  -2.017  0.00  0.00    -0.274 OA
ATOM     14  N   UNL     1      -3.781  -1.578  -2.648  0.00  0.00    -0.327 N 
ATOM     15  C   UNL     1      -3.252  -0.706  -1.726  0.00  0.00    +0.237 C 
ATOM     16  H   UNL     1      -3.711  -1.380  -3.610  0.00  0.00    +0.145 HD
ATOM     17  H   UNL     1      -4.229  -2.401  -2.347  0.00  0.00    +0.145 HD
ENDBRANCH   7  15
BRANCH  10  18
ATOM     18  O   UNL     1      -4.091   4.241   0.685  0.00  0.00    -0.384 OA
ATOM     19  H   UNL     1      -3.173   4.445   0.923  0.00  0.00    +0.210 HD
ENDBRANCH  10  18
ENDBRANCH   1  12
BRANCH   1  21
ATOM     20  O   UNL     1       0.684  -0.563  -2.102  0.00  0.00    -0.272 OA
ATOM     21  N   UNL     1       0.614  -0.473   0.220  0.00  0.00    -0.296 N 
ATOM     22  C   UNL     1       1.181  -0.228  -1.029  0.00  0.00    +0.250 C 
ATOM     23  H   UNL     1       1.097  -0.161   1.020  0.00  0.00    +0.150 HD
BRANCH  22  24
ATOM     24  C   UNL     1       2.517   0.498  -0.936  0.00  0.00    +0.191 C 
BRANCH  24  25
ATOM     25  O   UNL     1       2.655   1.322  -2.085  0.00  0.00    -0.376 OA
ATOM     26  H   UNL     1       1.926   1.961  -2.114  0.00  0.00    +0.211 HD
ENDBRANCH  24  25
BRANCH  24  27
ATOM     27  C   UNL     1       3.673  -0.507  -0.903  0.00  0.00    +0.065 C 
BRANCH  27  28
ATOM     28  C   UNL     1       4.946   0.111  -0.376  0.00  0.00    -0.019 C 
ATOM     29  C   UNL     1       5.844   0.716  -1.256  0.00  0.00    -0.001 C 
ATOM     30  C   UNL     1       5.224   0.078   0.990  0.00  0.00    -0.001 C 
ATOM     31  C   UNL     1       7.020   1.287  -0.769  0.00  0.00    +0.036 C 
ATOM     32  C   UNL     1       6.400   0.649   1.477  0.00  0.00    +0.036 C 
ATOM     33  C   UNL     1       7.298   1.254   0.598  0.00  0.00    +0.134 C 
BRANCH  33  34
ATOM     34  O   UNL     1       8.445   1.811   1.073  0.00  0.00    -0.506 OA
ATOM     35  H   UNL     1       9.048   2.218   0.482  0.00  0.00    +0.292 HD
ENDBRANCH  33  34
ENDBRANCH  27  28
ENDBRANCH  24  27
ENDBRANCH  22  24
ENDBRANCH   1  21
BRANCH   1  36
ATOM     36  C   UNL     1      -0.540  -2.335   1.364  0.00  0.00    +0.029 C 
BRANCH  36  37
ATOM     37  C   UNL     1       0.413  -3.453   0.895  0.00  0.00    +0.002 C 
ATOM     38  C   UNL     1      -0.006  -4.052  -0.448  0.00  0.00    +0.000 C 
ATOM     39  C   UNL     1       0.475  -4.557   1.954  0.00  0.00    +0.000 C 
ENDBRANCH  36  37
ENDBRANCH   1  36
TORSDOF 11
