10572193
  -OEChem-03292013303D

 53 53  0     1  0  0  0  0  0999 V2000
    2.3205   -1.0093    0.4944 O   0  0  0  0  0  0  0  0  0  0  0  0
    2.6927    2.3951   -0.4953 O   0  0  0  0  0  0  0  0  0  0  0  0
   -2.3744    1.6822    0.5140 O   0  0  0  0  0  0  0  0  0  0  0  0
   -2.6871   -1.4427    0.3290 O   0  0  0  0  0  0  0  0  0  0  0  0
    2.0769   -4.6692    0.3303 O   0  0  0  0  0  0  0  0  0  0  0  0
    0.3718    3.0877    1.5457 O   0  0  0  0  0  0  0  0  0  0  0  0
    3.4739   -0.0512   -1.2587 O   0  0  0  0  0  0  0  0  0  0  0  0
   -3.8373    2.0597   -1.2339 O   0  0  0  0  0  0  0  0  0  0  0  0
   -2.0833   -2.6647   -1.5394 O   0  0  0  0  0  0  0  0  0  0  0  0
    2.0809    1.3117    0.1918 C   0  0  1  0  0  0  0  0  0  0  0  0
    0.5768    1.3131   -0.0762 C   0  0  0  0  0  0  0  0  0  0  0  0
    2.7726   -2.3398    0.1487 C   0  0  2  0  0  0  0  0  0  0  0  0
   -1.5448    2.7826    0.1106 C   0  0  2  0  0  0  0  0  0  0  0  0
   -0.1429    2.4630    0.6186 C   0  0  0  0  0  0  0  0  0  0  0  0
    1.6798   -3.3274    0.5946 C   0  0  1  0  0  0  0  0  0  0  0  0
    2.7160    0.0262   -0.3008 C   0  0  0  0  0  0  0  0  0  0  0  0
   -3.9289   -1.0076   -0.2669 C   0  0  2  0  0  0  0  0  0  0  0  0
   -4.3023    0.3262    0.3768 C   0  0  0  0  0  0  0  0  0  0  0  0
    4.1033   -2.5879    0.8555 C   0  0  0  0  0  0  0  0  0  0  0  0
   -2.0837    4.0762    0.7071 C   0  0  0  0  0  0  0  0  0  0  0  0
    0.4004   -3.0800   -0.1609 C   0  0  0  0  0  0  0  0  0  0  0  0
   -3.5003    1.4567   -0.2228 C   0  0  0  0  0  0  0  0  0  0  0  0
    4.0924    2.4425   -0.2534 C   0  0  0  0  0  0  0  0  0  0  0  0
   -4.9941   -2.0614    0.0156 C   0  0  0  0  0  0  0  0  0  0  0  0
   -0.6833   -2.5341    0.4064 C   0  0  0  0  0  0  0  0  0  0  0  0
   -1.8820   -2.2515   -0.4092 C   0  0  0  0  0  0  0  0  0  0  0  0
    4.6864    3.6039   -1.0214 C   0  0  0  0  0  0  0  0  0  0  0  0
    2.2898    1.4115    1.2646 H   0  0  0  0  0  0  0  0  0  0  0  0
    0.1116    0.3854    0.2703 H   0  0  0  0  0  0  0  0  0  0  0  0
    0.3988    1.4090   -1.1538 H   0  0  0  0  0  0  0  0  0  0  0  0
    2.9269   -2.4256   -0.9353 H   0  0  0  0  0  0  0  0  0  0  0  0
   -1.4937    2.8652   -0.9817 H   0  0  0  0  0  0  0  0  0  0  0  0
    1.5078   -3.2361    1.6737 H   0  0  0  0  0  0  0  0  0  0  0  0
   -3.8040   -0.8808   -1.3495 H   0  0  0  0  0  0  0  0  0  0  0  0
   -4.1453    0.3135    1.4621 H   0  0  0  0  0  0  0  0  0  0  0  0
   -5.3591    0.5667    0.2096 H   0  0  0  0  0  0  0  0  0  0  0  0
    3.9907   -2.4942    1.9412 H   0  0  0  0  0  0  0  0  0  0  0  0
    4.5000   -3.5816    0.6279 H   0  0  0  0  0  0  0  0  0  0  0  0
    4.8469   -1.8433    0.5520 H   0  0  0  0  0  0  0  0  0  0  0  0
   -2.1825    3.9968    1.7957 H   0  0  0  0  0  0  0  0  0  0  0  0
   -1.4262    4.9217    0.4812 H   0  0  0  0  0  0  0  0  0  0  0  0
   -3.0817    4.2993    0.3163 H   0  0  0  0  0  0  0  0  0  0  0  0
    0.3982   -3.3319   -1.2189 H   0  0  0  0  0  0  0  0  0  0  0  0
    4.2585    2.6129    0.8174 H   0  0  0  0  0  0  0  0  0  0  0  0
    4.6569    1.5549   -0.5345 H   0  0  0  0  0  0  0  0  0  0  0  0
   -5.1052   -2.2264    1.0930 H   0  0  0  0  0  0  0  0  0  0  0  0
   -5.9637   -1.7658   -0.3968 H   0  0  0  0  0  0  0  0  0  0  0  0
   -4.7128   -3.0248   -0.4222 H   0  0  0  0  0  0  0  0  0  0  0  0
   -0.6888   -2.2488    1.4531 H   0  0  0  0  0  0  0  0  0  0  0  0
    2.3401   -4.7299   -0.6041 H   0  0  0  0  0  0  0  0  0  0  0  0
    5.7579    3.6988   -0.8232 H   0  0  0  0  0  0  0  0  0  0  0  0
    4.5376    3.4689   -2.0979 H   0  0  0  0  0  0  0  0  0  0  0  0
    4.1932    4.5423   -0.7465 H   0  0  0  0  0  0  0  0  0  0  0  0
  1 12  1  0  0  0  0
  1 16  1  0  0  0  0
  2 10  1  0  0  0  0
  2 23  1  0  0  0  0
  3 13  1  0  0  0  0
  3 22  1  0  0  0  0
  4 17  1  0  0  0  0
  4 26  1  0  0  0  0
  5 15  1  0  0  0  0
  5 50  1  0  0  0  0
  6 14  2  0  0  0  0
  7 16  2  0  0  0  0
  8 22  2  0  0  0  0
  9 26  2  0  0  0  0
 10 11  1  0  0  0  0
 10 16  1  0  0  0  0
 10 28  1  0  0  0  0
 11 14  1  0  0  0  0
 11 29  1  0  0  0  0
 11 30  1  0  0  0  0
 12 15  1  0  0  0  0
 12 19  1  0  0  0  0
 12 31  1  0  0  0  0
 13 14  1  0  0  0  0
 13 20  1  0  0  0  0
 13 32  1  0  0  0  0
 15 21  1  0  0  0  0
 15 33  1  0  0  0  0
 17 18  1  0  0  0  0
 17 24  1  0  0  0  0
 17 34  1  0  0  0  0
 18 22  1  0  0  0  0
 18 35  1  0  0  0  0
 18 36  1  0  0  0  0
 19 37  1  0  0  0  0
 19 38  1  0  0  0  0
 19 39  1  0  0  0  0
 20 40  1  0  0  0  0
 20 41  1  0  0  0  0
 20 42  1  0  0  0  0
 21 25  2  0  0  0  0
 21 43  1  0  0  0  0
 23 27  1  0  0  0  0
 23 44  1  0  0  0  0
 23 45  1  0  0  0  0
 24 46  1  0  0  0  0
 24 47  1  0  0  0  0
 24 48  1  0  0  0  0
 25 26  1  0  0  0  0
 25 49  1  0  0  0  0
 27 51  1  0  0  0  0
 27 52  1  0  0  0  0
 27 53  1  0  0  0  0
M  END
> <PUBCHEM_COMPOUND_CID>
10572193

> <PUBCHEM_CONFORMER_RMSD>
0.8

> <PUBCHEM_CONFORMER_DIVERSEORDER>
1

> <PUBCHEM_MMFF94_PARTIAL_CHARGES>
26
1 -0.43
10 0.34
11 0.06
12 0.28
13 0.34
14 0.45
15 0.42
16 0.66
17 0.28
18 0.06
2 -0.56
21 -0.29
22 0.66
23 0.28
25 -0.14
26 0.71
3 -0.43
4 -0.43
43 0.15
49 0.15
5 -0.68
50 0.4
6 -0.57
7 -0.57
8 -0.57
9 -0.57

> <PUBCHEM_EFFECTIVE_ROTOR_COUNT>
4

> <PUBCHEM_PHARMACOPHORE_FEATURES>
7
1 2 acceptor
1 5 acceptor
1 5 donor
1 6 acceptor
1 7 acceptor
1 8 acceptor
1 9 acceptor

> <PUBCHEM_HEAVY_ATOM_COUNT>
27

> <PUBCHEM_ATOM_DEF_STEREO_COUNT>
5

> <PUBCHEM_ATOM_UDEF_STEREO_COUNT>
0

> <PUBCHEM_BOND_DEF_STEREO_COUNT>
1

> <PUBCHEM_BOND_UDEF_STEREO_COUNT>
0

> <PUBCHEM_ISOTOPIC_ATOM_COUNT>
0

> <PUBCHEM_COMPONENT_COUNT>
1

> <PUBCHEM_CACTVS_TAUTO_COUNT>
3

> <PUBCHEM_CONFORMER_ID>
00A151A100000001

> <PUBCHEM_MMFF94_ENERGY>
46.4424

> <PUBCHEM_FEATURE_SELFOVERLAP>
35.534

> <PUBCHEM_SHAPE_FINGERPRINT>
10074138 170 16831455622117670368
10616163 171 18267869380595169795
10759866 29 18335144219343278020
1100329 8 17906172845921537499
11513181 2 17339830886112494335
12038231 1 17763178446678177355
12553582 1 18124868221237075961
12788726 201 18341903995408645240
12978246 48 18194684769990603009
13122387 1 18411700941920922489
13140716 1 18412261705509215067
13402501 40 18052542359099049581
138480 1 18192993721112630826
14114211 80 18053407644769812411
14117953 113 16825586991155716077
14251757 5 17687756347191507156
14617045 38 18194973056986067313
14765038 42 17984449539677506705
14790565 3 18193000541505158484
14931854 50 18268710691737348909
15629462 23 16914293700486257576
19591789 44 18339924921923657803
19930381 70 18194677292795860643
20905425 154 18270404888869033471
21796203 349 17689195264499051122
22113638 7 17689996734823152689
23559900 14 18267292158465976360
338550 245 18120099385524370432
463206 1 17687192993268190032
6433294 58 18411981347234790952

> <PUBCHEM_SHAPE_MULTIPOLES>
502.82
8.93
6.45
1
1.59
0.82
-0.09
-1.62
-1.57
-3.05
0.74
-0.13
-0.24
-1.71

> <PUBCHEM_SHAPE_SELFOVERLAP>
1006.714

> <PUBCHEM_SHAPE_VOLUME>
293.6

> <PUBCHEM_COORDINATE_TYPE>
2
5
10

$$$$
