10571639
  -OEChem-03292013303D

 43 43  0     1  0  0  0  0  0999 V2000
   -3.7521   -0.3933    0.4440 S   0  0  2  0  0  0  0  0  0  0  0  0
   -5.6628   -2.6567   -0.0869 S   0  0  1  0  0  0  0  0  0  0  0  0
   -2.4240    3.4542   -1.7697 O   0  0  0  0  0  0  0  0  0  0  0  0
   -4.1264   -0.2500    1.8853 O   0  0  0  0  0  0  0  0  0  0  0  0
   -0.0831    2.1857    1.7481 O   0  0  0  0  0  0  0  0  0  0  0  0
   -4.6026   -3.5365   -0.6808 O   0  0  0  0  0  0  0  0  0  0  0  0
    4.0468    1.8320   -0.9289 O   0  0  0  0  0  0  0  0  0  0  0  0
    6.5848   -1.9938   -1.0494 O   0  0  0  0  0  0  0  0  0  0  0  0
   -1.2915    1.4050   -0.0747 N   0  0  0  0  0  0  0  0  0  0  0  0
    4.6823   -1.9496    0.2341 N   0  0  0  0  0  0  0  0  0  0  0  0
    5.3192   -0.0740   -0.9906 N   0  0  0  0  0  0  0  0  0  0  0  0
   -2.5250    2.0895    0.2365 C   0  0  2  0  0  0  0  0  0  0  0  0
   -3.7278    1.2880   -0.2643 C   0  0  0  0  0  0  0  0  0  0  0  0
   -2.5019    3.5031   -0.3506 C   0  0  0  0  0  0  0  0  0  0  0  0
   -5.2267   -0.9340   -0.4671 C   0  0  0  0  0  0  0  0  0  0  0  0
   -0.1651    1.5176    0.7225 C   0  0  0  0  0  0  0  0  0  0  0  0
    0.9750    0.7225    0.1884 C   0  0  0  0  0  0  0  0  0  0  0  0
    3.2888   -0.0274    0.3743 C   0  0  0  0  0  0  0  0  0  0  0  0
    3.5667   -1.3018    0.7242 C   0  0  0  0  0  0  0  0  0  0  0  0
    2.1411    0.7203    0.8362 C   0  0  0  0  0  0  0  0  0  0  0  0
    4.2333    0.6724   -0.5649 C   0  0  0  0  0  0  0  0  0  0  0  0
   -7.0981   -2.7241   -1.1870 C   0  0  0  0  0  0  0  0  0  0  0  0
    2.7498   -2.1637    1.6521 C   0  0  0  0  0  0  0  0  0  0  0  0
    5.5993   -1.3855   -0.6309 C   0  0  0  0  0  0  0  0  0  0  0  0
   -2.5908    2.1822    1.3282 H   0  0  0  0  0  0  0  0  0  0  0  0
   -3.6924    1.1755   -1.3535 H   0  0  0  0  0  0  0  0  0  0  0  0
   -4.6645    1.7878    0.0044 H   0  0  0  0  0  0  0  0  0  0  0  0
   -1.6380    4.0659    0.0187 H   0  0  0  0  0  0  0  0  0  0  0  0
   -3.4123    4.0457   -0.0747 H   0  0  0  0  0  0  0  0  0  0  0  0
   -1.2471    0.8716   -0.9387 H   0  0  0  0  0  0  0  0  0  0  0  0
   -6.0676   -0.2908   -0.1938 H   0  0  0  0  0  0  0  0  0  0  0  0
   -5.0269   -0.8528   -1.5390 H   0  0  0  0  0  0  0  0  0  0  0  0
    0.8277    0.1429   -0.7175 H   0  0  0  0  0  0  0  0  0  0  0  0
   -2.4176    4.3733   -2.0868 H   0  0  0  0  0  0  0  0  0  0  0  0
    2.2992    1.3146    1.7317 H   0  0  0  0  0  0  0  0  0  0  0  0
    4.8390   -2.9087    0.5318 H   0  0  0  0  0  0  0  0  0  0  0  0
   -7.5204   -3.7308   -1.1464 H   0  0  0  0  0  0  0  0  0  0  0  0
   -6.7933   -2.4998   -2.2120 H   0  0  0  0  0  0  0  0  0  0  0  0
   -7.8480   -2.0038   -0.8521 H   0  0  0  0  0  0  0  0  0  0  0  0
    2.3779   -3.0467    1.1210 H   0  0  0  0  0  0  0  0  0  0  0  0
    1.8839   -1.6396    2.0667 H   0  0  0  0  0  0  0  0  0  0  0  0
    3.3617   -2.4996    2.4965 H   0  0  0  0  0  0  0  0  0  0  0  0
    5.9701    0.3788   -1.6259 H   0  0  0  0  0  0  0  0  0  0  0  0
  1  4  2  0  0  0  0
  1 13  1  0  0  0  0
  1 15  1  0  0  0  0
  2  6  2  0  0  0  0
  2 15  1  0  0  0  0
  2 22  1  0  0  0  0
  3 14  1  0  0  0  0
  3 34  1  0  0  0  0
  5 16  2  0  0  0  0
  7 21  2  0  0  0  0
  8 24  2  0  0  0  0
  9 12  1  0  0  0  0
  9 16  1  0  0  0  0
  9 30  1  0  0  0  0
 10 19  1  0  0  0  0
 10 24  1  0  0  0  0
 10 36  1  0  0  0  0
 11 21  1  0  0  0  0
 11 24  1  0  0  0  0
 11 43  1  0  0  0  0
 12 13  1  0  0  0  0
 12 14  1  0  0  0  0
 12 25  1  0  0  0  0
 13 26  1  0  0  0  0
 13 27  1  0  0  0  0
 14 28  1  0  0  0  0
 14 29  1  0  0  0  0
 15 31  1  0  0  0  0
 15 32  1  0  0  0  0
 16 17  1  0  0  0  0
 17 20  2  0  0  0  0
 17 33  1  0  0  0  0
 18 19  2  0  0  0  0
 18 20  1  0  0  0  0
 18 21  1  0  0  0  0
 19 23  1  0  0  0  0
 20 35  1  0  0  0  0
 22 37  1  0  0  0  0
 22 38  1  0  0  0  0
 22 39  1  0  0  0  0
 23 40  1  0  0  0  0
 23 41  1  0  0  0  0
 23 42  1  0  0  0  0
M  END
> <PUBCHEM_COMPOUND_CID>
10571639

> <PUBCHEM_CONFORMER_RMSD>
1

> <PUBCHEM_CONFORMER_DIVERSEORDER>
1
78
167
137
92
138
141
38
35
130
74
150
48
155
61
107
159
89
143
178
30
123
59
36
53
62
153
71
72
197
5
42
173
85
81
4
86
88
91
176
200
132
161
3
7
177
87
64
73
129
120
170
50
28
90
98
45
158
80
164
105
31
101
47
14
12
79
110
133
13
149
179
175
154
40
112
162
148
198
102
171
196
24
97
151
147
116
15
57
125
108
34
100
199
146
168
183
52
49
134
8
19
145
11
37
103
46
122
58
32
63
99
77
17
27
83
115
56
113
181
189
66
82
192
94
109
144
55
21
93
68
139
186
111
16
156
193
6
18
51
152
165
60
33
188
22
41
157
194
20
121
166
184
174
190
2
127
119
44
142
172
69
67
182
106
135
29
95
114
10
26
140
195
70
25
128
54
124
84
131
117
23
9
104
136
185
118
126
43
39
65
96
75
180
191
163
169
187
76
160

> <PUBCHEM_MMFF94_PARTIAL_CHARGES>
30
1 0.11
10 -0.54
11 -0.49
12 0.3
13 0.19
14 0.28
15 0.39
16 0.62
17 -0.14
18 0.01
19 -0.03
2 0.11
20 -0.15
21 0.62
22 0.19
23 0.14
24 0.69
3 -0.68
30 0.37
33 0.15
34 0.4
35 0.15
36 0.37
4 -0.5
43 0.37
5 -0.57
6 -0.5
7 -0.57
8 -0.57
9 -0.73

> <PUBCHEM_EFFECTIVE_ROTOR_COUNT>
9

> <PUBCHEM_PHARMACOPHORE_FEATURES>
11
1 10 donor
1 11 donor
1 3 acceptor
1 3 donor
1 4 acceptor
1 5 acceptor
1 6 acceptor
1 7 acceptor
1 8 acceptor
1 9 donor
6 10 11 18 19 21 24 rings

> <PUBCHEM_HEAVY_ATOM_COUNT>
24

> <PUBCHEM_ATOM_DEF_STEREO_COUNT>
3

> <PUBCHEM_ATOM_UDEF_STEREO_COUNT>
0

> <PUBCHEM_BOND_DEF_STEREO_COUNT>
1

> <PUBCHEM_BOND_UDEF_STEREO_COUNT>
0

> <PUBCHEM_ISOTOPIC_ATOM_COUNT>
0

> <PUBCHEM_COMPONENT_COUNT>
1

> <PUBCHEM_CACTVS_TAUTO_COUNT>
21

> <PUBCHEM_CONFORMER_ID>
00A14F7700000001

> <PUBCHEM_MMFF94_ENERGY>
41.4302

> <PUBCHEM_FEATURE_SELFOVERLAP>
55.873

> <PUBCHEM_SHAPE_FINGERPRINT>
10622 236 17970329439286195715
10928967 22 18130775768148216255
11056379 131 18337673014651673541
11315621 246 18337676321391032263
11552529 35 18335980853044856165
11796584 16 18198062482648903476
12592606 108 18269272530344740471
13103583 49 17703246078261944649
13167823 11 18261959535750556080
13631057 29 18410855460296960674
13690498 29 18335139765562230341
14251757 5 18408606980488500035
14251764 30 18343302608548274423
14347332 77 18335134272167105345
14931854 50 18113892771762712315
15238133 3 10807927194160729762
15250474 111 18116422657412156651
21054139 6 18260549992304326346
21307412 95 18340474613835250613
21401589 2 9151180874515146293
22393880 68 18189337871068141608
23522609 53 18054824842518593225
23559900 14 18335698308842945488
270888 7 7925644301837072567
2748736 6 8141823663893832871
2838139 119 11025798729701549331
444735 86 18334287660872637323
465052 167 17917715729300948310
484985 159 18201442411905981345
7970288 3 18202004300438354534
8863177 126 18202279238300260675

> <PUBCHEM_SHAPE_MULTIPOLES>
451.45
16.91
4.13
1.36
1.58
0.72
-0.25
-17.37
6.16
5.37
1.05
-0.03
0.09
-0.79

> <PUBCHEM_SHAPE_SELFOVERLAP>
880.761

> <PUBCHEM_SHAPE_VOLUME>
272.2

> <PUBCHEM_COORDINATE_TYPE>
2
5
10

$$$$
