REMARK  Name = 10571940
REMARK  9 active torsions:
REMARK  status: ('A' for Active; 'I' for Inactive)
REMARK    1  A    between atoms: C_2  and  O_8
REMARK    2  A    between atoms: C_2  and  C_21
REMARK    3  A    between atoms: C_3  and  O_10
REMARK    4  A    between atoms: C_4  and  O_12
REMARK    5  A    between atoms: O_12  and  C_14
REMARK    6  A    between atoms: C_14  and  C_15
REMARK    7  A    between atoms: C_21  and  O_22
REMARK    8  A    between atoms: O_22  and  C_24
REMARK    9  A    between atoms: C_24  and  C_25
REMARK                            x       y       z     vdW  Elec       q    Type
REMARK                         _______ _______ _______ _____ _____    ______ ____
ROOT
ATOM      1  O   UNL     1      -1.329  -3.357  -0.268  0.00  0.00    -0.289 OA
ATOM      2  C   UNL     1       0.324  -1.864   0.684  0.00  0.00    +0.212 C 
ATOM      3  C   UNL     1       1.847  -2.043   0.808  0.00  0.00    +0.190 C 
ATOM      4  C   UNL     1       2.584  -1.949  -0.537  0.00  0.00    +0.221 C 
ATOM      5  C   UNL     1      -0.235  -2.807  -0.380  0.00  0.00    +0.203 C 
ATOM      6  C   UNL     1       1.835  -2.593  -1.669  0.00  0.00    +0.022 C 
ATOM      7  C   UNL     1       0.568  -3.017  -1.611  0.00  0.00    +0.039 C 
ENDROOT
BRANCH   2   8
ATOM      8  O   UNL     1      -0.270  -2.189   1.937  0.00  0.00    -0.374 OA
ATOM      9  H   UNL     1       0.077  -1.597   2.623  0.00  0.00    +0.211 HD
ENDBRANCH   2   8
BRANCH   3  10
ATOM     10  O   UNL     1       2.137  -3.318   1.396  0.00  0.00    -0.378 OA
ATOM     11  H   UNL     1       1.678  -3.393   2.248  0.00  0.00    +0.211 HD
ENDBRANCH   3  10
BRANCH   4  12
ATOM     12  O   UNL     1       2.817  -0.589  -0.887  0.00  0.00    -0.442 OA
BRANCH  12  14
ATOM     13  O   UNL     1       4.325  -0.260   0.822  0.00  0.00    -0.245 OA
ATOM     14  C   UNL     1       3.491   0.155   0.032  0.00  0.00    +0.341 C 
BRANCH  14  15
ATOM     15  C   UNL     1       3.077   1.579  -0.041  0.00  0.00    +0.076 C 
ATOM     16  C   UNL     1       3.118   2.346   1.105  0.00  0.00    +0.006 C 
ATOM     17  C   UNL     1       2.663   2.092  -1.254  0.00  0.00    +0.006 C 
ATOM     18  C   UNL     1       2.728   3.683   1.036  0.00  0.00    +0.000 C 
ATOM     19  C   UNL     1       2.274   3.429  -1.323  0.00  0.00    +0.000 C 
ATOM     20  C   UNL     1       2.306   4.225  -0.178  0.00  0.00    +0.000 C 
ENDBRANCH  14  15
ENDBRANCH  12  14
ENDBRANCH   4  12
BRANCH   2  21
ATOM     21  C   UNL     1      -0.078  -0.427   0.336  0.00  0.00    +0.245 C 
BRANCH  21  22
ATOM     22  O   UNL     1      -1.490  -0.356   0.298  0.00  0.00    -0.442 OA
BRANCH  22  24
ATOM     23  O   UNL     1      -1.395   1.882  -0.233  0.00  0.00    -0.245 OA
ATOM     24  C   UNL     1      -2.026   0.864   0.000  0.00  0.00    +0.341 C 
BRANCH  24  25
ATOM     25  C   UNL     1      -3.510   0.806  -0.007  0.00  0.00    +0.076 C 
ATOM     26  C   UNL     1      -4.223   1.936   0.336  0.00  0.00    +0.006 C 
ATOM     27  C   UNL     1      -4.130  -0.377  -0.355  0.00  0.00    +0.006 C 
ATOM     28  C   UNL     1      -5.617   1.882   0.330  0.00  0.00    +0.000 C 
ATOM     29  C   UNL     1      -5.524  -0.431  -0.362  0.00  0.00    +0.000 C 
ATOM     30  C   UNL     1      -6.267   0.698  -0.019  0.00  0.00    +0.000 C 
ENDBRANCH  24  25
ENDBRANCH  22  24
ENDBRANCH  21  22
ENDBRANCH   2  21
TORSDOF 9
