REMARK  Name = 10573961
REMARK  10 active torsions:
REMARK  status: ('A' for Active; 'I' for Inactive)
REMARK    1  A    between atoms: C_3  and  C_22
REMARK    2  A    between atoms: C_4  and  O_20
REMARK    3  A    between atoms: C_22  and  C_23
REMARK    4  A    between atoms: C_23  and  O_24
REMARK    5  A    between atoms: C_23  and  C_26
REMARK    6  A    between atoms: C_26  and  O_27
REMARK    7  A    between atoms: C_26  and  C_29
REMARK    8  A    between atoms: C_29  and  O_31
REMARK    9  A    between atoms: C_29  and  C_33
REMARK   10  A    between atoms: C_33  and  O_34
REMARK                            x       y       z     vdW  Elec       q    Type
REMARK                         _______ _______ _______ _____ _____    ______ ____
ROOT
ATOM      1  C   UNL     1       1.752  -2.122  -0.416  0.00  0.00    +0.010 C 
ATOM      2  C   UNL     1       0.943  -0.816  -0.795  0.00  0.00    +0.025 C 
ATOM      3  C   UNL     1      -0.425  -0.953  -0.063  0.00  0.00    +0.031 C 
ATOM      4  C   UNL     1      -0.688  -2.472  -0.216  0.00  0.00    +0.111 C 
ATOM      5  C   UNL     1       0.665  -3.148   0.017  0.00  0.00    +0.030 C 
ATOM      6  C   UNL     1       2.790  -1.952   0.741  0.00  0.00    +0.023 C 
ATOM      7  C   UNL     1       1.714   0.470  -0.631  0.00  0.00    -0.023 C 
ATOM      8  C   UNL     1       2.497  -2.640  -1.667  0.00  0.00    +0.001 C 
ATOM      9  C   UNL     1      -0.377  -0.564   1.426  0.00  0.00    +0.003 C 
ATOM     10  C   UNL     1       3.544  -0.674   0.681  0.00  0.00    -0.041 C 
ATOM     11  C   UNL     1       2.925   0.463   0.034  0.00  0.00    -0.012 C 
ATOM     12  C   UNL     1       3.753   1.582   0.136  0.00  0.00    -0.009 C 
ATOM     13  C   UNL     1       4.743  -0.276   1.145  0.00  0.00    +0.040 C 
ATOM     14  C   UNL     1       1.327   1.689  -1.200  0.00  0.00    -0.005 C 
ATOM     15  C   UNL     1       5.007   1.196   0.859  0.00  0.00    -0.023 C 
ATOM     16  C   UNL     1       3.368   2.787  -0.411  0.00  0.00    -0.022 C 
ATOM     17  C   UNL     1       2.140   2.836  -1.081  0.00  0.00    -0.005 C 
ATOM     18  C   UNL     1       5.744  -1.081   1.894  0.00  0.00    +0.009 C 
ATOM     19  C   UNL     1       4.224   3.999  -0.308  0.00  0.00    +0.031 C 
ENDROOT
BRANCH   4  20
ATOM     20  O   UNL     1      -1.111  -2.808  -1.536  0.00  0.00    -0.384 OA
ATOM     21  H   UNL     1      -1.969  -2.393  -1.716  0.00  0.00    +0.210 HD
ENDBRANCH   4  20
BRANCH   3  22
ATOM     22  C   UNL     1      -1.532  -0.118  -0.730  0.00  0.00    +0.034 C 
BRANCH  22  23
ATOM     23  C   UNL     1      -2.867  -0.154   0.021  0.00  0.00    +0.140 C 
BRANCH  23  24
ATOM     24  O   UNL     1      -3.289  -1.505   0.179  0.00  0.00    -0.382 OA
ATOM     25  H   UNL     1      -2.580  -2.019   0.596  0.00  0.00    +0.210 HD
ENDBRANCH  23  24
BRANCH  23  26
ATOM     26  C   UNL     1      -3.990   0.673  -0.643  0.00  0.00    +0.164 C 
BRANCH  26  27
ATOM     27  O   UNL     1      -3.548   2.021  -0.802  0.00  0.00    -0.380 OA
ATOM     28  H   UNL     1      -2.689   2.028  -1.253  0.00  0.00    +0.211 HD
ENDBRANCH  26  27
BRANCH  26  29
ATOM     29  C   UNL     1      -5.370   0.649   0.081  0.00  0.00    +0.142 C 
ATOM     30  C   UNL     1      -6.439   1.486  -0.633  0.00  0.00    +0.034 C 
BRANCH  29  31
ATOM     31  O   UNL     1      -5.858  -0.697   0.118  0.00  0.00    -0.382 OA
ATOM     32  H   UNL     1      -5.209  -1.264   0.564  0.00  0.00    +0.210 HD
ENDBRANCH  29  31
BRANCH  29  33
ATOM     33  C   UNL     1      -5.209   1.121   1.541  0.00  0.00    +0.166 C 
BRANCH  33  34
ATOM     34  O   UNL     1      -6.432   1.008   2.261  0.00  0.00    -0.379 OA
ATOM     35  H   UNL     1      -6.299   1.312   3.173  0.00  0.00    +0.211 HD
ENDBRANCH  33  34
ENDBRANCH  29  33
ENDBRANCH  26  29
ENDBRANCH  23  26
ENDBRANCH  22  23
ENDBRANCH   3  22
TORSDOF 10
