10571940
  -OEChem-03292013303D

 46 48  0     1  0  0  0  0  0999 V2000
   -0.2696   -2.1893    1.9374 O   0  0  0  0  0  0  0  0  0  0  0  0
    2.1368   -3.3180    1.3964 O   0  0  0  0  0  0  0  0  0  0  0  0
    2.8174   -0.5890   -0.8866 O   0  0  0  0  0  0  0  0  0  0  0  0
   -1.4904   -0.3557    0.2983 O   0  0  0  0  0  0  0  0  0  0  0  0
   -1.3288   -3.3570   -0.2679 O   0  0  0  0  0  0  0  0  0  0  0  0
    4.3249   -0.2600    0.8217 O   0  0  0  0  0  0  0  0  0  0  0  0
   -1.3948    1.8824   -0.2327 O   0  0  0  0  0  0  0  0  0  0  0  0
    0.3235   -1.8639    0.6842 C   0  0  2  0  0  0  0  0  0  0  0  0
    1.8471   -2.0430    0.8077 C   0  0  2  0  0  0  0  0  0  0  0  0
    2.5838   -1.9493   -0.5368 C   0  0  1  0  0  0  0  0  0  0  0  0
   -0.0782   -0.4274    0.3364 C   0  0  0  0  0  0  0  0  0  0  0  0
   -0.2350   -2.8066   -0.3795 C   0  0  0  0  0  0  0  0  0  0  0  0
    1.8353   -2.5932   -1.6687 C   0  0  0  0  0  0  0  0  0  0  0  0
    0.5676   -3.0174   -1.6109 C   0  0  0  0  0  0  0  0  0  0  0  0
    3.4910    0.1553    0.0319 C   0  0  0  0  0  0  0  0  0  0  0  0
   -2.0265    0.8635    0.0003 C   0  0  0  0  0  0  0  0  0  0  0  0
    3.0768    1.5792   -0.0414 C   0  0  0  0  0  0  0  0  0  0  0  0
   -3.5102    0.8059   -0.0067 C   0  0  0  0  0  0  0  0  0  0  0  0
    3.1178    2.3457    1.1052 C   0  0  0  0  0  0  0  0  0  0  0  0
    2.6634    2.0916   -1.2539 C   0  0  0  0  0  0  0  0  0  0  0  0
   -4.2232    1.9364    0.3360 C   0  0  0  0  0  0  0  0  0  0  0  0
   -4.1297   -0.3767   -0.3552 C   0  0  0  0  0  0  0  0  0  0  0  0
    2.7283    3.6833    1.0363 C   0  0  0  0  0  0  0  0  0  0  0  0
    2.2740    3.4292   -1.3230 C   0  0  0  0  0  0  0  0  0  0  0  0
    2.3064    4.2250   -0.1778 C   0  0  0  0  0  0  0  0  0  0  0  0
   -5.6171    1.8819    0.3298 C   0  0  0  0  0  0  0  0  0  0  0  0
   -5.5235   -0.4311   -0.3616 C   0  0  0  0  0  0  0  0  0  0  0  0
   -6.2672    0.6982   -0.0191 C   0  0  0  0  0  0  0  0  0  0  0  0
    2.2122   -1.3165    1.5398 H   0  0  0  0  0  0  0  0  0  0  0  0
    3.5536   -2.4596   -0.4634 H   0  0  0  0  0  0  0  0  0  0  0  0
    0.3136   -0.1219   -0.6387 H   0  0  0  0  0  0  0  0  0  0  0  0
    0.2862    0.2592    1.1099 H   0  0  0  0  0  0  0  0  0  0  0  0
    2.3849   -2.7412   -2.5953 H   0  0  0  0  0  0  0  0  0  0  0  0
    0.0940   -3.5089   -2.4523 H   0  0  0  0  0  0  0  0  0  0  0  0
   -1.2209   -1.9947    1.8792 H   0  0  0  0  0  0  0  0  0  0  0  0
    1.6371   -3.3740    2.2289 H   0  0  0  0  0  0  0  0  0  0  0  0
    3.4402    1.9337    2.0569 H   0  0  0  0  0  0  0  0  0  0  0  0
    2.6404    1.4968   -2.1620 H   0  0  0  0  0  0  0  0  0  0  0  0
   -3.7285    2.8626    0.6126 H   0  0  0  0  0  0  0  0  0  0  0  0
   -3.5739   -1.2652   -0.6385 H   0  0  0  0  0  0  0  0  0  0  0  0
    2.7523    4.3027    1.9281 H   0  0  0  0  0  0  0  0  0  0  0  0
    1.9476    3.8519   -2.2687 H   0  0  0  0  0  0  0  0  0  0  0  0
    2.0033    5.2666   -0.2317 H   0  0  0  0  0  0  0  0  0  0  0  0
   -6.1962    2.7610    0.5971 H   0  0  0  0  0  0  0  0  0  0  0  0
   -6.0301   -1.3518   -0.6361 H   0  0  0  0  0  0  0  0  0  0  0  0
   -7.3524    0.6559   -0.0245 H   0  0  0  0  0  0  0  0  0  0  0  0
  1  8  1  0  0  0  0
  1 35  1  0  0  0  0
  2  9  1  0  0  0  0
  2 36  1  0  0  0  0
  3 10  1  0  0  0  0
  3 15  1  0  0  0  0
  4 11  1  0  0  0  0
  4 16  1  0  0  0  0
  5 12  2  0  0  0  0
  6 15  2  0  0  0  0
  7 16  2  0  0  0  0
  8  9  1  0  0  0  0
  8 11  1  0  0  0  0
  8 12  1  0  0  0  0
  9 10  1  0  0  0  0
  9 29  1  0  0  0  0
 10 13  1  0  0  0  0
 10 30  1  0  0  0  0
 11 31  1  0  0  0  0
 11 32  1  0  0  0  0
 12 14  1  0  0  0  0
 13 14  2  0  0  0  0
 13 33  1  0  0  0  0
 14 34  1  0  0  0  0
 15 17  1  0  0  0  0
 16 18  1  0  0  0  0
 17 19  2  0  0  0  0
 17 20  1  0  0  0  0
 18 21  2  0  0  0  0
 18 22  1  0  0  0  0
 19 23  1  0  0  0  0
 19 37  1  0  0  0  0
 20 24  2  0  0  0  0
 20 38  1  0  0  0  0
 21 26  1  0  0  0  0
 21 39  1  0  0  0  0
 22 27  2  0  0  0  0
 22 40  1  0  0  0  0
 23 25  2  0  0  0  0
 23 41  1  0  0  0  0
 24 25  1  0  0  0  0
 24 42  1  0  0  0  0
 25 43  1  0  0  0  0
 26 28  2  0  0  0  0
 26 44  1  0  0  0  0
 27 28  1  0  0  0  0
 27 45  1  0  0  0  0
 28 46  1  0  0  0  0
M  END
> <PUBCHEM_COMPOUND_CID>
10571940

> <PUBCHEM_CONFORMER_RMSD>
1

> <PUBCHEM_CONFORMER_DIVERSEORDER>
1
119
130
63
91
55
14
76
32
77
120
75
90
133
68
15
127
123
111
65
42
51
11
62
47
44
126
84
35
104
40
85
29
97
103
122
57
129
41
39
106
121
28
83
138
81
50
21
102
64
114
38
33
5
134
131
107
94
92
87
18
6
78
105
58
12
96
16
109
34
69
73
108
26
3
61
125
132
20
79
82
60
49
19
13
86
115
23
113
136
118
128
99
95
36
27
93
56
100
30
22
70
89
98
117
31
59
45
101
124
67
110
8
53
46
52
88
43
66
71
112
74
48
2
116
25
137
9
54
72
135
80
7
17
37
10
4
24

> <PUBCHEM_MMFF94_PARTIAL_CHARGES>
42
1 -0.68
10 0.42
11 0.28
12 0.49
13 -0.29
14 -0.14
15 0.63
16 0.63
17 0.09
18 0.09
19 -0.15
2 -0.68
20 -0.15
21 -0.15
22 -0.15
23 -0.15
24 -0.15
25 -0.15
26 -0.15
27 -0.15
28 -0.15
3 -0.43
33 0.15
34 0.15
35 0.4
36 0.4
37 0.15
38 0.15
39 0.15
4 -0.43
40 0.15
41 0.15
42 0.15
43 0.15
44 0.15
45 0.15
46 0.15
5 -0.57
6 -0.57
7 -0.57
8 0.34
9 0.28

> <PUBCHEM_EFFECTIVE_ROTOR_COUNT>
7.6

> <PUBCHEM_PHARMACOPHORE_FEATURES>
10
1 1 acceptor
1 1 donor
1 2 acceptor
1 2 donor
1 5 acceptor
1 6 acceptor
1 7 acceptor
6 17 19 20 23 24 25 rings
6 18 21 22 26 27 28 rings
6 8 9 10 12 13 14 rings

> <PUBCHEM_HEAVY_ATOM_COUNT>
28

> <PUBCHEM_ATOM_DEF_STEREO_COUNT>
3

> <PUBCHEM_ATOM_UDEF_STEREO_COUNT>
0

> <PUBCHEM_BOND_DEF_STEREO_COUNT>
0

> <PUBCHEM_BOND_UDEF_STEREO_COUNT>
0

> <PUBCHEM_ISOTOPIC_ATOM_COUNT>
0

> <PUBCHEM_COMPONENT_COUNT>
1

> <PUBCHEM_CACTVS_TAUTO_COUNT>
1

> <PUBCHEM_CONFORMER_ID>
00A150A400000001

> <PUBCHEM_MMFF94_ENERGY>
77.529

> <PUBCHEM_FEATURE_SELFOVERLAP>
50.767

> <PUBCHEM_SHAPE_FINGERPRINT>
10871710 139 17186168007259367276
10930396 42 18266724794352207482
12925494 130 18195242214451163337
13140716 1 18264484160503094208
1361 2 18337389469590559349
13617811 41 18124296463044391005
13761468 95 16969748891629179828
14251764 38 18336267963229025457
14468879 13 18119254110306694057
14790565 3 18341614850084528623
17349148 13 13334737921331717273
17980427 23 18056167307502982930
18681886 176 18271239409293786042
20567600 299 18270116803579412657
20715895 44 18342171193639556081
21197605 99 18193844958172306099
21860390 5 18340774736647343678
22149856 69 17989216941356269603
23558518 356 18120648291172273106
23559900 14 18129102225962280255
238 59 18339939159312995848
239999 70 18341616954233739223
3298306 158 18339363088567099665
338550 245 18337951306762238341
394071 54 18269845216566587121
474 4 18335142011613965093
513532 50 17988932128714625318
5312544 6 18410293648800432229
53794403 172 18263654020239128365
57527585 21 14258000240241087864
6036956 94 16533129620446818413
6287921 2 18342740680876054525
6443956 14 18195252117774822748
653340 110 17334485498527806240

> <PUBCHEM_SHAPE_MULTIPOLES>
535.14
10.19
5.3
1.3
18.19
0.9
0.02
6.86
-0.19
-5.16
0.36
-1.06
-0.52
-0.25

> <PUBCHEM_SHAPE_SELFOVERLAP>
1162.299

> <PUBCHEM_SHAPE_VOLUME>
287.1

> <PUBCHEM_COORDINATE_TYPE>
2
5
10

$$$$
