10575150
  -OEChem-03292013303D

 59 62  0     1  0  0  0  0  0999 V2000
    3.8705   -0.0872    0.1820 O   0  0  0  0  0  0  0  0  0  0  0  0
    5.0778    2.6417   -0.3501 O   0  0  0  0  0  0  0  0  0  0  0  0
   -3.9313    0.6233   -0.8290 O   0  0  0  0  0  0  0  0  0  0  0  0
   -2.5608    2.6306    0.3680 O   0  0  0  0  0  0  0  0  0  0  0  0
   -2.5142   -1.4706   -1.8433 O   0  0  0  0  0  0  0  0  0  0  0  0
   -3.1165   -0.4579    1.0387 O   0  0  0  0  0  0  0  0  0  0  0  0
   -5.3117   -2.6257    0.7886 O   0  0  0  0  0  0  0  0  0  0  0  0
    1.6397    2.7192    0.4082 N   0  0  1  0  0  0  0  0  0  0  0  0
    2.3927    1.6545   -0.2231 C   0  0  1  0  0  0  0  0  0  0  0  0
    3.4640    1.1755    0.7265 C   0  0  2  0  0  0  0  0  0  0  0  0
    4.4998    2.2763    0.8970 C   0  0  2  0  0  0  0  0  0  0  0  0
    1.6710    0.3630   -0.3941 C   0  0  0  0  0  0  0  0  0  0  0  0
    3.7620    3.4983    1.4943 C   0  0  0  0  0  0  0  0  0  0  0  0
    2.4530    3.8920    0.7585 C   0  0  0  0  0  0  0  0  0  0  0  0
    0.2319    0.4446   -0.6184 C   0  0  0  0  0  0  0  0  0  0  0  0
    2.5934   -0.5931   -0.2005 C   0  0  0  0  0  0  0  0  0  0  0  0
    0.2564    2.7115    0.3110 C   0  0  0  0  0  0  0  0  0  0  0  0
   -0.4538    1.6739   -0.1765 C   0  0  0  0  0  0  0  0  0  0  0  0
   -2.6096    0.8704   -1.2743 C   0  0  1  0  0  0  0  0  0  0  0  0
   -1.9331    1.7993   -0.2843 C   0  0  0  0  0  0  0  0  0  0  0  0
   -0.4485   -0.5427   -1.2245 C   0  0  0  0  0  0  0  0  0  0  0  0
   -1.9136   -0.4652   -1.4649 C   0  0  0  0  0  0  0  0  0  0  0  0
    2.4858   -2.0177   -0.2112 C   0  0  0  0  0  0  0  0  0  0  0  0
   -2.7028    1.5753   -2.6271 C   0  0  0  0  0  0  0  0  0  0  0  0
    3.5246   -2.8434    0.0048 C   0  0  0  0  0  0  0  0  0  0  0  0
   -4.0497   -0.0584    0.3563 C   0  0  0  0  0  0  0  0  0  0  0  0
    3.4072   -4.2846   -0.0087 C   0  0  0  0  0  0  0  0  0  0  0  0
   -5.5170   -0.2355    0.6877 C   0  0  0  0  0  0  0  0  0  0  0  0
   -5.7796   -1.4927    1.5178 C   0  0  1  0  0  0  0  0  0  0  0  0
    4.4442   -5.1073    0.2069 C   0  0  0  0  0  0  0  0  0  0  0  0
   -7.2677   -1.6707    1.7893 C   0  0  0  0  0  0  0  0  0  0  0  0
    4.3360   -6.5969    0.1944 C   0  0  0  0  0  0  0  0  0  0  0  0
    2.7651    1.9725   -1.2068 H   0  0  0  0  0  0  0  0  0  0  0  0
    3.0578    0.9674    1.7328 H   0  0  0  0  0  0  0  0  0  0  0  0
    5.3143    1.9476    1.5495 H   0  0  0  0  0  0  0  0  0  0  0  0
    3.5067    3.2679    2.5368 H   0  0  0  0  0  0  0  0  0  0  0  0
    4.4283    4.3688    1.5080 H   0  0  0  0  0  0  0  0  0  0  0  0
    2.6961    4.4406   -0.1594 H   0  0  0  0  0  0  0  0  0  0  0  0
    1.8840    4.5758    1.3997 H   0  0  0  0  0  0  0  0  0  0  0  0
   -0.2001    3.6357    0.6465 H   0  0  0  0  0  0  0  0  0  0  0  0
    0.0256   -1.4477   -1.5844 H   0  0  0  0  0  0  0  0  0  0  0  0
    4.4653    3.2188   -0.8340 H   0  0  0  0  0  0  0  0  0  0  0  0
    1.5065   -2.4498   -0.3862 H   0  0  0  0  0  0  0  0  0  0  0  0
   -1.7135    1.7938   -3.0437 H   0  0  0  0  0  0  0  0  0  0  0  0
   -3.2484    0.9610   -3.3531 H   0  0  0  0  0  0  0  0  0  0  0  0
   -3.2508    2.5208   -2.5398 H   0  0  0  0  0  0  0  0  0  0  0  0
    4.5203   -2.4486    0.1928 H   0  0  0  0  0  0  0  0  0  0  0  0
    2.4233   -4.7031   -0.2047 H   0  0  0  0  0  0  0  0  0  0  0  0
   -5.8565    0.6609    1.2171 H   0  0  0  0  0  0  0  0  0  0  0  0
   -6.0653   -0.3117   -0.2599 H   0  0  0  0  0  0  0  0  0  0  0  0
   -5.2275   -1.4555    2.4627 H   0  0  0  0  0  0  0  0  0  0  0  0
    5.4325   -4.6988    0.4041 H   0  0  0  0  0  0  0  0  0  0  0  0
   -7.4432   -2.5933    2.3528 H   0  0  0  0  0  0  0  0  0  0  0  0
   -7.6692   -0.8295    2.3624 H   0  0  0  0  0  0  0  0  0  0  0  0
   -7.8333   -1.7611    0.8553 H   0  0  0  0  0  0  0  0  0  0  0  0
    3.3162   -6.9379   -0.0102 H   0  0  0  0  0  0  0  0  0  0  0  0
    4.9949   -7.0115   -0.5746 H   0  0  0  0  0  0  0  0  0  0  0  0
    4.6425   -7.0006    1.1642 H   0  0  0  0  0  0  0  0  0  0  0  0
   -5.8041   -2.6690   -0.0490 H   0  0  0  0  0  0  0  0  0  0  0  0
  1 10  1  0  0  0  0
  1 16  1  0  0  0  0
  2 11  1  0  0  0  0
  2 42  1  0  0  0  0
  3 19  1  0  0  0  0
  3 26  1  0  0  0  0
  4 20  2  0  0  0  0
  5 22  2  0  0  0  0
  6 26  2  0  0  0  0
  7 29  1  0  0  0  0
  7 59  1  0  0  0  0
  8  9  1  0  0  0  0
  8 14  1  0  0  0  0
  8 17  1  0  0  0  0
  9 10  1  0  0  0  0
  9 12  1  0  0  0  0
  9 33  1  0  0  0  0
 10 11  1  0  0  0  0
 10 34  1  0  0  0  0
 11 13  1  0  0  0  0
 11 35  1  0  0  0  0
 12 15  1  0  0  0  0
 12 16  2  0  0  0  0
 13 14  1  0  0  0  0
 13 36  1  0  0  0  0
 13 37  1  0  0  0  0
 14 38  1  0  0  0  0
 14 39  1  0  0  0  0
 15 18  1  0  0  0  0
 15 21  2  0  0  0  0
 16 23  1  0  0  0  0
 17 18  2  0  0  0  0
 17 40  1  0  0  0  0
 18 20  1  0  0  0  0
 19 20  1  0  0  0  0
 19 22  1  0  0  0  0
 19 24  1  0  0  0  0
 21 22  1  0  0  0  0
 21 41  1  0  0  0  0
 23 25  2  0  0  0  0
 23 43  1  0  0  0  0
 24 44  1  0  0  0  0
 24 45  1  0  0  0  0
 24 46  1  0  0  0  0
 25 27  1  0  0  0  0
 25 47  1  0  0  0  0
 26 28  1  0  0  0  0
 27 30  2  0  0  0  0
 27 48  1  0  0  0  0
 28 29  1  0  0  0  0
 28 49  1  0  0  0  0
 28 50  1  0  0  0  0
 29 31  1  0  0  0  0
 29 51  1  0  0  0  0
 30 32  1  0  0  0  0
 30 52  1  0  0  0  0
 31 53  1  0  0  0  0
 31 54  1  0  0  0  0
 31 55  1  0  0  0  0
 32 56  1  0  0  0  0
 32 57  1  0  0  0  0
 32 58  1  0  0  0  0
M  END
> <PUBCHEM_COMPOUND_CID>
10575150

> <PUBCHEM_CONFORMER_RMSD>
1

> <PUBCHEM_CONFORMER_DIVERSEORDER>
1
10
18
2
14
12
11
16
9
15
19
3
20
13
8
4
17
7
6
5

> <PUBCHEM_MMFF94_PARTIAL_CHARGES>
36
1 -0.36
10 0.28
11 0.28
12 -0.14
14 0.37
16 0.08
17 -0.05
18 0.01
19 0.4
2 -0.68
20 0.49
21 -0.14
22 0.49
23 -0.15
25 -0.15
26 0.66
27 -0.15
28 0.06
29 0.28
3 -0.43
30 -0.29
32 0.14
4 -0.57
40 0.15
41 0.15
42 0.4
43 0.15
47 0.15
48 0.15
5 -0.57
52 0.15
59 0.4
6 -0.57
7 -0.68
8 -0.84
9 0.51

> <PUBCHEM_EFFECTIVE_ROTOR_COUNT>
7

> <PUBCHEM_PHARMACOPHORE_FEATURES>
14
1 1 acceptor
1 2 acceptor
1 2 donor
1 32 hydrophobe
1 4 acceptor
1 5 acceptor
1 6 acceptor
1 7 acceptor
1 7 donor
1 8 cation
5 1 9 10 12 16 rings
6 15 18 19 20 21 22 rings
6 8 9 10 11 13 14 rings
6 8 9 12 15 17 18 rings

> <PUBCHEM_HEAVY_ATOM_COUNT>
32

> <PUBCHEM_ATOM_DEF_STEREO_COUNT>
3

> <PUBCHEM_ATOM_UDEF_STEREO_COUNT>
2

> <PUBCHEM_BOND_DEF_STEREO_COUNT>
2

> <PUBCHEM_BOND_UDEF_STEREO_COUNT>
0

> <PUBCHEM_ISOTOPIC_ATOM_COUNT>
0

> <PUBCHEM_COMPONENT_COUNT>
1

> <PUBCHEM_CACTVS_TAUTO_COUNT>
1

> <PUBCHEM_CONFORMER_ID>
00A15D2E00000001

> <PUBCHEM_MMFF94_ENERGY>
91.3492

> <PUBCHEM_FEATURE_SELFOVERLAP>
71.303

> <PUBCHEM_SHAPE_FINGERPRINT>
10190108 129 18338811107849181264
10411042 1 17909535169833596014
10622 236 17485040290063402487
10674148 151 17058954314996394660
10764073 3 18194977236522178549
1100329 8 17692809294595327376
117089 54 18121510046222630819
12107183 9 18055086363176739713
12342043 65 18115313271892047359
12596602 18 17273429476635480867
12633046 712 18191023387469386206
12788726 201 17765161566824795950
12892183 10 18340495551495135513
13140716 1 18054500580750202872
13540713 4 18187636960696942525
13955234 65 18342173388863788266
14347424 109 18342748377884743121
14790565 3 17979916330572464452
14844126 61 17405130834789505906
14950920 106 18129672898303933979
15042514 8 17261305900840487870
15183329 4 9294752864960287193
17492 89 18338235946966146875
19246450 95 17189836553739335753
19319366 153 18128533954101397272
20505436 4 17630894995575166188
21133410 32 16158266167895681282
21796203 349 18126870208684259498
22956985 138 18336547093744592298
23559900 14 18192140504083432308
3178227 256 18341050813578410184
32027 91 18336544903053178715
4461854 278 17470753446346655474
484985 159 17686063790669023643
5104073 3 18271252629804179169
5486654 36 17979635637110158618
613672 6 17905582442669776010
6700243 42 16805322163476191055
6703917 75 18121238712338374380
7970288 3 18120376453860309395
86090 222 17676217874532936075
8863177 126 18262243218188060607

> <PUBCHEM_SHAPE_MULTIPOLES>
612.48
13.03
6.7
1.53
15.17
9.61
-0.49
11.36
6.33
-14.85
1.93
2.19
-0.28
2.91

> <PUBCHEM_SHAPE_SELFOVERLAP>
1324.297

> <PUBCHEM_SHAPE_VOLUME>
332.8

> <PUBCHEM_COORDINATE_TYPE>
2
5
10

$$$$
