REMARK  Name = 10571639
REMARK  9 active torsions:
REMARK  status: ('A' for Active; 'I' for Inactive)
REMARK    1  A    between atoms: N_2  and  C_18
REMARK    2  A    between atoms: C_3  and  C_5
REMARK    3  A    between atoms: C_6  and  C_11
REMARK    4  A    between atoms: C_18  and  C_19
REMARK    5  A    between atoms: C_18  and  C_26
REMARK    6  A    between atoms: C_19  and  S_20
REMARK    7  A    between atoms: S_20  and  C_22
REMARK    8  A    between atoms: C_22  and  S_23
REMARK    9  A    between atoms: C_26  and  O_27
REMARK                            x       y       z     vdW  Elec       q    Type
REMARK                         _______ _______ _______ _____ _____    ______ ____
ROOT
ATOM      1  O   UNK A   0      -0.083   2.186   1.748  0.00  0.00    -0.270 OA
ATOM      2  N   UNK A   1      -1.292   1.405  -0.075  0.00  0.00    -0.299 N 
ATOM      3  C   UNK A   0      -0.165   1.518   0.723  0.00  0.00    +0.246 C 
ATOM      4  H   UNK A   1      -1.250   0.840  -0.880  0.00  0.00    +0.150 HD
ENDROOT
BRANCH   3   5
ATOM      5  C   UNK A   0       0.975   0.723   0.188  0.00  0.00    +0.058 C 
ATOM      6  C   UNK A   0       2.141   0.720   0.836  0.00  0.00    +0.011 C 
BRANCH   6  11
ATOM      7  O   UNK A   0       4.047   1.832  -0.929  0.00  0.00    -0.267 OA
ATOM      8  O   UNK A   0       6.585  -1.994  -1.049  0.00  0.00    -0.247 OA
ATOM      9  N   UNK A   0       4.682  -1.950   0.234  0.00  0.00    -0.310 N 
ATOM     10  N   UNK A   0       5.319  -0.074  -0.991  0.00  0.00    -0.275 N 
ATOM     11  C   UNK A   0       3.289  -0.027   0.374  0.00  0.00    +0.068 A 
ATOM     12  C   UNK A   0       3.567  -1.302   0.724  0.00  0.00    +0.042 A 
ATOM     13  C   UNK A   0       4.233   0.672  -0.565  0.00  0.00    +0.262 A 
ATOM     14  C   UNK A   0       2.750  -2.164   1.652  0.00  0.00    +0.050 C 
ATOM     15  C   UNK A   0       5.599  -1.385  -0.631  0.00  0.00    +0.327 A 
ATOM     16  H   UNK A   0       4.835  -2.879   0.521  0.00  0.00    +0.170 HD
ATOM     17  H   UNK A   0       5.951   0.366  -1.605  0.00  0.00    +0.173 HD
ENDBRANCH   6  11
ENDBRANCH   3   5
BRANCH   2  18
ATOM     18  C   UNK A   1      -2.525   2.090   0.236  0.00  0.00    +0.114 C 
BRANCH  18  19
ATOM     19  C   UNK A   1      -3.728   1.288  -0.264  0.00  0.00    +0.115 C 
BRANCH  19  20
ATOM     20  S   UNK A   1      -3.752  -0.393   0.444  0.00  0.00    +0.057 S 
ATOM     21  O   UNK A   1      -4.126  -0.250   1.885  0.00  0.00    -0.255 OA
BRANCH  20  22
ATOM     22  C   UNK A   1      -5.227  -0.934  -0.467  0.00  0.00    +0.183 C 
BRANCH  22  23
ATOM     23  S   UNK A   1      -5.663  -2.657  -0.087  0.00  0.00    +0.056 S 
ATOM     24  O   UNK A   1      -4.603  -3.537  -0.681  0.00  0.00    -0.255 OA
ATOM     25  C   UNK A   1      -7.098  -2.724  -1.187  0.00  0.00    +0.107 C 
ENDBRANCH  22  23
ENDBRANCH  20  22
ENDBRANCH  19  20
ENDBRANCH  18  19
BRANCH  18  26
ATOM     26  C   UNK A   1      -2.502   3.503  -0.351  0.00  0.00    +0.158 C 
BRANCH  26  27
ATOM     27  O   UNK A   1      -2.424   3.454  -1.770  0.00  0.00    -0.380 OA
ATOM     28  H   UNK A   1      -2.410   4.357  -2.124  0.00  0.00    +0.211 HD
ENDBRANCH  26  27
ENDBRANCH  18  26
ENDBRANCH   2  18
TORSDOF 9
