REMARK  Name = 10586684
REMARK  2 active torsions:
REMARK  status: ('A' for Active; 'I' for Inactive)
REMARK    1  A    between atoms: C_4  and  N_10
REMARK    2  A    between atoms: C_8  and  N_20
REMARK                            x       y       z     vdW  Elec       q    Type
REMARK                         _______ _______ _______ _____ _____    ______ ____
ROOT
ATOM      1  O   UNL     1       1.099  -2.706  -0.283  0.00  0.00    -0.241 OA
ATOM      2  N   UNL     1      -0.102  -2.024  -0.197  0.00  0.00    -0.047 NA
ATOM      3  N   UNL     1       2.185  -1.851  -0.199  0.00  0.00    -0.047 NA
ATOM      4  C   UNL     1      -0.641   0.388   0.073  0.00  0.00    +0.071 C 
ATOM      5  C   UNL     1       0.219  -0.732  -0.058  0.00  0.00    +0.158 A 
ATOM      6  C   UNL     1       0.061   1.613   0.202  0.00  0.00    +0.018 C 
ATOM      7  C   UNL     1       1.673  -0.622  -0.059  0.00  0.00    +0.167 A 
ATOM      8  C   UNL     1       2.334   0.613   0.071  0.00  0.00    +0.165 C 
ATOM      9  C   UNL     1       1.476   1.720   0.201  0.00  0.00    +0.027 C 
ENDROOT
BRANCH   4  10
ATOM     10  N   UNL     1      -2.039   0.327   0.080  0.00  0.00    -0.311 N 
ATOM     11  N   UNL     1      -4.875   0.076  -0.129  0.00  0.00    +0.386 N 
ATOM     12  C   UNL     1      -2.768   1.063  -0.961  0.00  0.00    +0.067 C 
ATOM     13  C   UNL     1      -2.712  -0.867   0.605  0.00  0.00    +0.067 C 
ATOM     14  C   UNL     1      -4.211   1.317  -0.526  0.00  0.00    -0.060 C 
ATOM     15  C   UNL     1      -4.157  -0.544   0.983  0.00  0.00    -0.060 C 
ATOM     16  H   UNL     1      -4.890  -0.566  -0.921  0.00  0.00    -0.084 HD
ATOM     17  H   UNL     1      -5.828   0.287   0.166  0.00  0.00    -0.084 HD
ENDBRANCH   4  10
BRANCH   8  20
ATOM     18  O   UNL     1       4.280   1.846   0.184  0.00  0.00    -0.126 OA
ATOM     19  O   UNL     1       4.434  -0.331  -0.054  0.00  0.00    -0.126 OA
ATOM     20  N   UNL     1       3.743   0.714   0.067  0.00  0.00    +0.059 N 
ENDBRANCH   8  20
TORSDOF 2
