REMARK  Name = 10582490
REMARK  9 active torsions:
REMARK  status: ('A' for Active; 'I' for Inactive)
REMARK    1  A    between atoms: C_2  and  O_7
REMARK    2  A    between atoms: C_3  and  O_9
REMARK    3  A    between atoms: C_4  and  O_11
REMARK    4  A    between atoms: C_5  and  C_19
REMARK    5  A    between atoms: C_6  and  O_13
REMARK    6  A    between atoms: O_13  and  C_14
REMARK    7  A    between atoms: C_14  and  C_15
REMARK    8  A    between atoms: C_16  and  C_18
REMARK    9  A    between atoms: C_19  and  O_20
REMARK                            x       y       z     vdW  Elec       q    Type
REMARK                         _______ _______ _______ _____ _____    ______ ____
ROOT
ATOM      1  O   UNL     1       0.667   0.828  -0.430  0.00  0.00    -0.326 OA
ATOM      2  C   UNL     1       2.410  -1.323   0.335  0.00  0.00    +0.172 C 
ATOM      3  C   UNL     1       2.932   0.069  -0.023  0.00  0.00    +0.169 C 
ATOM      4  C   UNL     1       1.029  -1.568  -0.273  0.00  0.00    +0.196 C 
ATOM      5  C   UNL     1       1.875   1.137   0.267  0.00  0.00    +0.176 C 
ATOM      6  C   UNL     1       0.084  -0.399   0.003  0.00  0.00    +0.266 C 
ENDROOT
BRANCH   2   7
ATOM      7  O   UNL     1       3.332  -2.286  -0.176  0.00  0.00    -0.379 OA
ATOM      8  H   UNL     1       4.209  -2.131   0.210  0.00  0.00    +0.211 HD
ENDBRANCH   2   7
BRANCH   3   9
ATOM      9  O   UNL     1       4.102   0.344   0.744  0.00  0.00    -0.379 OA
ATOM     10  H   UNL     1       4.774  -0.332   0.562  0.00  0.00    +0.211 HD
ENDBRANCH   3   9
BRANCH   4  11
ATOM     11  O   UNL     1       0.461  -2.746   0.300  0.00  0.00    -0.378 OA
ATOM     12  H   UNL     1       1.048  -3.501   0.135  0.00  0.00    +0.211 HD
ENDBRANCH   4  11
BRANCH   6  13
ATOM     13  O   UNL     1      -1.129  -0.635  -0.712  0.00  0.00    -0.324 OA
BRANCH  13  14
ATOM     14  C   UNL     1      -2.062   0.413  -0.505  0.00  0.00    +0.172 C 
BRANCH  14  15
ATOM     15  C   UNL     1      -3.305   0.109  -1.276  0.00  0.00    +0.017 C 
ATOM     16  C   UNL     1      -4.506  -0.062  -0.707  0.00  0.00    +0.076 C 
BRANCH  16  18
ATOM     17  N   UNL     1      -4.836   0.115   1.847  0.00  0.00    -0.191 NA
ATOM     18  C   UNL     1      -4.685   0.036   0.699  0.00  0.00    +0.101 C 
ENDBRANCH  16  18
ENDBRANCH  14  15
ENDBRANCH  13  14
ENDBRANCH   6  13
BRANCH   5  19
ATOM     19  C   UNL     1       2.329   2.519  -0.191  0.00  0.00    +0.169 C 
BRANCH  19  20
ATOM     20  O   UNL     1       1.302   3.450   0.097  0.00  0.00    -0.379 OA
ATOM     21  H   UNL     1       1.578   4.335  -0.189  0.00  0.00    +0.211 HD
ENDBRANCH  19  20
ENDBRANCH   5  19
TORSDOF 9
