10586684
  -OEChem-03292013303D

 29 31  0     0  0  0  0  0  0999 V2000
    1.0995   -2.7062   -0.2829 O   0  0  0  0  0  0  0  0  0  0  0  0
    4.2796    1.8461    0.1839 O   0  5  0  0  0  0  0  0  0  0  0  0
    4.4344   -0.3308   -0.0541 O   0  0  0  0  0  0  0  0  0  0  0  0
   -2.0387    0.3266    0.0801 N   0  0  0  0  0  0  0  0  0  0  0  0
   -4.8747    0.0762   -0.1289 N   0  0  0  0  0  0  0  0  0  0  0  0
   -0.1022   -2.0244   -0.1969 N   0  0  0  0  0  0  0  0  0  0  0  0
    2.1848   -1.8510   -0.1986 N   0  0  0  0  0  0  0  0  0  0  0  0
    3.7427    0.7137    0.0666 N   0  3  0  0  0  0  0  0  0  0  0  0
   -2.7681    1.0628   -0.9613 C   0  0  0  0  0  0  0  0  0  0  0  0
   -2.7115   -0.8667    0.6050 C   0  0  0  0  0  0  0  0  0  0  0  0
   -4.2108    1.3170   -0.5259 C   0  0  0  0  0  0  0  0  0  0  0  0
   -4.1569   -0.5444    0.9832 C   0  0  0  0  0  0  0  0  0  0  0  0
   -0.6406    0.3883    0.0733 C   0  0  0  0  0  0  0  0  0  0  0  0
    0.2190   -0.7321   -0.0577 C   0  0  0  0  0  0  0  0  0  0  0  0
    0.0606    1.6132    0.2016 C   0  0  0  0  0  0  0  0  0  0  0  0
    1.6728   -0.6219   -0.0589 C   0  0  0  0  0  0  0  0  0  0  0  0
    2.3341    0.6132    0.0709 C   0  0  0  0  0  0  0  0  0  0  0  0
    1.4762    1.7205    0.2005 C   0  0  0  0  0  0  0  0  0  0  0  0
   -2.7502    0.4818   -1.8923 H   0  0  0  0  0  0  0  0  0  0  0  0
   -2.2987    2.0303   -1.1736 H   0  0  0  0  0  0  0  0  0  0  0  0
   -2.2003   -1.2386    1.5014 H   0  0  0  0  0  0  0  0  0  0  0  0
   -2.7075   -1.6613   -0.1514 H   0  0  0  0  0  0  0  0  0  0  0  0
   -4.2348    2.0354    0.3031 H   0  0  0  0  0  0  0  0  0  0  0  0
   -4.7634    1.7680   -1.3573 H   0  0  0  0  0  0  0  0  0  0  0  0
   -4.6694   -1.4695    1.2687 H   0  0  0  0  0  0  0  0  0  0  0  0
   -4.1799    0.1179    1.8578 H   0  0  0  0  0  0  0  0  0  0  0  0
   -5.8298    0.2840    0.1614 H   0  0  0  0  0  0  0  0  0  0  0  0
   -0.5080    2.5362    0.3204 H   0  0  0  0  0  0  0  0  0  0  0  0
    1.8932    2.7216    0.3090 H   0  0  0  0  0  0  0  0  0  0  0  0
  1  6  1  0  0  0  0
  1  7  1  0  0  0  0
  2  8  1  0  0  0  0
  3  8  2  0  0  0  0
  4  9  1  0  0  0  0
  4 10  1  0  0  0  0
  4 13  1  0  0  0  0
  5 11  1  0  0  0  0
  5 12  1  0  0  0  0
  5 27  1  0  0  0  0
  6 14  2  0  0  0  0
  7 16  2  0  0  0  0
  8 17  1  0  0  0  0
  9 11  1  0  0  0  0
  9 19  1  0  0  0  0
  9 20  1  0  0  0  0
 10 12  1  0  0  0  0
 10 21  1  0  0  0  0
 10 22  1  0  0  0  0
 11 23  1  0  0  0  0
 11 24  1  0  0  0  0
 12 25  1  0  0  0  0
 12 26  1  0  0  0  0
 13 14  1  0  0  0  0
 13 15  2  0  0  0  0
 14 16  1  0  0  0  0
 15 18  1  0  0  0  0
 15 28  1  0  0  0  0
 16 17  1  0  0  0  0
 17 18  2  0  0  0  0
 18 29  1  0  0  0  0
M  CHG  2   2  -1   8   1
M  END
> <PUBCHEM_COMPOUND_CID>
10586684

> <PUBCHEM_CONFORMER_RMSD>
0.6

> <PUBCHEM_CONFORMER_DIVERSEORDER>
1
4
5
3
2

> <PUBCHEM_MMFF94_PARTIAL_CHARGES>
21
1 0.24
10 0.37
11 0.27
12 0.27
13 0.1
14 0.29
15 -0.15
16 0.29
17 0.13
18 -0.15
2 -0.52
27 0.36
28 0.15
29 0.15
3 -0.52
4 -0.84
5 -0.9
6 -0.41
7 -0.41
8 0.91
9 0.37

> <PUBCHEM_EFFECTIVE_ROTOR_COUNT>
3.2

> <PUBCHEM_PHARMACOPHORE_FEATURES>
11
1 2 acceptor
1 2 anion
1 3 acceptor
1 4 cation
1 5 cation
1 5 donor
1 6 acceptor
1 7 acceptor
5 1 6 7 14 16 rings
6 13 14 15 16 17 18 rings
6 4 5 9 10 11 12 rings

> <PUBCHEM_HEAVY_ATOM_COUNT>
18

> <PUBCHEM_ATOM_DEF_STEREO_COUNT>
0

> <PUBCHEM_ATOM_UDEF_STEREO_COUNT>
0

> <PUBCHEM_BOND_DEF_STEREO_COUNT>
0

> <PUBCHEM_BOND_UDEF_STEREO_COUNT>
0

> <PUBCHEM_ISOTOPIC_ATOM_COUNT>
0

> <PUBCHEM_COMPONENT_COUNT>
1

> <PUBCHEM_CACTVS_TAUTO_COUNT>
1

> <PUBCHEM_CONFORMER_ID>
00A18A3C00000001

> <PUBCHEM_MMFF94_ENERGY>
60.4616

> <PUBCHEM_FEATURE_SELFOVERLAP>
56.085

> <PUBCHEM_SHAPE_FINGERPRINT>
10608611 8 18334573491457252109
10967382 1 18411699872178666626
10980938 120 18412825772212265719
11132069 177 18409729607471286306
11471102 20 18412824676932275757
11543360 7 14835838542784834896
12236239 1 17275106133120605177
13140716 1 18196927997192061848
13380535 76 18408323297871738067
13583140 156 16880162707100499208
13862211 1 18412539895237182422
14251717 144 18341892969937413591
14790565 3 18339934817233857152
15196674 1 18410855490208789626
15219456 202 18334859385870608839
15309172 13 18341899614352001883
15375358 24 18334012783302387171
16945 1 18272362083727071032
18186145 218 18059859514513847432
200 152 18131346428184488445
20201158 50 18408605834053303099
20279233 1 18260553312123713075
204376 136 18340770450275236952
20645477 70 18200307706941505583
21267235 1 18340215106814632238
21501502 16 18125723374715990657
221490 88 18337398114942962231
23402539 116 18201430407150381956
23402655 69 18342166723248916941
23493267 7 18040149613007489400
23557571 272 17386005018749319661
23559900 14 18119803612776001194
25 1 18410848850215769381
2748010 2 18338239262712404998
293599 30 18339645663245400620
3071541 37 18408889508037510070
33824 294 18410293601165323883
350125 39 17979921836571857529
4072396 5 18337092489543968482
42630746 31 18343585126896160759
474229 33 18338234971987380578
5104073 3 18334860459723385449
53812653 166 18341893025798310328
58051976 378 18411136948364502917
633830 44 18060149738259922796
7364860 26 18269837523546949838
77492 1 17203607060819158857
81228 2 16830368771609616675
81539 233 18334575741687734294
8272917 22 18271811160035389613
9709674 26 18335144176704932147

> <PUBCHEM_SHAPE_MULTIPOLES>
327.92
8.35
2.13
0.75
2.4
0.76
0.01
-2.12
0.28
-1.14
-0.16
0.52
-0.03
0.82

> <PUBCHEM_SHAPE_SELFOVERLAP>
705.222

> <PUBCHEM_SHAPE_VOLUME>
180.7

> <PUBCHEM_COORDINATE_TYPE>
2
5
10

$$$$
