REMARK  Name = 10594821
REMARK  7 active torsions:
REMARK  status: ('A' for Active; 'I' for Inactive)
REMARK    1  A    between atoms: C_9  and  O_16
REMARK    2  A    between atoms: C_11  and  S_18
REMARK    3  A    between atoms: S_18  and  C_19
REMARK    4  A    between atoms: C_19  and  C_20
REMARK    5  A    between atoms: C_20  and  O_21
REMARK    6  A    between atoms: C_20  and  C_24
REMARK    7  A    between atoms: C_24  and  O_25
REMARK                            x       y       z     vdW  Elec       q    Type
REMARK                         _______ _______ _______ _____ _____    ______ ____
ROOT
ATOM      1  O   UNL     1      -3.220  -0.932  -1.081  0.00  0.00    -0.452 OA
ATOM      2  O   UNL     1       1.097   1.681  -1.515  0.00  0.00    -0.293 OA
ATOM      3  O   UNL     1      -1.871  -2.285   0.223  0.00  0.00    -0.250 OA
ATOM      4  C   UNL     1      -4.059   1.689   0.342  0.00  0.00    +0.000 C 
ATOM      5  C   UNL     1      -2.643   1.706   0.921  0.00  0.00    +0.003 C 
ATOM      6  C   UNL     1      -4.996   0.701   1.039  0.00  0.00    +0.004 C 
ATOM      7  C   UNL     1      -1.712   2.589   0.084  0.00  0.00    +0.037 C 
ATOM      8  C   UNL     1      -4.632  -0.793   0.951  0.00  0.00    +0.044 C 
ATOM      9  C   UNL     1      -0.230   2.350   0.386  0.00  0.00    +0.168 C 
ATOM     10  C   UNL     1      -4.480  -1.329  -0.483  0.00  0.00    +0.169 C 
ATOM     11  C   UNL     1       0.108  -0.148  -0.295  0.00  0.00    +0.119 C 
ATOM     12  C   UNL     1       0.399   1.325  -0.562  0.00  0.00    +0.187 C 
ATOM     13  C   UNL     1      -0.889  -0.705  -1.320  0.00  0.00    +0.128 C 
ATOM     14  C   UNL     1      -4.692  -2.839  -0.575  0.00  0.00    +0.047 C 
ATOM     15  C   UNL     1      -2.030  -1.421  -0.628  0.00  0.00    +0.318 C 
ENDROOT
BRANCH   9  16
ATOM     16  O   UNL     1       0.479   3.572   0.193  0.00  0.00    -0.377 OA
ATOM     17  H   UNL     1       0.112   4.254   0.777  0.00  0.00    +0.211 HD
ENDBRANCH   9  16
BRANCH  11  18
ATOM     18  S   UNL     1       1.680  -1.073  -0.332  0.00  0.00    -0.130 S 
BRANCH  18  19
ATOM     19  C   UNL     1       2.517  -0.203   1.012  0.00  0.00    +0.099 C 
BRANCH  19  20
ATOM     20  C   UNL     1       3.897  -0.777   1.336  0.00  0.00    +0.221 C 
BRANCH  20  21
ATOM     21  O   UNL     1       3.780  -2.122   1.777  0.00  0.00    -0.374 OA
ATOM     22  H   UNL     1       3.145  -2.168   2.509  0.00  0.00    +0.211 HD
ENDBRANCH  20  21
BRANCH  20  24
ATOM     23  O   UNL     1       5.415  -1.683  -0.330  0.00  0.00    -0.247 OA
ATOM     24  C   UNL     1       4.890  -0.707   0.191  0.00  0.00    +0.345 C 
BRANCH  24  25
ATOM     25  O   UNL     1       5.122   0.597  -0.141  0.00  0.00    -0.443 OA
ATOM     26  C   UNL     1       6.069   0.807  -1.192  0.00  0.00    +0.256 C 
ENDBRANCH  24  25
ENDBRANCH  20  24
ENDBRANCH  19  20
ENDBRANCH  18  19
ENDBRANCH  11  18
TORSDOF 7
