REMARK  Name = 10595278
REMARK  15 active torsions:
REMARK  status: ('A' for Active; 'I' for Inactive)
REMARK    1  A    between atoms: C_2  and  C_5
REMARK    2  A    between atoms: C_2  and  C_18
REMARK    3  A    between atoms: C_5  and  O_10
REMARK    4  A    between atoms: C_6  and  O_12
REMARK    5  A    between atoms: CA_7  and  C_14
REMARK    6  A    between atoms: C_14  and  O_15
REMARK    7  A    between atoms: C_17  and  C_21
REMARK    8  A    between atoms: C_20  and  C_22
REMARK    9  A    between atoms: C_22  and  C_23
REMARK   10  A    between atoms: C_23  and  C_24
REMARK   11  A    between atoms: C_24  and  C_25
REMARK   12  A    between atoms: C_25  and  C_26
REMARK   13  A    between atoms: C_26  and  C_27
REMARK   14  A    between atoms: C_27  and  C_28
REMARK   15  A    between atoms: C_28  and  C_29
REMARK                            x       y       z     vdW  Elec       q    Type
REMARK                         _______ _______ _______ _____ _____    ______ ____
ROOT
ATOM      1  O   UNL     1      -1.158   2.992   1.418  0.00  0.00    -0.288 OA
ATOM      2  C   UNL     1      -0.886   2.292   0.445  0.00  0.00    +0.208 C 
ENDROOT
BRANCH   2   5
ATOM      3  O   UNL     1      -3.848   2.717   0.682  0.00  0.00    -0.272 OA
ATOM      4  N   UNL     1      -3.961   0.425   0.237  0.00  0.00    -0.299 N 
ATOM      5  C   UNL     1      -1.949   1.515  -0.266  0.00  0.00    +0.238 C 
ATOM      6  C   UNL     1      -1.716  -0.004  -0.213  0.00  0.00    +0.171 C 
ATOM      7  CA  UNL     1      -3.120  -0.610  -0.320  0.00  0.00    +0.131 C 
ATOM      8  C   UNL     1      -3.350   1.673   0.288  0.00  0.00    +0.256 C 
ATOM      9  H   UNL     1      -4.880   0.261   0.551  0.00  0.00    +0.150 HD
BRANCH   5  10
ATOM     10  O   UNL     1      -1.975   1.957  -1.609  0.00  0.00    -0.370 OA
ATOM     11  H   UNL     1      -2.657   1.469  -2.097  0.00  0.00    +0.211 HD
ENDBRANCH   5  10
BRANCH   6  12
ATOM     12  O   UNL     1      -1.151  -0.392   1.039  0.00  0.00    -0.379 OA
ATOM     13  H   UNL     1      -0.260  -0.016   1.122  0.00  0.00    +0.211 HD
ENDBRANCH   6  12
BRANCH   7  14
ATOM     14  C   UNL     1      -3.530  -0.928  -1.752  0.00  0.00    +0.159 C 
BRANCH  14  15
ATOM     15  O   UNL     1      -4.830  -1.490  -1.737  0.00  0.00    -0.380 OA
ATOM     16  H   UNL     1      -5.104  -1.697  -2.644  0.00  0.00    +0.211 HD
ENDBRANCH  14  15
ENDBRANCH   7  14
ENDBRANCH   2   5
BRANCH   2  18
ATOM     17  C   UNL     1       1.518   2.820   0.502  0.00  0.00    +0.008 C 
ATOM     18  C   UNL     1       0.503   2.160  -0.073  0.00  0.00    +0.038 C 
BRANCH  17  21
ATOM     19  O   UNL     1       3.996   2.974   0.982  0.00  0.00    -0.349 OA
ATOM     20  C   UNL     1       3.756   1.623   0.569  0.00  0.00    +0.147 C 
ATOM     21  C   UNL     1       2.907   2.758   0.076  0.00  0.00    +0.164 C 
BRANCH  20  22
ATOM     22  C   UNL     1       4.838   1.058  -0.299  0.00  0.00    +0.032 C 
BRANCH  22  23
ATOM     23  C   UNL     1       4.292   0.018  -1.279  0.00  0.00    +0.003 C 
BRANCH  23  24
ATOM     24  C   UNL     1       3.611  -1.169  -0.591  0.00  0.00    +0.000 C 
BRANCH  24  25
ATOM     25  C   UNL     1       3.131  -2.242  -1.572  0.00  0.00    +0.000 C 
BRANCH  25  26
ATOM     26  C   UNL     1       2.504  -3.457  -0.881  0.00  0.00    +0.000 C 
BRANCH  26  27
ATOM     27  C   UNL     1       1.295  -3.104  -0.012  0.00  0.00    +0.000 C 
BRANCH  27  28
ATOM     28  C   UNL     1       0.715  -4.349   0.663  0.00  0.00    +0.000 C 
BRANCH  28  29
ATOM     29  C   UNL     1      -0.516  -4.005   1.502  0.00  0.00    +0.000 C 
ATOM     30  C   UNL     1      -1.075  -5.233   2.201  0.00  0.00    +0.000 C 
ENDBRANCH  28  29
ENDBRANCH  27  28
ENDBRANCH  26  27
ENDBRANCH  25  26
ENDBRANCH  24  25
ENDBRANCH  23  24
ENDBRANCH  22  23
ENDBRANCH  20  22
ENDBRANCH  17  21
ENDBRANCH   2  18
TORSDOF 15
