10595972
  -OEChem-03292013303D

 39 41  0     1  0  0  0  0  0999 V2000
    3.1438   -3.2539    0.4585 Cl  0  0  0  0  0  0  0  0  0  0  0  0
   -0.1980    0.0221   -0.9011 O   0  0  0  0  0  0  0  0  0  0  0  0
    0.0035    0.4813    1.5044 O   0  0  0  0  0  0  0  0  0  0  0  0
    4.8016   -0.8480   -0.2250 O   0  0  0  0  0  0  0  0  0  0  0  0
    0.4167   -2.2539    0.8788 O   0  0  0  0  0  0  0  0  0  0  0  0
    0.1099    2.5666   -0.6776 O   0  0  0  0  0  0  0  0  0  0  0  0
   -4.1013   -0.3111    1.9471 O   0  0  0  0  0  0  0  0  0  0  0  0
   -1.8194    0.5197    2.8404 O   0  0  0  0  0  0  0  0  0  0  0  0
    2.1253    3.3990    0.1000 O   0  0  0  0  0  0  0  0  0  0  0  0
    0.6220    0.0768    0.2645 C   0  0  2  0  0  0  0  0  0  0  0  0
    1.7170    1.0660   -0.0196 C   0  0  0  0  0  0  0  0  0  0  0  0
    1.1648   -1.3464    0.5107 C   0  0  0  0  0  0  0  0  0  0  0  0
   -1.5153   -0.2250   -0.6682 C   0  0  0  0  0  0  0  0  0  0  0  0
   -2.1029   -0.1212    0.5856 C   0  0  0  0  0  0  0  0  0  0  0  0
    3.0106    0.7453   -0.1486 C   0  0  0  0  0  0  0  0  0  0  0  0
   -1.3143    0.3109    1.7467 C   0  0  0  0  0  0  0  0  0  0  0  0
    2.6157   -1.6218    0.2882 C   0  0  0  0  0  0  0  0  0  0  0  0
    3.4534   -0.6231   -0.0206 C   0  0  0  0  0  0  0  0  0  0  0  0
   -2.2888   -0.5849   -1.7743 C   0  0  0  0  0  0  0  0  0  0  0  0
   -3.4668   -0.3939    0.7433 C   0  0  0  0  0  0  0  0  0  0  0  0
   -3.6473   -0.8582   -1.6197 C   0  0  0  0  0  0  0  0  0  0  0  0
    1.3693    2.4838   -0.1809 C   0  0  0  0  0  0  0  0  0  0  0  0
   -4.2354   -0.7655   -0.3603 C   0  0  0  0  0  0  0  0  0  0  0  0
   -4.4691   -1.2491   -2.8010 C   0  0  0  0  0  0  0  0  0  0  0  0
    4.9814   -1.1109   -1.5790 C   0  0  0  0  0  0  0  0  0  0  0  0
   -0.3762    3.8956   -0.8925 C   0  0  0  0  0  0  0  0  0  0  0  0
    3.7703    1.4919   -0.3609 H   0  0  0  0  0  0  0  0  0  0  0  0
   -1.8253   -0.6550   -2.7558 H   0  0  0  0  0  0  0  0  0  0  0  0
   -5.2958   -0.9773   -0.2441 H   0  0  0  0  0  0  0  0  0  0  0  0
   -3.8616   -1.7625   -3.5540 H   0  0  0  0  0  0  0  0  0  0  0  0
   -5.2709   -1.9377   -2.5134 H   0  0  0  0  0  0  0  0  0  0  0  0
   -4.9160   -0.3606   -3.2581 H   0  0  0  0  0  0  0  0  0  0  0  0
   -5.0403   -0.5386    1.8374 H   0  0  0  0  0  0  0  0  0  0  0  0
    4.4215   -1.9868   -1.9276 H   0  0  0  0  0  0  0  0  0  0  0  0
    6.0420   -1.3275   -1.7456 H   0  0  0  0  0  0  0  0  0  0  0  0
    4.7336   -0.2449   -2.2051 H   0  0  0  0  0  0  0  0  0  0  0  0
    0.2521    4.4153   -1.6221 H   0  0  0  0  0  0  0  0  0  0  0  0
   -0.4068    4.4448    0.0533 H   0  0  0  0  0  0  0  0  0  0  0  0
   -1.3921    3.8249   -1.2903 H   0  0  0  0  0  0  0  0  0  0  0  0
  1 17  1  0  0  0  0
  2 10  1  0  0  0  0
  2 13  1  0  0  0  0
  3 10  1  0  0  0  0
  3 16  1  0  0  0  0
  4 18  1  0  0  0  0
  4 25  1  0  0  0  0
  5 12  2  0  0  0  0
  6 22  1  0  0  0  0
  6 26  1  0  0  0  0
  7 20  1  0  0  0  0
  7 33  1  0  0  0  0
  8 16  2  0  0  0  0
  9 22  2  0  0  0  0
 10 11  1  0  0  0  0
 10 12  1  0  0  0  0
 11 15  2  0  0  0  0
 11 22  1  0  0  0  0
 12 17  1  0  0  0  0
 13 14  1  0  0  0  0
 13 19  2  0  0  0  0
 14 16  1  0  0  0  0
 14 20  2  0  0  0  0
 15 18  1  0  0  0  0
 15 27  1  0  0  0  0
 17 18  2  0  0  0  0
 19 21  1  0  0  0  0
 19 28  1  0  0  0  0
 20 23  1  0  0  0  0
 21 23  2  0  0  0  0
 21 24  1  0  0  0  0
 23 29  1  0  0  0  0
 24 30  1  0  0  0  0
 24 31  1  0  0  0  0
 24 32  1  0  0  0  0
 25 34  1  0  0  0  0
 25 35  1  0  0  0  0
 25 36  1  0  0  0  0
 26 37  1  0  0  0  0
 26 38  1  0  0  0  0
 26 39  1  0  0  0  0
M  END
> <PUBCHEM_COMPOUND_CID>
10595972

> <PUBCHEM_CONFORMER_RMSD>
0.8

> <PUBCHEM_CONFORMER_DIVERSEORDER>
1
5
3
8
4
6
2
7

> <PUBCHEM_MMFF94_PARTIAL_CHARGES>
30
1 -0.14
10 0.76
11 -0.12
12 0.49
13 0.08
14 0.09
15 -0.15
16 0.63
17 0.15
18 0.08
19 -0.15
2 -0.36
20 0.08
21 -0.14
22 0.71
23 -0.15
24 0.14
25 0.28
26 0.28
27 0.15
28 0.15
29 0.15
3 -0.43
33 0.45
4 -0.36
5 -0.57
6 -0.43
7 -0.53
8 -0.57
9 -0.57

> <PUBCHEM_EFFECTIVE_ROTOR_COUNT>
3.4

> <PUBCHEM_PHARMACOPHORE_FEATURES>
9
1 2 acceptor
1 4 acceptor
1 5 acceptor
1 7 donor
1 8 acceptor
1 9 acceptor
6 10 11 12 15 17 18 rings
6 13 14 19 20 21 23 rings
6 2 3 10 13 14 16 rings

> <PUBCHEM_HEAVY_ATOM_COUNT>
26

> <PUBCHEM_ATOM_DEF_STEREO_COUNT>
0

> <PUBCHEM_ATOM_UDEF_STEREO_COUNT>
1

> <PUBCHEM_BOND_DEF_STEREO_COUNT>
0

> <PUBCHEM_BOND_UDEF_STEREO_COUNT>
0

> <PUBCHEM_ISOTOPIC_ATOM_COUNT>
0

> <PUBCHEM_COMPONENT_COUNT>
1

> <PUBCHEM_CACTVS_TAUTO_COUNT>
12

> <PUBCHEM_CONFORMER_ID>
00A1AE8400000001

> <PUBCHEM_MMFF94_ENERGY>
83.8088

> <PUBCHEM_FEATURE_SELFOVERLAP>
45.71

> <PUBCHEM_SHAPE_FINGERPRINT>
10062212 137 17703794738685383823
10165383 225 17031385271413967317
10366900 7 17676756635388151527
11578080 2 17772439388090184353
11725454 13 16738289500738022253
12236239 1 17988928885692692651
12553582 1 18409730634406651090
12788726 201 17902497199793019441
13009979 54 17775292702526227399
13134695 92 18334289894276229980
13140716 1 18190466150550182554
13583140 156 18336563629215617097
13726171 33 15982313696991891913
13911987 19 17968958464830289158
13965767 371 17051939189416705857
14537116 161 17539920133116611189
16945 1 18336820978643568378
17357779 13 18187365411210453980
1813 80 18272100365784473854
21641784 216 17896340038363292988
22112679 90 17561091336276684609
23419403 2 15799262396883901874
23598288 3 17905049153649075006
23598291 2 18202288043004414005
238 59 18114729555502380439
2748010 2 18046076123121835314
2838139 119 15430614973323060942
350125 39 17109329728095423224
46194498 28 17168721845549812687
474 4 18124025990771605200
57527295 17 17896016803155558519
59025328 239 18198032894360635317
70251023 43 18338784672335822783
77492 1 17988928920010142009
7808743 9 14996270397791808911
9981440 41 17051595446352303792

> <PUBCHEM_SHAPE_MULTIPOLES>
489.98
8.21
3.18
2
0.19
2.93
0.15
-5.3
-3.26
2.59
-0.59
-2.61
-0.41
-0.87

> <PUBCHEM_SHAPE_SELFOVERLAP>
1073.215

> <PUBCHEM_SHAPE_VOLUME>
265.3

> <PUBCHEM_COORDINATE_TYPE>
2
5
10

$$$$
