10594821
  -OEChem-03292013303D

 50 50  0     1  0  0  0  0  0999 V2000
    1.6804   -1.0735   -0.3317 S   0  0  0  0  0  0  0  0  0  0  0  0
   -3.2196   -0.9321   -1.0810 O   0  0  0  0  0  0  0  0  0  0  0  0
    0.4790    3.5723    0.1934 O   0  0  0  0  0  0  0  0  0  0  0  0
    1.0965    1.6807   -1.5154 O   0  0  0  0  0  0  0  0  0  0  0  0
   -1.8714   -2.2852    0.2230 O   0  0  0  0  0  0  0  0  0  0  0  0
    3.7800   -2.1216    1.7767 O   0  0  0  0  0  0  0  0  0  0  0  0
    5.1223    0.5971   -0.1405 O   0  0  0  0  0  0  0  0  0  0  0  0
    5.4155   -1.6828   -0.3296 O   0  0  0  0  0  0  0  0  0  0  0  0
   -4.0586    1.6888    0.3418 C   0  0  0  0  0  0  0  0  0  0  0  0
   -2.6431    1.7055    0.9208 C   0  0  0  0  0  0  0  0  0  0  0  0
   -4.9964    0.7005    1.0392 C   0  0  0  0  0  0  0  0  0  0  0  0
   -1.7121    2.5889    0.0841 C   0  0  0  0  0  0  0  0  0  0  0  0
   -4.6319   -0.7927    0.9508 C   0  0  0  0  0  0  0  0  0  0  0  0
   -0.2295    2.3505    0.3857 C   0  0  1  0  0  0  0  0  0  0  0  0
   -4.4798   -1.3295   -0.4832 C   0  0  2  0  0  0  0  0  0  0  0  0
    0.1078   -0.1479   -0.2952 C   0  0  1  0  0  0  0  0  0  0  0  0
    0.3994    1.3250   -0.5620 C   0  0  0  0  0  0  0  0  0  0  0  0
   -0.8889   -0.7045   -1.3201 C   0  0  0  0  0  0  0  0  0  0  0  0
   -4.6925   -2.8393   -0.5748 C   0  0  0  0  0  0  0  0  0  0  0  0
   -2.0300   -1.4207   -0.6281 C   0  0  0  0  0  0  0  0  0  0  0  0
    2.5171   -0.2034    1.0116 C   0  0  0  0  0  0  0  0  0  0  0  0
    3.8965   -0.7768    1.3364 C   0  0  2  0  0  0  0  0  0  0  0  0
    4.8901   -0.7067    0.1905 C   0  0  0  0  0  0  0  0  0  0  0  0
    6.0693    0.8073   -1.1925 C   0  0  0  0  0  0  0  0  0  0  0  0
   -4.0306    1.4726   -0.7318 H   0  0  0  0  0  0  0  0  0  0  0  0
   -4.4861    2.6953    0.4349 H   0  0  0  0  0  0  0  0  0  0  0  0
   -2.2518    0.6918    0.9789 H   0  0  0  0  0  0  0  0  0  0  0  0
   -2.6709    2.0813    1.9510 H   0  0  0  0  0  0  0  0  0  0  0  0
   -6.0007    0.8326    0.6166 H   0  0  0  0  0  0  0  0  0  0  0  0
   -5.0749    0.9732    2.0991 H   0  0  0  0  0  0  0  0  0  0  0  0
   -1.9712    3.6390    0.2714 H   0  0  0  0  0  0  0  0  0  0  0  0
   -1.8956    2.4200   -0.9846 H   0  0  0  0  0  0  0  0  0  0  0  0
   -5.4364   -1.3446    1.4538 H   0  0  0  0  0  0  0  0  0  0  0  0
   -3.7223   -0.9739    1.5324 H   0  0  0  0  0  0  0  0  0  0  0  0
   -0.0573    2.0439    1.4218 H   0  0  0  0  0  0  0  0  0  0  0  0
   -5.2511   -0.8661   -1.1103 H   0  0  0  0  0  0  0  0  0  0  0  0
   -0.2741   -0.2465    0.7253 H   0  0  0  0  0  0  0  0  0  0  0  0
   -1.3099    0.1105   -1.9223 H   0  0  0  0  0  0  0  0  0  0  0  0
   -0.4418   -1.4104   -2.0294 H   0  0  0  0  0  0  0  0  0  0  0  0
   -4.4562   -3.2022   -1.5805 H   0  0  0  0  0  0  0  0  0  0  0  0
   -5.7321   -3.0963   -0.3462 H   0  0  0  0  0  0  0  0  0  0  0  0
   -4.0582   -3.3877    0.1276 H   0  0  0  0  0  0  0  0  0  0  0  0
    0.2809    3.8957   -0.7024 H   0  0  0  0  0  0  0  0  0  0  0  0
    1.8861   -0.2825    1.9036 H   0  0  0  0  0  0  0  0  0  0  0  0
    2.6239    0.8546    0.7553 H   0  0  0  0  0  0  0  0  0  0  0  0
    4.3339   -0.2196    2.1729 H   0  0  0  0  0  0  0  0  0  0  0  0
    3.3225   -2.6222    1.0796 H   0  0  0  0  0  0  0  0  0  0  0  0
    7.0476    0.4095   -0.9068 H   0  0  0  0  0  0  0  0  0  0  0  0
    5.7168    0.3411   -2.1175 H   0  0  0  0  0  0  0  0  0  0  0  0
    6.1623    1.8843   -1.3559 H   0  0  0  0  0  0  0  0  0  0  0  0
  1 16  1  0  0  0  0
  1 21  1  0  0  0  0
  2 15  1  0  0  0  0
  2 20  1  0  0  0  0
  3 14  1  0  0  0  0
  3 43  1  0  0  0  0
  4 17  2  0  0  0  0
  5 20  2  0  0  0  0
  6 22  1  0  0  0  0
  6 47  1  0  0  0  0
  7 23  1  0  0  0  0
  7 24  1  0  0  0  0
  8 23  2  0  0  0  0
  9 10  1  0  0  0  0
  9 11  1  0  0  0  0
  9 25  1  0  0  0  0
  9 26  1  0  0  0  0
 10 12  1  0  0  0  0
 10 27  1  0  0  0  0
 10 28  1  0  0  0  0
 11 13  1  0  0  0  0
 11 29  1  0  0  0  0
 11 30  1  0  0  0  0
 12 14  1  0  0  0  0
 12 31  1  0  0  0  0
 12 32  1  0  0  0  0
 13 15  1  0  0  0  0
 13 33  1  0  0  0  0
 13 34  1  0  0  0  0
 14 17  1  0  0  0  0
 14 35  1  0  0  0  0
 15 19  1  0  0  0  0
 15 36  1  0  0  0  0
 16 17  1  0  0  0  0
 16 18  1  0  0  0  0
 16 37  1  0  0  0  0
 18 20  1  0  0  0  0
 18 38  1  0  0  0  0
 18 39  1  0  0  0  0
 19 40  1  0  0  0  0
 19 41  1  0  0  0  0
 19 42  1  0  0  0  0
 21 22  1  0  0  0  0
 21 44  1  0  0  0  0
 21 45  1  0  0  0  0
 22 23  1  0  0  0  0
 22 46  1  0  0  0  0
 24 48  1  0  0  0  0
 24 49  1  0  0  0  0
 24 50  1  0  0  0  0
M  END
> <PUBCHEM_COMPOUND_CID>
10594821

> <PUBCHEM_CONFORMER_RMSD>
1.4

> <PUBCHEM_CONFORMER_DIVERSEORDER>
2
720
699
9
1189
139
1338
807
104
37
910
399
260
352
320
42
50
71
501
23
1544
517
24
370
610
17
305
446
1553
786
1504
89
311
1310
202
1407
1584
57
651
211
108
402
21
204
988
40
110
1
155
930
479
6

> <PUBCHEM_MMFF94_PARTIAL_CHARGES>
20
1 -0.46
14 0.34
15 0.28
16 0.29
17 0.45
18 0.06
2 -0.43
20 0.66
21 0.23
22 0.34
23 0.66
24 0.28
3 -0.68
4 -0.57
43 0.4
47 0.4
5 -0.57
6 -0.68
7 -0.43
8 -0.57

> <PUBCHEM_EFFECTIVE_ROTOR_COUNT>
7

> <PUBCHEM_PHARMACOPHORE_FEATURES>
7
1 3 acceptor
1 3 donor
1 4 acceptor
1 5 acceptor
1 6 acceptor
1 6 donor
1 8 acceptor

> <PUBCHEM_HEAVY_ATOM_COUNT>
24

> <PUBCHEM_ATOM_DEF_STEREO_COUNT>
0

> <PUBCHEM_ATOM_UDEF_STEREO_COUNT>
4

> <PUBCHEM_BOND_DEF_STEREO_COUNT>
0

> <PUBCHEM_BOND_UDEF_STEREO_COUNT>
0

> <PUBCHEM_ISOTOPIC_ATOM_COUNT>
0

> <PUBCHEM_COMPONENT_COUNT>
1

> <PUBCHEM_CACTVS_TAUTO_COUNT>
5

> <PUBCHEM_CONFORMER_ID>
00A1AA0500000002

> <PUBCHEM_MMFF94_ENERGY>
37.9997

> <PUBCHEM_FEATURE_SELFOVERLAP>
35.541

> <PUBCHEM_SHAPE_FINGERPRINT>
10369192 42 16984591105357051032
10838868 160 17771334556053385808
11045977 3 17775275032941484665
11135609 187 17607253344517500204
11273773 42 18043553766429067644
11595378 159 18189619349891251246
121448 382 8070024493373359509
12236239 1 18260835877705748732
12596602 18 18040439888345958635
12633257 1 17704353256042632977
12788726 201 18410008815100851794
128238 76 18411139138924307192
13009979 54 17916028043846345995
13140716 1 18272652389868997785
14178342 30 17913788136797772761
14787075 74 18186805768450396520
15685185 35 17390534113973200412
1813 80 17895200965237585726
18222031 100 18200295745014766734
18336668 15 18260552242323942029
19377110 9 18187353321531254138
21033648 29 16988837289406887931
22950370 63 18410290315816022674
23402539 116 18343578538848968783
23557571 272 17632583764290064991
23559900 14 18270672177737758913
4098825 35 18201166464921283294
5104073 3 18271512110464220794
5312544 6 18188500189268767948
7471813 234 17914032443068929351

> <PUBCHEM_SHAPE_MULTIPOLES>
456.67
12.59
3.18
1.29
9.96
1.28
0.12
-4.9
0.94
-2.24
0.04
0.61
-0.22
-1.86

> <PUBCHEM_SHAPE_SELFOVERLAP>
885.489

> <PUBCHEM_SHAPE_VOLUME>
275.3

> <PUBCHEM_COORDINATE_TYPE>
2
5
10

$$$$
