REMARK  Name = 10595
REMARK  8 active torsions:
REMARK  status: ('A' for Active; 'I' for Inactive)
REMARK    1  A    between atoms: C_6  and  C_22
REMARK    2  A    between atoms: C_19  and  O_20
REMARK    3  A    between atoms: C_22  and  C_24
REMARK    4  A    between atoms: C_24  and  C_25
REMARK    5  A    between atoms: C_25  and  C_28
REMARK    6  A    between atoms: N_27  and  C_30
REMARK    7  A    between atoms: C_30  and  C_31
REMARK    8  A    between atoms: C_31  and  S_32
REMARK                            x       y       z     vdW  Elec       q    Type
REMARK                         _______ _______ _______ _____ _____    ______ ____
ROOT
ATOM      1  C   UNL     1      -0.302   2.279  -0.239  0.00  0.00    +0.000 C 
ATOM      2  C   UNL     1      -1.487   2.067   0.728  0.00  0.00    +0.000 C 
ATOM      3  C   UNL     1      -2.684   1.378   0.063  0.00  0.00    +0.000 C 
ATOM      4  C   UNL     1      -2.226  -0.022  -0.462  0.00  0.00    +0.000 C 
ATOM      5  C   UNL     1      -3.412  -0.819  -1.124  0.00  0.00    +0.000 C 
ATOM      6  C   UNL     1       0.665   3.021   0.716  0.00  0.00    +0.000 C 
ATOM      7  C   UNL     1       0.181   0.896  -0.697  0.00  0.00    +0.000 C 
ATOM      8  C   UNL     1      -4.604  -0.915  -0.112  0.00  0.00    +0.002 C 
ATOM      9  C   UNL     1      -0.954   0.083  -1.346  0.00  0.00    +0.000 C 
ATOM     10  C   UNL     1      -1.681   3.441   1.364  0.00  0.00    +0.000 C 
ATOM     11  C   UNL     1      -3.865   1.250   1.033  0.00  0.00    +0.000 C 
ATOM     12  C   UNL     1      -0.254   4.010   1.471  0.00  0.00    +0.000 C 
ATOM     13  C   UNL     1      -5.023   0.462   0.429  0.00  0.00    +0.000 C 
ATOM     14  C   UNL     1      -2.999  -2.261  -1.542  0.00  0.00    +0.002 C 
ATOM     15  C   UNL     1      -0.640   3.148  -1.476  0.00  0.00    +0.000 C 
ATOM     16  C   UNL     1      -4.316  -1.881   1.058  0.00  0.00    +0.029 C 
ATOM     17  C   UNL     1      -3.897  -0.120  -2.421  0.00  0.00    +0.000 C 
ATOM     18  C   UNL     1      -2.697  -3.184  -0.368  0.00  0.00    +0.029 C 
ATOM     19  C   UNL     1      -3.888  -3.264   0.579  0.00  0.00    +0.111 C 
ENDROOT
BRANCH  19  20
ATOM     20  O   UNL     1      -3.552  -4.075   1.700  0.00  0.00    -0.384 OA
ATOM     21  H   UNL     1      -4.311  -4.125   2.302  0.00  0.00    +0.210 HD
ENDBRANCH  19  20
BRANCH   6  22
ATOM     22  C   UNL     1       1.867   3.701   0.076  0.00  0.00    +0.000 C 
ATOM     23  C   UNL     1       2.680   4.442   1.144  0.00  0.00    +0.000 C 
BRANCH  22  24
ATOM     24  C   UNL     1       2.781   2.711  -0.674  0.00  0.00    +0.010 C 
BRANCH  24  25
ATOM     25  C   UNL     1       3.304   1.579   0.211  0.00  0.00    +0.085 C 
BRANCH  25  28
ATOM     26  O   UNL     1       4.376   0.683  -1.766  0.00  0.00    -0.275 OA
ATOM     27  N   UNL     1       4.608  -0.440   0.255  0.00  0.00    -0.303 N 
ATOM     28  C   UNL     1       4.144   0.579  -0.565  0.00  0.00    +0.223 C 
ATOM     29  H   UNL     1       4.360  -0.425   1.207  0.00  0.00    +0.149 HD
BRANCH  27  30
ATOM     30  C   UNL     1       5.439  -1.521  -0.223  0.00  0.00    +0.115 C 
BRANCH  30  31
ATOM     31  C   UNL     1       4.618  -2.705  -0.700  0.00  0.00    +0.179 C 
BRANCH  31  32
ATOM     32  S   UNL     1       3.639  -3.406   0.591  0.00  0.00    +0.024 S 
ATOM     33  O   UNL     1       3.228  -4.784  -0.179  0.00  0.00    -0.069 OA
ATOM     34  O   UNL     1       2.446  -2.597   0.769  0.00  0.00    -0.069 OA
ATOM     35  O   UNL     1       4.505  -3.736   1.708  0.00  0.00    -0.069 OA
ENDBRANCH  31  32
ENDBRANCH  30  31
ENDBRANCH  27  30
ENDBRANCH  25  28
ENDBRANCH  24  25
ENDBRANCH  22  24
ENDBRANCH   6  22
TORSDOF 8
