REMARK  Name = 10595972
REMARK  4 active torsions:
REMARK  status: ('A' for Active; 'I' for Inactive)
REMARK    1  A    between atoms: C_7  and  C_25
REMARK    2  A    between atoms: C_14  and  O_20
REMARK    3  A    between atoms: C_16  and  O_22
REMARK    4  A    between atoms: C_25  and  O_26
REMARK                            x       y       z     vdW  Elec       q    Type
REMARK                         _______ _______ _______ _____ _____    ______ ____
ROOT
ATOM      1 CL   UNL     1       3.144  -3.254   0.459  0.00  0.00    -0.076 Cl
ATOM      2  O   UNL     1      -0.198   0.022  -0.901  0.00  0.00    -0.439 OA
ATOM      3  O   UNL     1       0.004   0.481   1.504  0.00  0.00    -0.407 OA
ATOM      4  O   UNL     1       0.417  -2.254   0.879  0.00  0.00    -0.282 OA
ATOM      5  O   UNL     1      -1.819   0.520   2.840  0.00  0.00    -0.245 OA
ATOM      6  C   UNL     1       0.622   0.077   0.265  0.00  0.00    +0.356 C 
ATOM      7  C   UNL     1       1.717   1.066  -0.020  0.00  0.00    +0.140 C 
ATOM      8  C   UNL     1       1.165  -1.346   0.511  0.00  0.00    +0.267 C 
ATOM      9  C   UNL     1      -1.515  -0.225  -0.668  0.00  0.00    +0.152 C 
ATOM     10  C   UNL     1      -2.103  -0.121   0.586  0.00  0.00    +0.143 C 
ATOM     11  C   UNL     1       3.011   0.745  -0.149  0.00  0.00    +0.048 C 
ATOM     12  C   UNL     1      -1.314   0.311   1.747  0.00  0.00    +0.350 C 
ATOM     13  C   UNL     1       2.616  -1.622   0.288  0.00  0.00    +0.134 C 
ATOM     14  C   UNL     1       3.453  -0.623  -0.021  0.00  0.00    +0.152 C 
ATOM     15  C   UNL     1      -2.289  -0.585  -1.774  0.00  0.00    +0.033 C 
ATOM     16  C   UNL     1      -3.467  -0.394   0.743  0.00  0.00    +0.143 C 
ATOM     17  C   UNL     1      -3.647  -0.858  -1.620  0.00  0.00    -0.016 C 
ATOM     18  C   UNL     1      -4.235  -0.765  -0.360  0.00  0.00    +0.033 C 
ATOM     19  C   UNL     1      -4.469  -1.249  -2.801  0.00  0.00    +0.031 C 
ENDROOT
BRANCH  14  20
ATOM     20  O   UNL     1       4.802  -0.848  -0.225  0.00  0.00    -0.470 OA
ATOM     21  C   UNL     1       4.981  -1.111  -1.579  0.00  0.00    +0.253 C 
ENDBRANCH  14  20
BRANCH  16  22
ATOM     22  O   UNL     1      -4.101  -0.311   1.947  0.00  0.00    -0.505 OA
ATOM     23  H   UNL     1      -3.622  -0.065   2.714  0.00  0.00    +0.292 HD
ENDBRANCH  16  22
BRANCH   7  25
ATOM     24  O   UNL     1       2.125   3.399   0.100  0.00  0.00    -0.245 OA
ATOM     25  C   UNL     1       1.369   2.484  -0.181  0.00  0.00    +0.345 C 
BRANCH  25  26
ATOM     26  O   UNL     1       0.110   2.567  -0.678  0.00  0.00    -0.441 OA
ATOM     27  C   UNL     1      -0.376   3.896  -0.892  0.00  0.00    +0.256 C 
ENDBRANCH  25  26
ENDBRANCH   7  25
TORSDOF 4
