REMARK  Name = 10597126
REMARK  9 active torsions:
REMARK  status: ('A' for Active; 'I' for Inactive)
REMARK    1  A    between atoms: C_1  and  C_6
REMARK    2  A    between atoms: C_1  and  O_18
REMARK    3  A    between atoms: C_7  and  O_16
REMARK    4  A    between atoms: O_18  and  C_20
REMARK    5  A    between atoms: C_21  and  O_25
REMARK    6  A    between atoms: C_22  and  O_27
REMARK    7  A    between atoms: C_23  and  C_31
REMARK    8  A    between atoms: C_24  and  O_29
REMARK    9  A    between atoms: C_31  and  O_32
REMARK                            x       y       z     vdW  Elec       q    Type
REMARK                         _______ _______ _______ _____ _____    ______ ____
ROOT
ATOM      1  C   UNL     1       0.101  -1.137   0.238  0.00  0.00    +0.096 C 
ATOM      2  C   UNL     1       0.123  -1.333   1.751  0.00  0.00    +0.030 C 
ATOM      3  C   UNL     1      -0.666  -2.265  -0.443  0.00  0.00    +0.030 C 
ENDROOT
BRANCH   1   6
ATOM      4  C   UNL     1       3.772   0.145  -0.329  0.00  0.00    +0.029 C 
ATOM      5  C   UNL     1       2.318   0.175   0.219  0.00  0.00    +0.026 C 
ATOM      6  C   UNL     1       1.528  -1.050  -0.318  0.00  0.00    +0.029 C 
ATOM      7  C   UNL     1       4.518  -1.161   0.035  0.00  0.00    +0.089 C 
ATOM      8  C   UNL     1       2.263  -2.361   0.017  0.00  0.00    +0.005 C 
ATOM      9  C   UNL     1       3.706  -2.364  -0.472  0.00  0.00    +0.027 C 
ATOM     10  C   UNL     1       4.515   1.423   0.092  0.00  0.00    +0.007 C 
ATOM     11  C   UNL     1       1.660   1.507  -0.080  0.00  0.00    -0.035 C 
ATOM     12  C   UNL     1       3.837   2.661  -0.501  0.00  0.00    +0.022 C 
ATOM     13  C   UNL     1       4.842  -1.294   1.528  0.00  0.00    +0.029 C 
ATOM     14  C   UNL     1       2.333   2.623  -0.415  0.00  0.00    -0.048 C 
ATOM     15  C   UNL     1       1.626   3.913  -0.716  0.00  0.00    +0.026 C 
BRANCH   7  16
ATOM     16  O   UNL     1       5.768  -1.163  -0.669  0.00  0.00    -0.387 OA
ATOM     17  H   UNL     1       5.603  -1.080  -1.621  0.00  0.00    +0.210 HD
ENDBRANCH   7  16
ENDBRANCH   1   6
BRANCH   1  18
ATOM     18  O   UNL     1      -0.571   0.086  -0.056  0.00  0.00    -0.333 OA
BRANCH  18  20
ATOM     19  O   UNL     1      -2.633  -1.001  -0.161  0.00  0.00    -0.326 OA
ATOM     20  C   UNL     1      -1.911   0.074   0.435  0.00  0.00    +0.266 C 
ATOM     21  C   UNL     1      -2.555   1.414   0.079  0.00  0.00    +0.196 C 
ATOM     22  C   UNL     1      -4.041   1.430   0.437  0.00  0.00    +0.172 C 
ATOM     23  C   UNL     1      -3.979  -1.084   0.310  0.00  0.00    +0.176 C 
ATOM     24  C   UNL     1      -4.749   0.179  -0.084  0.00  0.00    +0.169 C 
BRANCH  21  25
ATOM     25  O   UNL     1      -1.882   2.441   0.806  0.00  0.00    -0.378 OA
ATOM     26  H   UNL     1      -0.938   2.432   0.580  0.00  0.00    +0.211 HD
ENDBRANCH  21  25
BRANCH  22  27
ATOM     27  O   UNL     1      -4.662   2.569  -0.160  0.00  0.00    -0.379 OA
ATOM     28  H   UNL     1      -4.228   3.377   0.157  0.00  0.00    +0.211 HD
ENDBRANCH  22  27
BRANCH  24  29
ATOM     29  O   UNL     1      -6.064   0.119   0.463  0.00  0.00    -0.379 OA
ATOM     30  H   UNL     1      -6.554   0.919   0.214  0.00  0.00    +0.211 HD
ENDBRANCH  24  29
BRANCH  23  31
ATOM     31  C   UNL     1      -4.602  -2.337  -0.298  0.00  0.00    +0.169 C 
BRANCH  31  32
ATOM     32  O   UNL     1      -4.593  -2.208  -1.708  0.00  0.00    -0.379 OA
ATOM     33  H   UNL     1      -4.987  -2.999  -2.108  0.00  0.00    +0.211 HD
ENDBRANCH  31  32
ENDBRANCH  23  31
ENDBRANCH  18  20
ENDBRANCH   1  18
TORSDOF 9
