REMARK  Name = 10594416
REMARK  7 active torsions:
REMARK  status: ('A' for Active; 'I' for Inactive)
REMARK    1  A    between atoms: C_3  and  C_12
REMARK    2  A    between atoms: C_8  and  O_27
REMARK    3  A    between atoms: C_11  and  O_29
REMARK    4  A    between atoms: C_14  and  C_22
REMARK    5  A    between atoms: C_16  and  O_18
REMARK    6  A    between atoms: C_17  and  O_20
REMARK    7  A    between atoms: C_22  and  C_23
REMARK                            x       y       z     vdW  Elec       q    Type
REMARK                         _______ _______ _______ _____ _____    ______ ____
ROOT
ATOM      1  O   UNL     1       2.541   0.324  -2.078  0.00  0.00    -0.474 OA
ATOM      2  O   UNL     1       1.436  -1.216   1.566  0.00  0.00    -0.291 OA
ATOM      3  C   UNL     1       0.887  -0.913  -0.774  0.00  0.00    +0.128 C 
ATOM      4  C   UNL     1       1.162   0.275  -1.696  0.00  0.00    +0.217 C 
ATOM      5  C   UNL     1       1.747  -0.767   0.469  0.00  0.00    +0.186 C 
ATOM      6  C   UNL     1       3.053  -0.102   0.268  0.00  0.00    +0.103 C 
ATOM      7  C   UNL     1       3.384   0.388  -0.999  0.00  0.00    +0.147 C 
ATOM      8  C   UNL     1       3.964   0.000   1.323  0.00  0.00    +0.142 C 
ATOM      9  C   UNL     1       4.643   0.948  -1.220  0.00  0.00    +0.074 C 
ATOM     10  C   UNL     1       5.214   0.580   1.101  0.00  0.00    +0.073 C 
ATOM     11  C   UNL     1       5.554   1.049  -0.168  0.00  0.00    +0.140 C 
ENDROOT
BRANCH   3  12
ATOM     12  C   UNL     1      -0.586  -1.055  -0.454  0.00  0.00    -0.009 C 
ATOM     13  C   UNL     1      -1.264  -0.013   0.178  0.00  0.00    -0.004 C 
ATOM     14  C   UNL     1      -2.621  -0.143   0.472  0.00  0.00    +0.019 C 
ATOM     15  C   UNL     1      -1.262  -2.226  -0.791  0.00  0.00    +0.036 C 
ATOM     16  C   UNL     1      -3.299  -1.315   0.135  0.00  0.00    +0.164 C 
ATOM     17  C   UNL     1      -2.620  -2.357  -0.497  0.00  0.00    +0.167 C 
BRANCH  16  18
ATOM     18  O   UNL     1      -4.627  -1.446   0.419  0.00  0.00    -0.503 OA
ATOM     19  H   UNL     1      -5.086  -0.748   0.843  0.00  0.00    +0.292 HD
ENDBRANCH  16  18
BRANCH  17  20
ATOM     20  O   UNL     1      -3.270  -3.506  -0.832  0.00  0.00    -0.503 OA
ATOM     21  H   UNL     1      -2.805  -4.200  -1.256  0.00  0.00    +0.292 HD
ENDBRANCH  17  20
BRANCH  14  22
ATOM     22  C   UNL     1      -3.332   0.983   1.148  0.00  0.00    +0.055 C 
BRANCH  22  23
ATOM     23  C   UNL     1      -3.931   1.967   0.175  0.00  0.00    -0.030 C 
ATOM     24  C   UNL     1      -5.221   2.334   0.054  0.00  0.00    -0.048 C 
ATOM     25  C   UNL     1      -5.752   3.325  -0.943  0.00  0.00    +0.026 C 
ATOM     26  C   UNL     1      -6.271   1.734   0.951  0.00  0.00    +0.026 C 
ENDBRANCH  22  23
ENDBRANCH  14  22
ENDBRANCH   3  12
BRANCH   8  27
ATOM     27  O   UNL     1       3.693  -0.454   2.578  0.00  0.00    -0.505 OA
ATOM     28  H   UNL     1       2.864  -0.850   2.764  0.00  0.00    +0.292 HD
ENDBRANCH   8  27
BRANCH  11  29
ATOM     29  O   UNL     1       6.779   1.605  -0.381  0.00  0.00    -0.505 OA
ATOM     30  H   UNL     1       7.008   1.920  -1.233  0.00  0.00    +0.292 HD
ENDBRANCH  11  29
TORSDOF 7
