10600202
  -OEChem-03292013303D

 65 66  0     1  0  0  0  0  0999 V2000
   -1.3760    2.3904   -0.3569 O   0  0  0  0  0  0  0  0  0  0  0  0
   -1.9122   -0.1957    0.6967 O   0  0  0  0  0  0  0  0  0  0  0  0
   -4.9111    3.0730    0.2240 O   0  0  0  0  0  0  0  0  0  0  0  0
   -2.5430   -0.3014   -1.5199 O   0  0  0  0  0  0  0  0  0  0  0  0
   -0.0103    2.4896    1.5046 O   0  0  0  0  0  0  0  0  0  0  0  0
    2.1859   -0.4049   -1.9202 O   0  0  0  0  0  0  0  0  0  0  0  0
    4.1002   -2.2214   -0.5672 O   0  0  0  0  0  0  0  0  0  0  0  0
    8.9683   -1.3583    0.7058 O   0  0  0  0  0  0  0  0  0  0  0  0
    1.6391    0.6847    0.0535 N   0  0  0  0  0  0  0  0  0  0  0  0
    6.8044   -2.1186    0.1229 N   0  0  0  0  0  0  0  0  0  0  0  0
   -3.9324    0.8539    0.1171 C   0  0  1  0  0  0  0  0  0  0  0  0
   -3.7862    2.3498   -0.2766 C   0  0  2  0  0  0  0  0  0  0  0  0
   -5.2146    0.2263   -0.4358 C   0  0  0  0  0  0  0  0  0  0  0  0
   -5.3981   -1.1967    0.0829 C   0  0  0  0  0  0  0  0  0  0  0  0
   -2.5046    3.0289    0.2691 C   0  0  2  0  0  0  0  0  0  0  0  0
   -6.7004   -1.8052   -0.4460 C   0  0  0  0  0  0  0  0  0  0  0  0
   -2.7477    0.0247   -0.3589 C   0  0  0  0  0  0  0  0  0  0  0  0
   -6.9346   -3.2543    0.0196 C   0  0  0  0  0  0  0  0  0  0  0  0
   -0.5254   -0.5299    0.4304 C   0  0  1  0  0  0  0  0  0  0  0  0
    0.2163    0.7016   -0.1475 C   0  0  1  0  0  0  0  0  0  0  0  0
   -2.4406    4.5153   -0.0669 C   0  0  0  0  0  0  0  0  0  0  0  0
   -0.3412    1.9890    0.4400 C   0  0  0  0  0  0  0  0  0  0  0  0
   -8.2100   -3.8589   -0.5697 C   0  0  0  0  0  0  0  0  0  0  0  0
   -6.9987   -3.3039    1.5483 C   0  0  0  0  0  0  0  0  0  0  0  0
    0.0392   -1.0146    1.7654 C   0  0  0  0  0  0  0  0  0  0  0  0
    2.5214    0.1242   -0.8638 C   0  0  0  0  0  0  0  0  0  0  0  0
    3.9604    0.1632   -0.4968 C   0  0  0  0  0  0  0  0  0  0  0  0
    4.6995   -1.0122   -0.3618 C   0  0  0  0  0  0  0  0  0  0  0  0
    4.5716    1.3994   -0.2867 C   0  0  0  0  0  0  0  0  0  0  0  0
    6.0496   -0.9513   -0.0166 C   0  0  0  0  0  0  0  0  0  0  0  0
    5.9215    1.4603    0.0585 C   0  0  0  0  0  0  0  0  0  0  0  0
    6.6606    0.2850    0.1936 C   0  0  0  0  0  0  0  0  0  0  0  0
    8.1488   -2.2319    0.4590 C   0  0  0  0  0  0  0  0  0  0  0  0
   -3.9891    0.7938    1.2131 H   0  0  0  0  0  0  0  0  0  0  0  0
   -3.7961    2.4289   -1.3710 H   0  0  0  0  0  0  0  0  0  0  0  0
   -6.0822    0.8272   -0.1379 H   0  0  0  0  0  0  0  0  0  0  0  0
   -5.1941    0.2209   -1.5330 H   0  0  0  0  0  0  0  0  0  0  0  0
   -5.4087   -1.1655    1.1774 H   0  0  0  0  0  0  0  0  0  0  0  0
   -4.5627   -1.8378   -0.2192 H   0  0  0  0  0  0  0  0  0  0  0  0
   -2.4703    2.9123    1.3601 H   0  0  0  0  0  0  0  0  0  0  0  0
   -6.6823   -1.7877   -1.5433 H   0  0  0  0  0  0  0  0  0  0  0  0
   -7.5479   -1.1793   -0.1380 H   0  0  0  0  0  0  0  0  0  0  0  0
   -6.0890   -3.8713   -0.3100 H   0  0  0  0  0  0  0  0  0  0  0  0
   -0.4829   -1.3651   -0.2798 H   0  0  0  0  0  0  0  0  0  0  0  0
    0.0398    0.7385   -1.2306 H   0  0  0  0  0  0  0  0  0  0  0  0
   -1.4901    4.9417    0.2719 H   0  0  0  0  0  0  0  0  0  0  0  0
   -3.2545    5.0735    0.4047 H   0  0  0  0  0  0  0  0  0  0  0  0
   -2.4870    4.6729   -1.1501 H   0  0  0  0  0  0  0  0  0  0  0  0
   -4.9073    2.9944    1.1934 H   0  0  0  0  0  0  0  0  0  0  0  0
   -9.0962   -3.2968   -0.2563 H   0  0  0  0  0  0  0  0  0  0  0  0
   -8.3349   -4.8986   -0.2494 H   0  0  0  0  0  0  0  0  0  0  0  0
   -8.1716   -3.8476   -1.6639 H   0  0  0  0  0  0  0  0  0  0  0  0
   -7.7370   -2.5973    1.9423 H   0  0  0  0  0  0  0  0  0  0  0  0
   -7.2809   -4.3062    1.8896 H   0  0  0  0  0  0  0  0  0  0  0  0
   -6.0286   -3.0821    2.0027 H   0  0  0  0  0  0  0  0  0  0  0  0
    0.0146   -0.2193    2.5181 H   0  0  0  0  0  0  0  0  0  0  0  0
   -0.5719   -1.8348    2.1588 H   0  0  0  0  0  0  0  0  0  0  0  0
    1.0670   -1.3752    1.6649 H   0  0  0  0  0  0  0  0  0  0  0  0
    2.0085    1.0759    0.9158 H   0  0  0  0  0  0  0  0  0  0  0  0
    4.0101    2.3242   -0.3925 H   0  0  0  0  0  0  0  0  0  0  0  0
    6.3965    2.4235    0.2208 H   0  0  0  0  0  0  0  0  0  0  0  0
    7.6997    0.4132    0.4627 H   0  0  0  0  0  0  0  0  0  0  0  0
    3.1606   -2.1062   -0.7817 H   0  0  0  0  0  0  0  0  0  0  0  0
    6.3039   -2.9889   -0.0429 H   0  0  0  0  0  0  0  0  0  0  0  0
    8.4331   -3.2979    0.4836 H   0  0  0  0  0  0  0  0  0  0  0  0
  1 15  1  0  0  0  0
  1 22  1  0  0  0  0
  2 17  1  0  0  0  0
  2 19  1  0  0  0  0
  3 12  1  0  0  0  0
  3 49  1  0  0  0  0
  4 17  2  0  0  0  0
  5 22  2  0  0  0  0
  6 26  2  0  0  0  0
  7 28  1  0  0  0  0
  7 63  1  0  0  0  0
  8 33  2  0  0  0  0
  9 20  1  0  0  0  0
  9 26  1  0  0  0  0
  9 59  1  0  0  0  0
 10 30  1  0  0  0  0
 10 33  1  0  0  0  0
 10 64  1  0  0  0  0
 11 12  1  0  0  0  0
 11 13  1  0  0  0  0
 11 17  1  0  0  0  0
 11 34  1  0  0  0  0
 12 15  1  0  0  0  0
 12 35  1  0  0  0  0
 13 14  1  0  0  0  0
 13 36  1  0  0  0  0
 13 37  1  0  0  0  0
 14 16  1  0  0  0  0
 14 38  1  0  0  0  0
 14 39  1  0  0  0  0
 15 21  1  0  0  0  0
 15 40  1  0  0  0  0
 16 18  1  0  0  0  0
 16 41  1  0  0  0  0
 16 42  1  0  0  0  0
 18 23  1  0  0  0  0
 18 24  1  0  0  0  0
 18 43  1  0  0  0  0
 19 20  1  0  0  0  0
 19 25  1  0  0  0  0
 19 44  1  0  0  0  0
 20 22  1  0  0  0  0
 20 45  1  0  0  0  0
 21 46  1  0  0  0  0
 21 47  1  0  0  0  0
 21 48  1  0  0  0  0
 23 50  1  0  0  0  0
 23 51  1  0  0  0  0
 23 52  1  0  0  0  0
 24 53  1  0  0  0  0
 24 54  1  0  0  0  0
 24 55  1  0  0  0  0
 25 56  1  0  0  0  0
 25 57  1  0  0  0  0
 25 58  1  0  0  0  0
 26 27  1  0  0  0  0
 27 28  2  0  0  0  0
 27 29  1  0  0  0  0
 28 30  1  0  0  0  0
 29 31  2  0  0  0  0
 29 60  1  0  0  0  0
 30 32  2  0  0  0  0
 31 32  1  0  0  0  0
 31 61  1  0  0  0  0
 32 62  1  0  0  0  0
 33 65  1  0  0  0  0
M  END
> <PUBCHEM_COMPOUND_CID>
10600202

> <PUBCHEM_CONFORMER_RMSD>
1.2

> <PUBCHEM_CONFORMER_DIVERSEORDER>
1
23
83
82
44
77
25
76
79
63
37
6
24
88
75
81
58
89
34
86
48
71
17
42
74
12
91
92
38
30
59
13
21
84
80
36
27
69
29
40
31
55
43
41
3
32
46
26
52
56
22
72
57
65
60
54
7
64
85
49
33
2
90
8
62
67
9
28
68
78
50
35
19
11
66
15
45
53
87
16
14
10
47
51
18
5
61
4
70
39
73
20

> <PUBCHEM_MMFF94_PARTIAL_CHARGES>
33
1 -0.43
10 -0.55
11 0.06
12 0.28
15 0.28
17 0.66
19 0.28
2 -0.43
20 0.36
22 0.66
26 0.54
27 0.09
28 0.08
29 -0.15
3 -0.68
30 0.12
31 -0.15
32 -0.15
33 0.57
4 -0.57
49 0.4
5 -0.57
59 0.37
6 -0.57
60 0.15
61 0.15
62 0.15
63 0.45
64 0.37
65 0.06
7 -0.53
8 -0.57
9 -0.73

> <PUBCHEM_EFFECTIVE_ROTOR_COUNT>
10.4

> <PUBCHEM_PHARMACOPHORE_FEATURES>
12
1 10 donor
1 3 acceptor
1 3 donor
1 4 acceptor
1 5 acceptor
1 6 acceptor
1 7 donor
1 8 acceptor
1 9 donor
3 18 23 24 hydrophobe
4 13 14 16 18 hydrophobe
6 27 28 29 30 31 32 rings

> <PUBCHEM_HEAVY_ATOM_COUNT>
33

> <PUBCHEM_ATOM_DEF_STEREO_COUNT>
5

> <PUBCHEM_ATOM_UDEF_STEREO_COUNT>
0

> <PUBCHEM_BOND_DEF_STEREO_COUNT>
0

> <PUBCHEM_BOND_UDEF_STEREO_COUNT>
0

> <PUBCHEM_ISOTOPIC_ATOM_COUNT>
0

> <PUBCHEM_COMPONENT_COUNT>
1

> <PUBCHEM_CACTVS_TAUTO_COUNT>
14

> <PUBCHEM_CONFORMER_ID>
00A1BF0A00000001

> <PUBCHEM_MMFF94_ENERGY>
89.0698

> <PUBCHEM_FEATURE_SELFOVERLAP>
60.93

> <PUBCHEM_SHAPE_FINGERPRINT>
10100884 174 18261951946528449170
10411042 1 18339079402151613077
11672396 43 18187090554947502118
12166972 35 17895196623025980812
1361 4 18411139091342829926
13782708 43 18201721760214315131
15183329 4 17386005023566233754
15461852 350 18411426086127326590
17492 89 18269559338715804198
18608769 82 18411981330091760865
20721686 146 9079125461572350339
21130935 74 18268425742918592042
21315763 28 18409446977860542374
22149856 69 17203067221510075770
23559900 14 18410007737528946664
23569943 247 17606670319944810362
25025965 108 18270948112212828927
4058900 60 8502114962666802957
4073 2 18113908148346291458
4144715 1 17913217460060574228
439807 62 18411982464137193481
5718773 13 18410292527402543679

> <PUBCHEM_SHAPE_MULTIPOLES>
622.21
23.71
4.48
1.1
14.04
1.65
0.09
-27.68
1.02
-8.64
0.57
-0.39
-0.32
-0.12

> <PUBCHEM_SHAPE_SELFOVERLAP>
1282.214

> <PUBCHEM_SHAPE_VOLUME>
350.7

> <PUBCHEM_COORDINATE_TYPE>
2
5
10

$$$$
