REMARK  Name = 10601280
REMARK  12 active torsions:
REMARK  status: ('A' for Active; 'I' for Inactive)
REMARK    1  A    between atoms: C_1  and  C_35
REMARK    2  A    between atoms: C_6  and  C_27
REMARK    3  A    between atoms: C_7  and  O_19
REMARK    4  A    between atoms: C_10  and  O_21
REMARK    5  A    between atoms: C_13  and  O_23
REMARK    6  A    between atoms: C_18  and  O_25
REMARK    7  A    between atoms: C_27  and  C_29
REMARK    8  A    between atoms: C_29  and  C_30
REMARK    9  A    between atoms: C_30  and  C_31
REMARK   10  A    between atoms: C_31  and  C_32
REMARK   11  A    between atoms: C_35  and  O_36
REMARK   12  A    between atoms: O_36  and  C_38
REMARK                            x       y       z     vdW  Elec       q    Type
REMARK                         _______ _______ _______ _____ _____    ______ ____
ROOT
ATOM      1  C   UNL     1       0.692  -0.083  -0.200  0.00  0.00    +0.043 C 
ATOM      2  C   UNL     1      -0.230  -1.304   0.037  0.00  0.00    +0.030 C 
ATOM      3  C   UNL     1      -1.657  -0.902   0.440  0.00  0.00    +0.005 C 
ATOM      4  C   UNL     1      -2.271  -0.025  -0.704  0.00  0.00    +0.002 C 
ATOM      5  C   UNL     1      -3.758   0.394  -0.384  0.00  0.00    +0.025 C 
ATOM      6  C   UNL     1       2.010  -0.827  -0.527  0.00  0.00    +0.006 C 
ATOM      7  C   UNL     1      -4.591  -0.917  -0.119  0.00  0.00    +0.115 C 
ATOM      8  C   UNL     1       0.108   0.724  -1.369  0.00  0.00    +0.004 C 
ATOM      9  C   UNL     1      -1.342   1.157  -1.091  0.00  0.00    +0.000 C 
ATOM     10  C   UNL     1       0.595  -2.229   0.936  0.00  0.00    +0.111 C 
ATOM     11  C   UNL     1      -2.526  -2.140   0.724  0.00  0.00    +0.032 C 
ATOM     12  C   UNL     1       2.057  -1.967   0.519  0.00  0.00    +0.029 C 
ATOM     13  C   UNL     1      -3.995  -1.794   1.000  0.00  0.00    +0.135 C 
ATOM     14  C   UNL     1      -4.397   1.124  -1.606  0.00  0.00    +0.005 C 
ATOM     15  C   UNL     1      -6.080  -0.603   0.120  0.00  0.00    +0.059 C 
ATOM     16  C   UNL     1      -3.787   1.385   0.812  0.00  0.00    +0.002 C 
ATOM     17  C   UNL     1      -5.890   1.411  -1.422  0.00  0.00    +0.029 C 
ATOM     18  C   UNL     1      -6.694   0.167  -1.054  0.00  0.00    +0.113 C 
ENDROOT
BRANCH   7  19
ATOM     19  O   UNL     1      -4.613  -1.732  -1.315  0.00  0.00    -0.384 OA
ATOM     20  H   UNL     1      -3.707  -1.985  -1.551  0.00  0.00    +0.210 HD
ENDBRANCH   7  19
BRANCH  10  21
ATOM     21  O   UNL     1       0.467  -1.913   2.316  0.00  0.00    -0.384 OA
ATOM     22  H   UNL     1      -0.448  -2.071   2.600  0.00  0.00    +0.210 HD
ENDBRANCH  10  21
BRANCH  13  23
ATOM     23  O   UNL     1      -4.085  -1.184   2.281  0.00  0.00    -0.382 OA
ATOM     24  H   UNL     1      -5.010  -0.960   2.468  0.00  0.00    +0.210 HD
ENDBRANCH  13  23
BRANCH  18  25
ATOM     25  O   UNL     1      -8.021   0.545  -0.701  0.00  0.00    -0.384 OA
ATOM     26  H   UNL     1      -8.532  -0.246  -0.467  0.00  0.00    +0.210 HD
ENDBRANCH  18  25
BRANCH   6  27
ATOM     27  C   UNL     1       3.279   0.013  -0.545  0.00  0.00    +0.000 C 
ATOM     28  C   UNL     1       3.359   0.811  -1.851  0.00  0.00    +0.000 C 
BRANCH  27  29
ATOM     29  C   UNL     1       4.514  -0.890  -0.337  0.00  0.00    +0.000 C 
BRANCH  29  30
ATOM     30  C   UNL     1       5.847  -0.138  -0.409  0.00  0.00    +0.000 C 
BRANCH  30  31
ATOM     31  C   UNL     1       7.073  -1.051  -0.273  0.00  0.00    +0.000 C 
BRANCH  31  32
ATOM     32  C   UNL     1       8.445  -0.349  -0.268  0.00  0.00    +0.000 C 
ATOM     33  C   UNL     1       8.635   0.418  -1.580  0.00  0.00    +0.000 C 
ATOM     34  C   UNL     1       9.602  -1.328  -0.070  0.00  0.00    +0.000 C 
ENDBRANCH  31  32
ENDBRANCH  30  31
ENDBRANCH  29  30
ENDBRANCH  27  29
ENDBRANCH   6  27
BRANCH   1  35
ATOM     35  C   UNL     1       0.867   0.850   1.024  0.00  0.00    +0.208 C 
BRANCH  35  36
ATOM     36  O   UNL     1       1.351   2.087   0.553  0.00  0.00    -0.448 OA
BRANCH  36  38
ATOM     37  O   UNL     1       1.384   2.929   2.704  0.00  0.00    -0.250 OA
ATOM     38  C   UNL     1       1.571   3.055   1.502  0.00  0.00    +0.318 C 
ATOM     39  C   UNL     1       2.082   4.309   0.859  0.00  0.00    +0.121 C 
ENDBRANCH  36  38
ENDBRANCH  35  36
ENDBRANCH   1  35
TORSDOF 12
