REMARK  Name = 10603
REMARK  5 active torsions:
REMARK  status: ('A' for Active; 'I' for Inactive)
REMARK    1  A    between atoms: C_2  and  O_18
REMARK    2  A    between atoms: C_13  and  O_20
REMARK    3  A    between atoms: C_14  and  O_22
REMARK    4  A    between atoms: C_15  and  O_24
REMARK    5  A    between atoms: C_17  and  O_26
REMARK                            x       y       z     vdW  Elec       q    Type
REMARK                         _______ _______ _______ _____ _____    ______ ____
ROOT
ATOM      1  O   UNL     1      -2.047  -1.738   0.624  0.00  0.00    -0.470 OA
ATOM      2  C   UNL     1       0.091  -2.086  -0.522  0.00  0.00    +0.140 C 
ATOM      3  C   UNL     1       0.072  -0.640  -1.097  0.00  0.00    +0.076 C 
ATOM      4  C   UNL     1       0.959  -2.067   0.760  0.00  0.00    +0.057 C 
ATOM      5  C   UNL     1       1.360  -0.091  -0.530  0.00  0.00    -0.017 C 
ATOM      6  C   UNL     1       1.849  -0.892   0.507  0.00  0.00    -0.020 C 
ATOM      7  C   UNL     1      -1.321  -2.594  -0.256  0.00  0.00    +0.233 C 
ATOM      8  C   UNL     1      -1.163   0.125  -0.679  0.00  0.00    +0.021 C 
ATOM      9  C   UNL     1      -2.127  -0.449   0.163  0.00  0.00    +0.171 C 
ATOM     10  C   UNL     1       2.056   1.042  -0.929  0.00  0.00    +0.036 C 
ATOM     11  C   UNL     1       3.013  -0.562   1.185  0.00  0.00    +0.035 C 
ATOM     12  C   UNL     1      -1.375   1.437  -1.133  0.00  0.00    +0.002 C 
ATOM     13  C   UNL     1       3.234   1.378  -0.258  0.00  0.00    +0.167 C 
ATOM     14  C   UNL     1      -3.232   0.290   0.597  0.00  0.00    +0.202 C 
ATOM     15  C   UNL     1       3.708   0.583   0.795  0.00  0.00    +0.167 C 
ATOM     16  C   UNL     1      -2.490   2.168  -0.717  0.00  0.00    +0.040 C 
ATOM     17  C   UNL     1      -3.412   1.599   0.156  0.00  0.00    +0.171 C 
ENDROOT
BRANCH   2  18
ATOM     18  O   UNL     1       0.682  -2.973  -1.478  0.00  0.00    -0.382 OA
ATOM     19  H   UNL     1       1.586  -2.681  -1.674  0.00  0.00    +0.210 HD
ENDBRANCH   2  18
BRANCH  13  20
ATOM     20  O   UNL     1       3.922   2.492  -0.640  0.00  0.00    -0.503 OA
ATOM     21  H   UNL     1       3.602   3.021  -1.344  0.00  0.00    +0.292 HD
ENDBRANCH  13  20
BRANCH  14  22
ATOM     22  O   UNL     1      -4.146  -0.271   1.440  0.00  0.00    -0.501 OA
ATOM     23  H   UNL     1      -4.029  -1.151   1.740  0.00  0.00    +0.292 HD
ENDBRANCH  14  22
BRANCH  15  24
ATOM     24  O   UNL     1       4.856   0.921   1.448  0.00  0.00    -0.503 OA
ATOM     25  H   UNL     1       5.169   0.387   2.151  0.00  0.00    +0.292 HD
ENDBRANCH  15  24
BRANCH  17  26
ATOM     26  O   UNL     1      -4.489   2.327   0.562  0.00  0.00    -0.503 OA
ATOM     27  H   UNL     1      -5.114   1.950   1.150  0.00  0.00    +0.292 HD
ENDBRANCH  17  26
TORSDOF 5
