REMARK  Name = 10600559
REMARK  13 active torsions:
REMARK  status: ('A' for Active; 'I' for Inactive)
REMARK    1  A    between atoms: N_3  and  C_31
REMARK    2  A    between atoms: C_4  and  C_20
REMARK    3  A    between atoms: C_5  and  O_16
REMARK    4  A    between atoms: C_13  and  O_18
REMARK    5  A    between atoms: C_20  and  C_21
REMARK    6  A    between atoms: C_21  and  C_22
REMARK    7  A    between atoms: C_23  and  C_25
REMARK    8  A    between atoms: C_25  and  C_26
REMARK    9  A    between atoms: C_26  and  C_27
REMARK   10  A    between atoms: C_31  and  C_33
REMARK   11  A    between atoms: C_31  and  C_36
REMARK   12  A    between atoms: C_33  and  O_34
REMARK   13  A    between atoms: C_36  and  O_37
REMARK                            x       y       z     vdW  Elec       q    Type
REMARK                         _______ _______ _______ _____ _____    ______ ____
ROOT
ATOM      1  O   UNL     1       0.105   1.332  -1.617  0.00  0.00    -0.481 OA
ATOM      2  O   UNL     1       3.638  -0.272   2.738  0.00  0.00    -0.270 OA
ATOM      3  N   UNL     1       3.306  -0.702   0.439  0.00  0.00    -0.262 N 
ATOM      4  C   UNL     1      -1.167   1.874  -2.022  0.00  0.00    +0.158 C 
ATOM      5  C   UNL     1      -1.456   3.232  -1.349  0.00  0.00    +0.151 C 
ATOM      6  C   UNL     1      -1.375   3.147   0.172  0.00  0.00    +0.065 C 
ATOM      7  C   UNL     1       0.443   1.453  -0.300  0.00  0.00    +0.135 C 
ATOM      8  C   UNL     1      -0.209   2.301   0.608  0.00  0.00    +0.048 C 
ATOM      9  C   UNL     1       1.517   0.704   0.149  0.00  0.00    +0.036 C 
ATOM     10  C   UNL     1      -1.077   2.042  -3.548  0.00  0.00    +0.046 C 
ATOM     11  C   UNL     1       2.386  -0.253  -0.598  0.00  0.00    +0.124 C 
ATOM     12  C   UNL     1       1.919   0.779   1.483  0.00  0.00    +0.057 C 
ATOM     13  C   UNL     1       0.212   2.351   1.957  0.00  0.00    +0.133 C 
ATOM     14  C   UNL     1       3.063  -0.118   1.676  0.00  0.00    +0.250 C 
ATOM     15  C   UNL     1       1.288   1.586   2.408  0.00  0.00    +0.041 C 
ENDROOT
BRANCH   5  16
ATOM     16  O   UNL     1      -0.532   4.229  -1.800  0.00  0.00    -0.381 OA
ATOM     17  H   UNL     1      -0.573   4.293  -2.766  0.00  0.00    +0.211 HD
ENDBRANCH   5  16
BRANCH  13  18
ATOM     18  O   UNL     1      -0.432   3.154   2.855  0.00  0.00    -0.506 OA
ATOM     19  H   UNL     1      -1.158   3.678   2.578  0.00  0.00    +0.292 HD
ENDBRANCH  13  18
BRANCH   4  20
ATOM     20  C   UNL     1      -2.261   0.837  -1.716  0.00  0.00    +0.047 C 
BRANCH  20  21
ATOM     21  C   UNL     1      -1.928  -0.504  -2.355  0.00  0.00    +0.029 C 
BRANCH  21  22
ATOM     22  C   UNL     1      -3.000  -1.512  -2.050  0.00  0.00    -0.034 C 
ATOM     23  C   UNL     1      -3.037  -2.397  -1.034  0.00  0.00    -0.048 C 
ATOM     24  C   UNL     1      -1.907  -2.449  -0.038  0.00  0.00    +0.026 C 
BRANCH  23  25
ATOM     25  C   UNL     1      -4.136  -3.417  -0.819  0.00  0.00    +0.026 C 
BRANCH  25  26
ATOM     26  C   UNL     1      -4.881  -3.255   0.512  0.00  0.00    +0.030 C 
BRANCH  26  27
ATOM     27  C   UNL     1      -5.537  -1.908   0.648  0.00  0.00    -0.034 C 
ATOM     28  C   UNL     1      -5.398  -1.011   1.642  0.00  0.00    -0.048 C 
ATOM     29  C   UNL     1      -4.506  -1.311   2.817  0.00  0.00    +0.026 C 
ATOM     30  C   UNL     1      -6.087   0.322   1.714  0.00  0.00    +0.026 C 
ENDBRANCH  26  27
ENDBRANCH  25  26
ENDBRANCH  23  25
ENDBRANCH  21  22
ENDBRANCH  20  21
ENDBRANCH   4  20
BRANCH   3  31
ATOM     31  C   UNL     1       4.350  -1.663   0.155  0.00  0.00    +0.204 C 
BRANCH  31  33
ATOM     32  O   UNL     1       5.619   0.172  -0.819  0.00  0.00    -0.248 OA
ATOM     33  C   UNL     1       5.599  -0.883  -0.197  0.00  0.00    +0.335 C 
BRANCH  33  34
ATOM     34  O   UNL     1       6.727  -1.516   0.218  0.00  0.00    -0.479 OA
ATOM     35  H   UNL     1       6.664  -2.322   0.692  0.00  0.00    +0.295 HD
ENDBRANCH  33  34
ENDBRANCH  31  33
BRANCH  31  36
ATOM     36  C   UNL     1       3.962  -2.594  -0.985  0.00  0.00    +0.168 C 
BRANCH  36  37
ATOM     37  O   UNL     1       4.792  -3.748  -0.949  0.00  0.00    -0.380 OA
ATOM     38  H   UNL     1       4.548  -4.344  -1.674  0.00  0.00    +0.211 HD
ENDBRANCH  36  37
ENDBRANCH  31  36
ENDBRANCH   3  31
TORSDOF 13
