REMARK  Name = 10600202
REMARK  9 active torsions:
REMARK  status: ('A' for Active; 'I' for Inactive)
REMARK    1  A    between atoms: C_5  and  C_32
REMARK    2  A    between atoms: C_6  and  O_30
REMARK    3  A    between atoms: C_10  and  N_15
REMARK    4  A    between atoms: C_16  and  C_18
REMARK    5  A    between atoms: C_19  and  O_28
REMARK    6  A    between atoms: C_21  and  N_25
REMARK    7  A    between atoms: C_32  and  C_33
REMARK    8  A    between atoms: C_33  and  C_34
REMARK    9  A    between atoms: C_34  and  C_35
REMARK                            x       y       z     vdW  Elec       q    Type
REMARK                         _______ _______ _______ _____ _____    ______ ____
ROOT
ATOM      1  O   UNL     1      -1.376   2.390  -0.357  0.00  0.00    -0.449 OA
ATOM      2  O   UNL     1      -1.912  -0.196   0.697  0.00  0.00    -0.450 OA
ATOM      3  O   UNL     1      -2.543  -0.301  -1.520  0.00  0.00    -0.250 OA
ATOM      4  O   UNL     1      -0.010   2.490   1.505  0.00  0.00    -0.248 OA
ATOM      5  C   UNL     1      -3.932   0.854   0.117  0.00  0.00    +0.129 C 
ATOM      6  C   UNL     1      -3.786   2.350  -0.277  0.00  0.00    +0.161 C 
ATOM      7  C   UNL     1      -2.505   3.029   0.269  0.00  0.00    +0.196 C 
ATOM      8  C   UNL     1      -2.748   0.025  -0.359  0.00  0.00    +0.319 C 
ATOM      9  C   UNL     1      -0.525  -0.530   0.430  0.00  0.00    +0.198 C 
ATOM     10  C   UNL     1       0.216   0.702  -0.147  0.00  0.00    +0.212 C 
ATOM     11  C   UNL     1      -2.441   4.515  -0.067  0.00  0.00    +0.050 C 
ATOM     12  C   UNL     1      -0.341   1.989   0.440  0.00  0.00    +0.339 C 
ATOM     13  C   UNL     1       0.039  -1.015   1.765  0.00  0.00    +0.050 C 
ENDROOT
BRANCH  10  15
ATOM     14  O   UNL     1       2.186  -0.405  -1.920  0.00  0.00    -0.270 OA
ATOM     15  N   UNL     1       1.639   0.685   0.053  0.00  0.00    -0.290 N 
ATOM     16  C   UNL     1       2.521   0.124  -0.864  0.00  0.00    +0.249 C 
ATOM     17  H   UNL     1       2.004   1.087   0.875  0.00  0.00    +0.150 HD
BRANCH  16  18
ATOM     18  C   UNL     1       3.960   0.163  -0.497  0.00  0.00    +0.088 C 
ATOM     19  C   UNL     1       4.699  -1.012  -0.362  0.00  0.00    +0.151 C 
ATOM     20  C   UNL     1       4.572   1.399  -0.287  0.00  0.00    +0.008 C 
ATOM     21  C   UNL     1       6.050  -0.951  -0.017  0.00  0.00    +0.085 C 
ATOM     22  C   UNL     1       5.921   1.460   0.059  0.00  0.00    +0.002 C 
ATOM     23  C   UNL     1       6.661   0.285   0.194  0.00  0.00    +0.018 C 
BRANCH  21  25
ATOM     24  O   UNL     1       8.968  -1.358   0.706  0.00  0.00    -0.265 OA
ATOM     25  N   UNL     1       6.804  -2.119   0.123  0.00  0.00    -0.274 N 
ATOM     26  C   UNL     1       8.149  -2.232   0.459  0.00  0.00    +0.304 C 
ATOM     27  H   UNL     1       6.326  -2.964  -0.036  0.00  0.00    +0.155 HD
ENDBRANCH  21  25
BRANCH  19  28
ATOM     28  O   UNL     1       4.100  -2.221  -0.567  0.00  0.00    -0.504 OA
ATOM     29  H   UNL     1       3.193  -2.261  -0.799  0.00  0.00    +0.292 HD
ENDBRANCH  19  28
ENDBRANCH  16  18
ENDBRANCH  10  15
BRANCH   6  30
ATOM     30  O   UNL     1      -4.911   3.073   0.224  0.00  0.00    -0.380 OA
ATOM     31  H   UNL     1      -5.729   2.667  -0.104  0.00  0.00    +0.211 HD
ENDBRANCH   6  30
BRANCH   5  32
ATOM     32  C   UNL     1      -5.215   0.226  -0.436  0.00  0.00    +0.014 C 
BRANCH  32  33
ATOM     33  C   UNL     1      -5.398  -1.197   0.083  0.00  0.00    +0.001 C 
BRANCH  33  34
ATOM     34  C   UNL     1      -6.700  -1.805  -0.446  0.00  0.00    +0.000 C 
BRANCH  34  35
ATOM     35  C   UNL     1      -6.935  -3.254   0.020  0.00  0.00    +0.000 C 
ATOM     36  C   UNL     1      -8.210  -3.859  -0.570  0.00  0.00    +0.000 C 
ATOM     37  C   UNL     1      -6.999  -3.304   1.548  0.00  0.00    +0.000 C 
ENDBRANCH  34  35
ENDBRANCH  33  34
ENDBRANCH  32  33
ENDBRANCH   5  32
TORSDOF 9
