REMARK  Name = 10615474
REMARK  5 active torsions:
REMARK  status: ('A' for Active; 'I' for Inactive)
REMARK    1  A    between atoms: C_4  and  C_14
REMARK    2  A    between atoms: C_5  and  O_26
REMARK    3  A    between atoms: C_15  and  O_20
REMARK    4  A    between atoms: C_17  and  O_22
REMARK    5  A    between atoms: C_19  and  O_24
REMARK                            x       y       z     vdW  Elec       q    Type
REMARK                         _______ _______ _______ _____ _____    ______ ____
ROOT
ATOM      1  O   UNL     1       1.098  -2.059   0.346  0.00  0.00    -0.475 OA
ATOM      2  O   UNL     1       5.085   1.654  -0.162  0.00  0.00    -0.435 OA
ATOM      3  O   UNL     1       5.669  -0.669   0.093  0.00  0.00    -0.435 OA
ATOM      4  C   UNL     1      -0.717  -0.498  -0.152  0.00  0.00    +0.100 C 
ATOM      5  C   UNL     1       0.210   0.725  -0.024  0.00  0.00    +0.143 C 
ATOM      6  C   UNL     1      -0.197  -1.613   0.760  0.00  0.00    +0.212 C 
ATOM      7  C   UNL     1       1.661   0.305   0.023  0.00  0.00    +0.042 C 
ATOM      8  C   UNL     1       2.018  -1.051   0.205  0.00  0.00    +0.140 C 
ATOM      9  C   UNL     1       2.675   1.273  -0.091  0.00  0.00    +0.041 C 
ATOM     10  C   UNL     1       3.361  -1.449   0.220  0.00  0.00    +0.077 C 
ATOM     11  C   UNL     1       3.989   0.854  -0.057  0.00  0.00    +0.176 C 
ATOM     12  C   UNL     1       4.323  -0.471   0.089  0.00  0.00    +0.179 C 
ATOM     13  C   UNL     1       6.146   0.682  -0.068  0.00  0.00    +0.429 C 
ENDROOT
BRANCH   4  14
ATOM     14  C   UNL     1      -2.168  -0.161   0.140  0.00  0.00    +0.021 C 
ATOM     15  C   UNL     1      -3.147  -0.326  -0.838  0.00  0.00    +0.167 C 
ATOM     16  C   UNL     1      -2.513   0.319   1.402  0.00  0.00    +0.002 C 
ATOM     17  C   UNL     1      -4.475  -0.010  -0.553  0.00  0.00    +0.202 C 
ATOM     18  C   UNL     1      -3.841   0.635   1.687  0.00  0.00    +0.040 C 
ATOM     19  C   UNL     1      -4.822   0.471   0.709  0.00  0.00    +0.171 C 
BRANCH  15  20
ATOM     20  O   UNL     1      -2.811  -0.798  -2.073  0.00  0.00    -0.503 OA
ATOM     21  H   UNL     1      -1.920  -1.011  -2.267  0.00  0.00    +0.292 HD
ENDBRANCH  15  20
BRANCH  17  22
ATOM     22  O   UNL     1      -5.436  -0.172  -1.507  0.00  0.00    -0.501 OA
ATOM     23  H   UNL     1      -5.204  -0.495  -2.356  0.00  0.00    +0.292 HD
ENDBRANCH  17  22
BRANCH  19  24
ATOM     24  O   UNL     1      -6.116   0.780   1.002  0.00  0.00    -0.503 OA
ATOM     25  H   UNL     1      -6.782   0.673   0.351  0.00  0.00    +0.292 HD
ENDBRANCH  19  24
ENDBRANCH   4  14
BRANCH   5  26
ATOM     26  O   UNL     1       0.009   1.580  -1.149  0.00  0.00    -0.379 OA
ATOM     27  H   UNL     1      -0.921   1.853  -1.185  0.00  0.00    +0.211 HD
ENDBRANCH   5  26
TORSDOF 5
