REMARK  Name = 10618042
REMARK  8 active torsions:
REMARK  status: ('A' for Active; 'I' for Inactive)
REMARK    1  A    between atoms: C_1  and  N_2
REMARK    2  A    between atoms: C_1  and  C_6
REMARK    3  A    between atoms: C_1  and  C_14
REMARK    4  A    between atoms: C_1  and  C_17
REMARK    5  A    between atoms: C_7  and  C_10
REMARK    6  A    between atoms: C_10  and  O_11
REMARK    7  A    between atoms: C_14  and  O_15
REMARK    8  A    between atoms: C_17  and  C_19
REMARK                            x       y       z     vdW  Elec       q    Type
REMARK                         _______ _______ _______ _____ _____    ______ ____
ROOT
ATOM      1  C   UNL     1       0.628   1.490   0.489  0.00  0.00    +0.047 C 
ENDROOT
BRANCH   1   2
ATOM      2  N   UNL     1      -0.258   1.989  -0.568  0.00  0.00    +0.390 N 
ATOM      3  H   UNL     1      -0.902   1.250  -0.849  0.00  0.00    -0.088 HD
ATOM      4  H   UNL     1       0.301   2.277  -1.371  0.00  0.00    -0.088 HD
ATOM      5  H   UNL     1      -0.788   2.787  -0.219  0.00  0.00    -0.088 HD
ENDBRANCH   1   2
BRANCH   1   6
ATOM      6  C   UNL     1       1.409   0.326  -0.093  0.00  0.00    +0.003 C 
ATOM      7  C   UNL     1       2.626   0.629  -0.886  0.00  0.00    +0.097 C 
ATOM      8  C   UNL     1       2.743   0.024   0.482  0.00  0.00    +0.010 C 
BRANCH   7  10
ATOM      9  O   UNL     1       3.960  -0.819  -2.198  0.00  0.00    -0.250 OA
ATOM     10  C   UNL     1       2.911  -0.206  -2.064  0.00  0.00    +0.313 C 
BRANCH  10  11
ATOM     11  O   UNL     1       1.889  -0.210  -2.953  0.00  0.00    -0.480 OA
ATOM     12  H   UNL     1       1.114   0.287  -2.779  0.00  0.00    +0.295 HD
ENDBRANCH  10  11
ENDBRANCH   7  10
ENDBRANCH   1   6
BRANCH   1  14
ATOM     13  O   UNL     1       1.908   3.539   0.131  0.00  0.00    -0.253 OA
ATOM     14  C   UNL     1       1.577   2.628   0.883  0.00  0.00    +0.295 C 
BRANCH  14  15
ATOM     15  O   UNL     1       2.015   2.564   2.167  0.00  0.00    -0.482 OA
ATOM     16  H   UNL     1       1.746   1.857   2.719  0.00  0.00    +0.295 HD
ENDBRANCH  14  15
ENDBRANCH   1  14
BRANCH   1  17
ATOM     17  C   UNL     1      -0.165   1.061   1.744  0.00  0.00    +0.017 C 
BRANCH  17  19
ATOM     18  O   UNL     1      -2.108  -1.855  -0.597  0.00  0.00    -0.470 OA
ATOM     19  C   UNL     1      -1.197  -0.050   1.513  0.00  0.00    -0.021 C 
ATOM     20  C   UNL     1      -2.177   0.355   0.437  0.00  0.00    +0.018 C 
ATOM     21  C   UNL     1      -0.506  -1.350   1.174  0.00  0.00    +0.030 C 
ATOM     22  C   UNL     1      -2.585  -0.567  -0.533  0.00  0.00    +0.210 C 
ATOM     23  C   UNL     1      -1.007  -2.176   0.162  0.00  0.00    +0.139 C 
ATOM     24  C   UNL     1      -2.706   1.654   0.403  0.00  0.00    -0.001 C 
ATOM     25  C   UNL     1       0.637  -1.758   1.877  0.00  0.00    +0.003 C 
ATOM     26  C   UNL     1      -3.521  -0.206  -1.506  0.00  0.00    +0.021 C 
ATOM     27  C   UNL     1      -0.392  -3.397  -0.129  0.00  0.00    +0.037 C 
ATOM     28  C   UNL     1      -3.634   2.016  -0.574  0.00  0.00    -0.000 C 
ATOM     29  C   UNL     1       1.256  -2.974   1.582  0.00  0.00    +0.000 C 
ATOM     30  C   UNL     1      -4.044   1.085  -1.526  0.00  0.00    -0.001 C 
ATOM     31  C   UNL     1       0.739  -3.794   0.582  0.00  0.00    +0.003 C 
ENDBRANCH  17  19
ENDBRANCH   1  17
TORSDOF 8
