REMARK  Name = 10612083
REMARK  4 active torsions:
REMARK  status: ('A' for Active; 'I' for Inactive)
REMARK    1  A    between atoms: C_7  and  C_16
REMARK    2  A    between atoms: C_8  and  C_13
REMARK    3  A    between atoms: C_13  and  O_14
REMARK    4  A    between atoms: C_17  and  C_19
REMARK                            x       y       z     vdW  Elec       q    Type
REMARK                         _______ _______ _______ _____ _____    ______ ____
ROOT
ATOM      1  S   UNL     1      -0.549   1.836  -0.370  0.00  0.00    +0.009 S 
ATOM      2  O   UNL     1      -0.476   2.772  -1.475  0.00  0.00    -0.171 OA
ATOM      3  O   UNL     1      -0.260   2.269   0.984  0.00  0.00    -0.171 OA
ATOM      4  O   UNL     1      -2.542  -1.061   2.150  0.00  0.00    -0.275 OA
ATOM      5  N   UNL     1      -1.663  -0.330   0.086  0.00  0.00    -0.252 N 
ATOM      6  C   UNL     1      -2.117   0.978  -0.415  0.00  0.00    +0.216 C 
ATOM      7  C   UNL     1       0.471   0.345  -0.758  0.00  0.00    +0.158 C 
ATOM      8  C   UNL     1      -0.274  -0.747   0.033  0.00  0.00    +0.200 C 
ATOM      9  C   UNL     1      -3.082   1.020   0.775  0.00  0.00    +0.130 C 
ATOM     10  C   UNL     1      -2.466  -0.330   1.188  0.00  0.00    +0.231 C 
ATOM     11  C   UNL     1       0.503   0.121  -2.274  0.00  0.00    +0.031 C 
ENDROOT
BRANCH   8  13
ATOM     12  O   UNL     1       0.788  -2.804  -0.656  0.00  0.00    -0.248 OA
ATOM     13  C   UNL     1      -0.223  -2.128  -0.543  0.00  0.00    +0.334 C 
BRANCH  13  14
ATOM     14  O   UNL     1      -1.458  -2.531  -0.927  0.00  0.00    -0.479 OA
ATOM     15  H   UNL     1      -2.194  -1.963  -0.812  0.00  0.00    +0.295 HD
ENDBRANCH  13  14
ENDBRANCH   8  13
BRANCH   7  16
ATOM     16  C   UNL     1       1.847   0.622  -0.238  0.00  0.00    +0.008 C 
ATOM     17  C   UNL     1       2.612  -0.299   0.364  0.00  0.00    +0.075 C 
BRANCH  17  19
ATOM     18  N   UNL     1       4.976   0.257   1.235  0.00  0.00    -0.191 NA
ATOM     19  C   UNL     1       3.913   0.010   0.842  0.00  0.00    +0.101 C 
ENDBRANCH  17  19
ENDBRANCH   7  16
TORSDOF 4
