REMARK  Name = 10624918
REMARK  6 active torsions:
REMARK  status: ('A' for Active; 'I' for Inactive)
REMARK    1  A    between atoms: C_13  and  O_27
REMARK    2  A    between atoms: C_14  and  O_29
REMARK    3  A    between atoms: C_15  and  O_35
REMARK    4  A    between atoms: C_18  and  C_32
REMARK    5  A    between atoms: C_32  and  O_33
REMARK    6  A    between atoms: O_35  and  C_37
REMARK                            x       y       z     vdW  Elec       q    Type
REMARK                         _______ _______ _______ _____ _____    ______ ____
ROOT
ATOM      1  O   UNL     1       2.721  -0.867  -0.674  0.00  0.00    -0.339 OA
ATOM      2  O   UNL     1       4.088   2.185   0.323  0.00  0.00    -0.452 OA
ATOM      3  O   UNL     1       2.351   2.986   1.597  0.00  0.00    -0.250 OA
ATOM      4  C   UNL     1       0.957   0.069   1.043  0.00  0.00    +0.018 C 
ATOM      5  C   UNL     1      -0.450  -0.327   0.525  0.00  0.00    +0.008 C 
ATOM      6  C   UNL     1       1.714  -1.402   1.165  0.00  0.00    +0.026 C 
ATOM      7  C   UNL     1      -0.580  -1.842   0.825  0.00  0.00    +0.029 C 
ATOM      8  C   UNL     1      -1.681   0.370   1.132  0.00  0.00    +0.035 C 
ATOM      9  C   UNL     1       1.714   1.149   0.076  0.00  0.00    +0.150 C 
ATOM     10  C   UNL     1       0.792  -2.380   0.418  0.00  0.00    +0.007 C 
ATOM     11  C   UNL     1       3.131  -1.143   0.700  0.00  0.00    +0.095 C 
ATOM     12  C   UNL     1      -2.962  -0.165   0.434  0.00  0.00    +0.064 C 
ATOM     13  C   UNL     1       2.305   0.406  -1.128  0.00  0.00    +0.197 C 
ATOM     14  C   UNL     1      -1.758   1.888   0.925  0.00  0.00    +0.114 C 
ATOM     15  C   UNL     1      -3.096   0.749  -0.791  0.00  0.00    +0.175 C 
ATOM     16  C   UNL     1       3.565   1.059  -1.724  0.00  0.00    +0.092 C 
ATOM     17  C   UNL     1      -2.657   2.137  -0.300  0.00  0.00    +0.067 C 
ATOM     18  C   UNL     1      -1.824  -2.391   0.199  0.00  0.00    +0.049 C 
ATOM     19  C   UNL     1       4.532  -1.619   0.244  0.00  0.00    +0.031 C 
ATOM     20  C   UNL     1       4.515   1.071  -0.533  0.00  0.00    +0.174 C 
ATOM     21  C   UNL     1      -2.913  -1.623   0.027  0.00  0.00    -0.021 C 
ATOM     22  C   UNL     1       5.422  -0.241  -0.249  0.00  0.00    +0.046 C 
ATOM     23  C   UNL     1       2.734   2.189   0.741  0.00  0.00    +0.321 C 
ATOM     24  C   UNL     1       3.612  -0.380   2.048  0.00  0.00    +0.030 C 
ATOM     25  C   UNL     1       4.152   0.351  -2.945  0.00  0.00    +0.009 C 
ATOM     26  C   UNL     1      -1.928   2.905  -1.400  0.00  0.00    +0.006 C 
ENDROOT
BRANCH  13  27
ATOM     27  O   UNL     1       1.290   0.282  -2.121  0.00  0.00    -0.363 OA
ATOM     28  H   UNL     1       0.504  -0.130  -1.731  0.00  0.00    +0.213 HD
ENDBRANCH  13  27
BRANCH  14  29
ATOM     29  O   UNL     1      -2.402   2.451   2.072  0.00  0.00    -0.384 OA
ATOM     30  H   UNL     1      -1.851   2.305   2.857  0.00  0.00    +0.210 HD
ENDBRANCH  14  29
BRANCH  18  32
ATOM     31  O   UNL     1      -2.612  -4.206  -1.119  0.00  0.00    -0.245 OA
ATOM     32  C   UNL     1      -1.910  -3.792  -0.212  0.00  0.00    +0.334 C 
BRANCH  32  33
ATOM     33  O   UNL     1      -1.099  -4.544   0.563  0.00  0.00    -0.477 OA
ATOM     34  H   UNL     1      -0.592  -4.141   1.240  0.00  0.00    +0.295 HD
ENDBRANCH  32  33
ENDBRANCH  18  32
BRANCH  15  35
ATOM     35  O   UNL     1      -4.433   0.783  -1.270  0.00  0.00    -0.452 OA
BRANCH  35  37
ATOM     36  O   UNL     1      -5.175   1.521   0.790  0.00  0.00    -0.250 OA
ATOM     37  C   UNL     1      -5.381   1.191  -0.370  0.00  0.00    +0.317 C 
ATOM     38  C   UNL     1      -6.736   1.177  -1.011  0.00  0.00    +0.121 C 
ENDBRANCH  35  37
ENDBRANCH  15  35
TORSDOF 6
