REMARK  Name = 10622134
REMARK  17 active torsions:
REMARK  status: ('A' for Active; 'I' for Inactive)
REMARK    1  A    between atoms: C_1  and  N_3
REMARK    2  A    between atoms: C_1  and  C_15
REMARK    3  A    between atoms: C_1  and  C_31
REMARK    4  A    between atoms: C_4  and  C_7
REMARK    5  A    between atoms: C_8  and  C_10
REMARK    6  A    between atoms: C_10  and  O_11
REMARK    7  A    between atoms: N_14  and  C_16
REMARK    8  A    between atoms: N_14  and  C_24
REMARK    9  A    between atoms: C_16  and  C_17
REMARK   10  A    between atoms: C_17  and  C_18
REMARK   11  A    between atoms: C_18  and  C_19
REMARK   12  A    between atoms: C_19  and  N_20
REMARK   13  A    between atoms: C_24  and  C_25
REMARK   14  A    between atoms: C_25  and  C_26
REMARK   15  A    between atoms: C_26  and  N_27
REMARK   16  A    between atoms: C_31  and  C_32
REMARK   17  A    between atoms: C_37  and  O_38
REMARK                            x       y       z     vdW  Elec       q    Type
REMARK                         _______ _______ _______ _____ _____    ______ ____
ROOT
ATOM      1  C   UNL     1       0.067  -0.017   0.539  0.00  0.00    +0.153 C 
ENDROOT
BRANCH   1   3
ATOM      2  O   UNL     1      -0.923  -0.779  -2.088  0.00  0.00    -0.272 OA
ATOM      3  N   UNL     1      -1.220  -0.591   0.214  0.00  0.00    -0.296 N 
ATOM      4  C   UNL     1      -1.597  -0.920  -1.074  0.00  0.00    +0.253 C 
ATOM      5  H   UNL     1      -1.858  -0.756   0.945  0.00  0.00    +0.150 HD
BRANCH   4   7
ATOM      6  O   UNL     1      -3.008  -2.723  -1.926  0.00  0.00    -0.333 OA
ATOM      7  C   UNL     1      -2.968  -1.501  -1.177  0.00  0.00    +0.229 C 
ATOM      8  C   UNL     1      -3.276  -2.816  -0.521  0.00  0.00    +0.250 C 
BRANCH   8  10
ATOM      9  O   UNL     1      -5.227  -4.127  -0.747  0.00  0.00    -0.247 OA
ATOM     10  C   UNL     1      -4.667  -3.177  -0.223  0.00  0.00    +0.344 C 
BRANCH  10  11
ATOM     11  O   UNL     1      -5.232  -2.346   0.686  0.00  0.00    -0.478 OA
ATOM     12  H   UNL     1      -4.736  -1.637   1.045  0.00  0.00    +0.295 HD
ENDBRANCH  10  11
ENDBRANCH   8  10
ENDBRANCH   4   7
ENDBRANCH   1   3
BRANCH   1  15
ATOM     13  O   UNL     1       0.633  -2.224   1.289  0.00  0.00    -0.273 OA
ATOM     14  N   UNL     1       2.341  -1.026   0.283  0.00  0.00    -0.278 N 
ATOM     15  C   UNL     1       1.033  -1.184   0.754  0.00  0.00    +0.244 C 
BRANCH  14  16
ATOM     16  C   UNL     1       2.806   0.204  -0.346  0.00  0.00    +0.093 C 
BRANCH  16  17
ATOM     17  C   UNL     1       2.598   0.203  -1.858  0.00  0.00    +0.019 C 
BRANCH  17  18
ATOM     18  C   UNL     1       3.107   1.490  -2.519  0.00  0.00    -0.022 C 
BRANCH  18  19
ATOM     19  C   UNL     1       2.957   1.482  -4.042  0.00  0.00    -0.086 C 
BRANCH  19  20
ATOM     20  N   UNL     1       3.430   2.722  -4.643  0.00  0.00    +0.380 N 
ATOM     21  H   UNL     1       3.312   2.675  -5.655  0.00  0.00    -0.089 HD
ATOM     22  H   UNL     1       4.416   2.853  -4.421  0.00  0.00    -0.089 HD
ATOM     23  H   UNL     1       2.891   3.506  -4.274  0.00  0.00    -0.089 HD
ENDBRANCH  19  20
ENDBRANCH  18  19
ENDBRANCH  17  18
ENDBRANCH  16  17
ENDBRANCH  14  16
BRANCH  14  24
ATOM     24  C   UNL     1       3.345  -2.083   0.385  0.00  0.00    +0.091 C 
BRANCH  24  25
ATOM     25  C   UNL     1       4.141  -2.011   1.685  0.00  0.00    -0.002 C 
BRANCH  25  26
ATOM     26  C   UNL     1       5.208  -3.104   1.776  0.00  0.00    -0.084 C 
BRANCH  26  27
ATOM     27  N   UNL     1       5.951  -2.982   3.025  0.00  0.00    +0.380 N 
ATOM     28  H   UNL     1       6.658  -3.715   3.073  0.00  0.00    -0.089 HD
ATOM     29  H   UNL     1       5.309  -3.075   3.812  0.00  0.00    -0.089 HD
ATOM     30  H   UNL     1       6.404  -2.069   3.063  0.00  0.00    -0.089 HD
ENDBRANCH  26  27
ENDBRANCH  25  26
ENDBRANCH  24  25
ENDBRANCH  14  24
ENDBRANCH   1  15
BRANCH   1  31
ATOM     31  C   UNL     1      -0.016   0.847   1.803  0.00  0.00    +0.055 C 
BRANCH  31  32
ATOM     32  C   UNL     1      -0.628   2.203   1.548  0.00  0.00    -0.020 C 
ATOM     33  C   UNL     1      -2.007   2.378   1.668  0.00  0.00    -0.001 C 
ATOM     34  C   UNL     1       0.184   3.280   1.194  0.00  0.00    -0.001 C 
ATOM     35  C   UNL     1      -2.574   3.631   1.432  0.00  0.00    +0.036 C 
ATOM     36  C   UNL     1      -0.383   4.533   0.959  0.00  0.00    +0.036 C 
ATOM     37  C   UNL     1      -1.761   4.708   1.078  0.00  0.00    +0.134 C 
BRANCH  37  38
ATOM     38  O   UNL     1      -2.314   5.930   0.847  0.00  0.00    -0.506 OA
ATOM     39  H   UNL     1      -3.240   6.048   0.927  0.00  0.00    +0.292 HD
ENDBRANCH  37  38
ENDBRANCH  31  32
ENDBRANCH   1  31
TORSDOF 17
