REMARK  Name = 10621011
REMARK  8 active torsions:
REMARK  status: ('A' for Active; 'I' for Inactive)
REMARK    1  A    between atoms: C_8  and  O_16
REMARK    2  A    between atoms: C_9  and  O_18
REMARK    3  A    between atoms: O_18  and  C_20
REMARK    4  A    between atoms: C_21  and  O_25
REMARK    5  A    between atoms: C_22  and  O_27
REMARK    6  A    between atoms: C_23  and  C_31
REMARK    7  A    between atoms: C_24  and  O_29
REMARK    8  A    between atoms: C_31  and  O_32
REMARK                            x       y       z     vdW  Elec       q    Type
REMARK                         _______ _______ _______ _____ _____    ______ ____
ROOT
ATOM      1  C   UNL     1       3.954   0.262  -0.345  0.00  0.00    +0.002 C 
ATOM      2  C   UNL     1       4.010   1.745  -0.092  0.00  0.00    +0.000 C 
ATOM      3  C   UNL     1       4.893   0.811   0.694  0.00  0.00    +0.000 C 
ATOM      4  C   UNL     1       2.638  -0.389   0.024  0.00  0.00    +0.027 C 
ATOM      5  C   UNL     1       1.463   0.411  -0.634  0.00  0.00    +0.027 C 
ATOM      6  C   UNL     1       2.800   2.363   0.535  0.00  0.00    +0.000 C 
ATOM      7  C   UNL     1       1.496   1.912  -0.144  0.00  0.00    +0.002 C 
ATOM      8  C   UNL     1       2.620  -1.931  -0.141  0.00  0.00    +0.088 C 
ATOM      9  C   UNL     1       0.121  -0.244  -0.200  0.00  0.00    +0.118 C 
ATOM     10  C   UNL     1       6.346   0.808   0.347  0.00  0.00    +0.000 C 
ATOM     11  C   UNL     1       4.661   0.649   2.158  0.00  0.00    +0.000 C 
ATOM     12  C   UNL     1       1.229  -2.475   0.238  0.00  0.00    +0.029 C 
ATOM     13  C   UNL     1       0.081  -1.754  -0.459  0.00  0.00    +0.032 C 
ATOM     14  C   UNL     1       1.549   0.460  -2.183  0.00  0.00    +0.002 C 
ATOM     15  C   UNL     1       3.073  -2.489  -1.495  0.00  0.00    +0.029 C 
ENDROOT
BRANCH   8  16
ATOM     16  O   UNL     1       3.549  -2.453   0.830  0.00  0.00    -0.387 OA
ATOM     17  H   UNL     1       3.309  -2.130   1.712  0.00  0.00    +0.210 HD
ENDBRANCH   8  16
BRANCH   9  18
ATOM     18  O   UNL     1      -0.976   0.377  -0.866  0.00  0.00    -0.331 OA
BRANCH  18  20
ATOM     19  O   UNL     1      -2.888  -0.832  -0.295  0.00  0.00    -0.326 OA
ATOM     20  C   UNL     1      -2.150   0.365  -0.056  0.00  0.00    +0.266 C 
ATOM     21  C   UNL     1      -2.986   1.592  -0.421  0.00  0.00    +0.196 C 
ATOM     22  C   UNL     1      -4.337   1.577   0.295  0.00  0.00    +0.172 C 
ATOM     23  C   UNL     1      -4.067  -0.917   0.507  0.00  0.00    +0.176 C 
ATOM     24  C   UNL     1      -5.026   0.220   0.149  0.00  0.00    +0.169 C 
BRANCH  21  25
ATOM     25  O   UNL     1      -2.259   2.758  -0.037  0.00  0.00    -0.378 OA
ATOM     26  H   UNL     1      -1.402   2.769  -0.490  0.00  0.00    +0.211 HD
ENDBRANCH  21  25
BRANCH  22  27
ATOM     27  O   UNL     1      -5.189   2.570  -0.278  0.00  0.00    -0.379 OA
ATOM     28  H   UNL     1      -4.771   3.441  -0.196  0.00  0.00    +0.211 HD
ENDBRANCH  22  27
BRANCH  24  29
ATOM     29  O   UNL     1      -6.159   0.172   1.012  0.00  0.00    -0.379 OA
ATOM     30  H   UNL     1      -6.768   0.892   0.787  0.00  0.00    +0.211 HD
ENDBRANCH  24  29
BRANCH  23  31
ATOM     31  C   UNL     1      -4.695  -2.285   0.257  0.00  0.00    +0.169 C 
BRANCH  31  32
ATOM     32  O   UNL     1      -3.751  -3.284   0.598  0.00  0.00    -0.379 OA
ATOM     33  H   UNL     1      -4.138  -4.160   0.444  0.00  0.00    +0.211 HD
ENDBRANCH  31  32
ENDBRANCH  23  31
ENDBRANCH  18  20
ENDBRANCH   9  18
TORSDOF 8
