REMARK  Name = 10627
REMARK  12 active torsions:
REMARK  status: ('A' for Active; 'I' for Inactive)
REMARK    1  A    between atoms: C_3  and  O_10
REMARK    2  A    between atoms: C_6  and  C_17
REMARK    3  A    between atoms: O_10  and  C_12
REMARK    4  A    between atoms: C_12  and  C_13
REMARK    5  A    between atoms: C_17  and  O_18
REMARK    6  A    between atoms: O_18  and  C_20
REMARK    7  A    between atoms: C_20  and  C_21
REMARK    8  A    between atoms: C_21  and  C_22
REMARK    9  A    between atoms: C_21  and  O_27
REMARK   10  A    between atoms: C_21  and  C_29
REMARK   11  A    between atoms: C_22  and  O_25
REMARK   12  A    between atoms: C_29  and  O_31
REMARK                            x       y       z     vdW  Elec       q    Type
REMARK                         _______ _______ _______ _____ _____    ______ ____
ROOT
ATOM      1  N   UNL     1      -3.320   1.999  -0.946  0.00  0.00    +0.396 N 
ATOM      2  C   UNL     1      -2.134   1.246  -0.436  0.00  0.00    +0.006 C 
ATOM      3  C   UNL     1      -2.672  -0.093   0.072  0.00  0.00    +0.152 C 
ATOM      4  C   UNL     1      -4.058  -0.183  -0.543  0.00  0.00    +0.019 C 
ATOM      5  C   UNL     1      -4.515   1.261  -0.509  0.00  0.00    -0.073 C 
ATOM      6  C   UNL     1      -1.513   2.122   0.609  0.00  0.00    -0.023 C 
ATOM      7  C   UNL     1      -3.245   3.349  -0.348  0.00  0.00    -0.050 C 
ATOM      8  C   UNL     1      -2.140   3.301   0.652  0.00  0.00    -0.056 C 
ATOM      9  H   UNL     1      -3.352   2.089  -1.962  0.00  0.00    -0.079 HD
ENDROOT
BRANCH   3  10
ATOM     10  O   UNL     1      -1.856  -1.165  -0.366  0.00  0.00    -0.451 OA
BRANCH  10  12
ATOM     11  O   UNL     1      -2.509  -2.431   1.443  0.00  0.00    -0.245 OA
ATOM     12  C   UNL     1      -1.862  -2.288   0.415  0.00  0.00    +0.337 C 
BRANCH  12  13
ATOM     13  C   UNL     1      -0.954  -3.321  -0.170  0.00  0.00    +0.049 C 
ATOM     14  C   UNL     1      -0.797  -3.370  -1.661  0.00  0.00    +0.037 C 
ATOM     15  C   UNL     1      -0.369  -4.154   0.711  0.00  0.00    -0.024 C 
ATOM     16  C   UNL     1       0.591  -5.261   0.409  0.00  0.00    +0.031 C 
ENDBRANCH  12  13
ENDBRANCH  10  12
ENDBRANCH   3  10
BRANCH   6  17
ATOM     17  C   UNL     1      -0.336   1.700   1.410  0.00  0.00    +0.229 C 
BRANCH  17  18
ATOM     18  O   UNL     1       0.759   1.375   0.548  0.00  0.00    -0.442 OA
BRANCH  18  20
ATOM     19  O   UNL     1       2.047   0.873   2.382  0.00  0.00    -0.247 OA
ATOM     20  C   UNL     1       1.904   0.971   1.169  0.00  0.00    +0.346 C 
BRANCH  20  21
ATOM     21  C   UNL     1       3.005   0.657   0.143  0.00  0.00    +0.224 C 
BRANCH  21  22
ATOM     22  C   UNL     1       2.723  -0.675  -0.628  0.00  0.00    +0.123 C 
ATOM     23  C   UNL     1       2.600  -1.879   0.325  0.00  0.00    +0.032 C 
ATOM     24  C   UNL     1       3.827  -0.986  -1.654  0.00  0.00    +0.032 C 
BRANCH  22  25
ATOM     25  O   UNL     1       1.491  -0.577  -1.346  0.00  0.00    -0.384 OA
ATOM     26  H   UNL     1       0.771  -0.380  -0.727  0.00  0.00    +0.210 HD
ENDBRANCH  22  25
ENDBRANCH  21  22
BRANCH  21  27
ATOM     27  O   UNL     1       4.168   0.416   0.963  0.00  0.00    -0.373 OA
ATOM     28  H   UNL     1       4.009  -0.352   1.533  0.00  0.00    +0.211 HD
ENDBRANCH  21  27
BRANCH  21  29
ATOM     29  C   UNL     1       3.353   1.897  -0.729  0.00  0.00    +0.148 C 
ATOM     30  C   UNL     1       2.532   2.135  -1.990  0.00  0.00    +0.035 C 
BRANCH  29  31
ATOM     31  O   UNL     1       3.281   3.082   0.076  0.00  0.00    -0.381 OA
ATOM     32  H   UNL     1       3.799   2.954   0.886  0.00  0.00    +0.210 HD
ENDBRANCH  29  31
ENDBRANCH  21  29
ENDBRANCH  20  21
ENDBRANCH  18  20
ENDBRANCH  17  18
ENDBRANCH   6  17
TORSDOF 12
