10634145
  -OEChem-03292013303D

 28 30  0     0  0  0  0  0  0999 V2000
   -4.3574    0.3786    0.2508 O   0  0  0  0  0  0  0  0  0  0  0  0
    2.3255    2.4031   -0.4134 O   0  0  0  0  0  0  0  0  0  0  0  0
    4.2984   -1.6669    0.5409 O   0  0  0  0  0  0  0  0  0  0  0  0
   -2.6426    1.8302    0.3940 N   0  0  0  0  0  0  0  0  0  0  0  0
   -2.7292   -1.8553   -0.0262 N   0  0  0  0  0  0  0  0  0  0  0  0
    2.0711   -1.0132    0.1732 N   0  0  0  0  0  0  0  0  0  0  0  0
    3.6754    0.5439    0.0728 N   0  0  0  0  0  0  0  0  0  0  0  0
    0.1301    0.3596   -0.2928 C   0  0  0  0  0  0  0  0  0  0  0  0
   -0.3921    1.7338   -0.6172 C   0  0  0  0  0  0  0  0  0  0  0  0
   -0.8512   -0.6874   -0.2145 C   0  0  0  0  0  0  0  0  0  0  0  0
   -1.2651    2.2651    0.5056 C   0  0  0  0  0  0  0  0  0  0  0  0
   -2.2235   -0.5644    0.0025 C   0  0  0  0  0  0  0  0  0  0  0  0
    1.4492    0.1696   -0.1097 C   0  0  0  0  0  0  0  0  0  0  0  0
   -0.5651   -2.0809   -0.3604 C   0  0  0  0  0  0  0  0  0  0  0  0
   -3.1348    0.5505    0.2198 C   0  0  0  0  0  0  0  0  0  0  0  0
    2.4985    1.2211   -0.1811 C   0  0  0  0  0  0  0  0  0  0  0  0
   -1.7430   -2.7712   -0.2377 C   0  0  0  0  0  0  0  0  0  0  0  0
    3.4557   -0.8162    0.2933 C   0  0  0  0  0  0  0  0  0  0  0  0
    0.3395    2.4933   -0.8616 H   0  0  0  0  0  0  0  0  0  0  0  0
   -0.9796    1.6659   -1.5457 H   0  0  0  0  0  0  0  0  0  0  0  0
   -0.8939    1.9819    1.4971 H   0  0  0  0  0  0  0  0  0  0  0  0
   -1.2913    3.3598    0.4630 H   0  0  0  0  0  0  0  0  0  0  0  0
   -3.3441    2.5483    0.5477 H   0  0  0  0  0  0  0  0  0  0  0  0
    0.3440   -2.5854   -0.6452 H   0  0  0  0  0  0  0  0  0  0  0  0
   -3.7065   -2.0825    0.0927 H   0  0  0  0  0  0  0  0  0  0  0  0
    1.6475   -1.8995    0.3902 H   0  0  0  0  0  0  0  0  0  0  0  0
   -1.9695   -3.8254   -0.3136 H   0  0  0  0  0  0  0  0  0  0  0  0
    4.5898    0.9808    0.0968 H   0  0  0  0  0  0  0  0  0  0  0  0
  1 15  2  0  0  0  0
  2 16  2  0  0  0  0
  3 18  2  0  0  0  0
  4 11  1  0  0  0  0
  4 15  1  0  0  0  0
  4 23  1  0  0  0  0
  5 12  1  0  0  0  0
  5 17  1  0  0  0  0
  5 25  1  0  0  0  0
  6 13  1  0  0  0  0
  6 18  1  0  0  0  0
  6 26  1  0  0  0  0
  7 16  1  0  0  0  0
  7 18  1  0  0  0  0
  7 28  1  0  0  0  0
  8  9  1  0  0  0  0
  8 10  1  0  0  0  0
  8 13  2  0  0  0  0
  9 11  1  0  0  0  0
  9 19  1  0  0  0  0
  9 20  1  0  0  0  0
 10 12  2  0  0  0  0
 10 14  1  0  0  0  0
 11 21  1  0  0  0  0
 11 22  1  0  0  0  0
 12 15  1  0  0  0  0
 13 16  1  0  0  0  0
 14 17  2  0  0  0  0
 14 24  1  0  0  0  0
 17 27  1  0  0  0  0
M  END
> <PUBCHEM_COMPOUND_CID>
10634145

> <PUBCHEM_CONFORMER_RMSD>
0.6

> <PUBCHEM_CONFORMER_DIVERSEORDER>
1
2

> <PUBCHEM_MMFF94_PARTIAL_CHARGES>
24
1 -0.57
10 -0.05
11 0.3
12 -0.24
13 0.12
14 -0.15
15 0.71
16 0.62
17 -0.3
18 0.69
2 -0.57
23 0.37
24 0.15
25 0.27
26 0.37
27 0.15
28 0.37
3 -0.57
4 -0.73
5 0.03
6 -0.54
7 -0.49
8 -0.09
9 0.14

> <PUBCHEM_EFFECTIVE_ROTOR_COUNT>
1

> <PUBCHEM_PHARMACOPHORE_FEATURES>
11
1 1 acceptor
1 2 acceptor
1 3 acceptor
1 4 donor
1 5 cation
1 5 donor
1 6 donor
1 7 donor
5 5 10 12 14 17 rings
5 6 7 13 16 18 rings
7 4 8 9 10 11 12 15 rings

> <PUBCHEM_HEAVY_ATOM_COUNT>
18

> <PUBCHEM_ATOM_DEF_STEREO_COUNT>
0

> <PUBCHEM_ATOM_UDEF_STEREO_COUNT>
0

> <PUBCHEM_BOND_DEF_STEREO_COUNT>
1

> <PUBCHEM_BOND_UDEF_STEREO_COUNT>
0

> <PUBCHEM_ISOTOPIC_ATOM_COUNT>
0

> <PUBCHEM_COMPONENT_COUNT>
1

> <PUBCHEM_CACTVS_TAUTO_COUNT>
24

> <PUBCHEM_CONFORMER_ID>
00A243A100000001

> <PUBCHEM_MMFF94_ENERGY>
51.6278

> <PUBCHEM_FEATURE_SELFOVERLAP>
55.923

> <PUBCHEM_SHAPE_FINGERPRINT>
10616163 171 18267871751491334166
10967382 1 18411139091220718103
11132069 177 18411976970599695992
12251169 10 18410573972525064064
12382932 28 18341617074065074707
12553582 1 17764589115527996326
13140716 1 18410856598347535347
13380535 76 18271244928537400863
13538477 17 18409168848104238228
13862211 1 18412542124715586199
14178342 30 18049992595971337704
14965852 173 18411415120548220938
15006816 218 18125724487065203478
15042514 8 18411140255637487867
15196674 1 18410575110865431857
15309172 13 18267028258389523481
15442244 35 18410009936061026378
15536298 74 18412826923627484896
16945 1 18340780238431825727
17804303 29 18341054021428070726
1813 80 17169558398722931582
19422 9 18334295417725413590
19591789 44 17906175053366559118
20510252 161 18129665192763566849
21267235 1 18337681926234136902
21501502 16 18339080500945549860
21524375 3 18200875080785133223
22445834 79 18260545593719394146
23184049 29 18411699928361466214
23184049 59 18336272271060137329
2334 1 18194965364214278639
23402539 116 18272922805151459789
23463225 33 18409168835113717838
23559900 14 18271803549517105144
2748010 2 18340211894152591415
335352 9 18338516335284308030
352729 6 18341902891591526719
43471831 8 18192995907245898251
5104073 3 18411417345198862914
54173680 148 18339080492350665203
58807428 26 18124325904374779137
69090 78 18412259523924323695
6992083 37 18334864874396123820
7097593 13 18335129852915166650
7364860 26 18340769334095741748
74978 22 18410012160732656116
8809292 202 18407762542683528282
90525 40 18272092750512493951
9709674 26 18343024397583685230
9981440 41 17613717437706551000

> <PUBCHEM_SHAPE_MULTIPOLES>
332.9
6.51
2.8
0.68
2.68
0.31
0.02
0.65
-1.08
-0.73
0.09
0.02
-0.06
-0.68

> <PUBCHEM_SHAPE_SELFOVERLAP>
739.991

> <PUBCHEM_SHAPE_VOLUME>
177.1

> <PUBCHEM_COORDINATE_TYPE>
2
5
10

$$$$
