REMARK  Name = 10638831
REMARK  6 active torsions:
REMARK  status: ('A' for Active; 'I' for Inactive)
REMARK    1  A    between atoms: C_2  and  N_8
REMARK    2  A    between atoms: C_2  and  C_18
REMARK    3  A    between atoms: C_4  and  O_15
REMARK    4  A    between atoms: C_5  and  C_23
REMARK    5  A    between atoms: C_18  and  C_19
REMARK    6  A    between atoms: C_23  and  O_24
REMARK                            x       y       z     vdW  Elec       q    Type
REMARK                         _______ _______ _______ _____ _____    ______ ____
ROOT
ATOM      1  O   UNL     1       1.353   0.266   0.568  0.00  0.00    -0.332 OA
ATOM      2  C   UNL     1       0.479  -0.110  -0.501  0.00  0.00    +0.214 C 
ATOM      3  C   UNL     1       0.985   0.564  -1.768  0.00  0.00    +0.086 C 
ATOM      4  C   UNL     1       1.733   1.758  -1.214  0.00  0.00    +0.145 C 
ATOM      5  C   UNL     1       2.337   1.177   0.053  0.00  0.00    +0.173 C 
ENDROOT
BRANCH   2   8
ATOM      6  O   UNL     1      -1.792  -0.657  -2.090  0.00  0.00    -0.252 OA
ATOM      7  O   UNL     1      -4.619   1.393   0.919  0.00  0.00    -0.270 OA
ATOM      8  N   UNL     1      -0.863   0.269  -0.156  0.00  0.00    -0.216 N 
ATOM      9  N   UNL     1      -3.198   0.365  -0.591  0.00  0.00    -0.236 N 
ATOM     10  C   UNL     1      -1.932  -0.053  -1.024  0.00  0.00    +0.316 C 
ATOM     11  C   UNL     1      -1.108   0.952   1.030  0.00  0.00    +0.076 C 
ATOM     12  C   UNL     1      -2.320   1.343   1.429  0.00  0.00    +0.074 C 
ATOM     13  C   UNL     1      -3.491   1.046   0.580  0.00  0.00    +0.254 C 
ATOM     14  H   UNL     1      -3.958   0.152  -1.179  0.00  0.00    +0.159 HD
ENDBRANCH   2   8
BRANCH   4  15
ATOM     15  O   UNL     1       2.712   2.247  -2.107  0.00  0.00    -0.382 OA
ATOM     16  H   UNL     1       2.278   2.605  -2.898  0.00  0.00    +0.210 HD
ENDBRANCH   4  15
BRANCH   2  18
ATOM     17  O   UNL     1       0.321  -2.127  -1.724  0.00  0.00    -0.292 OA
ATOM     18  C   UNL     1       0.496  -1.602  -0.622  0.00  0.00    +0.192 C 
BRANCH  18  19
ATOM     19  C   UNL     1       0.711  -2.440   0.653  0.00  0.00    +0.056 C 
ATOM     20  C   UNL     1      -0.417  -2.131   1.645  0.00  0.00    +0.007 C 
ATOM     21  C   UNL     1       2.073  -2.129   1.287  0.00  0.00    +0.007 C 
ATOM     22  C   UNL     1       0.669  -3.936   0.296  0.00  0.00    +0.007 C 
ENDBRANCH  18  19
ENDBRANCH   2  18
BRANCH   5  23
ATOM     23  C   UNL     1       2.663   2.226   1.100  0.00  0.00    +0.169 C 
BRANCH  23  24
ATOM     24  O   UNL     1       3.208   1.579   2.236  0.00  0.00    -0.379 OA
ATOM     25  H   UNL     1       3.421   2.239   2.914  0.00  0.00    +0.211 HD
ENDBRANCH  23  24
ENDBRANCH   5  23
TORSDOF 6
