REMARK  Name = 10637614
REMARK  9 active torsions:
REMARK  status: ('A' for Active; 'I' for Inactive)
REMARK    1  A    between atoms: N_2  and  C_15
REMARK    2  A    between atoms: C_3  and  C_5
REMARK    3  A    between atoms: C_5  and  C_6
REMARK    4  A    between atoms: C_6  and  S_7
REMARK    5  A    between atoms: C_6  and  C_12
REMARK    6  A    between atoms: C_12  and  O_13
REMARK    7  A    between atoms: C_15  and  N_17
REMARK    8  A    between atoms: C_18  and  C_20
REMARK    9  A    between atoms: C_20  and  N_22
REMARK                            x       y       z     vdW  Elec       q    Type
REMARK                         _______ _______ _______ _____ _____    ______ ____
ROOT
ATOM      1  O   UNL     1       0.223  -1.536  -1.420  0.00  0.00    -0.275 OA
ATOM      2  N   UNL     1       0.605  -1.976   0.830  0.00  0.00    -0.288 N 
ATOM      3  C   UNL     1      -0.180  -1.660  -0.265  0.00  0.00    +0.226 C 
ATOM      4  H   UNL     1       0.176  -2.050   1.713  0.00  0.00    +0.151 HD
ENDROOT
BRANCH   3   5
ATOM      5  C   UNL     1      -1.634  -1.430   0.099  0.00  0.00    +0.120 C 
BRANCH   5   6
ATOM      6  C   UNL     1      -2.103  -0.054  -0.367  0.00  0.00    +0.236 C 
BRANCH   6   7
ATOM      7  S   UNL     1      -3.821   0.214  -0.046  0.00  0.00    +0.001 S 
ATOM      8  O   UNL     1      -4.578  -0.789  -0.772  0.00  0.00    -0.172 OA
ATOM      9  O   UNL     1      -3.992   0.380   1.387  0.00  0.00    -0.172 OA
ATOM     10  C   UNL     1      -4.138   1.787  -0.812  0.00  0.00    +0.177 C 
ENDBRANCH   6   7
BRANCH   6  12
ATOM     11  O   UNL     1      -1.170   1.232   1.449  0.00  0.00    -0.248 OA
ATOM     12  C   UNL     1      -1.272   1.051   0.241  0.00  0.00    +0.336 C 
BRANCH  12  13
ATOM     13  O   UNL     1      -0.649   1.832  -0.675  0.00  0.00    -0.479 OA
ATOM     14  H   UNL     1      -0.755   1.657  -1.590  0.00  0.00    +0.295 HD
ENDBRANCH  12  13
ENDBRANCH   6  12
ENDBRANCH   5   6
ENDBRANCH   3   5
BRANCH   2  15
ATOM     15  C   UNL     1       2.032  -2.202   0.732  0.00  0.00    +0.186 C 
BRANCH  15  17
ATOM     16  O   UNL     1       2.881  -0.383  -1.327  0.00  0.00    -0.277 OA
ATOM     17  N   UNL     1       2.795  -0.983   0.912  0.00  0.00    -0.289 N 
ATOM     18  C   UNL     1       3.160  -0.165  -0.149  0.00  0.00    +0.203 C 
ATOM     19  H   UNL     1       3.065  -0.725   1.822  0.00  0.00    +0.151 HD
BRANCH  18  20
ATOM     20  C   UNL     1       3.945   1.056   0.312  0.00  0.00    +0.013 C 
ATOM     21  C   UNL     1       3.001   2.214   0.611  0.00  0.00    -0.015 C 
BRANCH  20  22
ATOM     22  N   UNL     1       4.895   1.412  -0.740  0.00  0.00    +0.387 N 
ATOM     23  H   UNL     1       5.513   0.621  -0.921  0.00  0.00    -0.089 HD
ATOM     24  H   UNL     1       5.448   2.215  -0.440  0.00  0.00    -0.089 HD
ATOM     25  H   UNL     1       4.386   1.648  -1.592  0.00  0.00    -0.089 HD
ENDBRANCH  20  22
ENDBRANCH  18  20
ENDBRANCH  15  17
ENDBRANCH   2  15
TORSDOF 9
