REMARK  Name = 10634145
REMARK  0 active torsions:
REMARK  status: ('A' for Active; 'I' for Inactive)
REMARK                            x       y       z     vdW  Elec       q    Type
REMARK                         _______ _______ _______ _____ _____    ______ ____
ROOT
ATOM      1  O   UNL     1      -4.357   0.379   0.251  0.00  0.00    -0.269 OA
ATOM      2  O   UNL     1       2.325   2.403  -0.413  0.00  0.00    -0.268 OA
ATOM      3  O   UNL     1       4.298  -1.667   0.541  0.00  0.00    -0.252 OA
ATOM      4  N   UNL     1      -2.643   1.830   0.394  0.00  0.00    -0.300 N 
ATOM      5  N   UNL     1      -2.729  -1.855  -0.026  0.00  0.00    -0.308 N 
ATOM      6  N   UNL     1       2.071  -1.013   0.173  0.00  0.00    -0.265 N 
ATOM      7  N   UNL     1       3.675   0.544   0.073  0.00  0.00    -0.235 N 
ATOM      8  C   UNL     1       0.130   0.360  -0.293  0.00  0.00    -0.001 C 
ATOM      9  C   UNL     1      -0.392   1.734  -0.617  0.00  0.00    +0.049 C 
ATOM     10  C   UNL     1      -0.851  -0.687  -0.214  0.00  0.00    +0.017 C 
ATOM     11  C   UNL     1      -1.265   2.265   0.506  0.00  0.00    +0.094 C 
ATOM     12  C   UNL     1      -2.224  -0.564   0.003  0.00  0.00    +0.102 C 
ATOM     13  C   UNL     1       1.449   0.170  -0.110  0.00  0.00    +0.102 C 
ATOM     14  C   UNL     1      -0.565  -2.081  -0.360  0.00  0.00    +0.017 C 
ATOM     15  C   UNL     1      -3.135   0.550   0.220  0.00  0.00    +0.259 C 
ATOM     16  C   UNL     1       2.498   1.221  -0.181  0.00  0.00    +0.266 C 
ATOM     17  C   UNL     1      -1.743  -2.771  -0.238  0.00  0.00    +0.062 C 
ATOM     18  C   UNL     1       3.456  -0.816   0.293  0.00  0.00    +0.311 C 
ATOM     19  H   UNL     1      -3.320   2.543   0.450  0.00  0.00    +0.150 HD
ATOM     20  H   UNL     1      -3.680  -2.081   0.091  0.00  0.00    +0.152 HD
ATOM     21  H   UNL     1       1.614  -1.879   0.278  0.00  0.00    +0.157 HD
ATOM     22  H   UNL     1       4.563   0.970   0.095  0.00  0.00    +0.159 HD
ENDROOT
TORSDOF 0
