REMARK  Name = 10645803
REMARK  10 active torsions:
REMARK  status: ('A' for Active; 'I' for Inactive)
REMARK    1  A    between atoms: C_2  and  C_14
REMARK    2  A    between atoms: C_5  and  C_18
REMARK    3  A    between atoms: C_6  and  O_16
REMARK    4  A    between atoms: C_8  and  O_22
REMARK    5  A    between atoms: C_18  and  C_20
REMARK    6  A    between atoms: O_22  and  C_24
REMARK    7  A    between atoms: C_24  and  C_25
REMARK    8  A    between atoms: C_26  and  C_28
REMARK    9  A    between atoms: C_28  and  C_30
REMARK   10  A    between atoms: C_30  and  O_31
REMARK                            x       y       z     vdW  Elec       q    Type
REMARK                         _______ _______ _______ _____ _____    ______ ____
ROOT
ATOM      1  C   UNL     1      -1.135  -1.211  -0.206  0.00  0.00    +0.013 C 
ATOM      2  C   UNL     1      -2.054   0.008  -0.647  0.00  0.00    +0.056 C 
ATOM      3  C   UNL     1      -0.582  -1.000   1.233  0.00  0.00    +0.053 C 
ATOM      4  C   UNL     1      -0.011  -1.615  -1.217  0.00  0.00    +0.004 C 
ATOM      5  C   UNL     1      -2.782   0.721   0.563  0.00  0.00    +0.028 C 
ATOM      6  C   UNL     1       0.312  -2.164   1.696  0.00  0.00    +0.154 C 
ATOM      7  C   UNL     1       0.872  -2.756  -0.665  0.00  0.00    +0.046 C 
ATOM      8  C   UNL     1       1.441  -2.444   0.709  0.00  0.00    +0.196 C 
ATOM      9  C   UNL     1      -1.752  -0.842   2.174  0.00  0.00    -0.028 C 
ATOM     10  C   UNL     1      -2.795  -0.075   1.839  0.00  0.00    -0.031 C 
ATOM     11  C   UNL     1      -1.271   1.101  -1.405  0.00  0.00    +0.008 C 
ATOM     12  C   UNL     1      -0.555  -2.080  -2.576  0.00  0.00    +0.000 C 
ENDROOT
BRANCH   2  14
ATOM     13  O   UNL     1      -3.175  -0.190  -2.759  0.00  0.00    -0.296 OA
ATOM     14  C   UNL     1      -3.103  -0.549  -1.585  0.00  0.00    +0.151 C 
ATOM     15  C   UNL     1      -4.052  -1.567  -1.012  0.00  0.00    +0.072 C 
ENDBRANCH   2  14
BRANCH   6  16
ATOM     16  O   UNL     1       0.889  -1.841   2.963  0.00  0.00    -0.380 OA
ATOM     17  H   UNL     1       0.183  -1.661   3.603  0.00  0.00    +0.211 HD
ENDBRANCH   6  16
BRANCH   5  18
ATOM     18  C   UNL     1      -4.192   1.243   0.248  0.00  0.00    +0.004 C 
ATOM     19  C   UNL     1      -4.169   1.998  -1.079  0.00  0.00    +0.000 C 
BRANCH  18  20
ATOM     20  C   UNL     1      -4.692   2.108   1.414  0.00  0.00    +0.000 C 
ATOM     21  C   UNL     1      -6.111   2.621   1.216  0.00  0.00    +0.000 C 
ENDBRANCH  18  20
ENDBRANCH   5  18
BRANCH   8  22
ATOM     22  O   UNL     1       2.304  -1.312   0.601  0.00  0.00    -0.447 OA
BRANCH  22  24
ATOM     23  O   UNL     1       3.937  -2.491  -0.524  0.00  0.00    -0.245 OA
ATOM     24  C   UNL     1       3.357  -1.453  -0.253  0.00  0.00    +0.341 C 
BRANCH  24  25
ATOM     25  C   UNL     1       3.682  -0.106  -0.783  0.00  0.00    +0.074 C 
ATOM     26  C   UNL     1       4.525   0.771  -0.208  0.00  0.00    -0.026 C 
ATOM     27  C   UNL     1       5.220   0.402   1.079  0.00  0.00    +0.027 C 
BRANCH  26  28
ATOM     28  C   UNL     1       4.843   2.155  -0.718  0.00  0.00    +0.132 C 
BRANCH  28  30
ATOM     29  O   UNL     1       2.969   2.954   0.628  0.00  0.00    -0.250 OA
ATOM     30  C   UNL     1       3.891   3.183  -0.141  0.00  0.00    +0.318 C 
BRANCH  30  31
ATOM     31  O   UNL     1       4.189   4.432  -0.587  0.00  0.00    -0.480 OA
ATOM     32  H   UNL     1       4.906   4.561  -1.177  0.00  0.00    +0.295 HD
ENDBRANCH  30  31
ENDBRANCH  28  30
ENDBRANCH  26  28
ENDBRANCH  24  25
ENDBRANCH  22  24
ENDBRANCH   8  22
TORSDOF 10
