REMARK  Name = 10647785
REMARK  4 active torsions:
REMARK  status: ('A' for Active; 'I' for Inactive)
REMARK    1  A    between atoms: N_7  and  C_24
REMARK    2  A    between atoms: C_11  and  C_18
REMARK    3  A    between atoms: C_11  and  C_21
REMARK    4  A    between atoms: C_12  and  O_37
REMARK                            x       y       z     vdW  Elec       q    Type
REMARK                         _______ _______ _______ _____ _____    ______ ____
ROOT
ATOM      1  O   UNL     1       2.523  -2.130   1.542  0.00  0.00    -0.273 OA
ATOM      2  O   UNL     1       5.342   2.045   0.822  0.00  0.00    -0.273 OA
ATOM      3  N   UNL     1       4.255  -1.124   0.360  0.00  0.00    -0.273 N 
ATOM      4  N   UNL     1       3.241   1.117   1.268  0.00  0.00    -0.297 N 
ATOM      5  C   UNL     1       2.201   0.534  -0.809  0.00  0.00    +0.030 C 
ATOM      6  C   UNL     1       2.281   0.178   0.697  0.00  0.00    +0.151 C 
ATOM      7  C   UNL     1       0.830   0.006  -1.287  0.00  0.00    +0.014 C 
ATOM      8  C   UNL     1      -0.069   0.445  -0.053  0.00  0.00    +0.094 C 
ATOM      9  C   UNL     1       0.830   0.211   1.206  0.00  0.00    +0.145 C 
ATOM     10  C   UNL     1       4.608   0.055  -0.425  0.00  0.00    +0.129 C 
ATOM     11  C   UNL     1       3.526   0.199  -1.517  0.00  0.00    +0.029 C 
ATOM     12  C   UNL     1       2.998  -1.172   0.945  0.00  0.00    +0.244 C 
ATOM     13  C   UNL     1       6.018  -0.249  -0.925  0.00  0.00    +0.029 C 
ATOM     14  C   UNL     1       4.498   1.178   0.632  0.00  0.00    +0.239 C 
ATOM     15  C   UNL     1       0.428   0.664  -2.620  0.00  0.00    +0.001 C 
ATOM     16  C   UNL     1       0.845  -1.516  -1.535  0.00  0.00    +0.001 C 
ATOM     17  C   UNL     1       5.247  -2.174   0.290  0.00  0.00    +0.094 C 
ATOM     18  C   UNL     1       6.085  -1.780  -0.919  0.00  0.00    +0.024 C 
ATOM     19  H   UNL     1       3.025   1.674   2.051  0.00  0.00    +0.150 HD
ENDROOT
BRANCH   8  21
ATOM     20  O   UNL     1      -5.407  -1.395   0.254  0.00  0.00    -0.479 OA
ATOM     21  C   UNL     1      -1.430  -0.217   0.058  0.00  0.00    +0.001 C 
ATOM     22  C   UNL     1      -2.445   0.732  -0.093  0.00  0.00    +0.060 C 
ATOM     23  C   UNL     1      -1.765  -1.536   0.316  0.00  0.00    +0.001 C 
ATOM     24  C   UNL     1      -3.797   0.409  -0.049  0.00  0.00    +0.048 C 
ATOM     25  C   UNL     1      -3.115  -1.892   0.367  0.00  0.00    +0.037 C 
ATOM     26  C   UNL     1      -4.123  -0.930   0.178  0.00  0.00    +0.140 C 
ATOM     27  C   UNL     1      -4.857   1.389  -0.210  0.00  0.00    +0.003 C 
ATOM     28  C   UNL     1      -6.501  -0.483   0.022  0.00  0.00    +0.152 C 
ATOM     29  C   UNL     1      -6.122   0.964  -0.178  0.00  0.00    +0.013 C 
ATOM     30  C   UNL     1      -7.237  -0.992  -1.224  0.00  0.00    +0.048 C 
ATOM     31  C   UNL     1      -7.418  -0.599   1.246  0.00  0.00    +0.048 C 
BRANCH  22  32
ATOM     32  N   UNL     1      -1.882   1.995  -0.234  0.00  0.00    -0.266 NA
ATOM     33  H   UNL     1      -2.403   2.819  -0.370  0.00  0.00    +0.170 HD
ENDBRANCH  22  32
ENDBRANCH   8  21
BRANCH   8  35
ATOM     34  O   UNL     1       0.254   2.923  -0.176  0.00  0.00    -0.300 OA
ATOM     35  C   UNL     1      -0.491   1.954  -0.162  0.00  0.00    +0.238 C 
ENDBRANCH   8  35
BRANCH   9  36
ATOM     36  O   UNL     1       0.649   1.196   2.212  0.00  0.00    -0.382 OA
ATOM     37  H   UNL     1       1.229   1.000   2.965  0.00  0.00    +0.210 HD
ENDBRANCH   9  36
TORSDOF 4
