REMARK  Name = 10647991
REMARK  9 active torsions:
REMARK  status: ('A' for Active; 'I' for Inactive)
REMARK    1  A    between atoms: C_6  and  C_21
REMARK    2  A    between atoms: C_15  and  C_19
REMARK    3  A    between atoms: C_21  and  O_22
REMARK    4  A    between atoms: O_22  and  C_24
REMARK    5  A    between atoms: C_25  and  O_29
REMARK    6  A    between atoms: C_26  and  O_31
REMARK    7  A    between atoms: C_27  and  C_35
REMARK    8  A    between atoms: C_28  and  O_33
REMARK    9  A    between atoms: C_35  and  O_36
REMARK                            x       y       z     vdW  Elec       q    Type
REMARK                         _______ _______ _______ _____ _____    ______ ____
ROOT
ATOM      1  O   UNL     1      -5.122  -0.101   0.958  0.00  0.00    -0.359 OA
ATOM      2  C   UNL     1      -1.697  -0.165  -0.859  0.00  0.00    +0.002 C 
ATOM      3  C   UNL     1      -1.163  -1.307   0.086  0.00  0.00    +0.002 C 
ATOM      4  C   UNL     1      -3.259  -0.086  -0.635  0.00  0.00    +0.025 C 
ATOM      5  C   UNL     1      -3.708   0.155   0.829  0.00  0.00    +0.093 C 
ATOM      6  C   UNL     1       0.322  -1.758  -0.153  0.00  0.00    +0.027 C 
ATOM      7  C   UNL     1      -1.530  -1.036   1.561  0.00  0.00    +0.002 C 
ATOM      8  C   UNL     1      -1.415  -0.582  -2.331  0.00  0.00    +0.000 C 
ATOM      9  C   UNL     1      -3.042  -0.894   1.746  0.00  0.00    +0.027 C 
ATOM     10  C   UNL     1      -4.025   0.801  -1.636  0.00  0.00    +0.005 C 
ATOM     11  C   UNL     1       0.515  -2.078  -1.657  0.00  0.00    +0.002 C 
ATOM     12  C   UNL     1       0.037  -0.979  -2.598  0.00  0.00    +0.000 C 
ATOM     13  C   UNL     1      -1.028   1.209  -0.606  0.00  0.00    +0.000 C 
ATOM     14  C   UNL     1      -5.380   1.271  -1.114  0.00  0.00    +0.032 C 
ATOM     15  C   UNL     1      -6.010   0.330  -0.079  0.00  0.00    +0.111 C 
ATOM     16  C   UNL     1      -3.442   1.556   1.407  0.00  0.00    +0.030 C 
ATOM     17  C   UNL     1       0.609  -3.071   0.621  0.00  0.00    +0.002 C 
ATOM     18  C   UNL     1      -6.572  -0.933  -0.747  0.00  0.00    +0.034 C 
ENDROOT
BRANCH  15  19
ATOM     19  C   UNL     1      -7.144   1.048   0.602  0.00  0.00    +0.000 C 
ATOM     20  C   UNL     1      -7.199   1.283   1.917  0.00  0.00    -0.003 C 
ENDBRANCH  15  19
BRANCH   6  21
ATOM     21  C   UNL     1       1.376  -0.739   0.317  0.00  0.00    +0.145 C 
BRANCH  21  22
ATOM     22  O   UNL     1       2.652  -1.307   0.118  0.00  0.00    -0.329 OA
BRANCH  22  24
ATOM     23  O   UNL     1       3.629   0.790  -0.180  0.00  0.00    -0.326 OA
ATOM     24  C   UNL     1       3.697  -0.434   0.547  0.00  0.00    +0.266 C 
ATOM     25  C   UNL     1       5.031  -1.135   0.293  0.00  0.00    +0.196 C 
ATOM     26  C   UNL     1       6.211  -0.208   0.585  0.00  0.00    +0.172 C 
ATOM     27  C   UNL     1       4.636   1.722   0.220  0.00  0.00    +0.176 C 
ATOM     28  C   UNL     1       6.024   1.153  -0.084  0.00  0.00    +0.169 C 
BRANCH  25  29
ATOM     29  O   UNL     1       5.104  -2.279   1.144  0.00  0.00    -0.378 OA
ATOM     30  H   UNL     1       4.356  -2.868   0.960  0.00  0.00    +0.211 HD
ENDBRANCH  25  29
BRANCH  26  31
ATOM     31  O   UNL     1       7.411  -0.791   0.074  0.00  0.00    -0.379 OA
ATOM     32  H   UNL     1       7.550  -1.658   0.486  0.00  0.00    +0.211 HD
ENDBRANCH  26  31
BRANCH  28  33
ATOM     33  O   UNL     1       7.018   2.055   0.396  0.00  0.00    -0.379 OA
ATOM     34  H   UNL     1       7.899   1.697   0.204  0.00  0.00    +0.211 HD
ENDBRANCH  28  33
BRANCH  27  35
ATOM     35  C   UNL     1       4.382   3.025  -0.531  0.00  0.00    +0.169 C 
BRANCH  35  36
ATOM     36  O   UNL     1       3.081   3.484  -0.211  0.00  0.00    -0.379 OA
ATOM     37  H   UNL     1       2.906   4.313  -0.683  0.00  0.00    +0.211 HD
ENDBRANCH  35  36
ENDBRANCH  27  35
ENDBRANCH  22  24
ENDBRANCH  21  22
ENDBRANCH   6  21
TORSDOF 9
