REMARK  Name = 10643000
REMARK  6 active torsions:
REMARK  status: ('A' for Active; 'I' for Inactive)
REMARK    1  A    between atoms: C_6  and  O_19
REMARK    2  A    between atoms: C_10  and  O_21
REMARK    3  A    between atoms: C_10  and  C_28
REMARK    4  A    between atoms: C_11  and  O_23
REMARK    5  A    between atoms: C_14  and  O_25
REMARK    6  A    between atoms: C_28  and  O_29
REMARK                            x       y       z     vdW  Elec       q    Type
REMARK                         _______ _______ _______ _____ _____    ______ ____
ROOT
ATOM      1  O   UNL     1      -0.324  -2.470  -0.128  0.00  0.00    -0.448 OA
ATOM      2  O   UNL     1      -1.532   1.615   1.806  0.00  0.00    -0.448 OA
ATOM      3  O   UNL     1      -1.747   2.899  -0.102  0.00  0.00    -0.250 OA
ATOM      4  O   UNL     1       0.324  -2.779   2.005  0.00  0.00    -0.247 OA
ATOM      5  C   UNL     1       1.691  -0.432  -0.547  0.00  0.00    +0.064 C 
ATOM      6  C   UNL     1       0.896   0.892  -0.273  0.00  0.00    +0.131 C 
ATOM      7  C   UNL     1      -0.546   0.603   0.183  0.00  0.00    +0.190 C 
ATOM      8  C   UNL     1       3.092   0.173  -0.872  0.00  0.00    +0.008 C 
ATOM      9  C   UNL     1       1.020  -1.165  -1.712  0.00  0.00    +0.052 C 
ATOM     10  C   UNL     1      -1.266  -0.327  -0.846  0.00  0.00    +0.229 C 
ATOM     11  C   UNL     1       1.829   1.677   0.652  0.00  0.00    +0.136 C 
ATOM     12  C   UNL     1      -0.389  -1.545  -1.237  0.00  0.00    +0.204 C 
ATOM     13  C   UNL     1       3.244   1.362   0.115  0.00  0.00    +0.032 C 
ATOM     14  C   UNL     1       1.786  -1.491   0.592  0.00  0.00    +0.212 C 
ATOM     15  C   UNL     1      -0.840   0.346   1.691  0.00  0.00    +0.224 C 
ATOM     16  C   UNL     1      -1.361   1.919   0.495  0.00  0.00    +0.325 C 
ATOM     17  C   UNL     1       4.295  -0.762  -0.855  0.00  0.00    +0.000 C 
ATOM     18  C   UNL     1       0.525  -2.269   0.906  0.00  0.00    +0.344 C 
ENDROOT
BRANCH   6  19
ATOM     19  O   UNL     1       0.821   1.642  -1.506  0.00  0.00    -0.384 OA
ATOM     20  H   UNL     1       0.237   1.181  -2.129  0.00  0.00    +0.210 HD
ENDBRANCH   6  19
BRANCH  10  21
ATOM     21  O   UNL     1      -1.596   0.417  -2.028  0.00  0.00    -0.373 OA
ATOM     22  H   UNL     1      -0.786   0.787  -2.413  0.00  0.00    +0.211 HD
ENDBRANCH  10  21
BRANCH  11  23
ATOM     23  O   UNL     1       1.569   3.071   0.606  0.00  0.00    -0.382 OA
ATOM     24  H   UNL     1       0.678   3.246   0.947  0.00  0.00    +0.210 HD
ENDBRANCH  11  23
BRANCH  14  25
ATOM     25  O   UNL     1       2.298  -0.969   1.803  0.00  0.00    -0.374 OA
ATOM     26  H   UNL     1       3.107  -0.466   1.623  0.00  0.00    +0.211 HD
ENDBRANCH  14  25
BRANCH  10  28
ATOM     27  O   UNL     1      -3.004  -1.948  -0.453  0.00  0.00    -0.247 OA
ATOM     28  C   UNL     1      -2.642  -0.779  -0.456  0.00  0.00    +0.346 C 
BRANCH  28  29
ATOM     29  O   UNL     1      -3.398   0.304  -0.116  0.00  0.00    -0.443 OA
ATOM     30  C   UNL     1      -4.743   0.015   0.279  0.00  0.00    +0.256 C 
ENDBRANCH  28  29
ENDBRANCH  10  28
TORSDOF 6
