10647991
  -OEChem-03292013303D

 77 80  0     1  0  0  0  0  0999 V2000
   -5.1217   -0.1008    0.9578 O   0  0  0  0  0  0  0  0  0  0  0  0
    2.6524   -1.3073    0.1185 O   0  0  0  0  0  0  0  0  0  0  0  0
    3.6292    0.7905   -0.1801 O   0  0  0  0  0  0  0  0  0  0  0  0
    5.1044   -2.2786    1.1444 O   0  0  0  0  0  0  0  0  0  0  0  0
    7.4110   -0.7907    0.0739 O   0  0  0  0  0  0  0  0  0  0  0  0
    7.0177    2.0550    0.3960 O   0  0  0  0  0  0  0  0  0  0  0  0
    3.0813    3.4839   -0.2111 O   0  0  0  0  0  0  0  0  0  0  0  0
   -1.6968   -0.1650   -0.8594 C   0  0  2  0  0  0  0  0  0  0  0  0
   -1.1626   -1.3074    0.0862 C   0  0  1  0  0  0  0  0  0  0  0  0
   -3.2587   -0.0860   -0.6352 C   0  0  1  0  0  0  0  0  0  0  0  0
   -3.7079    0.1555    0.8285 C   0  0  2  0  0  0  0  0  0  0  0  0
    0.3218   -1.7575   -0.1527 C   0  0  1  0  0  0  0  0  0  0  0  0
   -1.5295   -1.0359    1.5611 C   0  0  0  0  0  0  0  0  0  0  0  0
   -1.4145   -0.5817   -2.3312 C   0  0  0  0  0  0  0  0  0  0  0  0
   -3.0423   -0.8937    1.7460 C   0  0  0  0  0  0  0  0  0  0  0  0
   -4.0246    0.8010   -1.6356 C   0  0  0  0  0  0  0  0  0  0  0  0
    0.5147   -2.0775   -1.6568 C   0  0  0  0  0  0  0  0  0  0  0  0
    0.0372   -0.9791   -2.5983 C   0  0  0  0  0  0  0  0  0  0  0  0
   -1.0285    1.2086   -0.6061 C   0  0  0  0  0  0  0  0  0  0  0  0
   -5.3804    1.2706   -1.1137 C   0  0  0  0  0  0  0  0  0  0  0  0
    1.3758   -0.7385    0.3166 C   0  0  0  0  0  0  0  0  0  0  0  0
   -6.0101    0.3295   -0.0787 C   0  0  1  0  0  0  0  0  0  0  0  0
   -3.4418    1.5559    1.4075 C   0  0  0  0  0  0  0  0  0  0  0  0
    0.6089   -3.0710    0.6209 C   0  0  0  0  0  0  0  0  0  0  0  0
   -6.5720   -0.9330   -0.7472 C   0  0  0  0  0  0  0  0  0  0  0  0
   -7.1441    1.0477    0.6016 C   0  0  0  0  0  0  0  0  0  0  0  0
    3.6967   -0.4340    0.5471 C   0  0  2  0  0  0  0  0  0  0  0  0
    5.0309   -1.1353    0.2929 C   0  0  1  0  0  0  0  0  0  0  0  0
   -7.1989    1.2832    1.9168 C   0  0  0  0  0  0  0  0  0  0  0  0
    6.2110   -0.2084    0.5851 C   0  0  2  0  0  0  0  0  0  0  0  0
    4.6358    1.7218    0.2203 C   0  0  1  0  0  0  0  0  0  0  0  0
    6.0238    1.1534   -0.0840 C   0  0  1  0  0  0  0  0  0  0  0  0
    4.3819    3.0248   -0.5313 C   0  0  0  0  0  0  0  0  0  0  0  0
   -1.7534   -2.1987   -0.1862 H   0  0  0  0  0  0  0  0  0  0  0  0
   -3.6225   -1.0999   -0.8689 H   0  0  0  0  0  0  0  0  0  0  0  0
   -1.2047   -1.8681    2.1942 H   0  0  0  0  0  0  0  0  0  0  0  0
   -1.0174   -0.1493    1.9448 H   0  0  0  0  0  0  0  0  0  0  0  0
   -1.6839    0.2311   -3.0169 H   0  0  0  0  0  0  0  0  0  0  0  0
   -2.0535   -1.4342   -2.5981 H   0  0  0  0  0  0  0  0  0  0  0  0
   -3.5077   -1.8730    1.5629 H   0  0  0  0  0  0  0  0  0  0  0  0
   -3.2652   -0.6721    2.7981 H   0  0  0  0  0  0  0  0  0  0  0  0
   -4.1839    0.2274   -2.5582 H   0  0  0  0  0  0  0  0  0  0  0  0
   -3.4497    1.6818   -1.9364 H   0  0  0  0  0  0  0  0  0  0  0  0
    1.5619   -2.3113   -1.8839 H   0  0  0  0  0  0  0  0  0  0  0  0
   -0.0486   -2.9897   -1.9000 H   0  0  0  0  0  0  0  0  0  0  0  0
    0.1203   -1.3363   -3.6320 H   0  0  0  0  0  0  0  0  0  0  0  0
    0.7007   -0.1116   -2.5292 H   0  0  0  0  0  0  0  0  0  0  0  0
   -0.1438    1.3696   -1.2269 H   0  0  0  0  0  0  0  0  0  0  0  0
   -0.7084    1.3425    0.4284 H   0  0  0  0  0  0  0  0  0  0  0  0
   -1.6918    2.0437   -0.8451 H   0  0  0  0  0  0  0  0  0  0  0  0
   -6.0597    1.4279   -1.9625 H   0  0  0  0  0  0  0  0  0  0  0  0
   -5.2488    2.2685   -0.6771 H   0  0  0  0  0  0  0  0  0  0  0  0
    1.2428   -0.5046    1.3790 H   0  0  0  0  0  0  0  0  0  0  0  0
    1.3077    0.1879   -0.2508 H   0  0  0  0  0  0  0  0  0  0  0  0
   -0.1853   -3.8079    0.4546 H   0  0  0  0  0  0  0  0  0  0  0  0
    1.5462   -3.5399    0.2989 H   0  0  0  0  0  0  0  0  0  0  0  0
    0.6861   -2.9018    1.7001 H   0  0  0  0  0  0  0  0  0  0  0  0
   -4.0561    1.7259    2.2995 H   0  0  0  0  0  0  0  0  0  0  0  0
   -2.4028    1.6985    1.7104 H   0  0  0  0  0  0  0  0  0  0  0  0
   -3.6843    2.3594    0.7102 H   0  0  0  0  0  0  0  0  0  0  0  0
   -5.7848   -1.5211   -1.2286 H   0  0  0  0  0  0  0  0  0  0  0  0
   -7.3242   -0.6919   -1.5068 H   0  0  0  0  0  0  0  0  0  0  0  0
   -7.0348   -1.5968   -0.0065 H   0  0  0  0  0  0  0  0  0  0  0  0
   -7.9641    1.4010   -0.0198 H   0  0  0  0  0  0  0  0  0  0  0  0
    3.5627   -0.2426    1.6206 H   0  0  0  0  0  0  0  0  0  0  0  0
    5.0834   -1.5013   -0.7400 H   0  0  0  0  0  0  0  0  0  0  0  0
   -8.0522    1.8127    2.3294 H   0  0  0  0  0  0  0  0  0  0  0  0
   -6.4353    0.9733    2.6193 H   0  0  0  0  0  0  0  0  0  0  0  0
    6.3610   -0.0953    1.6652 H   0  0  0  0  0  0  0  0  0  0  0  0
    4.5205    1.9214    1.2944 H   0  0  0  0  0  0  0  0  0  0  0  0
    6.1669    1.0441   -1.1670 H   0  0  0  0  0  0  0  0  0  0  0  0
    4.3328   -2.8375    0.9484 H   0  0  0  0  0  0  0  0  0  0  0  0
    5.0928    3.8062   -0.2500 H   0  0  0  0  0  0  0  0  0  0  0  0
    4.4274    2.8782   -1.6155 H   0  0  0  0  0  0  0  0  0  0  0  0
    7.3005   -0.9208   -0.8834 H   0  0  0  0  0  0  0  0  0  0  0  0
    7.0400    2.8201   -0.2028 H   0  0  0  0  0  0  0  0  0  0  0  0
    2.4526    2.7847   -0.4597 H   0  0  0  0  0  0  0  0  0  0  0  0
  1 11  1  0  0  0  0
  1 22  1  0  0  0  0
  2 21  1  0  0  0  0
  2 27  1  0  0  0  0
  3 27  1  0  0  0  0
  3 31  1  0  0  0  0
  4 28  1  0  0  0  0
  4 72  1  0  0  0  0
  5 30  1  0  0  0  0
  5 75  1  0  0  0  0
  6 32  1  0  0  0  0
  6 76  1  0  0  0  0
  7 33  1  0  0  0  0
  7 77  1  0  0  0  0
  8  9  1  0  0  0  0
  8 10  1  0  0  0  0
  8 14  1  0  0  0  0
  8 19  1  0  0  0  0
  9 12  1  0  0  0  0
  9 13  1  0  0  0  0
  9 34  1  0  0  0  0
 10 11  1  0  0  0  0
 10 16  1  0  0  0  0
 10 35  1  0  0  0  0
 11 15  1  0  0  0  0
 11 23  1  0  0  0  0
 12 17  1  0  0  0  0
 12 21  1  0  0  0  0
 12 24  1  0  0  0  0
 13 15  1  0  0  0  0
 13 36  1  0  0  0  0
 13 37  1  0  0  0  0
 14 18  1  0  0  0  0
 14 38  1  0  0  0  0
 14 39  1  0  0  0  0
 15 40  1  0  0  0  0
 15 41  1  0  0  0  0
 16 20  1  0  0  0  0
 16 42  1  0  0  0  0
 16 43  1  0  0  0  0
 17 18  1  0  0  0  0
 17 44  1  0  0  0  0
 17 45  1  0  0  0  0
 18 46  1  0  0  0  0
 18 47  1  0  0  0  0
 19 48  1  0  0  0  0
 19 49  1  0  0  0  0
 19 50  1  0  0  0  0
 20 22  1  0  0  0  0
 20 51  1  0  0  0  0
 20 52  1  0  0  0  0
 21 53  1  0  0  0  0
 21 54  1  0  0  0  0
 22 25  1  0  0  0  0
 22 26  1  0  0  0  0
 23 58  1  0  0  0  0
 23 59  1  0  0  0  0
 23 60  1  0  0  0  0
 24 55  1  0  0  0  0
 24 56  1  0  0  0  0
 24 57  1  0  0  0  0
 25 61  1  0  0  0  0
 25 62  1  0  0  0  0
 25 63  1  0  0  0  0
 26 29  2  0  0  0  0
 26 64  1  0  0  0  0
 27 28  1  0  0  0  0
 27 65  1  0  0  0  0
 28 30  1  0  0  0  0
 28 66  1  0  0  0  0
 29 67  1  0  0  0  0
 29 68  1  0  0  0  0
 30 32  1  0  0  0  0
 30 69  1  0  0  0  0
 31 32  1  0  0  0  0
 31 33  1  0  0  0  0
 31 70  1  0  0  0  0
 32 71  1  0  0  0  0
 33 73  1  0  0  0  0
 33 74  1  0  0  0  0
M  END
> <PUBCHEM_COMPOUND_CID>
10647991

> <PUBCHEM_CONFORMER_RMSD>
1

> <PUBCHEM_CONFORMER_DIVERSEORDER>
1
12
10
2
3
16
7
4
6
13
11
8
5
14
9
15

> <PUBCHEM_MMFF94_PARTIAL_CHARGES>
25
1 -0.56
11 0.28
2 -0.56
21 0.28
22 0.42
26 -0.29
27 0.56
28 0.28
29 -0.3
3 -0.56
30 0.28
31 0.28
32 0.28
33 0.28
4 -0.68
5 -0.68
6 -0.68
64 0.15
67 0.15
68 0.15
7 -0.68
72 0.4
75 0.4
76 0.4
77 0.4

> <PUBCHEM_EFFECTIVE_ROTOR_COUNT>
8.2

> <PUBCHEM_PHARMACOPHORE_FEATURES>
16
1 1 acceptor
1 2 acceptor
1 29 hydrophobe
1 3 acceptor
1 4 acceptor
1 4 donor
1 5 acceptor
1 5 donor
1 6 acceptor
1 6 donor
1 7 acceptor
1 7 donor
6 1 10 11 16 20 22 rings
6 3 27 28 30 31 32 rings
6 8 9 10 11 13 15 rings
6 8 9 12 14 17 18 rings

> <PUBCHEM_HEAVY_ATOM_COUNT>
33

> <PUBCHEM_ATOM_DEF_STEREO_COUNT>
11

> <PUBCHEM_ATOM_UDEF_STEREO_COUNT>
0

> <PUBCHEM_BOND_DEF_STEREO_COUNT>
0

> <PUBCHEM_BOND_UDEF_STEREO_COUNT>
0

> <PUBCHEM_ISOTOPIC_ATOM_COUNT>
0

> <PUBCHEM_COMPONENT_COUNT>
1

> <PUBCHEM_CACTVS_TAUTO_COUNT>
1

> <PUBCHEM_CONFORMER_ID>
00A279B700000001

> <PUBCHEM_MMFF94_ENERGY>
130.3234

> <PUBCHEM_FEATURE_SELFOVERLAP>
81.294

> <PUBCHEM_SHAPE_FINGERPRINT>
10 15 17313103068827601576
10319926 262 16950570999204688537
10906281 52 17774737385431265835
10930396 42 16226595411769803468
11045977 3 17967254212779087730
11456790 92 18334012753148381416
11991303 11 17988917920425662727
12035758 1 17313116246014132265
12107698 1 18409164377048817784
12236239 1 17917990560016187611
12422481 6 17022905683258327735
12516196 113 14201401572945683646
12954195 1 12607415373246679531
13402501 40 18113896057037777148
13533116 47 17749665178343404346
13782708 43 17096357328885931642
14394314 77 18202004356410612721
14705955 166 17168412775413864164
14840074 17 18060135436430251149
14849402 71 18339926016966998665
14856354 85 17346311648902557663
15183329 4 13039189186620776111
15419008 47 17458623393529399268
15575132 122 17775566395270559465
1577012 14 18060136539650978372
20567600 234 17894636976170973853
21033648 29 17095795547379230005
21033650 10 15123247532337792650
21792934 111 17240490183401641213
21792961 116 17895473615138320450
21857420 4 12877152822748842514
22122407 14 18340780302804146889
22224240 67 18186238424861748611
23559900 14 17240769475263451022
2838139 119 18412259532509295485
392239 28 18334016069047301155
397830 11 17968670426758214115
4325135 7 18343015602228881391
59755656 520 18342451547614777487
6608658 132 16773530884143672921

> <PUBCHEM_SHAPE_MULTIPOLES>
638.04
19.02
2.68
1.77
5.29
0.81
-0.57
8.83
5.06
3.62
0.02
-2.1
-0.39
-1.17

> <PUBCHEM_SHAPE_SELFOVERLAP>
1328.724

> <PUBCHEM_SHAPE_VOLUME>
357.3

> <PUBCHEM_COORDINATE_TYPE>
2
5
10

$$$$
