REMARK  Name = 10659377
REMARK  4 active torsions:
REMARK  status: ('A' for Active; 'I' for Inactive)
REMARK    1  A    between atoms: C_5  and  O_16
REMARK    2  A    between atoms: C_6  and  O_18
REMARK    3  A    between atoms: C_7  and  O_20
REMARK    4  A    between atoms: C_12  and  O_22
REMARK                            x       y       z     vdW  Elec       q    Type
REMARK                         _______ _______ _______ _____ _____    ______ ____
ROOT
ATOM      1  O   UNL     1       0.968  -0.363   1.557  0.00  0.00    -0.345 OA
ATOM      2  O   UNL     1       3.362  -0.572   0.333  0.00  0.00    -0.330 OA
ATOM      3  C   UNL     1       1.193   0.323   0.303  0.00  0.00    +0.195 C 
ATOM      4  C   UNL     1       1.093  -1.144   0.355  0.00  0.00    +0.178 C 
ATOM      5  C   UNL     1       2.635   0.650   0.044  0.00  0.00    +0.212 C 
ATOM      6  C   UNL     1       0.038   1.154  -0.163  0.00  0.00    +0.167 C 
ATOM      7  C   UNL     1      -0.147  -1.841  -0.093  0.00  0.00    +0.162 C 
ATOM      8  C   UNL     1       2.458  -1.685   0.134  0.00  0.00    +0.177 C 
ATOM      9  C   UNL     1      -1.290   0.443   0.012  0.00  0.00    +0.039 C 
ATOM     10  C   UNL     1      -1.377  -0.966   0.039  0.00  0.00    +0.008 C 
ATOM     11  C   UNL     1       3.153   1.757   0.951  0.00  0.00    +0.064 C 
ATOM     12  C   UNL     1      -2.464   1.207   0.113  0.00  0.00    +0.132 C 
ATOM     13  C   UNL     1      -2.636  -1.575   0.166  0.00  0.00    -0.002 C 
ATOM     14  C   UNL     1      -3.706   0.587   0.246  0.00  0.00    +0.036 C 
ATOM     15  C   UNL     1      -3.792  -0.802   0.272  0.00  0.00    +0.003 C 
ENDROOT
BRANCH   5  16
ATOM     16  O   UNL     1       2.823   1.005  -1.324  0.00  0.00    -0.362 OA
ATOM     17  H   UNL     1       2.489   0.293  -1.891  0.00  0.00    +0.213 HD
ENDBRANCH   5  16
BRANCH   6  18
ATOM     18  O   UNL     1       0.152   1.455  -1.552  0.00  0.00    -0.377 OA
ATOM     19  H   UNL     1       0.991   1.913  -1.715  0.00  0.00    +0.211 HD
ENDBRANCH   6  18
BRANCH   7  20
ATOM     20  O   UNL     1      -0.039  -2.204  -1.468  0.00  0.00    -0.377 OA
ATOM     21  H   UNL     1       0.741  -2.767  -1.593  0.00  0.00    +0.211 HD
ENDBRANCH   7  20
BRANCH  12  22
ATOM     22  O   UNL     1      -2.424   2.570   0.074  0.00  0.00    -0.506 OA
ATOM     23  H   UNL     1      -1.602   3.012  -0.015  0.00  0.00    +0.292 HD
ENDBRANCH  12  22
TORSDOF 4
