REMARK  Name = 10666340
REMARK  4 active torsions:
REMARK  status: ('A' for Active; 'I' for Inactive)
REMARK    1  A    between atoms: C_16  and  N_24
REMARK    2  A    between atoms: C_17  and  N_27
REMARK    3  A    between atoms: C_22  and  O_30
REMARK    4  A    between atoms: C_23  and  O_32
REMARK                            x       y       z     vdW  Elec       q    Type
REMARK                         _______ _______ _______ _____ _____    ______ ____
ROOT
ATOM      1  O   UNL     1      -0.269  -0.001   2.032  0.00  0.00    -0.440 OA
ATOM      2  O   UNL     1       2.625   0.002  -0.838  0.00  0.00    -0.454 OA
ATOM      3  O   UNL     1      -2.193  -0.001   3.320  0.00  0.00    -0.245 OA
ATOM      4  C   UNL     1       0.090   0.000   0.614  0.00  0.00    +0.198 C 
ATOM      5  C   UNL     1      -1.256  -0.001  -0.036  0.00  0.00    +0.029 C 
ATOM      6  C   UNL     1       0.884   1.259   0.328  0.00  0.00    +0.056 C 
ATOM      7  C   UNL     1       0.886  -1.258   0.327  0.00  0.00    +0.056 C 
ATOM      8  C   UNL     1      -2.244  -0.002   0.931  0.00  0.00    +0.077 C 
ATOM      9  C   UNL     1       2.083   1.182  -0.390  0.00  0.00    +0.148 C 
ATOM     10  C   UNL     1       2.085  -1.179  -0.390  0.00  0.00    +0.148 C 
ATOM     11  C   UNL     1      -1.624  -0.002   2.247  0.00  0.00    +0.342 C 
ATOM     12  C   UNL     1      -1.596  -0.001  -1.380  0.00  0.00    +0.015 C 
ATOM     13  C   UNL     1       0.434   2.526   0.740  0.00  0.00    +0.006 C 
ATOM     14  C   UNL     1       0.437  -2.526   0.738  0.00  0.00    +0.006 C 
ATOM     15  C   UNL     1      -3.592  -0.003   0.623  0.00  0.00    +0.022 C 
ATOM     16  C   UNL     1      -2.951  -0.001  -1.722  0.00  0.00    +0.054 C 
ATOM     17  C   UNL     1      -3.942  -0.002  -0.727  0.00  0.00    +0.055 C 
ATOM     18  C   UNL     1       2.808   2.338  -0.698  0.00  0.00    +0.074 C 
ATOM     19  C   UNL     1       2.812  -2.334  -0.699  0.00  0.00    +0.074 C 
ATOM     20  C   UNL     1       1.161   3.679   0.438  0.00  0.00    +0.037 C 
ATOM     21  C   UNL     1       1.166  -3.678   0.437  0.00  0.00    +0.037 C 
ATOM     22  C   UNL     1       2.347   3.585  -0.283  0.00  0.00    +0.137 C 
ATOM     23  C   UNL     1       2.353  -3.582  -0.284  0.00  0.00    +0.137 C 
ENDROOT
BRANCH  16  24
ATOM     24  N   UNL     1      -3.307  -0.002  -3.092  0.00  0.00    -0.356 N 
ATOM     25  H   UNL     1      -2.605  -0.001  -3.783  0.00  0.00    +0.142 HD
ATOM     26  H   UNL     1      -4.256  -0.002  -3.354  0.00  0.00    +0.142 HD
ENDBRANCH  16  24
BRANCH  17  27
ATOM     27  N   UNL     1      -5.313  -0.004  -1.077  0.00  0.00    -0.356 N 
ATOM     28  H   UNL     1      -6.001  -0.004  -0.372  0.00  0.00    +0.142 HD
ATOM     29  H   UNL     1      -5.579  -0.005  -2.024  0.00  0.00    +0.142 HD
ENDBRANCH  17  27
BRANCH  22  30
ATOM     30  O   UNL     1       3.055   4.708  -0.581  0.00  0.00    -0.505 OA
ATOM     31  H   UNL     1       3.853   4.643  -1.067  0.00  0.00    +0.292 HD
ENDBRANCH  22  30
BRANCH  23  32
ATOM     32  O   UNL     1       3.063  -4.703  -0.580  0.00  0.00    -0.505 OA
ATOM     33  H   UNL     1       3.862  -4.637  -1.065  0.00  0.00    +0.292 HD
ENDBRANCH  23  32
TORSDOF 4
