10666031
  -OEChem-03292013303D

 52 52  0     1  0  0  0  0  0999 V2000
    3.8966   -1.7795    0.6035 O   0  0  0  0  0  0  0  0  0  0  0  0
    5.0816    0.1353    1.1525 O   0  0  0  0  0  0  0  0  0  0  0  0
    1.3510   -2.3185    1.7592 O   0  0  0  0  0  0  0  0  0  0  0  0
   -5.0057   -1.7045   -1.1942 O   0  0  0  0  0  0  0  0  0  0  0  0
   -5.0696   -0.6501    0.8143 O   0  0  0  0  0  0  0  0  0  0  0  0
   -1.8857    2.3289   -1.0986 O   0  0  0  0  0  0  0  0  0  0  0  0
    0.4282   -2.5668   -0.3495 N   0  0  0  0  0  0  0  0  0  0  0  0
   -2.8619    0.7605    0.3058 N   0  0  0  0  0  0  0  0  0  0  0  0
   -0.6403    2.3367    1.8272 N   0  0  0  0  0  0  0  0  0  0  0  0
    2.8894   -0.0816   -0.1642 C   0  0  1  0  0  0  0  0  0  0  0  0
    3.1679    0.5837   -1.4890 C   0  0  2  0  0  0  0  0  0  0  0  0
    2.6738   -1.5920   -0.1615 C   0  0  2  0  0  0  0  0  0  0  0  0
    4.1502   -0.4438    0.6407 C   0  0  0  0  0  0  0  0  0  0  0  0
    3.9535    1.8982   -1.2914 C   0  0  0  0  0  0  0  0  0  0  0  0
    1.8409    0.8616   -2.2137 C   0  0  0  0  0  0  0  0  0  0  0  0
    1.4366   -2.1921    0.5333 C   0  0  0  0  0  0  0  0  0  0  0  0
    3.2287    2.9298   -0.4374 C   0  0  0  0  0  0  0  0  0  0  0  0
   -0.8207   -3.1410    0.0705 C   0  0  0  0  0  0  0  0  0  0  0  0
   -1.8722   -2.0679    0.3285 C   0  0  0  0  0  0  0  0  0  0  0  0
   -2.1518   -1.2493   -0.9347 C   0  0  0  0  0  0  0  0  0  0  0  0
   -3.2296   -0.1878   -0.7147 C   0  0  1  0  0  0  0  0  0  0  0  0
   -4.5250   -0.8355   -0.2664 C   0  0  0  0  0  0  0  0  0  0  0  0
   -2.2113    1.9574    0.0270 C   0  0  0  0  0  0  0  0  0  0  0  0
   -1.9283    2.7649    1.2876 C   0  0  2  0  0  0  0  0  0  0  0  0
   -1.8962    4.2536    0.9652 C   0  0  0  0  0  0  0  0  0  0  0  0
    2.1615    0.4532    0.4594 H   0  0  0  0  0  0  0  0  0  0  0  0
    3.7785   -0.0674   -2.1281 H   0  0  0  0  0  0  0  0  0  0  0  0
    2.8181   -2.0431   -1.1542 H   0  0  0  0  0  0  0  0  0  0  0  0
    4.9359    1.6963   -0.8522 H   0  0  0  0  0  0  0  0  0  0  0  0
    4.1520    2.3419   -2.2753 H   0  0  0  0  0  0  0  0  0  0  0  0
    1.3542   -0.0830   -2.4812 H   0  0  0  0  0  0  0  0  0  0  0  0
    2.0065    1.4251   -3.1375 H   0  0  0  0  0  0  0  0  0  0  0  0
    1.1333    1.4144   -1.5874 H   0  0  0  0  0  0  0  0  0  0  0  0
    2.2748    3.2323   -0.8779 H   0  0  0  0  0  0  0  0  0  0  0  0
    3.8448    3.8317   -0.3535 H   0  0  0  0  0  0  0  0  0  0  0  0
    3.0476    2.5680    0.5785 H   0  0  0  0  0  0  0  0  0  0  0  0
    0.5716   -2.4236   -1.3449 H   0  0  0  0  0  0  0  0  0  0  0  0
   -0.6599   -3.7287    0.9807 H   0  0  0  0  0  0  0  0  0  0  0  0
   -1.1510   -3.8246   -0.7188 H   0  0  0  0  0  0  0  0  0  0  0  0
   -1.5272   -1.4106    1.1356 H   0  0  0  0  0  0  0  0  0  0  0  0
   -2.7841   -2.5632    0.6796 H   0  0  0  0  0  0  0  0  0  0  0  0
   -2.4524   -1.9235   -1.7461 H   0  0  0  0  0  0  0  0  0  0  0  0
   -1.2339   -0.7470   -1.2644 H   0  0  0  0  0  0  0  0  0  0  0  0
   -3.4241    0.3566   -1.6457 H   0  0  0  0  0  0  0  0  0  0  0  0
   -3.0651    0.5273    1.2740 H   0  0  0  0  0  0  0  0  0  0  0  0
   -2.7155    2.5817    2.0281 H   0  0  0  0  0  0  0  0  0  0  0  0
   -1.0976    4.5008    0.2559 H   0  0  0  0  0  0  0  0  0  0  0  0
   -1.7366    4.8477    1.8716 H   0  0  0  0  0  0  0  0  0  0  0  0
   -2.8435    4.5725    0.5162 H   0  0  0  0  0  0  0  0  0  0  0  0
   -5.8311   -2.1407   -0.8929 H   0  0  0  0  0  0  0  0  0  0  0  0
   -0.4263    2.8711    2.6684 H   0  0  0  0  0  0  0  0  0  0  0  0
   -0.6987    1.3611    2.1172 H   0  0  0  0  0  0  0  0  0  0  0  0
  1 12  1  0  0  0  0
  1 13  1  0  0  0  0
  2 13  2  0  0  0  0
  3 16  2  0  0  0  0
  4 22  1  0  0  0  0
  4 50  1  0  0  0  0
  5 22  2  0  0  0  0
  6 23  2  0  0  0  0
  7 16  1  0  0  0  0
  7 18  1  0  0  0  0
  7 37  1  0  0  0  0
  8 21  1  0  0  0  0
  8 23  1  0  0  0  0
  8 45  1  0  0  0  0
  9 24  1  0  0  0  0
  9 51  1  0  0  0  0
  9 52  1  0  0  0  0
 10 11  1  0  0  0  0
 10 12  1  0  0  0  0
 10 13  1  0  0  0  0
 10 26  1  0  0  0  0
 11 14  1  0  0  0  0
 11 15  1  0  0  0  0
 11 27  1  0  0  0  0
 12 16  1  0  0  0  0
 12 28  1  0  0  0  0
 14 17  1  0  0  0  0
 14 29  1  0  0  0  0
 14 30  1  0  0  0  0
 15 31  1  0  0  0  0
 15 32  1  0  0  0  0
 15 33  1  0  0  0  0
 17 34  1  0  0  0  0
 17 35  1  0  0  0  0
 17 36  1  0  0  0  0
 18 19  1  0  0  0  0
 18 38  1  0  0  0  0
 18 39  1  0  0  0  0
 19 20  1  0  0  0  0
 19 40  1  0  0  0  0
 19 41  1  0  0  0  0
 20 21  1  0  0  0  0
 20 42  1  0  0  0  0
 20 43  1  0  0  0  0
 21 22  1  0  0  0  0
 21 44  1  0  0  0  0
 23 24  1  0  0  0  0
 24 25  1  0  0  0  0
 24 46  1  0  0  0  0
 25 47  1  0  0  0  0
 25 48  1  0  0  0  0
 25 49  1  0  0  0  0
M  END
> <PUBCHEM_COMPOUND_CID>
10666031

> <PUBCHEM_CONFORMER_RMSD>
1

> <PUBCHEM_CONFORMER_DIVERSEORDER>
1
39
6
121
240
47
45
34
142
40
177
122
169
110
28
194
71
38
191
154
228
116
143
69
30
75
129
158
87
239
63
206
201
12
137
174
60
48
68
102
164
170
166
223
117
54
155
27
11
61
96
196
130
103
134
224
77
127
4
141
76
81
17
74
3
139
227
126
221
150
145
195
46
50
5
190
230
101
44
83
136
149
70
199
26
94
89
183
188
51
95
171
213
156
185
186
100
184
157
84
209
205
138
151
181
182
214
72
98
73
119
88
66
235
218
108
208
115
19
23
114
120
58
79
165
10
43
229
211
124
92
233
140
53
35
193
232
161
109
237
132
204
65
202
62
225
29
236
241
128
179
113
176
99
36
167
172
42
37
217
175
41
226
222
7
231
238
14
59
125
82
163
198
159
216
153
197
168
25
16
220
20
64
78
80
147
97
52
192
2
32
203
9
123
33
91
131
133
162
15
173
22
67
13
189
212
178
8
112
210
93
135
200
105
49
144
118
57
180
187
56
219
24
207
104
111
107
21
106
234
90
215
148
31
18
160
152
55
86
146
85

> <PUBCHEM_MMFF94_PARTIAL_CHARGES>
23
1 -0.41
10 0.05
12 0.31
13 0.67
16 0.58
18 0.3
2 -0.57
21 0.36
22 0.66
23 0.57
24 0.33
3 -0.57
37 0.37
4 -0.65
45 0.37
5 -0.57
50 0.5
51 0.36
52 0.36
6 -0.57
7 -0.73
8 -0.73
9 -0.99

> <PUBCHEM_EFFECTIVE_ROTOR_COUNT>
12.6

> <PUBCHEM_PHARMACOPHORE_FEATURES>
13
1 15 hydrophobe
1 17 hydrophobe
1 2 acceptor
1 3 acceptor
1 4 acceptor
1 5 acceptor
1 6 acceptor
1 7 donor
1 8 donor
1 9 cation
1 9 donor
3 4 5 22 anion
4 1 10 12 13 rings

> <PUBCHEM_HEAVY_ATOM_COUNT>
25

> <PUBCHEM_ATOM_DEF_STEREO_COUNT>
5

> <PUBCHEM_ATOM_UDEF_STEREO_COUNT>
0

> <PUBCHEM_BOND_DEF_STEREO_COUNT>
0

> <PUBCHEM_BOND_UDEF_STEREO_COUNT>
0

> <PUBCHEM_ISOTOPIC_ATOM_COUNT>
0

> <PUBCHEM_COMPONENT_COUNT>
1

> <PUBCHEM_CACTVS_TAUTO_COUNT>
4

> <PUBCHEM_CONFORMER_ID>
00A2C02F00000001

> <PUBCHEM_MMFF94_ENERGY>
24.0917

> <PUBCHEM_FEATURE_SELFOVERLAP>
66.031

> <PUBCHEM_SHAPE_FINGERPRINT>
10498660 4 18265622167590642814
10670039 82 18339092514401639390
10708813 3 18263925428223355700
12788726 201 18271257087473966005
12978246 48 18408887321651418408
13122387 1 17400922999083271304
13899415 154 18342745161060096723
13965767 371 17613999595265965472
14123250 116 18338812142588230904
14178342 30 18196652891488580232
14787075 74 18261956357897263275
14931854 50 18338803423873212116
15003188 8 17615961119704829768
192875 21 18334573547001423142
20715895 44 17972304124231880629
20764821 26 17979914135716926336
22749437 52 18334295353342810070
23558518 356 18194408784161860299
474 4 17967529107987863138
5048184 11 18194419804831832916
5895379 119 18341057337538397196
6287921 2 18125170346284924255

> <PUBCHEM_SHAPE_MULTIPOLES>
464.33
9.55
4.51
1.57
0.7
2.76
0.16
-0.59
0.66
1.45
-1.39
-0.61
0.55
-2.19

> <PUBCHEM_SHAPE_SELFOVERLAP>
922.314

> <PUBCHEM_SHAPE_VOLUME>
273.4

> <PUBCHEM_COORDINATE_TYPE>
2
5
10

$$$$
