REMARK  Name = 10668061
REMARK  6 active torsions:
REMARK  status: ('A' for Active; 'I' for Inactive)
REMARK    1  A    between atoms: N_1  and  C_21
REMARK    2  A    between atoms: C_13  and  C_17
REMARK    3  A    between atoms: C_21  and  C_22
REMARK    4  A    between atoms: C_22  and  C_23
REMARK    5  A    between atoms: C_23  and  C_24
REMARK    6  A    between atoms: C_29  and  O_30
REMARK                            x       y       z     vdW  Elec       q    Type
REMARK                         _______ _______ _______ _____ _____    ______ ____
ROOT
ATOM      1  N   UNL     1       0.468  -2.039  -0.543  0.00  0.00    -0.188 N 
ATOM      2  N   UNL     1      -2.822  -0.483   0.947  0.00  0.00    -0.115 N 
ATOM      3  N   UNL     1       0.388  -1.881  -1.885  0.00  0.00    -0.178 NA
ATOM      4  N   UNL     1      -0.796  -1.569   1.478  0.00  0.00    -0.359 NA
ATOM      5  N   UNL     1      -3.605   0.090  -1.033  0.00  0.00    -0.333 NA
ATOM      6  N   UNL     1      -4.000   0.093   1.240  0.00  0.00    -0.100 NA
ATOM      7  N   UNL     1      -2.295  -0.952   3.211  0.00  0.00    -0.319 N 
ATOM      8  C   UNL     1      -0.612  -1.544   0.126  0.00  0.00    +0.195 C 
ATOM      9  C   UNL     1      -1.431  -1.038  -0.857  0.00  0.00    +0.181 C 
ATOM     10  C   UNL     1      -2.604  -0.476  -0.410  0.00  0.00    +0.212 C 
ATOM     11  C   UNL     1      -0.788  -1.263  -2.068  0.00  0.00    +0.108 C 
ATOM     12  C   UNL     1      -1.924  -1.026   1.894  0.00  0.00    +0.262 C 
ATOM     13  C   UNL     1      -4.430   0.421   0.013  0.00  0.00    +0.140 C 
ATOM     14  H   UNL     1      -3.152  -0.534   3.459  0.00  0.00    +0.146 HD
ATOM     15  H   UNL     1      -1.705  -1.316   3.910  0.00  0.00    +0.146 HD
ENDROOT
BRANCH  13  17
ATOM     16  O   UNL     1      -6.578   1.447   0.796  0.00  0.00    -0.439 OA
ATOM     17  C   UNL     1      -5.722   1.099  -0.200  0.00  0.00    +0.220 C 
ATOM     18  C   UNL     1      -6.231   1.464  -1.425  0.00  0.00    +0.052 C 
ATOM     19  C   UNL     1      -7.480   2.077  -1.164  0.00  0.00    +0.045 C 
ATOM     20  C   UNL     1      -7.645   2.042   0.201  0.00  0.00    +0.181 C 
ENDBRANCH  13  17
BRANCH   1  21
ATOM     21  C   UNL     1       1.626  -2.684   0.030  0.00  0.00    +0.119 C 
BRANCH  21  22
ATOM     22  C   UNL     1       2.781  -1.744   0.398  0.00  0.00    +0.028 C 
BRANCH  22  23
ATOM     23  C   UNL     1       3.375  -0.957  -0.780  0.00  0.00    +0.028 C 
BRANCH  23  24
ATOM     24  C   UNL     1       4.536  -0.053  -0.445  0.00  0.00    -0.022 C 
ATOM     25  C   UNL     1       4.291   1.260  -0.077  0.00  0.00    -0.001 C 
ATOM     26  C   UNL     1       5.827  -0.553  -0.511  0.00  0.00    -0.001 C 
ATOM     27  C   UNL     1       5.364   2.096   0.232  0.00  0.00    +0.037 C 
ATOM     28  C   UNL     1       6.901   0.283  -0.202  0.00  0.00    +0.037 C 
ATOM     29  C   UNL     1       6.669   1.607   0.170  0.00  0.00    +0.139 C 
BRANCH  29  30
ATOM     30  O   UNL     1       7.715   2.423   0.473  0.00  0.00    -0.471 OA
ATOM     31  C   UNL     1       9.024   1.859   0.389  0.00  0.00    +0.252 C 
ENDBRANCH  29  30
ENDBRANCH  23  24
ENDBRANCH  22  23
ENDBRANCH  21  22
ENDBRANCH   1  21
TORSDOF 6
