10664572
  -OEChem-03292013303D

 40 41  0     1  0  0  0  0  0999 V2000
   -0.4516   -2.0086    1.2010 O   0  0  0  0  0  0  0  0  0  0  0  0
   -3.0559   -1.3635   -0.0846 O   0  0  0  0  0  0  0  0  0  0  0  0
   -0.9479   -1.5791   -2.0313 O   0  0  0  0  0  0  0  0  0  0  0  0
    2.4643   -0.7634    2.0565 O   0  0  0  0  0  0  0  0  0  0  0  0
    4.0871    0.4032   -0.1015 O   0  0  0  0  0  0  0  0  0  0  0  0
   -4.7804    0.0281    0.5681 O   0  0  0  0  0  0  0  0  0  0  0  0
   -2.3291    4.3977   -0.6106 O   0  0  0  0  0  0  0  0  0  0  0  0
    6.2329   -0.1698   -0.7373 O   0  0  0  0  0  0  0  0  0  0  0  0
   -0.7217   -0.9871    0.2350 C   0  0  2  0  0  0  0  0  0  0  0  0
    0.2270   -0.7537    1.3633 C   0  0  2  0  0  0  0  0  0  0  0  0
   -2.1000   -0.4118    0.3918 C   0  0  1  0  0  0  0  0  0  0  0  0
   -0.2072   -1.2636   -1.1081 C   0  0  0  0  0  0  0  0  0  0  0  0
    1.6780   -0.8210    1.1196 C   0  0  0  0  0  0  0  0  0  0  0  0
    2.1284   -0.9426   -0.2984 C   0  0  0  0  0  0  0  0  0  0  0  0
    1.2570   -1.1429   -1.2986 C   0  0  0  0  0  0  0  0  0  0  0  0
   -2.3202    0.8656   -0.3750 C   0  0  0  0  0  0  0  0  0  0  0  0
    3.6063   -0.8554   -0.5359 C   0  0  0  0  0  0  0  0  0  0  0  0
   -2.1680    2.1186    0.0874 C   0  0  0  0  0  0  0  0  0  0  0  0
   -4.3636   -1.0086    0.0697 C   0  0  0  0  0  0  0  0  0  0  0  0
   -1.7843    2.5350    1.4719 C   0  0  0  0  0  0  0  0  0  0  0  0
   -2.4308    3.2092   -0.8921 C   0  0  0  0  0  0  0  0  0  0  0  0
   -5.2449   -2.0934   -0.4711 C   0  0  0  0  0  0  0  0  0  0  0  0
    5.4305    0.6209   -0.2598 C   0  0  0  0  0  0  0  0  0  0  0  0
    5.7939    1.9864    0.2400 C   0  0  0  0  0  0  0  0  0  0  0  0
   -0.0832   -0.1292    2.1921 H   0  0  0  0  0  0  0  0  0  0  0  0
   -2.3172   -0.2611    1.4570 H   0  0  0  0  0  0  0  0  0  0  0  0
    1.6057   -1.2515   -2.3215 H   0  0  0  0  0  0  0  0  0  0  0  0
   -2.5936    0.7283   -1.4217 H   0  0  0  0  0  0  0  0  0  0  0  0
    4.1111   -1.6565    0.0183 H   0  0  0  0  0  0  0  0  0  0  0  0
    3.8395   -0.9819   -1.6005 H   0  0  0  0  0  0  0  0  0  0  0  0
   -0.8331    3.0772    1.4534 H   0  0  0  0  0  0  0  0  0  0  0  0
   -1.6694    1.6933    2.1578 H   0  0  0  0  0  0  0  0  0  0  0  0
   -2.5491    3.1943    1.8961 H   0  0  0  0  0  0  0  0  0  0  0  0
   -2.7264    2.8907   -1.9061 H   0  0  0  0  0  0  0  0  0  0  0  0
   -5.0716   -3.0210    0.0801 H   0  0  0  0  0  0  0  0  0  0  0  0
   -5.0465   -2.2352   -1.5364 H   0  0  0  0  0  0  0  0  0  0  0  0
   -6.2926   -1.8050   -0.3473 H   0  0  0  0  0  0  0  0  0  0  0  0
    6.8684    2.1458    0.1122 H   0  0  0  0  0  0  0  0  0  0  0  0
    5.2577    2.7455   -0.3349 H   0  0  0  0  0  0  0  0  0  0  0  0
    5.5536    2.0671    1.3031 H   0  0  0  0  0  0  0  0  0  0  0  0
  1  9  1  0  0  0  0
  1 10  1  0  0  0  0
  2 11  1  0  0  0  0
  2 19  1  0  0  0  0
  3 12  2  0  0  0  0
  4 13  2  0  0  0  0
  5 17  1  0  0  0  0
  5 23  1  0  0  0  0
  6 19  2  0  0  0  0
  7 21  2  0  0  0  0
  8 23  2  0  0  0  0
  9 10  1  0  0  0  0
  9 11  1  0  0  0  0
  9 12  1  0  0  0  0
 10 13  1  0  0  0  0
 10 25  1  0  0  0  0
 11 16  1  0  0  0  0
 11 26  1  0  0  0  0
 12 15  1  0  0  0  0
 13 14  1  0  0  0  0
 14 15  2  0  0  0  0
 14 17  1  0  0  0  0
 15 27  1  0  0  0  0
 16 18  2  0  0  0  0
 16 28  1  0  0  0  0
 17 29  1  0  0  0  0
 17 30  1  0  0  0  0
 18 20  1  0  0  0  0
 18 21  1  0  0  0  0
 19 22  1  0  0  0  0
 20 31  1  0  0  0  0
 20 32  1  0  0  0  0
 20 33  1  0  0  0  0
 21 34  1  0  0  0  0
 22 35  1  0  0  0  0
 22 36  1  0  0  0  0
 22 37  1  0  0  0  0
 23 24  1  0  0  0  0
 24 38  1  0  0  0  0
 24 39  1  0  0  0  0
 24 40  1  0  0  0  0
M  END
> <PUBCHEM_COMPOUND_CID>
10664572

> <PUBCHEM_CONFORMER_RMSD>
0.8

> <PUBCHEM_CONFORMER_DIVERSEORDER>
1
271
398
105
87
431
311
71
273
252
322
142
112
465
204
152
175
403
177
414
483
161
435
187
170
374
227
255
356
149
138
324
368
254
480
265
333
426
157
185
451
119
196
476
260
250
319
484
23
320
419
76
237
117
315
110
332
454
125
226
457
123
336
155
172
466
130
473
331
96
158
342
256
462
55
410
122
485
217
266
334
127
370
147
446
258
477
262
287
184
379
176
417
348
246
309
156
272
207
124
393
229
359
210
28
353
474
82
407
395
46
388
224
92
339
228
408
174
278
225
261
212
241
394
15
460
145
137
372
428
232
238
264
330
188
141
360
214
312
80
392
171
376
85
371
84
128
383
349
443
63
399
62
179
54
413
234
202
424
42
385
104
165
251
66
486
70
377
68
79
396
325
134
244
115
422
12
354
461
242
358
56
305
111
380
401
41
236
53
150
411
442
106
409
327
245
351
223
194
47
421
450
44
69
416
363
91
221
472
193
467
447
50
143
367
180
326
30
296
216
146
313
243
162
471
98
140
432
190
378
74
464
240
139
36
338
205
220
189
344
109
52
468
219
482
381
49
43
434
102
29
22
38
316
247
101
429
108
355
99
269
239
418
107
299
13
213
481
78
86
433
198
387
364
61
167
343
230
166
456
289
235
215
168
195
103
479
249
263
430
233
132
412
386
337
203
173
268
77
35
90
275
37
369
292
34
65
59
201
475
151
279
267
328
33
206
51
400
425
25
89
470
436
182
259
169
437
391
164
135
300
277
253
222
478
159
405
20
94
445
45
211
116
469
208
218
148
10
6
120
346
24
362
183
390
129
452
444
26
280
9
88
366
181
27
11
397
131
40
295
57
283
197
440
191
7
427
459
200
97
209
58
284
288
64
290
310
257
449
126
192
463
75
340
14
415
406
83
100
48
16
72
455
113
321
39
384
19
389
153
375
231
281
5
347
163
60
81
314
114
282
118
3
458
352
329
144
133
373
154
248
365
18
291
335
341
17
4
298
21
297
67
73
199
423
2
350
404
323
121
357
294
32
274
8
306
318
307
178
361
160
186
285
439
345
286
420
382
95
453
93
31
438
317
270
303
441
293
448
302
304
276
402
308
136
301

> <PUBCHEM_MMFF94_PARTIAL_CHARGES>
28
1 -0.3
10 0.05
11 0.51
12 0.56
13 0.56
14 -0.12
15 -0.14
16 -0.29
17 0.42
18 -0.12
19 0.66
2 -0.43
20 0.14
21 0.5
22 0.06
23 0.66
24 0.06
25 0.1
27 0.15
28 0.15
3 -0.57
34 0.06
4 -0.57
5 -0.43
6 -0.57
7 -0.57
8 -0.57
9 0.05

> <PUBCHEM_EFFECTIVE_ROTOR_COUNT>
8.2

> <PUBCHEM_PHARMACOPHORE_FEATURES>
8
1 1 acceptor
1 20 hydrophobe
1 3 acceptor
1 4 acceptor
1 6 acceptor
1 7 acceptor
1 8 acceptor
7 1 9 10 12 13 14 15 rings

> <PUBCHEM_HEAVY_ATOM_COUNT>
24

> <PUBCHEM_ATOM_DEF_STEREO_COUNT>
0

> <PUBCHEM_ATOM_UDEF_STEREO_COUNT>
3

> <PUBCHEM_BOND_DEF_STEREO_COUNT>
1

> <PUBCHEM_BOND_UDEF_STEREO_COUNT>
0

> <PUBCHEM_ISOTOPIC_ATOM_COUNT>
0

> <PUBCHEM_COMPONENT_COUNT>
1

> <PUBCHEM_CACTVS_TAUTO_COUNT>
2

> <PUBCHEM_CONFORMER_ID>
00A2BA7C00000001

> <PUBCHEM_MMFF94_ENERGY>
37.0726

> <PUBCHEM_FEATURE_SELFOVERLAP>
40.601

> <PUBCHEM_SHAPE_FINGERPRINT>
10498660 4 18265895761429147496
10670039 82 18260829281232347380
11578080 2 17558854805261601329
11595378 159 18187915175714405976
12107183 9 17539961785308454970
12403814 3 18131634499740634951
12633257 1 14058158250467729292
12670546 56 18187082828438161970
12788726 201 18334850619742423723
13533116 47 18113612370759850202
13965767 371 17245271803680885092
14251751 93 18410571773745018884
14713325 29 17917161480814053699
14739800 52 18261657243526454240
14787075 74 18188207718737435635
15209294 21 17676206840929951158
19141452 34 10375872974285561786
20600515 1 18194992809688523643
21315764 268 18341609352574336696
22182313 1 17488439950045912568
22907989 373 18200862973209197805
23352939 185 17988649648140768745
23402539 116 18410293640025900879
23557571 272 18272093798790157159
23559900 14 17840868474109341566
283562 15 18335421249292529467
2838139 119 18339916001335067860
392239 28 17750533912519055545
57527585 21 17488454175057711253
58260988 393 18040723528556015393
7808743 9 18265333893702093809
81228 2 18195826089494611555

> <PUBCHEM_SHAPE_MULTIPOLES>
446.95
11.06
3.3
1.41
12.61
4.59
0.2
1.13
-1.2
-3.72
-0.62
0.16
-0.27
0.13

> <PUBCHEM_SHAPE_SELFOVERLAP>
934.808

> <PUBCHEM_SHAPE_VOLUME>
249.8

> <PUBCHEM_COORDINATE_TYPE>
2
5
10

$$$$
