REMARK  Name = 10666031
REMARK  12 active torsions:
REMARK  status: ('A' for Active; 'I' for Inactive)
REMARK    1  A    between atoms: C_1  and  C_2
REMARK    2  A    between atoms: C_1  and  C_17
REMARK    3  A    between atoms: C_2  and  C_3
REMARK    4  A    between atoms: C_3  and  N_5
REMARK    5  A    between atoms: C_6  and  C_11
REMARK    6  A    between atoms: C_10  and  C_13
REMARK    7  A    between atoms: C_13  and  C_15
REMARK    8  A    between atoms: C_17  and  N_19
REMARK    9  A    between atoms: C_17  and  C_29
REMARK   10  A    between atoms: C_20  and  CA_22
REMARK   11  A    between atoms: CA_22  and  N_24
REMARK   12  A    between atoms: C_29  and  O_30
REMARK                            x       y       z     vdW  Elec       q    Type
REMARK                         _______ _______ _______ _____ _____    ______ ____
ROOT
ATOM      1  C   UNK A   2      -2.152  -1.249  -0.935  0.00  0.00    +0.033 C 
ENDROOT
BRANCH   1   2
ATOM      2  C   UNK A   2      -1.872  -2.068   0.329  0.00  0.00    +0.024 C 
BRANCH   2   3
ATOM      3  C   UNK A   2      -0.821  -3.141   0.070  0.00  0.00    +0.090 C 
BRANCH   3   5
ATOM      4  O   UNK A   2       1.351  -2.318   1.759  0.00  0.00    -0.271 OA
ATOM      5  N   UNK A   2       0.428  -2.567  -0.349  0.00  0.00    -0.301 N 
ATOM      6  C   UNK A   2       1.437  -2.192   0.533  0.00  0.00    +0.263 C 
ATOM      7  H   UNK A   2       0.578  -2.431  -1.313  0.00  0.00    +0.150 HD
BRANCH   6  11
ATOM      8  O   UNK A   2       3.897  -1.780   0.604  0.00  0.00    -0.442 OA
ATOM      9  O   UNK A   2       5.082   0.135   1.153  0.00  0.00    -0.250 OA
ATOM     10  C   UNK A   2       2.889  -0.082  -0.164  0.00  0.00    +0.148 C 
ATOM     11  C   UNK A   2       2.674  -1.592  -0.162  0.00  0.00    +0.254 C 
ATOM     12  C   UNK A   2       4.150  -0.444   0.641  0.00  0.00    +0.321 C 
BRANCH  10  13
ATOM     13  C   UNK A   2       3.168   0.584  -1.489  0.00  0.00    +0.015 C 
ATOM     14  C   UNK A   2       1.841   0.862  -2.214  0.00  0.00    +0.001 C 
BRANCH  13  15
ATOM     15  C   UNK A   2       3.954   1.898  -1.291  0.00  0.00    +0.001 C 
ATOM     16  C   UNK A   2       3.229   2.930  -0.437  0.00  0.00    +0.000 C 
ENDBRANCH  13  15
ENDBRANCH  10  13
ENDBRANCH   6  11
ENDBRANCH   3   5
ENDBRANCH   2   3
ENDBRANCH   1   2
BRANCH   1  17
ATOM     17  C   UNK A   2      -3.230  -0.188  -0.715  0.00  0.00    +0.171 C 
BRANCH  17  19
ATOM     18  O   ALA A   1      -1.886   2.329  -1.099  0.00  0.00    -0.277 OA
ATOM     19  N   UNK A   2      -2.862   0.760   0.306  0.00  0.00    -0.298 N 
ATOM     20  C   ALA A   1      -2.211   1.957   0.027  0.00  0.00    +0.202 C 
ATOM     21  H   UNK A   2      -3.081   0.552   1.243  0.00  0.00    +0.150 HD
BRANCH  20  22
ATOM     22  CA  ALA A   1      -1.928   2.765   1.288  0.00  0.00    +0.013 C 
ATOM     23  CB  ALA A   1      -1.896   4.254   0.965  0.00  0.00    -0.015 C 
BRANCH  22  24
ATOM     24  N   ALA A   1      -0.640   2.337   1.827  0.00  0.00    +0.387 N 
ATOM     25  H1  ALA A   1      -0.675   1.339   2.039  0.00  0.00    -0.089 HD
ATOM     26  H2  ALA A   1      -0.439   2.858   2.680  0.00  0.00    -0.089 HD
ATOM     27  H3  ALA A   1       0.092   2.513   1.140  0.00  0.00    -0.089 HD
ENDBRANCH  22  24
ENDBRANCH  20  22
ENDBRANCH  17  19
BRANCH  17  29
ATOM     28  O   UNK A   2      -5.070  -0.650   0.814  0.00  0.00    -0.248 OA
ATOM     29  C   UNK A   2      -4.525  -0.836  -0.266  0.00  0.00    +0.332 C 
BRANCH  29  30
ATOM     30  O   UNK A   2      -5.006  -1.704  -1.194  0.00  0.00    -0.479 OA
ATOM     31  H   UNK A   2      -4.557  -1.816  -2.009  0.00  0.00    +0.295 HD
ENDBRANCH  29  30
ENDBRANCH  17  29
ENDBRANCH   1  17
TORSDOF 12
