10661777
  -OEChem-03292013303D

 39 40  0     1  0  0  0  0  0999 V2000
    1.7856   -0.6249    2.0806 O   0  0  0  0  0  0  0  0  0  0  0  0
    2.5734   -2.7229    0.1487 O   0  0  0  0  0  0  0  0  0  0  0  0
   -2.4625    2.7558    0.1130 O   0  0  0  0  0  0  0  0  0  0  0  0
    1.9428    2.7154   -0.8317 O   0  0  0  0  0  0  0  0  0  0  0  0
   -2.5324   -1.7481   -1.8773 O   0  0  0  0  0  0  0  0  0  0  0  0
    2.4798    0.8584   -2.0396 O   0  0  0  0  0  0  0  0  0  0  0  0
   -4.5523   -1.4788   -0.8558 O   0  0  0  0  0  0  0  0  0  0  0  0
    1.9019   -0.4492    0.6730 C   0  0  1  0  0  0  0  0  0  0  0  0
   -1.7628    0.4524   -0.1630 C   0  0  1  0  0  0  0  0  0  0  0  0
    0.5267   -0.5701    0.0395 C   0  0  0  0  0  0  0  0  0  0  0  0
    2.6867    0.8371    0.3706 C   0  0  1  0  0  0  0  0  0  0  0  0
   -0.3922    0.5619    0.4881 C   0  0  0  0  0  0  0  0  0  0  0  0
   -2.5231   -0.8063    0.2765 C   0  0  1  0  0  0  0  0  0  0  0  0
    4.1585    0.4254    0.4452 C   0  0  0  0  0  0  0  0  0  0  0  0
    2.8601   -1.5342    0.2246 C   0  0  0  0  0  0  0  0  0  0  0  0
   -3.4282   -0.3719    1.4262 C   0  0  0  0  0  0  0  0  0  0  0  0
    4.2182   -0.9867   -0.1265 C   0  0  0  0  0  0  0  0  0  0  0  0
   -2.6631    1.5671    0.3315 C   0  0  0  0  0  0  0  0  0  0  0  0
   -3.8513    1.0533    1.0977 C   0  0  0  0  0  0  0  0  0  0  0  0
    2.3694    1.4361   -0.9685 C   0  0  0  0  0  0  0  0  0  0  0  0
   -3.3351   -1.3699   -0.8527 C   0  0  0  0  0  0  0  0  0  0  0  0
   -1.6823    0.5396   -1.2522 H   0  0  0  0  0  0  0  0  0  0  0  0
    0.1096   -1.5367    0.3400 H   0  0  0  0  0  0  0  0  0  0  0  0
    0.5900   -0.6014   -1.0542 H   0  0  0  0  0  0  0  0  0  0  0  0
    2.4980    1.5927    1.1446 H   0  0  0  0  0  0  0  0  0  0  0  0
    0.0257    1.5422    0.2501 H   0  0  0  0  0  0  0  0  0  0  0  0
   -0.4982    0.5456    1.5808 H   0  0  0  0  0  0  0  0  0  0  0  0
   -1.8940   -1.6281    0.6280 H   0  0  0  0  0  0  0  0  0  0  0  0
    4.4903    0.4122    1.4908 H   0  0  0  0  0  0  0  0  0  0  0  0
    4.8229    1.1027   -0.1015 H   0  0  0  0  0  0  0  0  0  0  0  0
   -2.8474   -0.3662    2.3579 H   0  0  0  0  0  0  0  0  0  0  0  0
   -4.2932   -1.0219    1.5915 H   0  0  0  0  0  0  0  0  0  0  0  0
    5.0121   -1.5756    0.3381 H   0  0  0  0  0  0  0  0  0  0  0  0
    4.3320   -0.9796   -1.2138 H   0  0  0  0  0  0  0  0  0  0  0  0
   -4.0246    1.6428    2.0008 H   0  0  0  0  0  0  0  0  0  0  0  0
   -4.7305    1.0752    0.4481 H   0  0  0  0  0  0  0  0  0  0  0  0
    2.6443   -0.4406    2.4966 H   0  0  0  0  0  0  0  0  0  0  0  0
    1.7287    3.1244   -1.6972 H   0  0  0  0  0  0  0  0  0  0  0  0
   -3.0451   -2.1199   -2.6264 H   0  0  0  0  0  0  0  0  0  0  0  0
  1  8  1  0  0  0  0
  1 37  1  0  0  0  0
  2 15  2  0  0  0  0
  3 18  2  0  0  0  0
  4 20  1  0  0  0  0
  4 38  1  0  0  0  0
  5 21  1  0  0  0  0
  5 39  1  0  0  0  0
  6 20  2  0  0  0  0
  7 21  2  0  0  0  0
  8 10  1  0  0  0  0
  8 11  1  0  0  0  0
  8 15  1  0  0  0  0
  9 12  1  0  0  0  0
  9 13  1  0  0  0  0
  9 18  1  0  0  0  0
  9 22  1  0  0  0  0
 10 12  1  0  0  0  0
 10 23  1  0  0  0  0
 10 24  1  0  0  0  0
 11 14  1  0  0  0  0
 11 20  1  0  0  0  0
 11 25  1  0  0  0  0
 12 26  1  0  0  0  0
 12 27  1  0  0  0  0
 13 16  1  0  0  0  0
 13 21  1  0  0  0  0
 13 28  1  0  0  0  0
 14 17  1  0  0  0  0
 14 29  1  0  0  0  0
 14 30  1  0  0  0  0
 15 17  1  0  0  0  0
 16 19  1  0  0  0  0
 16 31  1  0  0  0  0
 16 32  1  0  0  0  0
 17 33  1  0  0  0  0
 17 34  1  0  0  0  0
 18 19  1  0  0  0  0
 19 35  1  0  0  0  0
 19 36  1  0  0  0  0
M  END
> <PUBCHEM_COMPOUND_CID>
10661777

> <PUBCHEM_CONFORMER_RMSD>
0.8

> <PUBCHEM_CONFORMER_DIVERSEORDER>
1
11
23
5
21
7
16
8
2
15
17
18
12
13
22
10
14
19
3
9
4
24
20
6

> <PUBCHEM_MMFF94_PARTIAL_CHARGES>
20
1 -0.68
11 0.06
13 0.06
15 0.45
17 0.06
18 0.45
19 0.06
2 -0.57
20 0.66
21 0.66
3 -0.57
37 0.4
38 0.5
39 0.5
4 -0.65
5 -0.65
6 -0.57
7 -0.57
8 0.34
9 0.06

> <PUBCHEM_EFFECTIVE_ROTOR_COUNT>
6.6

> <PUBCHEM_PHARMACOPHORE_FEATURES>
12
1 1 acceptor
1 1 donor
1 2 acceptor
1 3 acceptor
1 4 acceptor
1 5 acceptor
1 6 acceptor
1 7 acceptor
3 4 6 20 anion
3 5 7 21 anion
5 8 11 14 15 17 rings
5 9 13 16 18 19 rings

> <PUBCHEM_HEAVY_ATOM_COUNT>
21

> <PUBCHEM_ATOM_DEF_STEREO_COUNT>
4

> <PUBCHEM_ATOM_UDEF_STEREO_COUNT>
0

> <PUBCHEM_BOND_DEF_STEREO_COUNT>
0

> <PUBCHEM_BOND_UDEF_STEREO_COUNT>
0

> <PUBCHEM_ISOTOPIC_ATOM_COUNT>
0

> <PUBCHEM_COMPONENT_COUNT>
1

> <PUBCHEM_CACTVS_TAUTO_COUNT>
6

> <PUBCHEM_CONFORMER_ID>
00A2AF9100000001

> <PUBCHEM_MMFF94_ENERGY>
37.3387

> <PUBCHEM_FEATURE_SELFOVERLAP>
61.014

> <PUBCHEM_SHAPE_FINGERPRINT>
10616163 171 18272651263996982295
11578080 2 18127102317154025601
11615757 297 17748826345069748747
12507557 5 16878219870038238900
12553582 1 18339088206264584921
13134695 92 17604131706382847076
13224815 77 18409448106898786707
13583140 156 17202458075257482682
14250199 8 18186802512596017581
14289901 80 18413385427872867992
16752209 62 18130492090385577927
17349148 13 18115012112831870818
17357779 13 17240751883188008276
17492 89 18411699859516226767
18186145 218 17022905670062091713
19050596 39 18335427876036664089
192875 21 18188201108672101160
19422 9 18341897406812736187
19862831 5 18113329825881932623
200 152 18260821640042019823
20279233 1 15698002924704697605
20442098 301 18412543184722876977
20645477 70 18041272278830286151
2255824 54 18260272975271105270
23402539 116 18041277644030597906
23557571 272 17632299003262387872
23559900 14 18342728603069406393
23598291 2 18335708212820628493
3082319 5 18410854382291895667
312423 11 18337682991644027999
474 4 17896602971607424628
5104073 3 18343016671100816834
58051976 100 18342177743717961575
6049 1 16298105380381543839
633830 44 17676498215474015216
7097593 13 18339081471423756679
7615 1 18410572903094155125
7832392 63 18263364690030632624
9709674 26 18408611348385675155

> <PUBCHEM_SHAPE_MULTIPOLES>
391.08
8.6
2.38
1.41
1.4
0.48
0.18
-1.48
-0.06
0.14
0.59
0.22
-0.15
-1.55

> <PUBCHEM_SHAPE_SELFOVERLAP>
826.857

> <PUBCHEM_SHAPE_VOLUME>
219.5

> <PUBCHEM_COORDINATE_TYPE>
2
5
10

$$$$
