REMARK  Name = 10666709
REMARK  4 active torsions:
REMARK  status: ('A' for Active; 'I' for Inactive)
REMARK    1  A    between atoms: C_3  and  C_15
REMARK    2  A    between atoms: C_5  and  C_22
REMARK    3  A    between atoms: C_8  and  O_28
REMARK    4  A    between atoms: C_10  and  O_30
REMARK                            x       y       z     vdW  Elec       q    Type
REMARK                         _______ _______ _______ _____ _____    ______ ____
ROOT
ATOM      1  O   UNL     1       0.243  -0.470  -0.205  0.00  0.00    -0.474 OA
ATOM      2  O   UNL     1      -1.519  -4.173  -0.066  0.00  0.00    -0.291 OA
ATOM      3  C   UNL     1      -1.855   0.589  -0.056  0.00  0.00    +0.063 C 
ATOM      4  C   UNL     1      -1.116  -0.595  -0.080  0.00  0.00    +0.145 C 
ATOM      5  C   UNL     1       0.959  -1.604   0.309  0.00  0.00    +0.196 C 
ATOM      6  C   UNL     1      -1.774  -1.826  -0.005  0.00  0.00    +0.102 C 
ATOM      7  C   UNL     1       0.491  -2.896  -0.359  0.00  0.00    +0.117 C 
ATOM      8  C   UNL     1      -3.244   0.540   0.075  0.00  0.00    +0.137 C 
ATOM      9  C   UNL     1      -0.985  -3.071  -0.114  0.00  0.00    +0.183 C 
ATOM     10  C   UNL     1      -3.164  -1.877   0.127  0.00  0.00    +0.142 C 
ATOM     11  C   UNL     1      -3.895  -0.690   0.171  0.00  0.00    +0.073 C 
ENDROOT
BRANCH   3  15
ATOM     12  O   UNL     1       1.342   3.080   2.273  0.00  0.00    -0.253 OA
ATOM     13  N   UNL     1      -0.288   2.143   1.010  0.00  0.00    -0.287 N 
ATOM     14  N   UNL     1       0.798   4.151   0.353  0.00  0.00    -0.289 N 
ATOM     15  C   UNL     1      -1.155   1.936  -0.158  0.00  0.00    +0.102 C 
ATOM     16  C   UNL     1      -0.366   2.043  -1.471  0.00  0.00    +0.026 C 
ATOM     17  C   UNL     1      -0.038   3.478  -1.888  0.00  0.00    +0.023 C 
ATOM     18  C   UNL     1      -0.056   4.502  -0.765  0.00  0.00    +0.091 C 
ATOM     19  C   UNL     1       0.640   3.127   1.255  0.00  0.00    +0.301 C 
ATOM     20  H   UNL     1      -0.386   1.475   1.726  0.00  0.00    +0.151 HD
ATOM     21  H   UNL     1       1.591   4.719   0.482  0.00  0.00    +0.151 HD
ENDBRANCH   3  15
BRANCH   5  22
ATOM     22  C   UNL     1       2.439  -1.378   0.085  0.00  0.00    +0.018 C 
ATOM     23  C   UNL     1       3.367  -1.888   0.994  0.00  0.00    -0.001 C 
ATOM     24  C   UNL     1       2.874  -0.662  -1.029  0.00  0.00    -0.001 C 
ATOM     25  C   UNL     1       4.731  -1.680   0.787  0.00  0.00    -0.000 C 
ATOM     26  C   UNL     1       4.238  -0.454  -1.236  0.00  0.00    -0.000 C 
ATOM     27  C   UNL     1       5.166  -0.963  -0.327  0.00  0.00    -0.000 C 
ENDBRANCH   5  22
BRANCH   8  28
ATOM     28  O   UNL     1      -3.981   1.686   0.111  0.00  0.00    -0.506 OA
ATOM     29  H   UNL     1      -3.557   2.519   0.047  0.00  0.00    +0.292 HD
ENDBRANCH   8  28
BRANCH  10  30
ATOM     30  O   UNL     1      -3.852  -3.050   0.209  0.00  0.00    -0.505 OA
ATOM     31  H   UNL     1      -3.393  -3.866   0.183  0.00  0.00    +0.292 HD
ENDBRANCH  10  30
TORSDOF 4
