REMARK  Name = 10668706
REMARK  5 active torsions:
REMARK  status: ('A' for Active; 'I' for Inactive)
REMARK    1  A    between atoms: C_13  and  C_25
REMARK    2  A    between atoms: C_18  and  O_23
REMARK    3  A    between atoms: C_25  and  C_26
REMARK    4  A    between atoms: C_26  and  O_27
REMARK    5  A    between atoms: C_26  and  C_29
REMARK                            x       y       z     vdW  Elec       q    Type
REMARK                         _______ _______ _______ _____ _____    ______ ____
ROOT
ATOM      1  O   UNL     1       1.141   1.609   0.406  0.00  0.00    -0.358 OA
ATOM      2  O   UNL     1      -1.844   0.292   0.332  0.00  0.00    -0.452 OA
ATOM      3  O   UNL     1       3.183  -0.440  -0.357  0.00  0.00    -0.452 OA
ATOM      4  O   UNL     1      -1.314   0.409  -1.911  0.00  0.00    -0.250 OA
ATOM      5  O   UNL     1       4.123  -1.712   1.319  0.00  0.00    -0.250 OA
ATOM      6  C   UNL     1      -0.020   2.423   0.701  0.00  0.00    +0.126 C 
ATOM      7  C   UNL     1       2.317   2.421   0.517  0.00  0.00    +0.119 C 
ATOM      8  C   UNL     1       0.510   3.825   0.993  0.00  0.00    +0.033 C 
ATOM      9  C   UNL     1       1.837   3.841   0.277  0.00  0.00    +0.032 C 
ATOM     10  C   UNL     1      -0.985   2.345  -0.498  0.00  0.00    +0.126 C 
ATOM     11  C   UNL     1       3.395   1.985  -0.476  0.00  0.00    +0.073 C 
ATOM     12  C   UNL     1       4.073   0.663  -0.078  0.00  0.00    +0.171 C 
ATOM     13  C   UNL     1      -2.252  -1.090   0.245  0.00  0.00    +0.171 C 
ATOM     14  C   UNL     1      -1.387   0.907  -0.795  0.00  0.00    +0.319 C 
ATOM     15  C   UNL     1      -2.258   3.168  -0.312  0.00  0.00    +0.014 C 
ATOM     16  C   UNL     1      -1.144  -1.987   0.814  0.00  0.00    +0.046 C 
ATOM     17  C   UNL     1       0.136  -1.944  -0.033  0.00  0.00    +0.034 C 
ATOM     18  C   UNL     1       1.221  -2.885   0.501  0.00  0.00    +0.121 C 
ATOM     19  C   UNL     1       2.579  -2.752  -0.215  0.00  0.00    +0.126 C 
ATOM     20  C   UNL     1       5.346   0.459  -0.898  0.00  0.00    +0.047 C 
ATOM     21  C   UNL     1       3.387  -1.591   0.346  0.00  0.00    +0.319 C 
ATOM     22  C   UNL     1       2.495  -2.733  -1.742  0.00  0.00    +0.014 C 
ENDROOT
BRANCH  18  23
ATOM     23  O   UNL     1       0.754  -4.228   0.357  0.00  0.00    -0.384 OA
ATOM     24  H   UNL     1      -0.101  -4.323   0.805  0.00  0.00    +0.210 HD
ENDBRANCH  18  23
BRANCH  13  25
ATOM     25  C   UNL     1      -3.530  -1.225   1.065  0.00  0.00    +0.073 C 
BRANCH  25  26
ATOM     26  C   UNL     1      -4.682  -0.379   0.511  0.00  0.00    +0.114 C 
BRANCH  26  27
ATOM     27  O   UNL     1      -5.836  -0.534   1.333  0.00  0.00    -0.384 OA
ATOM     28  H   UNL     1      -5.626  -0.260   2.240  0.00  0.00    +0.210 HD
ENDBRANCH  26  27
BRANCH  26  29
ATOM     29  C   UNL     1      -5.038  -0.818  -0.914  0.00  0.00    +0.029 C 
ATOM     30  C   UNL     1      -6.207  -0.028  -1.488  0.00  0.00    +0.003 C 
ENDBRANCH  26  29
ENDBRANCH  25  26
ENDBRANCH  13  25
TORSDOF 5
