REMARK  Name = 10669942
REMARK  10 active torsions:
REMARK  status: ('A' for Active; 'I' for Inactive)
REMARK    1  A    between atoms: C_5  and  C_22
REMARK    2  A    between atoms: C_11  and  O_20
REMARK    3  A    between atoms: C_22  and  C_23
REMARK    4  A    between atoms: C_23  and  O_24
REMARK    5  A    between atoms: C_23  and  C_26
REMARK    6  A    between atoms: C_26  and  O_27
REMARK    7  A    between atoms: C_26  and  C_29
REMARK    8  A    between atoms: C_29  and  O_31
REMARK    9  A    between atoms: C_29  and  C_33
REMARK   10  A    between atoms: C_33  and  O_34
REMARK                            x       y       z     vdW  Elec       q    Type
REMARK                         _______ _______ _______ _____ _____    ______ ____
ROOT
ATOM      1  C   UNL     1       2.550   0.854   0.442  0.00  0.00    +0.017 C 
ATOM      2  C   UNL     1       1.034   0.709   0.136  0.00  0.00    +0.006 C 
ATOM      3  C   UNL     1       0.604  -0.588  -0.621  0.00  0.00    +0.004 C 
ATOM      4  C   UNL     1       1.687  -1.698  -0.876  0.00  0.00    +0.018 C 
ATOM      5  C   UNL     1      -0.601  -1.335   0.048  0.00  0.00    +0.003 C 
ATOM      6  C   UNL     1       3.103   1.861  -0.635  0.00  0.00    +0.030 C 
ATOM      7  C   UNL     1       3.273  -0.459   0.608  0.00  0.00    -0.049 C 
ATOM      8  C   UNL     1       0.713   1.961  -0.693  0.00  0.00    +0.030 C 
ATOM      9  C   UNL     1       2.780   1.446   1.857  0.00  0.00    +0.004 C 
ATOM     10  C   UNL     1       0.952  -3.042  -0.614  0.00  0.00    +0.004 C 
ATOM     11  C   UNL     1       1.928   2.118  -1.588  0.00  0.00    +0.111 C 
ATOM     12  C   UNL     1      -0.531  -2.705  -0.641  0.00  0.00    +0.000 C 
ATOM     13  C   UNL     1       2.894  -1.597   0.013  0.00  0.00    -0.035 C 
ATOM     14  C   UNL     1       4.312  -0.395   1.708  0.00  0.00    +0.018 C 
ATOM     15  C   UNL     1       4.217   1.054   2.190  0.00  0.00    +0.004 C 
ATOM     16  C   UNL     1       2.150  -1.689  -2.345  0.00  0.00    +0.004 C 
ATOM     17  C   UNL     1      -0.477  -1.514   1.577  0.00  0.00    +0.000 C 
ATOM     18  C   UNL     1       4.368   1.470  -1.394  0.00  0.00    +0.003 C 
ATOM     19  C   UNL     1       5.725  -0.800   1.314  0.00  0.00    +0.004 C 
ENDROOT
BRANCH  11  20
ATOM     20  O   UNL     1       1.964   3.425  -2.133  0.00  0.00    -0.384 OA
ATOM     21  H   UNL     1       2.743   3.517  -2.703  0.00  0.00    +0.210 HD
ENDBRANCH  11  20
BRANCH   5  22
ATOM     22  C   UNL     1      -1.937  -0.646  -0.258  0.00  0.00    +0.032 C 
BRANCH  22  23
ATOM     23  C   UNL     1      -3.159  -1.389   0.296  0.00  0.00    +0.140 C 
BRANCH  23  24
ATOM     24  O   UNL     1      -3.166  -2.725  -0.196  0.00  0.00    -0.382 OA
ATOM     25  H   UNL     1      -2.316  -3.148   0.004  0.00  0.00    +0.210 HD
ENDBRANCH  23  24
BRANCH  23  26
ATOM     26  C   UNL     1      -4.510  -0.707  -0.017  0.00  0.00    +0.164 C 
BRANCH  26  27
ATOM     27  O   UNL     1      -4.715  -0.702  -1.429  0.00  0.00    -0.380 OA
ATOM     28  H   UNL     1      -4.601  -1.601  -1.776  0.00  0.00    +0.211 HD
ENDBRANCH  26  27
BRANCH  26  29
ATOM     29  C   UNL     1      -4.690   0.733   0.552  0.00  0.00    +0.142 C 
ATOM     30  C   UNL     1      -4.584   0.794   2.080  0.00  0.00    +0.034 C 
BRANCH  29  31
ATOM     31  O   UNL     1      -3.657   1.577   0.032  0.00  0.00    -0.382 OA
ATOM     32  H   UNL     1      -3.688   1.567  -0.937  0.00  0.00    +0.210 HD
ENDBRANCH  29  31
BRANCH  29  33
ATOM     33  C   UNL     1      -6.040   1.318   0.086  0.00  0.00    +0.166 C 
BRANCH  33  34
ATOM     34  O   UNL     1      -6.189   2.673   0.499  0.00  0.00    -0.379 OA
ATOM     35  H   UNL     1      -7.044   3.013   0.193  0.00  0.00    +0.211 HD
ENDBRANCH  33  34
ENDBRANCH  29  33
ENDBRANCH  26  29
ENDBRANCH  23  26
ENDBRANCH  22  23
ENDBRANCH   5  22
TORSDOF 10
