REMARK  Name = 10661777
REMARK  8 active torsions:
REMARK  status: ('A' for Active; 'I' for Inactive)
REMARK    1  A    between atoms: C_2  and  O_7
REMARK    2  A    between atoms: C_2  and  C_13
REMARK    3  A    between atoms: C_3  and  C_10
REMARK    4  A    between atoms: C_10  and  O_11
REMARK    5  A    between atoms: C_13  and  C_14
REMARK    6  A    between atoms: C_14  and  C_16
REMARK    7  A    between atoms: C_17  and  C_22
REMARK    8  A    between atoms: C_22  and  O_23
REMARK                            x       y       z     vdW  Elec       q    Type
REMARK                         _______ _______ _______ _____ _____    ______ ____
ROOT
ATOM      1  O   UNL     1       2.573  -2.723   0.149  0.00  0.00    -0.294 OA
ATOM      2  C   UNL     1       1.902  -0.449   0.673  0.00  0.00    +0.149 C 
ATOM      3  C   UNL     1       2.687   0.837   0.371  0.00  0.00    +0.130 C 
ATOM      4  C   UNL     1       4.159   0.425   0.445  0.00  0.00    +0.022 C 
ATOM      5  C   UNL     1       2.860  -1.534   0.225  0.00  0.00    +0.175 C 
ATOM      6  C   UNL     1       4.218  -0.987  -0.127  0.00  0.00    +0.068 C 
ENDROOT
BRANCH   2   7
ATOM      7  O   UNL     1       1.786  -0.625   2.081  0.00  0.00    -0.379 OA
ATOM      8  H   UNL     1       1.181   0.042   2.441  0.00  0.00    +0.211 HD
ENDBRANCH   2   7
BRANCH   3  10
ATOM      9  O   UNL     1       2.480   0.858  -2.040  0.00  0.00    -0.250 OA
ATOM     10  C   UNL     1       2.369   1.436  -0.969  0.00  0.00    +0.316 C 
BRANCH  10  11
ATOM     11  O   UNL     1       1.943   2.715  -0.832  0.00  0.00    -0.480 OA
ATOM     12  H   UNL     1       1.881   3.100   0.020  0.00  0.00    +0.295 HD
ENDBRANCH  10  11
ENDBRANCH   3  10
BRANCH   2  13
ATOM     13  C   UNL     1       0.527  -0.570   0.040  0.00  0.00    +0.035 C 
BRANCH  13  14
ATOM     14  C   UNL     1      -0.392   0.562   0.488  0.00  0.00    +0.011 C 
BRANCH  14  16
ATOM     15  O   UNL     1      -2.462   2.756   0.113  0.00  0.00    -0.296 OA
ATOM     16  C   UNL     1      -1.763   0.452  -0.163  0.00  0.00    +0.068 C 
ATOM     17  C   UNL     1      -2.523  -0.806   0.277  0.00  0.00    +0.106 C 
ATOM     18  C   UNL     1      -3.428  -0.372   1.426  0.00  0.00    +0.019 C 
ATOM     19  C   UNL     1      -2.663   1.567   0.332  0.00  0.00    +0.151 C 
ATOM     20  C   UNL     1      -3.851   1.053   1.098  0.00  0.00    +0.065 C 
BRANCH  17  22
ATOM     21  O   UNL     1      -4.552  -1.479  -0.856  0.00  0.00    -0.250 OA
ATOM     22  C   UNL     1      -3.335  -1.370  -0.853  0.00  0.00    +0.314 C 
BRANCH  22  23
ATOM     23  O   UNL     1      -2.532  -1.748  -1.877  0.00  0.00    -0.480 OA
ATOM     24  H   UNL     1      -1.604  -1.637  -1.811  0.00  0.00    +0.295 HD
ENDBRANCH  22  23
ENDBRANCH  17  22
ENDBRANCH  14  16
ENDBRANCH  13  14
ENDBRANCH   2  13
TORSDOF 8
