REMARK  Name = 10676
REMARK  2 active torsions:
REMARK  status: ('A' for Active; 'I' for Inactive)
REMARK    1  A    between atoms: C_3  and  S_11
REMARK    2  A    between atoms: C_4  and  S_15
REMARK                            x       y       z     vdW  Elec       q    Type
REMARK                         _______ _______ _______ _____ _____    ______ ____
ROOT
ATOM      1  C   UNL     1       0.713  -0.117  -0.014  0.00  0.00    +0.018 C 
ATOM      2  C   UNL     1      -0.114  -1.265   0.023  0.00  0.00    +0.003 C 
ATOM      3  C   UNL     1       2.108  -0.276  -0.045  0.00  0.00    +0.112 C 
ATOM      4  C   UNL     1      -2.081   0.166   0.050  0.00  0.00    +0.112 C 
ATOM      5  C   UNL     1      -1.509  -1.106   0.054  0.00  0.00    +0.019 C 
ATOM      6  C   UNL     1       0.120   1.156  -0.018  0.00  0.00    +0.003 C 
ATOM      7  C   UNL     1       0.479  -2.538   0.027  0.00  0.00    +0.000 C 
ATOM      8  C   UNL     1      -1.268   1.295   0.013  0.00  0.00    +0.019 C 
ATOM      9  C   UNL     1       2.680  -1.548  -0.041  0.00  0.00    +0.019 C 
ATOM     10  C   UNL     1       1.867  -2.677  -0.005  0.00  0.00    +0.001 C 
ENDROOT
BRANCH   3  11
ATOM     11  S   UNL     1       3.220   1.084  -0.093  0.00  0.00    +0.042 S 
ATOM     12  O   UNL     1       3.103   1.771   1.383  0.00  0.00    -0.065 OA
ATOM     13  O   UNL     1       4.564   0.547  -0.214  0.00  0.00    -0.065 OA
ATOM     14  O   UNL     1       2.693   2.014  -1.074  0.00  0.00    -0.065 OA
ENDBRANCH   3  11
BRANCH   4  15
ATOM     15  S   UNL     1      -3.818   0.342   0.089  0.00  0.00    +0.042 S 
ATOM     16  O   UNL     1      -4.283   0.363  -1.478  0.00  0.00    -0.065 OA
ATOM     17  O   UNL     1      -4.378  -0.863   0.683  0.00  0.00    -0.065 OA
ATOM     18  O   UNL     1      -4.098   1.650   0.661  0.00  0.00    -0.065 OA
ENDBRANCH   4  15
TORSDOF 2
