10678117
  -OEChem-03292013303D

 34 35  0     1  0  0  0  0  0999 V2000
   -1.2730   -0.7531    0.7772 O   0  0  0  0  0  0  0  0  0  0  0  0
   -1.1563    2.0753   -1.4683 O   0  0  0  0  0  0  0  0  0  0  0  0
   -3.4167    1.1883   -0.1510 O   0  0  0  0  0  0  0  0  0  0  0  0
   -2.0360   -3.3491    0.0665 O   0  0  0  0  0  0  0  0  0  0  0  0
    1.4248    2.2309   -0.4879 O   0  0  0  0  0  0  0  0  0  0  0  0
    0.8097    0.1009    0.1511 N   0  0  0  0  0  0  0  0  0  0  0  0
    3.0880    0.6919   -0.3562 N   0  0  0  0  0  0  0  0  0  0  0  0
    4.7872   -0.8900   -0.2209 N   0  0  0  0  0  0  0  0  0  0  0  0
   -0.5878    0.4205    0.2890 C   0  0  1  0  0  0  0  0  0  0  0  0
   -1.2268    0.7224   -1.0686 C   0  0  1  0  0  0  0  0  0  0  0  0
   -2.6508    0.2381   -0.8881 C   0  0  1  0  0  0  0  0  0  0  0  0
   -2.4536   -0.9985   -0.0207 C   0  0  1  0  0  0  0  0  0  0  0  0
   -2.2170   -2.2668   -0.8297 C   0  0  0  0  0  0  0  0  0  0  0  0
   -0.7097    1.4945    1.3243 C   0  0  0  0  0  0  0  0  0  0  0  0
    1.2195   -1.1939    0.4150 C   0  0  0  0  0  0  0  0  0  0  0  0
    1.7609    1.0705   -0.2447 C   0  0  0  0  0  0  0  0  0  0  0  0
   -1.3165    1.3308    2.5047 C   0  0  0  0  0  0  0  0  0  0  0  0
    2.4905   -1.5779    0.3124 C   0  0  0  0  0  0  0  0  0  0  0  0
    3.4635   -0.5346   -0.1039 C   0  0  0  0  0  0  0  0  0  0  0  0
   -0.7550    0.1192   -1.8558 H   0  0  0  0  0  0  0  0  0  0  0  0
   -3.1684    0.0539   -1.8340 H   0  0  0  0  0  0  0  0  0  0  0  0
   -3.2801   -1.1543    0.6818 H   0  0  0  0  0  0  0  0  0  0  0  0
   -1.3147   -2.1923   -1.4446 H   0  0  0  0  0  0  0  0  0  0  0  0
   -3.0749   -2.4839   -1.4735 H   0  0  0  0  0  0  0  0  0  0  0  0
   -0.3364    2.4914    1.1074 H   0  0  0  0  0  0  0  0  0  0  0  0
   -0.2212    2.2935   -1.6142 H   0  0  0  0  0  0  0  0  0  0  0  0
   -4.3033    0.8102   -0.0219 H   0  0  0  0  0  0  0  0  0  0  0  0
    0.5018   -1.9451    0.7165 H   0  0  0  0  0  0  0  0  0  0  0  0
   -1.3879    2.1673    3.1929 H   0  0  0  0  0  0  0  0  0  0  0  0
   -1.7497    0.3929    2.8304 H   0  0  0  0  0  0  0  0  0  0  0  0
   -1.8893   -4.1457   -0.4715 H   0  0  0  0  0  0  0  0  0  0  0  0
    2.8223   -2.5874    0.5152 H   0  0  0  0  0  0  0  0  0  0  0  0
    5.1097   -1.8333   -0.0320 H   0  0  0  0  0  0  0  0  0  0  0  0
    5.4857   -0.2103   -0.5022 H   0  0  0  0  0  0  0  0  0  0  0  0
  1  9  1  0  0  0  0
  1 12  1  0  0  0  0
  2 10  1  0  0  0  0
  2 26  1  0  0  0  0
  3 11  1  0  0  0  0
  3 27  1  0  0  0  0
  4 13  1  0  0  0  0
  4 31  1  0  0  0  0
  5 16  2  0  0  0  0
  6  9  1  0  0  0  0
  6 15  1  0  0  0  0
  6 16  1  0  0  0  0
  7 16  1  0  0  0  0
  7 19  2  0  0  0  0
  8 19  1  0  0  0  0
  8 33  1  0  0  0  0
  8 34  1  0  0  0  0
  9 10  1  0  0  0  0
  9 14  1  0  0  0  0
 10 11  1  0  0  0  0
 10 20  1  0  0  0  0
 11 12  1  0  0  0  0
 11 21  1  0  0  0  0
 12 13  1  0  0  0  0
 12 22  1  0  0  0  0
 13 23  1  0  0  0  0
 13 24  1  0  0  0  0
 14 17  2  0  0  0  0
 14 25  1  0  0  0  0
 15 18  2  0  0  0  0
 15 28  1  0  0  0  0
 17 29  1  0  0  0  0
 17 30  1  0  0  0  0
 18 19  1  0  0  0  0
 18 32  1  0  0  0  0
M  END
> <PUBCHEM_COMPOUND_CID>
10678117

> <PUBCHEM_CONFORMER_RMSD>
0.6

> <PUBCHEM_CONFORMER_DIVERSEORDER>
2
20
8
13
17
6
19
12
18
10
16
15
1
11
3
7
14
4
5
9

> <PUBCHEM_MMFF94_PARTIAL_CHARGES>
29
1 -0.56
10 0.28
11 0.28
12 0.28
13 0.28
14 -0.29
15 -0.04
16 0.84
17 -0.3
18 -0.14
19 0.49
2 -0.68
25 0.15
26 0.4
27 0.4
28 0.15
29 0.15
3 -0.68
30 0.15
31 0.4
32 0.15
33 0.4
34 0.4
4 -0.68
5 -0.57
6 -0.47
7 -0.66
8 -0.85
9 0.72

> <PUBCHEM_EFFECTIVE_ROTOR_COUNT>
4

> <PUBCHEM_PHARMACOPHORE_FEATURES>
13
1 1 acceptor
1 17 hydrophobe
1 2 acceptor
1 2 donor
1 3 acceptor
1 3 donor
1 4 acceptor
1 4 donor
1 5 acceptor
1 7 donor
1 8 donor
5 1 9 10 11 12 rings
6 6 7 15 16 18 19 rings

> <PUBCHEM_HEAVY_ATOM_COUNT>
19

> <PUBCHEM_ATOM_DEF_STEREO_COUNT>
4

> <PUBCHEM_ATOM_UDEF_STEREO_COUNT>
0

> <PUBCHEM_BOND_DEF_STEREO_COUNT>
0

> <PUBCHEM_BOND_UDEF_STEREO_COUNT>
0

> <PUBCHEM_ISOTOPIC_ATOM_COUNT>
0

> <PUBCHEM_COMPONENT_COUNT>
1

> <PUBCHEM_CACTVS_TAUTO_COUNT>
3

> <PUBCHEM_CONFORMER_ID>
00A2EF6500000002

> <PUBCHEM_MMFF94_ENERGY>
64.2572

> <PUBCHEM_FEATURE_SELFOVERLAP>
66.037

> <PUBCHEM_SHAPE_FINGERPRINT>
11578080 2 18128239272417243625
12423570 1 15159549399066475713
12592029 89 17900541181834687659
12596599 1 18270983283756648150
13024252 1 15647346203715509729
13027679 85 18201437042806249907
13299463 15 18333728026685838636
14115302 16 18343019995178513201
14713566 1 18342173336881049475
14787075 74 17051051196517754784
14817 1 13145124134201871841
14863182 85 16179586080019139087
15001771 113 18341333374290017091
15375462 189 17911815874524053643
15775835 57 18187367580094942374
15906896 17 17488476182511509329
16945 1 18263061289150586165
200 152 18201994417686321206
21501502 16 18262516008529044908
221490 88 18191028009239389122
22344851 262 17894351077035089461
22802520 49 18188204415917933049
23402539 116 17632008646668017653
23557571 272 18131070471950862634
23559900 14 18272360967863664922
2748010 2 18044932613136948502
298252 57 17680691645585625853
3312278 4 18343301483045420042
427121 178 16052704173603580507
46194498 28 16814579209779881199
69090 78 18261385607870976989
6992083 37 18267601138249473232
74978 22 18412265038493637136
81228 2 17202778002870919905

> <PUBCHEM_SHAPE_MULTIPOLES>
346.72
5.61
2.56
1.36
5.39
1.33
-0.6
1.75
0.91
-1.41
-0.04
-0.86
-0.86
-0.43

> <PUBCHEM_SHAPE_SELFOVERLAP>
736.513

> <PUBCHEM_SHAPE_VOLUME>
190.5

> <PUBCHEM_COORDINATE_TYPE>
2
5
10

$$$$
