REMARK  Name = 10678117
REMARK  6 active torsions:
REMARK  status: ('A' for Active; 'I' for Inactive)
REMARK    1  A    between atoms: C_2  and  N_7
REMARK    2  A    between atoms: C_2  and  C_20
REMARK    3  A    between atoms: C_3  and  O_16
REMARK    4  A    between atoms: C_4  and  O_18
REMARK    5  A    between atoms: C_5  and  C_22
REMARK    6  A    between atoms: C_22  and  O_23
REMARK                            x       y       z     vdW  Elec       q    Type
REMARK                         _______ _______ _______ _____ _____    ______ ____
ROOT
ATOM      1  O   UNL     1      -1.273  -0.753   0.777  0.00  0.00    -0.332 OA
ATOM      2  C   UNL     1      -0.588   0.420   0.289  0.00  0.00    +0.213 C 
ATOM      3  C   UNL     1      -1.227   0.722  -1.069  0.00  0.00    +0.188 C 
ATOM      4  C   UNL     1      -2.651   0.238  -0.888  0.00  0.00    +0.171 C 
ATOM      5  C   UNL     1      -2.454  -0.999  -0.021  0.00  0.00    +0.176 C 
ENDROOT
BRANCH   2   7
ATOM      6  O   UNL     1       1.425   2.231  -0.488  0.00  0.00    -0.193 OA
ATOM      7  N   UNL     1       0.810   0.101   0.151  0.00  0.00    -0.178 N 
ATOM      8  N   UNL     1       3.088   0.692  -0.356  0.00  0.00    -0.306 NA
ATOM      9  N   UNL     1       4.787  -0.890  -0.221  0.00  0.00    -0.332 N 
ATOM     10  C   UNL     1       1.220  -1.194   0.415  0.00  0.00    +0.084 C 
ATOM     11  C   UNL     1       1.761   1.071  -0.245  0.00  0.00    +0.276 C 
ATOM     12  C   UNL     1       2.490  -1.578   0.312  0.00  0.00    +0.065 C 
ATOM     13  C   UNL     1       3.463  -0.535  -0.104  0.00  0.00    +0.193 C 
ATOM     14  H   UNL     1       5.454  -0.220  -0.495  0.00  0.00    +0.145 HD
ATOM     15  H   UNL     1       5.067  -1.814  -0.031  0.00  0.00    +0.145 HD
ENDBRANCH   2   7
BRANCH   3  16
ATOM     16  O   UNL     1      -1.156   2.075  -1.468  0.00  0.00    -0.378 OA
ATOM     17  H   UNL     1      -0.227   2.335  -1.569  0.00  0.00    +0.211 HD
ENDBRANCH   3  16
BRANCH   4  18
ATOM     18  O   UNL     1      -3.417   1.188  -0.151  0.00  0.00    -0.379 OA
ATOM     19  H   UNL     1      -3.551   1.983  -0.690  0.00  0.00    +0.211 HD
ENDBRANCH   4  18
BRANCH   2  20
ATOM     20  C   UNL     1      -0.710   1.494   1.324  0.00  0.00    +0.023 C 
ATOM     21  C   UNL     1      -1.317   1.331   2.505  0.00  0.00    -0.001 C 
ENDBRANCH   2  20
BRANCH   5  22
ATOM     22  C   UNL     1      -2.217  -2.267  -0.830  0.00  0.00    +0.169 C 
BRANCH  22  23
ATOM     23  O   UNL     1      -2.036  -3.349   0.067  0.00  0.00    -0.379 OA
ATOM     24  H   UNL     1      -1.884  -4.164  -0.437  0.00  0.00    +0.211 HD
ENDBRANCH  22  23
ENDBRANCH   5  22
TORSDOF 6
