10676
  -OEChem-03292013323D

 26 27  0     0  0  0  0  0  0999 V2000
    3.2202    1.0843   -0.0929 S   0  0  0  0  0  0  0  0  0  0  0  0
   -3.8176    0.3424    0.0893 S   0  0  0  0  0  0  0  0  0  0  0  0
    3.1035    1.7714    1.3828 O   0  0  0  0  0  0  0  0  0  0  0  0
   -4.2830    0.3627   -1.4779 O   0  0  0  0  0  0  0  0  0  0  0  0
    4.5640    0.5472   -0.2136 O   0  0  0  0  0  0  0  0  0  0  0  0
    2.6931    2.0144   -1.0744 O   0  0  0  0  0  0  0  0  0  0  0  0
   -4.3781   -0.8627    0.6829 O   0  0  0  0  0  0  0  0  0  0  0  0
   -4.0981    1.6503    0.6606 O   0  0  0  0  0  0  0  0  0  0  0  0
    0.7128   -0.1170   -0.0139 C   0  0  0  0  0  0  0  0  0  0  0  0
   -0.1136   -1.2653    0.0226 C   0  0  0  0  0  0  0  0  0  0  0  0
    2.1078   -0.2756   -0.0454 C   0  0  0  0  0  0  0  0  0  0  0  0
   -2.0808    0.1662    0.0495 C   0  0  0  0  0  0  0  0  0  0  0  0
   -1.5087   -1.1064    0.0539 C   0  0  0  0  0  0  0  0  0  0  0  0
    0.1199    1.1562   -0.0183 C   0  0  0  0  0  0  0  0  0  0  0  0
    0.4794   -2.5383    0.0267 C   0  0  0  0  0  0  0  0  0  0  0  0
   -1.2680    1.2954    0.0131 C   0  0  0  0  0  0  0  0  0  0  0  0
    2.6800   -1.5480   -0.0405 C   0  0  0  0  0  0  0  0  0  0  0  0
    1.8672   -2.6772   -0.0046 C   0  0  0  0  0  0  0  0  0  0  0  0
   -2.1438   -1.9899    0.0744 H   0  0  0  0  0  0  0  0  0  0  0  0
    0.6800    2.0826    0.0027 H   0  0  0  0  0  0  0  0  0  0  0  0
   -0.1362   -3.4350    0.0547 H   0  0  0  0  0  0  0  0  0  0  0  0
   -1.6915    2.2959    0.0114 H   0  0  0  0  0  0  0  0  0  0  0  0
    3.7544   -1.7030   -0.0608 H   0  0  0  0  0  0  0  0  0  0  0  0
    2.3125   -3.6679    0.0000 H   0  0  0  0  0  0  0  0  0  0  0  0
    3.3648    1.1961    2.1398 H   0  0  0  0  0  0  0  0  0  0  0  0
   -4.0809   -0.4559   -1.9895 H   0  0  0  0  0  0  0  0  0  0  0  0
  1  3  1  0  0  0  0
  1  5  2  0  0  0  0
  1  6  2  0  0  0  0
  1 11  1  0  0  0  0
  2  4  1  0  0  0  0
  2  7  2  0  0  0  0
  2  8  2  0  0  0  0
  2 12  1  0  0  0  0
  3 25  1  0  0  0  0
  4 26  1  0  0  0  0
  9 10  2  0  0  0  0
  9 11  1  0  0  0  0
  9 14  1  0  0  0  0
 10 13  1  0  0  0  0
 10 15  1  0  0  0  0
 11 17  2  0  0  0  0
 12 13  2  0  0  0  0
 12 16  1  0  0  0  0
 13 19  1  0  0  0  0
 14 16  2  0  0  0  0
 14 20  1  0  0  0  0
 15 18  2  0  0  0  0
 15 21  1  0  0  0  0
 16 22  1  0  0  0  0
 17 18  1  0  0  0  0
 17 23  1  0  0  0  0
 18 24  1  0  0  0  0
M  END
> <PUBCHEM_COMPOUND_CID>
10676

> <PUBCHEM_CONFORMER_RMSD>
0.6

> <PUBCHEM_CONFORMER_DIVERSEORDER>
1
2

> <PUBCHEM_MMFF94_PARTIAL_CHARGES>
24
1 1.49
11 -0.01
12 -0.01
13 -0.15
14 -0.15
15 -0.15
16 -0.15
17 -0.15
18 -0.15
19 0.15
2 1.49
20 0.15
21 0.15
22 0.15
23 0.15
24 0.15
25 0.5
26 0.5
3 -0.68
4 -0.68
5 -0.65
6 -0.65
7 -0.65
8 -0.65

> <PUBCHEM_EFFECTIVE_ROTOR_COUNT>
2

> <PUBCHEM_PHARMACOPHORE_FEATURES>
10
1 3 acceptor
1 4 acceptor
1 5 acceptor
1 6 acceptor
1 7 acceptor
1 8 acceptor
4 1 3 5 6 anion
4 2 4 7 8 anion
6 9 10 11 15 17 18 rings
6 9 10 12 13 14 16 rings

> <PUBCHEM_HEAVY_ATOM_COUNT>
18

> <PUBCHEM_ATOM_DEF_STEREO_COUNT>
0

> <PUBCHEM_ATOM_UDEF_STEREO_COUNT>
0

> <PUBCHEM_BOND_DEF_STEREO_COUNT>
0

> <PUBCHEM_BOND_UDEF_STEREO_COUNT>
0

> <PUBCHEM_ISOTOPIC_ATOM_COUNT>
0

> <PUBCHEM_COMPONENT_COUNT>
1

> <PUBCHEM_CACTVS_TAUTO_COUNT>
1

> <PUBCHEM_CONFORMER_ID>
000029B400000001

> <PUBCHEM_MMFF94_ENERGY>
37.2868

> <PUBCHEM_FEATURE_SELFOVERLAP>
50.888

> <PUBCHEM_SHAPE_FINGERPRINT>
10465860 228 18339088085699623481
10608611 8 18262799549759662125
10967382 1 18410294705166902774
10980938 120 18410856555466232603
11132069 177 18336539520746525985
11471102 20 18409727322580456790
11543360 7 15769492135671587329
11680986 33 18336275573953765818
12644460 14 18188495670667286426
13140716 1 18410007741180238450
13380535 76 18408042935418203050
13583140 156 16371271333669269405
13897977 150 18409449189162083847
14251717 144 18411413986455341335
14790565 3 18265064681179091516
14897335 6 18411697703241521590
15196674 1 18410296874225705043
15219456 202 18261395524992895099
15442244 35 17979921510112086617
15536298 74 18342460296510034238
16945 1 18265335001761159238
18186145 218 18261959548571940119
19591789 44 18122350343688112963
20559304 39 18267585715354151162
20645477 70 18341326678911133367
21267235 1 18339934718612639335
21501502 16 18197499519610094329
21524375 3 18411982485675456918
221490 88 18264779765616656275
2255824 54 18336552607812830094
22854114 111 18409169874553968558
2334 1 18338237196907313250
23402539 116 18201434796464670100
23402655 69 18271239426873964933
23493267 7 17822577226012068754
23558518 356 18116726105531256569
23559900 14 18261673679844010418
25 1 18411138039170105790
2748010 2 18337403741355381790
3071541 37 18335426738102452070
350125 39 18337957775373116152
449060 62 18411985740933320874
474 4 18333734632229560333
49207404 50 18261686955519156067
4990 188 17775294858626158028
5104073 3 18337395946432442907
53812653 166 18342176704325287512
58051976 378 18411136926541396396
6333272 397 18335707181891158306
633830 44 18272097058686074989
7364860 26 18270401577602332822
81228 2 17617646001036170850
81539 233 18259703397882751766
8272917 22 18340212873389278063
84936 182 18201998811285151056
9709674 26 18336273357645204475

> <PUBCHEM_SHAPE_MULTIPOLES>
342.91
7.77
2.47
0.86
4.95
0.99
-0.05
-2.8
-0.08
-1.77
0.09
0.17
-0.29
0.06

> <PUBCHEM_SHAPE_SELFOVERLAP>
722.62

> <PUBCHEM_SHAPE_VOLUME>
192.9

> <PUBCHEM_COORDINATE_TYPE>
2
5
10

$$$$
