REMARK  Name = 1067700
REMARK  6 active torsions:
REMARK  status: ('A' for Active; 'I' for Inactive)
REMARK    1  A    between atoms: C_10  and  C_13
REMARK    2  A    between atoms: C_11  and  N_16
REMARK    3  A    between atoms: C_13  and  O_14
REMARK    4  A    between atoms: N_16  and  C_19
REMARK    5  A    between atoms: C_19  and  N_21
REMARK    6  A    between atoms: C_22  and  C_24
REMARK                            x       y       z     vdW  Elec       q    Type
REMARK                         _______ _______ _______ _____ _____    ______ ____
ROOT
ATOM      1  S   UNL     1      -1.732   1.861  -0.452  0.00  0.00    -0.074 S 
ATOM      2  O   UNL     1      -5.617   0.993  -0.837  0.00  0.00    -0.353 OA
ATOM      3  C   UNL     1      -5.706  -0.140   0.054  0.00  0.00    +0.097 C 
ATOM      4  C   UNL     1      -4.456  -1.042  -0.116  0.00  0.00    +0.054 C 
ATOM      5  C   UNL     1      -3.209  -0.222  -0.169  0.00  0.00    -0.007 A 
ATOM      6  C   UNL     1      -3.267   1.132  -0.420  0.00  0.00    +0.034 A 
ATOM      7  C   UNL     1      -4.528   1.903  -0.601  0.00  0.00    +0.175 C 
ATOM      8  C   UNL     1      -5.903   0.308   1.512  0.00  0.00    +0.030 C 
ATOM      9  C   UNL     1      -6.952  -0.921  -0.385  0.00  0.00    +0.030 C 
ATOM     10  C   UNL     1      -1.866  -0.670  -0.009  0.00  0.00    +0.091 A 
ATOM     11  C   UNL     1      -0.960   0.362  -0.139  0.00  0.00    +0.086 A 
ENDROOT
BRANCH  10  13
ATOM     12  O   UNL     1      -2.235  -2.986   0.374  0.00  0.00    -0.245 OA
ATOM     13  C   UNL     1      -1.461  -2.028   0.253  0.00  0.00    +0.339 C 
BRANCH  13  14
ATOM     14  O   UNL     1      -0.109  -2.212   0.368  0.00  0.00    -0.477 OA
ATOM     15  H   UNL     1       0.473  -1.483   0.276  0.00  0.00    +0.295 HD
ENDBRANCH  13  14
ENDBRANCH  10  13
BRANCH  11  16
ATOM     16  N   UNL     1       0.406   0.381  -0.060  0.00  0.00    -0.290 N 
ATOM     17  H   UNL     1       0.847  -0.423  -0.417  0.00  0.00    +0.154 HD
BRANCH  16  19
ATOM     18  S   UNL     1       0.914   2.819   1.181  0.00  0.00    -0.018 S 
ATOM     19  C   UNL     1       1.289   1.355   0.446  0.00  0.00    +0.141 C 
BRANCH  19  21
ATOM     20  O   UNL     1       2.696  -1.097  -0.641  0.00  0.00    -0.270 OA
ATOM     21  N   UNL     1       2.656   1.022   0.358  0.00  0.00    -0.264 N 
ATOM     22  C   UNL     1       3.274  -0.130  -0.155  0.00  0.00    +0.251 C 
ATOM     23  H   UNL     1       3.273   1.703   0.711  0.00  0.00    +0.157 HD
BRANCH  22  24
ATOM     24  C   UNL     1       4.758  -0.122  -0.123  0.00  0.00    +0.054 C 
ATOM     25  C   UNL     1       5.431  -1.325  -0.056  0.00  0.00    +0.005 C 
ATOM     26  C   UNL     1       5.420   1.089  -0.162  0.00  0.00    +0.005 C 
ATOM     27  C   UNL     1       6.825  -1.318  -0.026  0.00  0.00    +0.000 C 
ATOM     28  C   UNL     1       6.814   1.096  -0.132  0.00  0.00    +0.000 C 
ATOM     29  C   UNL     1       7.517  -0.107  -0.064  0.00  0.00    +0.000 C 
ENDBRANCH  22  24
ENDBRANCH  19  21
ENDBRANCH  16  19
ENDBRANCH  11  16
TORSDOF 6
