REMARK  Name = 10672322
REMARK  5 active torsions:
REMARK  status: ('A' for Active; 'I' for Inactive)
REMARK    1  A    between atoms: C_12  and  O_30
REMARK    2  A    between atoms: C_16  and  O_32
REMARK    3  A    between atoms: C_18  and  O_34
REMARK    4  A    between atoms: C_20  and  O_36
REMARK    5  A    between atoms: C_23  and  O_38
REMARK                            x       y       z     vdW  Elec       q    Type
REMARK                         _______ _______ _______ _____ _____    ______ ____
ROOT
ATOM      1  O   UNL     1       3.869   0.799  -0.277  0.00  0.00    -0.337 OA
ATOM      2  O   UNL     1       5.266  -0.340   1.295  0.00  0.00    -0.330 OA
ATOM      3  C   UNL     1       1.008  -1.055  -0.237  0.00  0.00    +0.002 C 
ATOM      4  C   UNL     1       0.342   0.299   0.110  0.00  0.00    +0.003 C 
ATOM      5  C   UNL     1      -1.039   0.475  -0.531  0.00  0.00    +0.003 C 
ATOM      6  C   UNL     1      -1.977  -0.667  -0.011  0.00  0.00    +0.005 C 
ATOM      7  C   UNL     1       2.371  -0.891   0.499  0.00  0.00    +0.032 C 
ATOM      8  C   UNL     1      -3.450  -0.546  -0.587  0.00  0.00    +0.052 C 
ATOM      9  C   UNL     1       2.657   0.625   0.450  0.00  0.00    +0.118 C 
ATOM     10  C   UNL     1       1.448   1.305  -0.192  0.00  0.00    +0.030 C 
ATOM     11  C   UNL     1       0.113  -2.163   0.337  0.00  0.00    +0.000 C 
ATOM     12  C   UNL     1      -3.997   0.911  -0.276  0.00  0.00    +0.142 C 
ATOM     13  C   UNL     1      -1.329  -2.070  -0.196  0.00  0.00    +0.000 C 
ATOM     14  C   UNL     1       3.637  -1.520  -0.092  0.00  0.00    +0.054 C 
ATOM     15  C   UNL     1      -1.619   1.866  -0.230  0.00  0.00    +0.032 C 
ATOM     16  C   UNL     1      -3.040   2.031  -0.764  0.00  0.00    +0.137 C 
ATOM     17  C   UNL     1       4.670  -0.377  -0.009  0.00  0.00    +0.187 C 
ATOM     18  C   UNL     1      -4.407  -1.614   0.065  0.00  0.00    +0.115 C 
ATOM     19  C   UNL     1       1.180  -1.280  -1.761  0.00  0.00    +0.000 C 
ATOM     20  C   UNL     1      -4.283   1.083   1.251  0.00  0.00    +0.164 C 
ATOM     21  C   UNL     1      -3.449  -0.845  -2.115  0.00  0.00    +0.005 C 
ATOM     22  C   UNL     1      -4.689  -1.384   1.554  0.00  0.00    +0.061 C 
ATOM     23  C   UNL     1      -5.214   0.021   1.842  0.00  0.00    +0.142 C 
ATOM     24  C   UNL     1       4.032  -2.808   0.621  0.00  0.00    +0.005 C 
ATOM     25  C   UNL     1       5.764  -0.507  -1.087  0.00  0.00    +0.061 C 
ATOM     26  C   UNL     1       7.101   0.115  -0.670  0.00  0.00    +0.029 C 
ATOM     27  C   UNL     1       6.079   0.818   1.532  0.00  0.00    +0.167 C 
ATOM     28  C   UNL     1       6.883   1.212   0.325  0.00  0.00    -0.015 C 
ATOM     29  C   UNL     1       7.317   2.466   0.134  0.00  0.00    -0.007 C 
ENDROOT
BRANCH  12  30
ATOM     30  O   UNL     1      -5.240   1.103  -0.969  0.00  0.00    -0.382 OA
ATOM     31  H   UNL     1      -5.098   1.002  -1.923  0.00  0.00    +0.210 HD
ENDBRANCH  12  30
BRANCH  16  32
ATOM     32  O   UNL     1      -2.975   2.069  -2.190  0.00  0.00    -0.382 OA
ATOM     33  H   UNL     1      -3.869   2.173  -2.552  0.00  0.00    +0.210 HD
ENDBRANCH  16  32
BRANCH  18  34
ATOM     34  O   UNL     1      -5.658  -1.683  -0.629  0.00  0.00    -0.384 OA
ATOM     35  H   UNL     1      -5.496  -1.829  -1.575  0.00  0.00    +0.210 HD
ENDBRANCH  18  34
BRANCH  20  36
ATOM     36  O   UNL     1      -4.843   2.376   1.496  0.00  0.00    -0.380 OA
ATOM     37  H   UNL     1      -4.260   3.057   1.125  0.00  0.00    +0.211 HD
ENDBRANCH  20  36
BRANCH  23  38
ATOM     38  O   UNL     1      -6.530   0.174   1.313  0.00  0.00    -0.382 OA
ATOM     39  H   UNL     1      -6.852   1.069   1.501  0.00  0.00    +0.210 HD
ENDBRANCH  23  38
TORSDOF 5
