10689555
  -OEChem-03292013303D

 45 47  0     1  0  0  0  0  0999 V2000
   -2.5627   -1.0043   -0.7098 S   0  0  0  0  0  0  0  0  0  0  0  0
    2.4315   -0.9234   -1.0836 O   0  0  0  0  0  0  0  0  0  0  0  0
    4.1273    0.0739    1.9248 O   0  0  0  0  0  0  0  0  0  0  0  0
    4.9595   -1.9321    0.2911 O   0  0  0  0  0  0  0  0  0  0  0  0
    0.6500   -3.0705   -1.3640 O   0  0  0  0  0  0  0  0  0  0  0  0
    1.9845    1.2059   -0.1367 N   0  0  0  0  0  0  0  0  0  0  0  0
    1.2374    3.3007    0.0423 N   0  0  0  0  0  0  0  0  0  0  0  0
   -0.1261    0.0362   -0.4187 N   0  0  0  0  0  0  0  0  0  0  0  0
   -2.0117    1.5851   -0.3832 N   0  0  0  0  0  0  0  0  0  0  0  0
   -1.7312    3.9447   -0.1014 N   0  0  0  0  0  0  0  0  0  0  0  0
    3.1548   -0.5945    1.1474 C   0  0  1  0  0  0  0  0  0  0  0  0
    2.9286    0.0921   -0.1910 C   0  0  1  0  0  0  0  0  0  0  0  0
    3.5944   -1.9767    0.7067 C   0  0  1  0  0  0  0  0  0  0  0  0
    2.7159   -2.2230   -0.5158 C   0  0  1  0  0  0  0  0  0  0  0  0
    1.3946   -2.8958   -0.1713 C   0  0  0  0  0  0  0  0  0  0  0  0
    0.6234    1.1347   -0.2429 C   0  0  0  0  0  0  0  0  0  0  0  0
    2.3037    2.5282    0.0339 C   0  0  0  0  0  0  0  0  0  0  0  0
    0.1801    2.4428   -0.1299 C   0  0  0  0  0  0  0  0  0  0  0  0
   -1.1933    2.6503   -0.2063 C   0  0  0  0  0  0  0  0  0  0  0  0
   -1.4357    0.3622   -0.4770 C   0  0  0  0  0  0  0  0  0  0  0  0
   -4.0455   -0.4042    0.1463 C   0  0  0  0  0  0  0  0  0  0  0  0
   -5.2036   -1.4009    0.1046 C   0  0  0  0  0  0  0  0  0  0  0  0
   -6.4480   -0.9298    0.8621 C   0  0  0  0  0  0  0  0  0  0  0  0
   -7.5277   -2.0015    0.8722 C   0  0  0  0  0  0  0  0  0  0  0  0
    2.2256   -0.6564    1.7255 H   0  0  0  0  0  0  0  0  0  0  0  0
    3.8579    0.4904   -0.6172 H   0  0  0  0  0  0  0  0  0  0  0  0
    3.5081   -2.7316    1.4933 H   0  0  0  0  0  0  0  0  0  0  0  0
    3.2343   -2.7966   -1.2925 H   0  0  0  0  0  0  0  0  0  0  0  0
    0.7919   -2.3052    0.5241 H   0  0  0  0  0  0  0  0  0  0  0  0
    1.5646   -3.8818    0.2716 H   0  0  0  0  0  0  0  0  0  0  0  0
    4.9618    0.0760    1.4257 H   0  0  0  0  0  0  0  0  0  0  0  0
    5.1942   -2.8201   -0.0285 H   0  0  0  0  0  0  0  0  0  0  0  0
    3.3248    2.8657    0.1476 H   0  0  0  0  0  0  0  0  0  0  0  0
    0.5003   -2.1891   -1.7470 H   0  0  0  0  0  0  0  0  0  0  0  0
   -4.3750    0.5320   -0.3172 H   0  0  0  0  0  0  0  0  0  0  0  0
   -3.7831   -0.1897    1.1882 H   0  0  0  0  0  0  0  0  0  0  0  0
   -5.4782   -1.6012   -0.9391 H   0  0  0  0  0  0  0  0  0  0  0  0
   -4.8713   -2.3548    0.5347 H   0  0  0  0  0  0  0  0  0  0  0  0
   -1.1230    4.7415    0.0302 H   0  0  0  0  0  0  0  0  0  0  0  0
   -2.7327    4.0691   -0.1602 H   0  0  0  0  0  0  0  0  0  0  0  0
   -6.1809   -0.6803    1.8955 H   0  0  0  0  0  0  0  0  0  0  0  0
   -6.8411   -0.0181    0.3980 H   0  0  0  0  0  0  0  0  0  0  0  0
   -8.4095   -1.6452    1.4138 H   0  0  0  0  0  0  0  0  0  0  0  0
   -7.1725   -2.9127    1.3641 H   0  0  0  0  0  0  0  0  0  0  0  0
   -7.8352   -2.2578   -0.1467 H   0  0  0  0  0  0  0  0  0  0  0  0
  1 20  1  0  0  0  0
  1 21  1  0  0  0  0
  2 12  1  0  0  0  0
  2 14  1  0  0  0  0
  3 11  1  0  0  0  0
  3 31  1  0  0  0  0
  4 13  1  0  0  0  0
  4 32  1  0  0  0  0
  5 15  1  0  0  0  0
  5 34  1  0  0  0  0
  6 12  1  0  0  0  0
  6 16  1  0  0  0  0
  6 17  1  0  0  0  0
  7 17  2  0  0  0  0
  7 18  1  0  0  0  0
  8 16  2  0  0  0  0
  8 20  1  0  0  0  0
  9 19  1  0  0  0  0
  9 20  2  0  0  0  0
 10 19  1  0  0  0  0
 10 39  1  0  0  0  0
 10 40  1  0  0  0  0
 11 12  1  0  0  0  0
 11 13  1  0  0  0  0
 11 25  1  0  0  0  0
 12 26  1  0  0  0  0
 13 14  1  0  0  0  0
 13 27  1  0  0  0  0
 14 15  1  0  0  0  0
 14 28  1  0  0  0  0
 15 29  1  0  0  0  0
 15 30  1  0  0  0  0
 16 18  1  0  0  0  0
 17 33  1  0  0  0  0
 18 19  2  0  0  0  0
 21 22  1  0  0  0  0
 21 35  1  0  0  0  0
 21 36  1  0  0  0  0
 22 23  1  0  0  0  0
 22 37  1  0  0  0  0
 22 38  1  0  0  0  0
 23 24  1  0  0  0  0
 23 41  1  0  0  0  0
 23 42  1  0  0  0  0
 24 43  1  0  0  0  0
 24 44  1  0  0  0  0
 24 45  1  0  0  0  0
M  END
> <PUBCHEM_COMPOUND_CID>
10689555

> <PUBCHEM_CONFORMER_RMSD>
0.8

> <PUBCHEM_CONFORMER_DIVERSEORDER>
12
126
266
245
229
161
123
164
95
14
112
239
222
55
105
86
274
22
212
278
273
45
150
169
297
118
255
89
263
87
25
256
8
75
196
144
265
50
115
244
165
225
4
48
154
31
160
13
172
156
90
122
276
267
66
73
292
20
199
107
158
38
27
187
260
166
85
275
264
10
304
155
137
253
110
32
242
234
23
198
284
281
288
168
254
221
301
217
129
171
24
152
283
100
60
208
30
78
57
84
117
214
241
209
153
282
104
232
216
192
71
33
39
277
61
37
7
287
141
294
52
174
205
223
119
81
203
127
134
257
63
180
243
3
249
286
215
15
306
124
159
6
162
70
76
233
120
67
26
53
289
140
151
167
74
68
146
269
261
88
109
177
219
5
130
72
224
133
47
18
69
173
271
135
272
125
193
201
189
142
210
16
291
157
296
46
116
42
97
230
285
237
251
206
220
99
175
103
290
114
49
302
102
121
262
186
56
295
194
11
204
202
246
231
149
303
17
280
80
19
190
29
93
77
279
91
36
236
258
40
148
62
21
228
83
181
51
227
207
94
82
111
213
170
34
136
250
131
218
293
252
139
1
132
138
44
191
92
200
106
240
28
41
185
197
299
211
248
101
298
79
43
2
259
305
178
128
182
35
163
247
270
98
179
226
58
113
108
145
235
9
300
238
143
65
54
59
96
184
188
64
147
268
183
176
195

> <PUBCHEM_MMFF94_PARTIAL_CHARGES>
27
1 -0.33
10 -0.9
11 0.28
12 0.54
13 0.28
14 0.28
15 0.28
16 0.11
17 0.04
18 0.23
19 0.41
2 -0.56
20 0.72
21 0.23
3 -0.68
31 0.4
32 0.4
33 0.15
34 0.4
39 0.4
4 -0.68
40 0.4
5 -0.68
6 0.05
7 -0.57
8 -0.57
9 -0.62

> <PUBCHEM_EFFECTIVE_ROTOR_COUNT>
7

> <PUBCHEM_PHARMACOPHORE_FEATURES>
17
1 10 cation
1 10 donor
1 2 acceptor
1 24 hydrophobe
1 3 acceptor
1 3 donor
1 4 acceptor
1 4 donor
1 5 acceptor
1 5 donor
3 6 7 17 cation
3 6 8 16 cation
3 8 9 20 cation
4 1 21 22 23 hydrophobe
5 2 11 12 13 14 rings
5 6 7 16 17 18 rings
6 8 9 16 18 19 20 rings

> <PUBCHEM_HEAVY_ATOM_COUNT>
24

> <PUBCHEM_ATOM_DEF_STEREO_COUNT>
4

> <PUBCHEM_ATOM_UDEF_STEREO_COUNT>
0

> <PUBCHEM_BOND_DEF_STEREO_COUNT>
0

> <PUBCHEM_BOND_UDEF_STEREO_COUNT>
0

> <PUBCHEM_ISOTOPIC_ATOM_COUNT>
0

> <PUBCHEM_COMPONENT_COUNT>
1

> <PUBCHEM_CACTVS_TAUTO_COUNT>
3

> <PUBCHEM_CONFORMER_ID>
00A31C130000000C

> <PUBCHEM_MMFF94_ENERGY>
47.2738

> <PUBCHEM_FEATURE_SELFOVERLAP>
86.892

> <PUBCHEM_SHAPE_FINGERPRINT>
10411042 1 18409450249955819374
10616163 171 18124026833017445630
10688039 33 18186239520220418341
1100329 8 17906725153284154940
12107183 9 18268723732033649417
12422481 6 18057343708093877585
12553582 1 18412821404172503959
13140716 1 17979060915036487928
13533116 47 18339367482713886507
13782708 43 17677050261450322059
13785724 45 18127148398258629263
13911852 28 18409165507305821779
14178342 30 18195798579654333936
14211702 104 17606972973801201627
14790565 3 17616258417325760997
15042514 8 18122344575515548325
15250474 111 17985541402564958767
15420108 30 17627219397097099604
15475509 84 18060146431689415801
15885798 251 18408887339200377185
15927050 60 17836651094906232206
17492 89 18119809106129304746
1813 80 17748549251460996397
1979834 28 18131636681679343527
20645477 70 18262235629285985185
20739085 24 18337399347946735989
21197605 99 17977674439607059931
21267235 1 18410859837291050542
21279426 13 18187355520713018181
21421861 104 18410856607048297953
21478907 32 18409167676164027489
23559900 14 17765424350145382534
2748010 2 18126835020079707932
3421961 26 18410013281993576361
465052 167 18408327709088208407
5104073 3 18269826532767688712
5283268 108 18411421691621337035
5309563 4 18410294688235232755
6443956 14 18408326605397209901
79837 15 17694789519543150217
8863177 126 17896331388457706291
9709674 26 17766831733049190934

> <PUBCHEM_SHAPE_MULTIPOLES>
449.38
11.7
4.23
1.03
24.94
2.46
-0.2
-10.39
-5.14
-1.59
0.5
-0.46
-0.45
0.58

> <PUBCHEM_SHAPE_SELFOVERLAP>
934.614

> <PUBCHEM_SHAPE_VOLUME>
259

> <PUBCHEM_COORDINATE_TYPE>
2
5
10

$$$$
