REMARK  Name = 10689555
REMARK  9 active torsions:
REMARK  status: ('A' for Active; 'I' for Inactive)
REMARK    1  A    between atoms: N_1  and  C1*_12
REMARK    2  A    between atoms: C_9  and  S_25
REMARK    3  A    between atoms: C2*_11  and  O2*_15
REMARK    4  A    between atoms: C3*_13  and  O3*_17
REMARK    5  A    between atoms: C4*_14  and  C5*_19
REMARK    6  A    between atoms: C5*_19  and  O5*_20
REMARK    7  A    between atoms: S_25  and  C_26
REMARK    8  A    between atoms: C_26  and  C_27
REMARK    9  A    between atoms: C_27  and  C_28
REMARK                            x       y       z     vdW  Elec       q    Type
REMARK                         _______ _______ _______ _____ _____    ______ ____
ROOT
ATOM      1  N   UNL     1       1.984   1.206  -0.137  0.00  0.00    -0.236 N 
ATOM      2  N   UNL     1       1.237   3.301   0.042  0.00  0.00    -0.240 NA
ATOM      3  N   UNL     1      -0.126   0.036  -0.419  0.00  0.00    -0.318 NA
ATOM      4  N   UNL     1      -2.012   1.585  -0.383  0.00  0.00    -0.318 NA
ATOM      5  C   UNL     1       0.623   1.135  -0.243  0.00  0.00    +0.221 C 
ATOM      6  C   UNL     1       2.304   2.528   0.034  0.00  0.00    +0.224 C 
ATOM      7  C   UNL     1       0.180   2.443  -0.130  0.00  0.00    +0.167 C 
ATOM      8  C   UNL     1      -1.193   2.650  -0.206  0.00  0.00    +0.211 C 
ATOM      9  C   UNL     1      -1.436   0.362  -0.477  0.00  0.00    +0.171 C 
ATOM     10  N   UNL     1      -1.731   3.945  -0.101  0.00  0.00    -0.331 N 
ATOM     11  H   UNL     1      -2.705   4.079  -0.157  0.00  0.00    +0.145 HD
ATOM     12  H   UNL     1      -1.134   4.717   0.028  0.00  0.00    +0.145 HD
ENDROOT
BRANCH   1  15
ATOM     13  O4* UNL     1       2.432  -0.923  -1.084  0.00  0.00    -0.333 OA
ATOM     14  C2* UNL     1       3.155  -0.595   1.147  0.00  0.00    +0.187 C 
ATOM     15  C1* UNL     1       2.929   0.092  -0.191  0.00  0.00    +0.226 C 
ATOM     16  C3* UNL     1       3.594  -1.977   0.707  0.00  0.00    +0.171 C 
ATOM     17  C4* UNL     1       2.716  -2.223  -0.516  0.00  0.00    +0.175 C 
BRANCH  14  18
ATOM     18  O2* UNL     1       4.127   0.074   1.925  0.00  0.00    -0.378 OA
ATOM     19  H2* UNL     1       3.794   0.949   2.177  0.00  0.00    +0.211 HD
ENDBRANCH  14  18
BRANCH  16  20
ATOM     20  O3* UNL     1       4.960  -1.932   0.291  0.00  0.00    -0.379 OA
ATOM     21  H3* UNL     1       5.527  -1.776   1.062  0.00  0.00    +0.211 HD
ENDBRANCH  16  20
BRANCH  17  22
ATOM     22  C5* UNL     1       1.395  -2.896  -0.171  0.00  0.00    +0.169 C 
BRANCH  22  23
ATOM     23  O5* UNL     1       0.650  -3.071  -1.364  0.00  0.00    -0.379 OA
ATOM     24  H5* UNL     1      -0.195  -3.499  -1.158  0.00  0.00    +0.211 HD
ENDBRANCH  22  23
ENDBRANCH  17  22
ENDBRANCH   1  15
BRANCH   9  25
ATOM     25  S   UNL     1      -2.563  -1.004  -0.710  0.00  0.00    -0.018 S 
BRANCH  25  26
ATOM     26  C   UNL     1      -4.045  -0.404   0.146  0.00  0.00    +0.074 C 
BRANCH  26  27
ATOM     27  C   UNL     1      -5.204  -1.401   0.105  0.00  0.00    +0.013 C 
BRANCH  27  28
ATOM     28  C   UNL     1      -6.448  -0.930   0.862  0.00  0.00    +0.001 C 
ATOM     29  C   UNL     1      -7.528  -2.002   0.872  0.00  0.00    +0.000 C 
ENDBRANCH  27  28
ENDBRANCH  26  27
ENDBRANCH  25  26
ENDBRANCH   9  25
TORSDOF 9
