REMARK  Name = 10693132
REMARK  6 active torsions:
REMARK  status: ('A' for Active; 'I' for Inactive)
REMARK    1  A    between atoms: C_12  and  C_24
REMARK    2  A    between atoms: C_13  and  C_26
REMARK    3  A    between atoms: C_18  and  O_22
REMARK    4  A    between atoms: C_26  and  C_27
REMARK    5  A    between atoms: C_27  and  O_28
REMARK    6  A    between atoms: C_27  and  C_30
REMARK                            x       y       z     vdW  Elec       q    Type
REMARK                         _______ _______ _______ _____ _____    ______ ____
ROOT
ATOM      1  O   UNL     1       0.755  -1.578  -0.400  0.00  0.00    -0.358 OA
ATOM      2  O   UNL     1      -1.975  -0.185  -0.155  0.00  0.00    -0.452 OA
ATOM      3  O   UNL     1       2.983   0.508   0.174  0.00  0.00    -0.452 OA
ATOM      4  O   UNL     1      -1.774  -0.571   2.109  0.00  0.00    -0.250 OA
ATOM      5  O   UNL     1       2.554   0.552  -2.087  0.00  0.00    -0.250 OA
ATOM      6  C   UNL     1      -0.399  -2.407  -0.675  0.00  0.00    +0.126 C 
ATOM      7  C   UNL     1       1.941  -2.379  -0.489  0.00  0.00    +0.119 C 
ATOM      8  C   UNL     1       0.149  -3.797  -0.988  0.00  0.00    +0.033 C 
ATOM      9  C   UNL     1       1.472  -3.804  -0.263  0.00  0.00    +0.032 C 
ATOM     10  C   UNL     1      -1.341  -2.365   0.547  0.00  0.00    +0.126 C 
ATOM     11  C   UNL     1       2.987  -1.929   0.531  0.00  0.00    +0.073 C 
ATOM     12  C   UNL     1       3.781  -0.691   0.085  0.00  0.00    +0.171 C 
ATOM     13  C   UNL     1      -2.284   1.213   0.029  0.00  0.00    +0.171 C 
ATOM     14  C   UNL     1      -1.708  -0.943   0.943  0.00  0.00    +0.319 C 
ATOM     15  C   UNL     1      -2.636  -3.145   0.334  0.00  0.00    +0.014 C 
ATOM     16  C   UNL     1      -1.031   2.047  -0.277  0.00  0.00    +0.046 C 
ATOM     17  C   UNL     1       0.064   1.868   0.779  0.00  0.00    +0.034 C 
ATOM     18  C   UNL     1       1.286   2.768   0.559  0.00  0.00    +0.121 C 
ATOM     19  C   UNL     1       2.057   2.504  -0.753  0.00  0.00    +0.126 C 
ATOM     20  C   UNL     1       2.522   1.069  -0.976  0.00  0.00    +0.319 C 
ATOM     21  C   UNL     1       3.278   3.415  -0.898  0.00  0.00    +0.014 C 
ENDROOT
BRANCH  18  22
ATOM     22  O   UNL     1       2.134   2.627   1.699  0.00  0.00    -0.384 OA
ATOM     23  H   UNL     1       1.623   2.799   2.505  0.00  0.00    +0.210 HD
ENDBRANCH  18  22
BRANCH  12  24
ATOM     24  C   UNL     1       4.976  -0.468   1.010  0.00  0.00    +0.044 C 
ATOM     25  C   UNL     1       5.759   0.768   0.612  0.00  0.00    +0.004 C 
ENDBRANCH  12  24
BRANCH  13  26
ATOM     26  C   UNL     1      -3.405   1.546  -0.949  0.00  0.00    +0.073 C 
BRANCH  26  27
ATOM     27  C   UNL     1      -4.694   0.769  -0.661  0.00  0.00    +0.114 C 
BRANCH  27  28
ATOM     28  O   UNL     1      -5.691   1.111  -1.621  0.00  0.00    -0.384 OA
ATOM     29  H   UNL     1      -5.367   0.901  -2.511  0.00  0.00    +0.210 HD
ENDBRANCH  27  28
BRANCH  27  30
ATOM     30  C   UNL     1      -5.228   1.109   0.735  0.00  0.00    +0.029 C 
ATOM     31  C   UNL     1      -6.532   0.387   1.048  0.00  0.00    +0.003 C 
ENDBRANCH  27  30
ENDBRANCH  26  27
ENDBRANCH  13  26
TORSDOF 6
