REMARK  Name = 10691285
REMARK  3 active torsions:
REMARK  status: ('A' for Active; 'I' for Inactive)
REMARK    1  A    between atoms: C_8  and  O_26
REMARK    2  A    between atoms: C_10  and  O_28
REMARK    3  A    between atoms: C_22  and  O_30
REMARK                            x       y       z     vdW  Elec       q    Type
REMARK                         _______ _______ _______ _____ _____    ______ ____
ROOT
ATOM      1  O   UNL     1      -0.255  -0.379   1.604  0.00  0.00    -0.284 OA
ATOM      2  O   UNL     1       0.258  -1.716  -0.337  0.00  0.00    -0.452 OA
ATOM      3  O   UNL     1      -0.595   1.637   0.322  0.00  0.00    -0.452 OA
ATOM      4  O   UNL     1       4.701  -1.064  -0.597  0.00  0.00    -0.291 OA
ATOM      5  O   UNL     1      -4.975   1.216  -0.647  0.00  0.00    -0.291 OA
ATOM      6  C   UNL     1       0.757  -0.851   0.708  0.00  0.00    +0.280 C 
ATOM      7  C   UNL     1      -1.181   0.435   0.875  0.00  0.00    +0.280 C 
ATOM      8  C   UNL     1       1.770  -1.667   1.523  0.00  0.00    +0.187 C 
ATOM      9  C   UNL     1       1.444   0.339   0.090  0.00  0.00    +0.083 C 
ATOM     10  C   UNL     1      -2.290   0.878   1.839  0.00  0.00    +0.187 C 
ATOM     11  C   UNL     1      -1.774  -0.390  -0.237  0.00  0.00    +0.080 C 
ATOM     12  C   UNL     1       0.710   1.518  -0.082  0.00  0.00    +0.143 C 
ATOM     13  C   UNL     1      -1.001  -1.416  -0.792  0.00  0.00    +0.143 C 
ATOM     14  C   UNL     1       2.967  -2.087   0.675  0.00  0.00    +0.105 C 
ATOM     15  C   UNL     1      -3.399   1.634   1.108  0.00  0.00    +0.105 C 
ATOM     16  C   UNL     1       2.780   0.292  -0.321  0.00  0.00    +0.073 C 
ATOM     17  C   UNL     1      -3.061  -0.152  -0.731  0.00  0.00    +0.039 C 
ATOM     18  C   UNL     1       3.579  -0.941  -0.112  0.00  0.00    +0.179 C 
ATOM     19  C   UNL     1      -3.904   0.911  -0.129  0.00  0.00    +0.176 C 
ATOM     20  C   UNL     1       1.298   2.638  -0.668  0.00  0.00    +0.040 C 
ATOM     21  C   UNL     1      -1.500  -2.192  -1.837  0.00  0.00    +0.037 C 
ATOM     22  C   UNL     1       3.371   1.413  -0.914  0.00  0.00    +0.136 C 
ATOM     23  C   UNL     1      -3.562  -0.926  -1.783  0.00  0.00    +0.003 C 
ATOM     24  C   UNL     1       2.627   2.582  -1.087  0.00  0.00    +0.040 C 
ATOM     25  C   UNL     1      -2.779  -1.942  -2.333  0.00  0.00    +0.003 C 
ENDROOT
BRANCH   8  26
ATOM     26  O   UNL     1       2.212  -0.958   2.681  0.00  0.00    -0.378 OA
ATOM     27  H   UNL     1       1.444  -0.696   3.212  0.00  0.00    +0.211 HD
ENDBRANCH   8  26
BRANCH  10  28
ATOM     28  O   UNL     1      -2.865  -0.243   2.510  0.00  0.00    -0.378 OA
ATOM     29  H   UNL     1      -2.169  -0.731   2.978  0.00  0.00    +0.211 HD
ENDBRANCH  10  28
BRANCH  22  30
ATOM     30  O   UNL     1       4.669   1.430  -1.329  0.00  0.00    -0.505 OA
ATOM     31  H   UNL     1       5.202   0.666  -1.231  0.00  0.00    +0.292 HD
ENDBRANCH  22  30
TORSDOF 3
