REMARK  Name = 10692595
REMARK  13 active torsions:
REMARK  status: ('A' for Active; 'I' for Inactive)
REMARK    1  A    between atoms: C_1  and  C_4
REMARK    2  A    between atoms: C_2  and  C_19
REMARK    3  A    between atoms: C_4  and  C_5
REMARK    4  A    between atoms: C_5  and  C_7
REMARK    5  A    between atoms: C_6  and  C_9
REMARK    6  A    between atoms: C_9  and  C_10
REMARK    7  A    between atoms: C_10  and  C_11
REMARK    8  A    between atoms: C_11  and  C_12
REMARK    9  A    between atoms: C_11  and  O_17
REMARK   10  A    between atoms: C_12  and  O_15
REMARK   11  A    between atoms: C_19  and  C_22
REMARK   12  A    between atoms: C_24  and  O_30
REMARK   13  A    between atoms: C_27  and  O_32
REMARK                            x       y       z     vdW  Elec       q    Type
REMARK                         _______ _______ _______ _____ _____    ______ ____
ROOT
ATOM      1  C   UNL     1       0.882   2.343  -0.154  0.00  0.00    -0.048 C 
ATOM      2  C   UNL     1       0.108   1.319   0.255  0.00  0.00    -0.030 C 
ATOM      3  C   UNL     1       1.298   2.590  -1.576  0.00  0.00    +0.026 C 
ENDROOT
BRANCH   1   4
ATOM      4  C   UNL     1       1.420   3.334   0.860  0.00  0.00    +0.026 C 
BRANCH   4   5
ATOM      5  C   UNL     1       2.952   3.388   0.935  0.00  0.00    +0.030 C 
BRANCH   5   7
ATOM      6  C   UNL     1       4.541   1.393   0.617  0.00  0.00    -0.048 C 
ATOM      7  C   UNL     1       3.581   2.067   1.283  0.00  0.00    -0.034 C 
ATOM      8  C   UNL     1       5.163   1.838  -0.678  0.00  0.00    +0.026 C 
BRANCH   6   9
ATOM      9  C   UNL     1       5.105   0.110   1.201  0.00  0.00    +0.024 C 
BRANCH   9  10
ATOM     10  C   UNL     1       4.897  -1.155   0.350  0.00  0.00    +0.036 C 
BRANCH  10  11
ATOM     11  C   UNL     1       3.424  -1.488   0.054  0.00  0.00    +0.135 C 
BRANCH  11  12
ATOM     12  C   UNL     1       3.213  -2.786  -0.766  0.00  0.00    +0.113 C 
ATOM     13  C   UNL     1       1.718  -3.065  -0.971  0.00  0.00    +0.032 C 
ATOM     14  C   UNL     1       3.916  -2.729  -2.125  0.00  0.00    +0.032 C 
BRANCH  12  15
ATOM     15  O   UNL     1       3.763  -3.884  -0.031  0.00  0.00    -0.384 OA
ATOM     16  H   UNL     1       3.332  -3.940   0.837  0.00  0.00    +0.210 HD
ENDBRANCH  12  15
ENDBRANCH  11  12
BRANCH  11  17
ATOM     17  O   UNL     1       2.723  -1.600   1.296  0.00  0.00    -0.382 OA
ATOM     18  H   UNL     1       1.791  -1.810   1.123  0.00  0.00    +0.210 HD
ENDBRANCH  11  17
ENDBRANCH  10  11
ENDBRANCH   9  10
ENDBRANCH   6   9
ENDBRANCH   5   7
ENDBRANCH   4   5
ENDBRANCH   1   4
BRANCH   2  19
ATOM     19  C   UNL     1      -0.487   0.219  -0.577  0.00  0.00    +0.058 C 
BRANCH  19  22
ATOM     20  O   UNL     1      -6.095  -1.115   1.227  0.00  0.00    -0.440 OA
ATOM     21  O   UNL     1      -7.083   0.240  -0.369  0.00  0.00    -0.245 OA
ATOM     22  C   UNL     1      -1.985   0.137  -0.425  0.00  0.00    +0.049 C 
ATOM     23  C   UNL     1      -3.913  -0.728   0.685  0.00  0.00    +0.061 C 
ATOM     24  C   UNL     1      -2.536  -0.675   0.571  0.00  0.00    +0.132 C 
ATOM     25  C   UNL     1      -4.714   0.004  -0.168  0.00  0.00    +0.081 C 
ATOM     26  C   UNL     1      -4.753  -1.487   1.629  0.00  0.00    +0.239 C 
ATOM     27  C   UNL     1      -2.813   0.878  -1.286  0.00  0.00    +0.133 C 
ATOM     28  C   UNL     1      -4.201   0.816  -1.163  0.00  0.00    +0.043 C 
ATOM     29  C   UNL     1      -6.107  -0.238   0.173  0.00  0.00    +0.342 C 
BRANCH  24  30
ATOM     30  O   UNL     1      -1.747  -1.396   1.411  0.00  0.00    -0.506 OA
ATOM     31  H   UNL     1      -0.815  -1.355   1.328  0.00  0.00    +0.292 HD
ENDBRANCH  24  30
BRANCH  27  32
ATOM     32  O   UNL     1      -2.270   1.668  -2.257  0.00  0.00    -0.506 OA
ATOM     33  H   UNL     1      -1.340   1.720  -2.352  0.00  0.00    +0.292 HD
ENDBRANCH  27  32
ENDBRANCH  19  22
ENDBRANCH   2  19
TORSDOF 13
