REMARK  Name = 10696525
REMARK  12 active torsions:
REMARK  status: ('A' for Active; 'I' for Inactive)
REMARK    1  A    between atoms: C_5  and  O_21
REMARK    2  A    between atoms: C_5  and  C_23
REMARK    3  A    between atoms: C_8  and  N_10
REMARK    4  A    between atoms: C_11  and  C_13
REMARK    5  A    between atoms: C_14  and  C_15
REMARK    6  A    between atoms: C_16  and  C_17
REMARK    7  A    between atoms: C_17  and  C_18
REMARK    8  A    between atoms: C_24  and  C_25
REMARK    9  A    between atoms: C_26  and  C_27
REMARK   10  A    between atoms: C_28  and  C_31
REMARK   11  A    between atoms: N_30  and  C_36
REMARK   12  A    between atoms: C_37  and  O_39
REMARK                            x       y       z     vdW  Elec       q    Type
REMARK                         _______ _______ _______ _____ _____    ______ ____
ROOT
ATOM      1  O   UNL     1       2.431   5.562   0.646  0.00  0.00    -0.342 OA
ATOM      2  O   UNL     1       3.543   3.235   2.745  0.00  0.00    -0.287 OA
ATOM      3  C   UNL     1       1.342   4.748   0.181  0.00  0.00    +0.182 C 
ATOM      4  C   UNL     1       2.002   4.491   1.503  0.00  0.00    +0.208 C 
ATOM      5  C   UNL     1       1.653   3.851  -0.989  0.00  0.00    +0.154 C 
ATOM      6  C   UNL     1       3.018   3.432   1.656  0.00  0.00    +0.216 C 
ATOM      7  C   UNL     1       2.763   2.852  -0.732  0.00  0.00    +0.024 C 
ATOM      8  C   UNL     1       3.375   2.644   0.444  0.00  0.00    +0.087 C 
ENDROOT
BRANCH   8  10
ATOM      9  O   UNL     1       3.621   0.208  -1.040  0.00  0.00    -0.270 OA
ATOM     10  N   UNL     1       4.357   1.708   0.583  0.00  0.00    -0.278 N 
ATOM     11  C   UNL     1       4.418   0.545  -0.170  0.00  0.00    +0.250 C 
ATOM     12  H   UNL     1       5.061   1.865   1.254  0.00  0.00    +0.155 HD
BRANCH  11  13
ATOM     13  C   UNL     1       5.599  -0.287   0.197  0.00  0.00    +0.058 C 
ATOM     14  C   UNL     1       5.823  -1.452  -0.428  0.00  0.00    +0.004 C 
BRANCH  14  15
ATOM     15  C   UNL     1       6.951  -2.301  -0.115  0.00  0.00    -0.004 C 
ATOM     16  C   UNL     1       7.186  -3.468  -0.734  0.00  0.00    -0.026 C 
BRANCH  16  17
ATOM     17  C   UNL     1       8.352  -4.360  -0.415  0.00  0.00    +0.026 C 
BRANCH  17  18
ATOM     18  C   UNL     1       7.927  -5.767   0.047  0.00  0.00    +0.004 C 
ATOM     19  C   UNL     1       9.130  -6.675   0.312  0.00  0.00    +0.000 C 
ATOM     20  C   UNL     1       7.070  -5.663   1.311  0.00  0.00    +0.000 C 
ENDBRANCH  17  18
ENDBRANCH  16  17
ENDBRANCH  14  15
ENDBRANCH  11  13
ENDBRANCH   8  10
BRANCH   5  21
ATOM     21  O   UNL     1       2.099   4.677  -2.073  0.00  0.00    -0.376 OA
ATOM     22  H   UNL     1       2.890   5.169  -1.801  0.00  0.00    +0.211 HD
ENDBRANCH   5  21
BRANCH   5  23
ATOM     23  C   UNL     1       0.428   3.112  -1.460  0.00  0.00    +0.007 C 
ATOM     24  C   UNL     1      -0.517   2.640  -0.633  0.00  0.00    -0.002 C 
BRANCH  24  25
ATOM     25  C   UNL     1      -1.692   1.900  -1.041  0.00  0.00    -0.000 C 
ATOM     26  C   UNL     1      -2.636   1.429  -0.211  0.00  0.00    +0.000 C 
BRANCH  26  27
ATOM     27  C   UNL     1      -3.777   0.667  -0.669  0.00  0.00    +0.005 C 
ATOM     28  C   UNL     1      -4.717   0.200   0.165  0.00  0.00    +0.058 C 
BRANCH  28  31
ATOM     29  O   UNL     1      -6.005  -0.823  -1.562  0.00  0.00    -0.270 OA
ATOM     30  N   UNL     1      -6.731  -0.976   0.646  0.00  0.00    -0.275 N 
ATOM     31  C   UNL     1      -5.870  -0.581  -0.366  0.00  0.00    +0.250 C 
ATOM     32  H   UNL     1      -6.512  -0.718   1.571  0.00  0.00    +0.155 HD
BRANCH  30  36
ATOM     33  O   UNL     1      -9.186  -0.887   2.233  0.00  0.00    -0.285 OA
ATOM     34  C   UNL     1      -9.490  -3.213  -0.455  0.00  0.00    +0.041 C 
ATOM     35  C   UNL     1     -10.143  -2.550   0.758  0.00  0.00    +0.047 C 
ATOM     36  C   UNL     1      -7.865  -1.704   0.430  0.00  0.00    +0.124 C 
ATOM     37  C   UNL     1      -8.129  -2.600  -0.518  0.00  0.00    +0.150 C 
ATOM     38  C   UNL     1      -9.073  -1.619   1.262  0.00  0.00    +0.212 C 
BRANCH  37  39
ATOM     39  O   UNL     1      -7.260  -2.977  -1.506  0.00  0.00    -0.504 OA
ATOM     40  H   UNL     1      -7.520  -3.617  -2.140  0.00  0.00    +0.292 HD
ENDBRANCH  37  39
ENDBRANCH  30  36
ENDBRANCH  28  31
ENDBRANCH  26  27
ENDBRANCH  24  25
ENDBRANCH   5  23
TORSDOF 12
