REMARK  Name = 10693462
REMARK  10 active torsions:
REMARK  status: ('A' for Active; 'I' for Inactive)
REMARK    1  A    between atoms: C_3  and  C_19
REMARK    2  A    between atoms: C_4  and  O_9
REMARK    3  A    between atoms: O_9  and  C_10
REMARK    4  A    between atoms: C_10  and  C_11
REMARK    5  A    between atoms: C_11  and  C_12
REMARK    6  A    between atoms: C_12  and  N_14
REMARK    7  A    between atoms: C_15  and  C_18
REMARK    8  A    between atoms: C_19  and  O_20
REMARK    9  A    between atoms: C_19  and  C_22
REMARK   10  A    between atoms: C_22  and  N_23
REMARK                            x       y       z     vdW  Elec       q    Type
REMARK                         _______ _______ _______ _____ _____    ______ ____
ROOT
ATOM      1 BR   UNL     1      -0.266  -1.758   1.783  0.00  0.00    -0.046 Br
ATOM      2 BR   UNL     1       1.396   3.229  -0.530  0.00  0.00    -0.046 Br
ATOM      3  C   UNL     1       3.239  -0.460  -0.030  0.00  0.00    +0.003 C 
ATOM      4  C   UNL     1       0.758   0.649   0.577  0.00  0.00    +0.151 C 
ATOM      5  C   UNL     1       2.268  -1.231   0.608  0.00  0.00    +0.008 C 
ATOM      6  C   UNL     1       2.968   0.867  -0.364  0.00  0.00    +0.008 C 
ATOM      7  C   UNL     1       1.025  -0.676   0.912  0.00  0.00    +0.069 C 
ATOM      8  C   UNL     1       1.725   1.422  -0.059  0.00  0.00    +0.069 C 
ENDROOT
BRANCH   4   9
ATOM      9  O   UNL     1      -0.462   1.195   0.878  0.00  0.00    -0.474 OA
BRANCH   9  10
ATOM     10  C   UNL     1      -1.479   1.076  -0.108  0.00  0.00    +0.207 C 
BRANCH  10  11
ATOM     11  C   UNL     1      -2.739   1.764   0.401  0.00  0.00    +0.069 C 
BRANCH  11  12
ATOM     12  C   UNL     1      -3.899   1.675  -0.582  0.00  0.00    +0.094 C 
BRANCH  12  14
ATOM     13  O   UNL     1      -5.870   0.078   0.836  0.00  0.00    -0.259 OA
ATOM     14  N   UNL     1      -4.286   0.318  -0.856  0.00  0.00    -0.293 N 
ATOM     15  C   UNL     1      -5.242  -0.362  -0.119  0.00  0.00    +0.315 C 
ATOM     16  H   UNL     1      -3.851  -0.151  -1.604  0.00  0.00    +0.150 HD
BRANCH  15  18
ATOM     17  N   UNL     1      -5.700  -2.805  -0.899  0.00  0.00    -0.186 NA
ATOM     18  C   UNL     1      -5.495  -1.717  -0.552  0.00  0.00    +0.159 C 
ENDBRANCH  15  18
ENDBRANCH  12  14
ENDBRANCH  11  12
ENDBRANCH  10  11
ENDBRANCH   9  10
ENDBRANCH   4   9
BRANCH   3  19
ATOM     19  C   UNL     1       4.568  -1.054  -0.355  0.00  0.00    +0.111 C 
BRANCH  19  20
ATOM     20  O   UNL     1       4.734  -1.077  -1.779  0.00  0.00    -0.382 OA
ATOM     21  H   UNL     1       4.003  -1.571  -2.182  0.00  0.00    +0.211 HD
ENDBRANCH  19  20
BRANCH  19  22
ATOM     22  C   UNL     1       5.730  -0.269   0.285  0.00  0.00    -0.052 C 
BRANCH  22  23
ATOM     23  N   UNL     1       7.025  -0.862  -0.045  0.00  0.00    +0.382 N 
ATOM     24  H   UNL     1       7.769  -0.319   0.394  0.00  0.00    -0.089 HD
ATOM     25  H   UNL     1       7.152  -0.858  -1.057  0.00  0.00    -0.089 HD
ATOM     26  H   UNL     1       7.057  -1.822   0.298  0.00  0.00    -0.089 HD
ENDBRANCH  22  23
ENDBRANCH  19  22
ENDBRANCH   3  19
TORSDOF 10
