10691285
  -OEChem-03292013303D

 42 47  0     1  0  0  0  0  0999 V2000
   -0.2554   -0.3785    1.6044 O   0  0  0  0  0  0  0  0  0  0  0  0
    0.2578   -1.7156   -0.3370 O   0  0  0  0  0  0  0  0  0  0  0  0
   -0.5953    1.6365    0.3222 O   0  0  0  0  0  0  0  0  0  0  0  0
    2.2121   -0.9579    2.6808 O   0  0  0  0  0  0  0  0  0  0  0  0
   -2.8650   -0.2434    2.5102 O   0  0  0  0  0  0  0  0  0  0  0  0
    4.7010   -1.0642   -0.5970 O   0  0  0  0  0  0  0  0  0  0  0  0
   -4.9746    1.2164   -0.6468 O   0  0  0  0  0  0  0  0  0  0  0  0
    4.6691    1.4303   -1.3288 O   0  0  0  0  0  0  0  0  0  0  0  0
    0.7573   -0.8506    0.7083 C   0  0  2  0  0  0  0  0  0  0  0  0
   -1.1813    0.4355    0.8750 C   0  0  2  0  0  0  0  0  0  0  0  0
    1.7696   -1.6668    1.5230 C   0  0  1  0  0  0  0  0  0  0  0  0
    1.4435    0.3390    0.0903 C   0  0  0  0  0  0  0  0  0  0  0  0
   -2.2903    0.8781    1.8386 C   0  0  1  0  0  0  0  0  0  0  0  0
   -1.7738   -0.3899   -0.2370 C   0  0  0  0  0  0  0  0  0  0  0  0
    0.7099    1.5181   -0.0815 C   0  0  0  0  0  0  0  0  0  0  0  0
   -1.0008   -1.4161   -0.7918 C   0  0  0  0  0  0  0  0  0  0  0  0
    2.9673   -2.0871    0.6746 C   0  0  0  0  0  0  0  0  0  0  0  0
   -3.3993    1.6338    1.1078 C   0  0  0  0  0  0  0  0  0  0  0  0
    2.7805    0.2923   -0.3211 C   0  0  0  0  0  0  0  0  0  0  0  0
   -3.0613   -0.1520   -0.7314 C   0  0  0  0  0  0  0  0  0  0  0  0
    3.5787   -0.9414   -0.1124 C   0  0  0  0  0  0  0  0  0  0  0  0
   -3.9035    0.9113   -0.1287 C   0  0  0  0  0  0  0  0  0  0  0  0
    1.2980    2.6377   -0.6678 C   0  0  0  0  0  0  0  0  0  0  0  0
   -1.5004   -2.1918   -1.8366 C   0  0  0  0  0  0  0  0  0  0  0  0
    3.3707    1.4132   -0.9142 C   0  0  0  0  0  0  0  0  0  0  0  0
   -3.5623   -0.9262   -1.7831 C   0  0  0  0  0  0  0  0  0  0  0  0
    2.6267    2.5817   -1.0869 C   0  0  0  0  0  0  0  0  0  0  0  0
   -2.7791   -1.9425   -2.3331 C   0  0  0  0  0  0  0  0  0  0  0  0
    1.2834   -2.5768    1.8966 H   0  0  0  0  0  0  0  0  0  0  0  0
   -1.8638    1.5252    2.6149 H   0  0  0  0  0  0  0  0  0  0  0  0
    2.6760   -2.8592   -0.0463 H   0  0  0  0  0  0  0  0  0  0  0  0
    3.7508   -2.4900    1.3269 H   0  0  0  0  0  0  0  0  0  0  0  0
   -3.0451    2.6201    0.7879 H   0  0  0  0  0  0  0  0  0  0  0  0
   -4.2567    1.7704    1.7771 H   0  0  0  0  0  0  0  0  0  0  0  0
    0.7300    3.5542   -0.8007 H   0  0  0  0  0  0  0  0  0  0  0  0
   -0.9019   -2.9896   -2.2677 H   0  0  0  0  0  0  0  0  0  0  0  0
   -4.5590   -0.7595   -2.1822 H   0  0  0  0  0  0  0  0  0  0  0  0
    1.4194   -0.6843    3.1731 H   0  0  0  0  0  0  0  0  0  0  0  0
   -3.5246    0.0958    3.1390 H   0  0  0  0  0  0  0  0  0  0  0  0
    3.0712    3.4631   -1.5422 H   0  0  0  0  0  0  0  0  0  0  0  0
   -3.1701   -2.5455   -3.1479 H   0  0  0  0  0  0  0  0  0  0  0  0
    4.8782    2.3012   -1.7076 H   0  0  0  0  0  0  0  0  0  0  0  0
  1  9  1  0  0  0  0
  1 10  1  0  0  0  0
  2  9  1  0  0  0  0
  2 16  1  0  0  0  0
  3 10  1  0  0  0  0
  3 15  1  0  0  0  0
  4 11  1  0  0  0  0
  4 38  1  0  0  0  0
  5 13  1  0  0  0  0
  5 39  1  0  0  0  0
  6 21  2  0  0  0  0
  7 22  2  0  0  0  0
  8 25  1  0  0  0  0
  8 42  1  0  0  0  0
  9 11  1  0  0  0  0
  9 12  1  0  0  0  0
 10 13  1  0  0  0  0
 10 14  1  0  0  0  0
 11 17  1  0  0  0  0
 11 29  1  0  0  0  0
 12 15  2  0  0  0  0
 12 19  1  0  0  0  0
 13 18  1  0  0  0  0
 13 30  1  0  0  0  0
 14 16  1  0  0  0  0
 14 20  2  0  0  0  0
 15 23  1  0  0  0  0
 16 24  2  0  0  0  0
 17 21  1  0  0  0  0
 17 31  1  0  0  0  0
 17 32  1  0  0  0  0
 18 22  1  0  0  0  0
 18 33  1  0  0  0  0
 18 34  1  0  0  0  0
 19 21  1  0  0  0  0
 19 25  2  0  0  0  0
 20 22  1  0  0  0  0
 20 26  1  0  0  0  0
 23 27  2  0  0  0  0
 23 35  1  0  0  0  0
 24 28  1  0  0  0  0
 24 36  1  0  0  0  0
 25 27  1  0  0  0  0
 26 28  2  0  0  0  0
 26 37  1  0  0  0  0
 27 40  1  0  0  0  0
 28 41  1  0  0  0  0
M  END
> <PUBCHEM_COMPOUND_CID>
10691285

> <PUBCHEM_CONFORMER_RMSD>
0.6

> <PUBCHEM_CONFORMER_DIVERSEORDER>
1

> <PUBCHEM_MMFF94_PARTIAL_CHARGES>
36
1 -0.56
10 0.7
11 0.28
12 -0.14
13 0.28
14 -0.14
15 0.08
16 0.08
17 0.06
18 0.06
19 0.09
2 -0.36
20 0.09
21 0.42
22 0.42
23 -0.15
24 -0.15
25 0.08
26 -0.15
27 -0.15
28 -0.15
3 -0.36
35 0.15
36 0.15
37 0.15
38 0.4
39 0.4
4 -0.68
40 0.15
41 0.15
42 0.45
5 -0.68
6 -0.57
7 -0.57
8 -0.53
9 0.7

> <PUBCHEM_EFFECTIVE_ROTOR_COUNT>
1.4

> <PUBCHEM_PHARMACOPHORE_FEATURES>
16
1 1 acceptor
1 2 acceptor
1 3 acceptor
1 4 acceptor
1 4 donor
1 5 acceptor
1 5 donor
1 6 acceptor
1 7 acceptor
1 8 donor
6 1 2 9 10 14 16 rings
6 1 3 9 10 12 15 rings
6 10 13 14 18 20 22 rings
6 12 15 19 23 25 27 rings
6 14 16 20 24 26 28 rings
6 9 11 12 17 19 21 rings

> <PUBCHEM_HEAVY_ATOM_COUNT>
28

> <PUBCHEM_ATOM_DEF_STEREO_COUNT>
4

> <PUBCHEM_ATOM_UDEF_STEREO_COUNT>
0

> <PUBCHEM_BOND_DEF_STEREO_COUNT>
0

> <PUBCHEM_BOND_UDEF_STEREO_COUNT>
0

> <PUBCHEM_ISOTOPIC_ATOM_COUNT>
0

> <PUBCHEM_COMPONENT_COUNT>
1

> <PUBCHEM_CACTVS_TAUTO_COUNT>
14

> <PUBCHEM_CONFORMER_ID>
00A322D500000001

> <PUBCHEM_MMFF94_ENERGY>
87.7064

> <PUBCHEM_FEATURE_SELFOVERLAP>
82.949

> <PUBCHEM_SHAPE_FINGERPRINT>
10165383 225 16298679286633078250
10369192 42 16591999478847315436
10863032 1 18261957452448610079
11578080 2 18055318466798195745
11640471 11 18412831312778249389
12035759 4 18342453785228662085
12236239 1 18342174436276612963
12553582 1 18188489056639319770
12788726 201 17846222232294664391
13009979 54 18201712929651142122
131258 38 15904034117267300527
13224815 77 18408322202676053400
13583140 156 18041290906562215907
13782708 43 16370729201285481611
14115302 16 17917136248250434983
14294032 229 17415574116990731409
14955137 171 18199211527838917114
15664445 248 15970715116102397607
16752209 62 17845925321226597599
16945 1 18113616763861936616
17349148 13 17632572730402946317
1813 80 18048027468330316410
18219364 16 17386570300795966692
18981168 100 16153693345503835895
19862831 5 18272651289639717853
20511986 3 18271509975422524940
20600515 1 16916771973297070929
20775438 99 15616038980462871543
21033648 29 16081372908806978877
21133665 82 13436300471536342155
21781051 124 18059850719333637447
22112679 90 18272649047640318008
23419403 2 14856958155921538687
23557571 272 17058633278162543939
23559900 14 17131825495560224888
238 59 17823682256398539238
25 1 17895193350429432884
3380486 77 17828441904680962994
34934 24 18410013251897390604
4409770 3 15387269557280474591
474 4 18114463469673131108
513202 73 17254829772610514850
633830 44 18041005050560757132
90525 40 18202012035721342783
9981440 41 17475788127702445488

> <PUBCHEM_SHAPE_MULTIPOLES>
529.27
7.74
2.58
2.06
0.42
0.17
0.8
0.93
-2.25
0.51
-0.94
-0.58
-0.49
-2.62

> <PUBCHEM_SHAPE_SELFOVERLAP>
1230.813

> <PUBCHEM_SHAPE_VOLUME>
263.4

> <PUBCHEM_COORDINATE_TYPE>
2
5
10

$$$$
