REMARK  Name = 10707231
REMARK  3 active torsions:
REMARK  status: ('A' for Active; 'I' for Inactive)
REMARK    1  A    between atoms: C_8  and  O_20
REMARK    2  A    between atoms: C_12  and  O_22
REMARK    3  A    between atoms: C_13  and  O_24
REMARK                            x       y       z     vdW  Elec       q    Type
REMARK                         _______ _______ _______ _____ _____    ______ ____
ROOT
ATOM      1  O   UNL     1      -2.507  -0.725  -0.157  0.00  0.00    -0.448 OA
ATOM      2  O   UNL     1      -2.142  -1.012  -2.359  0.00  0.00    -0.247 OA
ATOM      3  N   UNL     1       1.605  -1.068   0.679  0.00  0.00    -0.305 N 
ATOM      4  N   UNL     1       2.910   0.684  -0.297  0.00  0.00    -0.216 NA
ATOM      5  N   UNL     1       3.886  -1.229   0.606  0.00  0.00    -0.331 N 
ATOM      6  C   UNL     1       0.305  -0.498   0.361  0.00  0.00    +0.124 C 
ATOM      7  C   UNL     1       0.513   1.042   0.309  0.00  0.00    +0.073 C 
ATOM      8  C   UNL     1      -0.687  -0.795   1.495  0.00  0.00    +0.170 C 
ATOM      9  C   UNL     1      -2.023  -0.172   1.095  0.00  0.00    +0.197 C 
ATOM     10  C   UNL     1      -1.915   1.364   0.974  0.00  0.00    +0.043 C 
ATOM     11  C   UNL     1      -0.793   1.795   0.007  0.00  0.00    +0.010 C 
ATOM     12  C   UNL     1      -0.229  -1.195  -0.908  0.00  0.00    +0.229 C 
ATOM     13  C   UNL     1       1.689   1.453  -0.600  0.00  0.00    +0.220 C 
ATOM     14  C   UNL     1      -1.692  -0.941  -1.218  0.00  0.00    +0.346 C 
ATOM     15  C   UNL     1      -3.243   1.998   0.556  0.00  0.00    +0.004 C 
ATOM     16  C   UNL     1       2.787  -0.468   0.291  0.00  0.00    +0.176 C 
ATOM     17  H   UNL     1       1.644  -1.910   1.188  0.00  0.00    +0.149 HD
ATOM     18  H   UNL     1       3.770  -2.099   1.052  0.00  0.00    +0.145 HD
ATOM     19  H   UNL     1       4.789  -0.905   0.386  0.00  0.00    +0.145 HD
ENDROOT
BRANCH   8  20
ATOM     20  O   UNL     1      -0.851  -2.193   1.723  0.00  0.00    -0.379 OA
ATOM     21  H   UNL     1       0.001  -2.582   1.976  0.00  0.00    +0.211 HD
ENDBRANCH   8  20
BRANCH  12  22
ATOM     22  O   UNL     1       0.524  -0.912  -2.075  0.00  0.00    -0.373 OA
ATOM     23  H   UNL     1       1.465  -1.069  -1.899  0.00  0.00    +0.211 HD
ENDBRANCH  12  22
BRANCH  13  24
ATOM     24  O   UNL     1       1.862   2.872  -0.481  0.00  0.00    -0.364 OA
ATOM     25  H   UNL     1       2.598   3.157  -1.045  0.00  0.00    +0.212 HD
ENDBRANCH  13  24
TORSDOF 3
