10707231
  -OEChem-03292013303D

 36 38  0     1  0  0  0  0  0999 V2000
   -2.5066   -0.7250   -0.1567 O   0  0  0  0  0  0  0  0  0  0  0  0
   -0.8509   -2.1935    1.7229 O   0  0  0  0  0  0  0  0  0  0  0  0
    0.5237   -0.9123   -2.0751 O   0  0  0  0  0  0  0  0  0  0  0  0
    1.8617    2.8723   -0.4814 O   0  0  0  0  0  0  0  0  0  0  0  0
   -2.1418   -1.0117   -2.3594 O   0  0  0  0  0  0  0  0  0  0  0  0
    1.6055   -1.0676    0.6789 N   0  0  0  0  0  0  0  0  0  0  0  0
    2.9099    0.6839   -0.2966 N   0  0  0  0  0  0  0  0  0  0  0  0
    3.8861   -1.2292    0.6061 N   0  0  0  0  0  0  0  0  0  0  0  0
    0.3049   -0.4979    0.3612 C   0  0  2  0  0  0  0  0  0  0  0  0
    0.5131    1.0425    0.3088 C   0  0  2  0  0  0  0  0  0  0  0  0
   -0.6871   -0.7954    1.4946 C   0  0  1  0  0  0  0  0  0  0  0  0
   -2.0230   -0.1721    1.0945 C   0  0  1  0  0  0  0  0  0  0  0  0
   -1.9148    1.3641    0.9744 C   0  0  1  0  0  0  0  0  0  0  0  0
   -0.7934    1.7947    0.0069 C   0  0  0  0  0  0  0  0  0  0  0  0
   -0.2292   -1.1954   -0.9081 C   0  0  1  0  0  0  0  0  0  0  0  0
    1.6891    1.4530   -0.6002 C   0  0  1  0  0  0  0  0  0  0  0  0
   -1.6921   -0.9405   -1.2184 C   0  0  0  0  0  0  0  0  0  0  0  0
   -3.2425    1.9977    0.5562 C   0  0  0  0  0  0  0  0  0  0  0  0
    2.7874   -0.4675    0.2913 C   0  0  0  0  0  0  0  0  0  0  0  0
    0.8063    1.3688    1.3215 H   0  0  0  0  0  0  0  0  0  0  0  0
   -0.3453   -0.3638    2.4440 H   0  0  0  0  0  0  0  0  0  0  0  0
   -2.7806   -0.4336    1.8425 H   0  0  0  0  0  0  0  0  0  0  0  0
   -1.6618    1.7544    1.9698 H   0  0  0  0  0  0  0  0  0  0  0  0
   -0.6368    2.8755    0.1124 H   0  0  0  0  0  0  0  0  0  0  0  0
   -1.0906    1.6342   -1.0358 H   0  0  0  0  0  0  0  0  0  0  0  0
   -0.1529   -2.2826   -0.7641 H   0  0  0  0  0  0  0  0  0  0  0  0
    1.4340    1.2848   -1.6505 H   0  0  0  0  0  0  0  0  0  0  0  0
    1.6337   -2.0115    1.0518 H   0  0  0  0  0  0  0  0  0  0  0  0
   -3.1671    3.0904    0.5650 H   0  0  0  0  0  0  0  0  0  0  0  0
   -3.5393    1.6917   -0.4523 H   0  0  0  0  0  0  0  0  0  0  0  0
   -4.0423    1.7126    1.2475 H   0  0  0  0  0  0  0  0  0  0  0  0
   -0.0108   -2.5348    2.0718 H   0  0  0  0  0  0  0  0  0  0  0  0
    0.2331   -1.5247   -2.7726 H   0  0  0  0  0  0  0  0  0  0  0  0
    2.6872    3.0885   -0.9472 H   0  0  0  0  0  0  0  0  0  0  0  0
    4.8237   -0.9133    0.3835 H   0  0  0  0  0  0  0  0  0  0  0  0
    3.7945   -2.1275    1.0677 H   0  0  0  0  0  0  0  0  0  0  0  0
  1 12  1  0  0  0  0
  1 17  1  0  0  0  0
  2 11  1  0  0  0  0
  2 32  1  0  0  0  0
  3 15  1  0  0  0  0
  3 33  1  0  0  0  0
  4 16  1  0  0  0  0
  4 34  1  0  0  0  0
  5 17  2  0  0  0  0
  6  9  1  0  0  0  0
  6 19  1  0  0  0  0
  6 28  1  0  0  0  0
  7 16  1  0  0  0  0
  7 19  2  0  0  0  0
  8 19  1  0  0  0  0
  8 35  1  0  0  0  0
  8 36  1  0  0  0  0
  9 10  1  0  0  0  0
  9 11  1  0  0  0  0
  9 15  1  0  0  0  0
 10 14  1  0  0  0  0
 10 16  1  0  0  0  0
 10 20  1  0  0  0  0
 11 12  1  0  0  0  0
 11 21  1  0  0  0  0
 12 13  1  0  0  0  0
 12 22  1  0  0  0  0
 13 14  1  0  0  0  0
 13 18  1  0  0  0  0
 13 23  1  0  0  0  0
 14 24  1  0  0  0  0
 14 25  1  0  0  0  0
 15 17  1  0  0  0  0
 15 26  1  0  0  0  0
 16 27  1  0  0  0  0
 18 29  1  0  0  0  0
 18 30  1  0  0  0  0
 18 31  1  0  0  0  0
M  END
> <PUBCHEM_COMPOUND_CID>
10707231

> <PUBCHEM_CONFORMER_RMSD>
0.6

> <PUBCHEM_CONFORMER_DIVERSEORDER>
1

> <PUBCHEM_MMFF94_PARTIAL_CHARGES>
21
1 -0.43
11 0.28
12 0.28
15 0.34
16 0.53
17 0.66
19 0.55
2 -0.68
28 0.4
3 -0.68
32 0.4
33 0.4
34 0.4
35 0.4
36 0.4
4 -0.68
5 -0.57
6 -0.82
7 -0.7
8 -0.85
9 0.37

> <PUBCHEM_EFFECTIVE_ROTOR_COUNT>
1.4

> <PUBCHEM_PHARMACOPHORE_FEATURES>
13
1 2 acceptor
1 2 donor
1 3 acceptor
1 3 donor
1 4 acceptor
1 4 donor
1 5 acceptor
1 6 donor
1 8 donor
4 6 7 8 19 cation
6 1 9 11 12 15 17 rings
6 6 7 9 10 16 19 rings
6 9 10 11 12 13 14 rings

> <PUBCHEM_HEAVY_ATOM_COUNT>
19

> <PUBCHEM_ATOM_DEF_STEREO_COUNT>
7

> <PUBCHEM_ATOM_UDEF_STEREO_COUNT>
0

> <PUBCHEM_BOND_DEF_STEREO_COUNT>
0

> <PUBCHEM_BOND_UDEF_STEREO_COUNT>
0

> <PUBCHEM_ISOTOPIC_ATOM_COUNT>
0

> <PUBCHEM_COMPONENT_COUNT>
1

> <PUBCHEM_CACTVS_TAUTO_COUNT>
3

> <PUBCHEM_CONFORMER_ID>
00A3611F00000001

> <PUBCHEM_MMFF94_ENERGY>
59.6921

> <PUBCHEM_FEATURE_SELFOVERLAP>
67.611

> <PUBCHEM_SHAPE_FINGERPRINT>
10863032 1 18189620617080579443
10948715 1 18057603157713377041
12423570 1 9909996132152924947
12491281 212 18272655614555733832
13024252 1 17894911797874292187
144361 1 17844556377235375631
14614273 12 17203889665056075919
14617773 55 18201713015571353069
14817 1 9063179425144405701
15775835 57 18060146486985315584
15852999 172 16773235072170326156
15881359 60 18059313018569431699
16945 1 18263372532540435240
20511035 2 18340778121150534112
21501502 16 18335151915623992032
21524375 3 18197502831262391097
22112679 90 17630889506865268423
22344851 262 18201435809718106134
23419403 2 17393041055885911155
25 1 17315332757759198693
2748010 2 17477219231810504877
298252 57 17987233327167196785
3286 77 17894925035174358795
45790113 50 18261405484868846571
5845 1 14824070113250197327
69090 78 18058442106549650521
90525 40 18130516287608785909
9999458 23 17749968647847461977

> <PUBCHEM_SHAPE_MULTIPOLES>
346.72
4.38
2.3
1.62
1.99
1.1
-0.54
0.67
0.53
-0.2
-0.11
-0.68
-0.96
-0.85

> <PUBCHEM_SHAPE_SELFOVERLAP>
746.76

> <PUBCHEM_SHAPE_VOLUME>
183.7

> <PUBCHEM_COORDINATE_TYPE>
2
5
10

$$$$
