REMARK  Name = 10708
REMARK  6 active torsions:
REMARK  status: ('A' for Active; 'I' for Inactive)
REMARK    1  A    between atoms: C_1  and  C_8
REMARK    2  A    between atoms: C_2  and  C_12
REMARK    3  A    between atoms: C_3  and  C_16
REMARK    4  A    between atoms: C_8  and  O_9
REMARK    5  A    between atoms: C_12  and  O_13
REMARK    6  A    between atoms: C_16  and  O_17
REMARK                            x       y       z     vdW  Elec       q    Type
REMARK                         _______ _______ _______ _____ _____    ______ ____
ROOT
ATOM      1  C   UNL     1       0.519  -0.579   0.007  0.00  0.00    +0.082 C 
ATOM      2  C   UNL     1       0.933   0.753   0.054  0.00  0.00    +0.082 C 
ATOM      3  C   UNL     1      -1.788   0.137   0.021  0.00  0.00    +0.076 C 
ATOM      4  C   UNL     1      -0.841  -0.886  -0.009  0.00  0.00    +0.013 C 
ATOM      5  C   UNL     1      -0.015   1.776   0.085  0.00  0.00    +0.007 C 
ATOM      6  C   UNL     1      -1.375   1.469   0.068  0.00  0.00    +0.007 C 
ENDROOT
BRANCH   1   8
ATOM      7  O   UNL     1       1.952  -2.239   0.965  0.00  0.00    -0.245 OA
ATOM      8  C   UNL     1       1.484  -1.670  -0.025  0.00  0.00    +0.338 C 
BRANCH   8   9
ATOM      9  O   UNL     1       1.831  -2.016  -1.294  0.00  0.00    -0.477 OA
ATOM     10  H   UNL     1       1.456  -1.563  -2.023  0.00  0.00    +0.295 HD
ENDBRANCH   8   9
ENDBRANCH   1   8
BRANCH   2  12
ATOM     11  O   UNL     1       3.247   0.418   0.557  0.00  0.00    -0.245 OA
ATOM     12  C   UNL     1       2.346   1.107   0.073  0.00  0.00    +0.338 C 
BRANCH  12  13
ATOM     13  O   UNL     1       2.586   2.310  -0.515  0.00  0.00    -0.477 OA
ATOM     14  H   UNL     1       1.877   2.806  -0.872  0.00  0.00    +0.295 HD
ENDBRANCH  12  13
ENDBRANCH   2  12
BRANCH   3  16
ATOM     15  O   UNL     1      -3.683  -1.323  -0.035  0.00  0.00    -0.245 OA
ATOM     16  C   UNL     1      -3.206  -0.184   0.005  0.00  0.00    +0.338 C 
BRANCH  16  17
ATOM     17  O   UNL     1      -3.992   0.928   0.042  0.00  0.00    -0.477 OA
ATOM     18  H   UNL     1      -3.599   1.778   0.072  0.00  0.00    +0.295 HD
ENDBRANCH  16  17
ENDBRANCH   3  16
TORSDOF 6
