REMARK  Name = 10718956
REMARK  9 active torsions:
REMARK  status: ('A' for Active; 'I' for Inactive)
REMARK    1  A    between atoms: N_1  and  S_3
REMARK    2  A    between atoms: N_1  and  C_20
REMARK    3  A    between atoms: S_3  and  C_7
REMARK    4  A    between atoms: C_10  and  C_11
REMARK    5  A    between atoms: C_12  and  C_13
REMARK    6  A    between atoms: C_20  and  C_22
REMARK    7  A    between atoms: C_20  and  C_25
REMARK    8  A    between atoms: C_22  and  O_23
REMARK    9  A    between atoms: C_25  and  C_27
REMARK                            x       y       z     vdW  Elec       q    Type
REMARK                         _______ _______ _______ _____ _____    ______ ____
ROOT
ATOM      1  N   UNL     1       3.900   0.629   0.994  0.00  0.00    -0.169 NA
ATOM      2  H   UNL     1       3.202   0.191   1.596  0.00  0.00    +0.149 HD
ENDROOT
BRANCH   1   3
ATOM      3  S   UNL     1       3.389   2.237   0.708  0.00  0.00    +0.066 S 
ATOM      4  O   UNL     1       4.289   2.866  -0.239  0.00  0.00    -0.152 OA
ATOM      5  O   UNL     1       3.073   2.862   1.978  0.00  0.00    -0.152 OA
BRANCH   3   7
ATOM      6  S   UNL     1       0.541   1.598   0.868  0.00  0.00    -0.059 S 
ATOM      7  C   UNL     1       1.804   2.149  -0.125  0.00  0.00    +0.152 C 
ATOM      8  C   UNL     1       1.427   2.439  -1.392  0.00  0.00    +0.028 C 
ATOM      9  C   UNL     1       0.034   2.202  -1.577  0.00  0.00    +0.017 C 
ATOM     10  C   UNL     1      -0.569   1.743  -0.427  0.00  0.00    +0.072 C 
BRANCH  10  11
ATOM     11  C   UNL     1      -1.951   1.419  -0.305  0.00  0.00    -0.053 C 
ATOM     12  C   UNL     1      -3.124   1.143  -0.203  0.00  0.00    -0.059 C 
BRANCH  12  13
ATOM     13  C   UNL     1      -4.511   0.817  -0.082  0.00  0.00    +0.042 C 
ATOM     14  C   UNL     1      -7.215   0.180   0.157  0.00  0.00    -0.022 C 
ATOM     15  C   UNL     1      -5.450   1.829   0.115  0.00  0.00    +0.008 C 
ATOM     16  C   UNL     1      -4.922  -0.513  -0.159  0.00  0.00    +0.008 C 
ATOM     17  C   UNL     1      -6.802   1.510   0.234  0.00  0.00    -0.004 C 
ATOM     18  C   UNL     1      -6.275  -0.832  -0.040  0.00  0.00    -0.004 C 
ATOM     19  C   UNL     1      -8.661  -0.161   0.285  0.00  0.00    +0.031 C 
ENDBRANCH  12  13
ENDBRANCH  10  11
ENDBRANCH   3   7
ENDBRANCH   1   3
BRANCH   1  20
ATOM     20  C   UNL     1       4.088  -0.256  -0.178  0.00  0.00    +0.178 C 
BRANCH  20  22
ATOM     21  O   UNL     1       6.443   0.281   0.129  0.00  0.00    -0.249 OA
ATOM     22  C   UNL     1       5.513   0.006  -0.618  0.00  0.00    +0.330 C 
BRANCH  22  23
ATOM     23  O   UNL     1       5.654  -0.077  -1.968  0.00  0.00    -0.479 OA
ATOM     24  H   UNL     1       4.916  -0.291  -2.503  0.00  0.00    +0.295 HD
ENDBRANCH  22  23
ENDBRANCH  20  22
BRANCH  20  25
ATOM     25  C   UNL     1       3.824  -1.725   0.216  0.00  0.00    +0.056 C 
BRANCH  25  27
ATOM     26  N   UNL     1       0.718  -2.203   2.074  0.00  0.00    -0.312 N 
ATOM     27  C   UNL     1       2.457  -1.978   0.713  0.00  0.00    -0.004 C 
ATOM     28  C   UNL     1       1.326  -2.349  -0.067  0.00  0.00    +0.011 C 
ATOM     29  C   UNL     1       0.248  -2.483   0.810  0.00  0.00    +0.048 C 
ATOM     30  C   UNL     1       2.051  -1.897   2.026  0.00  0.00    +0.058 C 
ATOM     31  C   UNL     1       1.116  -2.583  -1.441  0.00  0.00    +0.001 C 
ATOM     32  C   UNL     1      -1.034  -2.842   0.382  0.00  0.00    +0.015 C 
ATOM     33  C   UNL     1      -0.162  -2.942  -1.884  0.00  0.00    +0.000 C 
ATOM     34  C   UNL     1      -1.219  -3.069  -0.985  0.00  0.00    +0.001 C 
ATOM     35  H   UNL     1       0.173  -2.221   2.894  0.00  0.00    +0.152 HD
ENDBRANCH  25  27
ENDBRANCH  20  25
ENDBRANCH   1  20
TORSDOF 9
