10718000
  -OEChem-03292013303D

 63 65  0     1  0  0  0  0  0999 V2000
    3.7671    0.0318    1.0797 O   0  0  0  0  0  0  0  0  0  0  0  0
    7.2358   -0.4279   -1.0760 O   0  0  0  0  0  0  0  0  0  0  0  0
    1.1952   -0.6955    0.0998 O   0  0  0  0  0  0  0  0  0  0  0  0
    1.0374    0.2332    2.2274 O   0  0  0  0  0  0  0  0  0  0  0  0
   -1.5893    0.9106    0.2534 O   0  0  0  0  0  0  0  0  0  0  0  0
   -3.9027   -2.1332   -2.1765 O   0  0  0  0  0  0  0  0  0  0  0  0
   -2.9300   -2.4814   -0.0879 N   0  0  0  0  0  0  0  0  0  0  0  0
    4.1578   -1.3284    0.9064 C   0  0  2  0  0  0  0  0  0  0  0  0
    3.8475    0.8463   -0.0954 C   0  0  2  0  0  0  0  0  0  0  0  0
    5.5957   -1.4028    0.3824 C   0  0  0  0  0  0  0  0  0  0  0  0
    5.8393   -0.4782   -0.8095 C   0  0  1  0  0  0  0  0  0  0  0  0
    5.3126    0.9286   -0.5192 C   0  0  0  0  0  0  0  0  0  0  0  0
    3.1471   -2.1416    0.0721 C   0  0  0  0  0  0  0  0  0  0  0  0
    3.2494    2.2168    0.2626 C   0  0  0  0  0  0  0  0  0  0  0  0
    1.6910   -1.9756    0.5531 C   0  0  2  0  0  0  0  0  0  0  0  0
    1.7834    2.3953   -0.1062 C   0  0  0  0  0  0  0  0  0  0  0  0
    0.7914   -3.0362   -0.0700 C   0  0  0  0  0  0  0  0  0  0  0  0
    0.7454    1.5131    0.2524 C   0  0  0  0  0  0  0  0  0  0  0  0
    0.9907    0.2847    1.0125 C   0  0  0  0  0  0  0  0  0  0  0  0
    1.4244    3.5526   -0.8214 C   0  0  0  0  0  0  0  0  0  0  0  0
   -0.6343   -2.8617    0.3594 C   0  0  0  0  0  0  0  0  0  0  0  0
   -0.5877    1.7669   -0.0960 C   0  0  0  0  0  0  0  0  0  0  0  0
    0.0961    3.8082   -1.1745 C   0  0  0  0  0  0  0  0  0  0  0  0
   -0.9082    2.9155   -0.8130 C   0  0  0  0  0  0  0  0  0  0  0  0
   -1.6394   -2.6300   -0.4934 C   0  0  0  0  0  0  0  0  0  0  0  0
   -3.9860   -2.2412   -0.9571 C   0  0  0  0  0  0  0  0  0  0  0  0
   -5.2833   -2.1238   -0.2325 C   0  0  0  0  0  0  0  0  0  0  0  0
   -5.7046   -0.9296    0.2065 C   0  0  0  0  0  0  0  0  0  0  0  0
   -4.9465    0.2865    0.0096 C   0  0  0  0  0  0  0  0  0  0  0  0
   -5.3583    1.4869    0.4445 C   0  0  0  0  0  0  0  0  0  0  0  0
   -6.6467    1.7060    1.1821 C   0  0  0  0  0  0  0  0  0  0  0  0
   -7.7901    2.0038    0.2247 C   0  0  0  0  0  0  0  0  0  0  0  0
    4.1556   -1.7667    1.9124 H   0  0  0  0  0  0  0  0  0  0  0  0
    3.2747    0.4008   -0.9167 H   0  0  0  0  0  0  0  0  0  0  0  0
    6.2734   -1.1003    1.1928 H   0  0  0  0  0  0  0  0  0  0  0  0
    5.8764   -2.4329    0.1333 H   0  0  0  0  0  0  0  0  0  0  0  0
    5.3490   -0.8818   -1.7020 H   0  0  0  0  0  0  0  0  0  0  0  0
    5.4346    1.5616   -1.4059 H   0  0  0  0  0  0  0  0  0  0  0  0
    5.9152    1.3858    0.2766 H   0  0  0  0  0  0  0  0  0  0  0  0
    3.2072   -1.8424   -0.9809 H   0  0  0  0  0  0  0  0  0  0  0  0
    3.4373   -3.1983    0.1238 H   0  0  0  0  0  0  0  0  0  0  0  0
    3.8261    2.9931   -0.2563 H   0  0  0  0  0  0  0  0  0  0  0  0
    3.3480    2.4186    1.3369 H   0  0  0  0  0  0  0  0  0  0  0  0
    1.6478   -2.0535    1.6470 H   0  0  0  0  0  0  0  0  0  0  0  0
    1.1266   -4.0365    0.2282 H   0  0  0  0  0  0  0  0  0  0  0  0
    0.8609   -2.9851   -1.1643 H   0  0  0  0  0  0  0  0  0  0  0  0
    7.6783   -0.0446   -0.2996 H   0  0  0  0  0  0  0  0  0  0  0  0
    2.1830    4.2758   -1.1135 H   0  0  0  0  0  0  0  0  0  0  0  0
   -0.8387   -2.9435    1.4246 H   0  0  0  0  0  0  0  0  0  0  0  0
   -0.1519    4.7082   -1.7298 H   0  0  0  0  0  0  0  0  0  0  0  0
   -1.9383    3.1228   -1.0895 H   0  0  0  0  0  0  0  0  0  0  0  0
   -1.4565   -2.5494   -1.5596 H   0  0  0  0  0  0  0  0  0  0  0  0
   -1.2488    0.1651    0.7720 H   0  0  0  0  0  0  0  0  0  0  0  0
   -3.1175   -2.5527    0.9096 H   0  0  0  0  0  0  0  0  0  0  0  0
   -5.8591   -3.0288   -0.0801 H   0  0  0  0  0  0  0  0  0  0  0  0
   -6.6596   -0.9018    0.7185 H   0  0  0  0  0  0  0  0  0  0  0  0
   -4.0100    0.2500   -0.5356 H   0  0  0  0  0  0  0  0  0  0  0  0
   -4.7448    2.3598    0.2367 H   0  0  0  0  0  0  0  0  0  0  0  0
   -6.5088    2.5681    1.8469 H   0  0  0  0  0  0  0  0  0  0  0  0
   -6.9050    0.8752    1.8460 H   0  0  0  0  0  0  0  0  0  0  0  0
   -7.9927    1.1542   -0.4357 H   0  0  0  0  0  0  0  0  0  0  0  0
   -7.5680    2.8757   -0.4001 H   0  0  0  0  0  0  0  0  0  0  0  0
   -8.7051    2.2178    0.7865 H   0  0  0  0  0  0  0  0  0  0  0  0
  1  8  1  0  0  0  0
  1  9  1  0  0  0  0
  2 11  1  0  0  0  0
  2 47  1  0  0  0  0
  3 15  1  0  0  0  0
  3 19  1  0  0  0  0
  4 19  2  0  0  0  0
  5 22  1  0  0  0  0
  5 53  1  0  0  0  0
  6 26  2  0  0  0  0
  7 25  1  0  0  0  0
  7 26  1  0  0  0  0
  7 54  1  0  0  0  0
  8 10  1  0  0  0  0
  8 13  1  0  0  0  0
  8 33  1  0  0  0  0
  9 12  1  0  0  0  0
  9 14  1  0  0  0  0
  9 34  1  0  0  0  0
 10 11  1  0  0  0  0
 10 35  1  0  0  0  0
 10 36  1  0  0  0  0
 11 12  1  0  0  0  0
 11 37  1  0  0  0  0
 12 38  1  0  0  0  0
 12 39  1  0  0  0  0
 13 15  1  0  0  0  0
 13 40  1  0  0  0  0
 13 41  1  0  0  0  0
 14 16  1  0  0  0  0
 14 42  1  0  0  0  0
 14 43  1  0  0  0  0
 15 17  1  0  0  0  0
 15 44  1  0  0  0  0
 16 18  2  0  0  0  0
 16 20  1  0  0  0  0
 17 21  1  0  0  0  0
 17 45  1  0  0  0  0
 17 46  1  0  0  0  0
 18 19  1  0  0  0  0
 18 22  1  0  0  0  0
 20 23  2  0  0  0  0
 20 48  1  0  0  0  0
 21 25  2  0  0  0  0
 21 49  1  0  0  0  0
 22 24  2  0  0  0  0
 23 24  1  0  0  0  0
 23 50  1  0  0  0  0
 24 51  1  0  0  0  0
 25 52  1  0  0  0  0
 26 27  1  0  0  0  0
 27 28  2  0  0  0  0
 27 55  1  0  0  0  0
 28 29  1  0  0  0  0
 28 56  1  0  0  0  0
 29 30  2  0  0  0  0
 29 57  1  0  0  0  0
 30 31  1  0  0  0  0
 30 58  1  0  0  0  0
 31 32  1  0  0  0  0
 31 59  1  0  0  0  0
 31 60  1  0  0  0  0
 32 61  1  0  0  0  0
 32 62  1  0  0  0  0
 32 63  1  0  0  0  0
M  END
> <PUBCHEM_COMPOUND_CID>
10718000

> <PUBCHEM_CONFORMER_RMSD>
1

> <PUBCHEM_CONFORMER_DIVERSEORDER>
1
50
30
21
26
54
27
10
12
65
52
67
34
13
35
32
60
38
63
31
46
28
22
66
11
33
57
45
9
29
44
39
37
62
20
40
8
42
18
14
43
4
56
58
61
36
3
48
23
2
7
41
25
53
5
64
19
59
15
49
47
24
6
17
16
55
51

> <PUBCHEM_MMFF94_PARTIAL_CHARGES>
40
1 -0.56
11 0.28
14 0.14
15 0.28
16 -0.14
17 0.14
18 0.09
19 0.63
2 -0.68
20 -0.15
21 -0.29
22 0.08
23 -0.15
24 -0.15
25 -0.04
26 0.62
27 -0.14
28 -0.15
29 -0.15
3 -0.43
30 -0.29
31 0.14
4 -0.57
47 0.4
48 0.15
49 0.15
5 -0.53
50 0.15
51 0.15
52 0.15
53 0.45
54 0.37
55 0.15
56 0.15
57 0.15
58 0.15
6 -0.57
7 -0.54
8 0.28
9 0.28

> <PUBCHEM_EFFECTIVE_ROTOR_COUNT>
8.6

> <PUBCHEM_PHARMACOPHORE_FEATURES>
10
1 1 acceptor
1 2 acceptor
1 2 donor
1 32 hydrophobe
1 4 acceptor
1 5 donor
1 6 acceptor
1 7 donor
6 1 8 9 10 11 12 rings
6 16 18 20 22 23 24 rings

> <PUBCHEM_HEAVY_ATOM_COUNT>
32

> <PUBCHEM_ATOM_DEF_STEREO_COUNT>
4

> <PUBCHEM_ATOM_UDEF_STEREO_COUNT>
0

> <PUBCHEM_BOND_DEF_STEREO_COUNT>
3

> <PUBCHEM_BOND_UDEF_STEREO_COUNT>
0

> <PUBCHEM_ISOTOPIC_ATOM_COUNT>
0

> <PUBCHEM_COMPONENT_COUNT>
1

> <PUBCHEM_CACTVS_TAUTO_COUNT>
39

> <PUBCHEM_CONFORMER_ID>
00A38B3000000001

> <PUBCHEM_MMFF94_ENERGY>
88.5263

> <PUBCHEM_FEATURE_SELFOVERLAP>
50.748

> <PUBCHEM_SHAPE_FINGERPRINT>
10462674 296 18336541742178600357
11273773 38 18410293597497798613
11513181 2 17912368920351482318
11578080 2 17702367645812775368
12107183 9 18411703162973422313
12422481 6 17775284975737566388
12788726 201 18187638099253997346
14020679 6 17894919555123650419
14117953 113 18339643322345455677
14289585 56 17749378291665631421
14294032 229 18265337205760033088
14394314 77 18409732871689376292
14400156 260 18333449833692189000
14790565 3 18410576210160963755
15001296 14 18118394284077609857
15064986 96 18201734933754874495
15183329 4 18409726283351585759
15210252 30 17969778786567083396
15297060 5 17632021862604251963
15361156 5 18040443200588832189
15475509 8 18341341036902446702
1601671 61 18411978078780678386
16087824 20 18336548209930122181
16110190 28 18410858729416036053
16628084 112 17970626290625432290
24771293 8 18270105950945798080
338550 245 18409732893654206053
3459 83 18341050834325096807
350125 39 18411136913777826640
3680242 22 18334570200948100186
4144715 1 18335430109573600323
463206 1 18334579078755977948
6328613 192 18413672422183305537

> <PUBCHEM_SHAPE_MULTIPOLES>
618.35
16.03
4.55
1.19
13.15
1.05
0
0.29
0.02
1.78
1.26
0.18
-0.04
-1.82

> <PUBCHEM_SHAPE_SELFOVERLAP>
1292.809

> <PUBCHEM_SHAPE_VOLUME>
345.5

> <PUBCHEM_COORDINATE_TYPE>
2
5
10

$$$$
