REMARK  Name = 10713650
REMARK  9 active torsions:
REMARK  status: ('A' for Active; 'I' for Inactive)
REMARK    1  A    between atoms: C_4  and  C_10
REMARK    2  A    between atoms: C_8  and  C_22
REMARK    3  A    between atoms: C_10  and  C_11
REMARK    4  A    between atoms: C_10  and  O_18
REMARK    5  A    between atoms: C_12  and  C_14
REMARK    6  A    between atoms: C_15  and  C_17
REMARK    7  A    between atoms: O_18  and  C_20
REMARK    8  A    between atoms: C_22  and  O_23
REMARK    9  A    between atoms: O_23  and  C_25
REMARK                            x       y       z     vdW  Elec       q    Type
REMARK                         _______ _______ _______ _____ _____    ______ ____
ROOT
ATOM      1  O   UNL     1      -0.210  -2.632   0.777  0.00  0.00    -0.336 OA
ATOM      2  O   UNL     1       0.398  -1.710  -2.332  0.00  0.00    -0.289 OA
ATOM      3  O   UNL     1      -2.853  -1.050   1.913  0.00  0.00    -0.289 OA
ATOM      4  C   UNL     1       0.267  -1.516   0.011  0.00  0.00    +0.220 C 
ATOM      5  C   UNL     1      -0.645  -1.325   1.183  0.00  0.00    +0.212 C 
ATOM      6  C   UNL     1      -0.283  -1.439  -1.350  0.00  0.00    +0.204 C 
ATOM      7  C   UNL     1      -2.080  -1.077   0.964  0.00  0.00    +0.202 C 
ATOM      8  C   UNL     1      -2.528  -0.847  -0.442  0.00  0.00    +0.061 C 
ATOM      9  C   UNL     1      -1.697  -1.017  -1.481  0.00  0.00    +0.042 C 
ENDROOT
BRANCH   4  10
ATOM     10  C   UNL     1       1.726  -1.245   0.240  0.00  0.00    +0.225 C 
BRANCH  10  11
ATOM     11  C   UNL     1       2.192   0.087  -0.288  0.00  0.00    +0.015 C 
ATOM     12  C   UNL     1       2.287   1.256   0.380  0.00  0.00    -0.022 C 
ATOM     13  C   UNL     1       1.972   1.409   1.846  0.00  0.00    +0.031 C 
BRANCH  12  14
ATOM     14  C   UNL     1       2.735   2.447  -0.346  0.00  0.00    -0.001 C 
ATOM     15  C   UNL     1       2.882   3.677   0.165  0.00  0.00    +0.045 C 
BRANCH  15  17
ATOM     16  O   UNL     1       3.499   5.911  -0.309  0.00  0.00    -0.283 OA
ATOM     17  C   UNL     1       3.344   4.767  -0.719  0.00  0.00    +0.234 C 
ENDBRANCH  15  17
ENDBRANCH  12  14
ENDBRANCH  10  11
BRANCH  10  18
ATOM     18  O   UNL     1       2.493  -2.256  -0.421  0.00  0.00    -0.445 OA
BRANCH  18  20
ATOM     19  O   UNL     1       4.106  -2.122   1.228  0.00  0.00    -0.250 OA
ATOM     20  C   UNL     1       3.664  -2.595   0.190  0.00  0.00    +0.318 C 
ATOM     21  C   UNL     1       4.356  -3.658  -0.609  0.00  0.00    +0.121 C 
ENDBRANCH  18  20
ENDBRANCH  10  18
ENDBRANCH   4  10
BRANCH   8  22
ATOM     22  C   UNL     1      -3.960  -0.445  -0.625  0.00  0.00    +0.238 C 
BRANCH  22  23
ATOM     23  O   UNL     1      -4.199   0.785   0.032  0.00  0.00    -0.443 OA
BRANCH  23  25
ATOM     24  O   UNL     1      -6.409   0.744  -0.642  0.00  0.00    -0.250 OA
ATOM     25  C   UNL     1      -5.476   1.275  -0.054  0.00  0.00    +0.318 C 
ATOM     26  C   UNL     1      -5.581   2.575   0.685  0.00  0.00    +0.121 C 
ENDBRANCH  23  25
ENDBRANCH  22  23
ENDBRANCH   8  22
TORSDOF 9
