REMARK  Name = 10718000
REMARK  8 active torsions:
REMARK  status: ('A' for Active; 'I' for Inactive)
REMARK    1  A    between atoms: C_7  and  O_19
REMARK    2  A    between atoms: C_11  and  C_23
REMARK    3  A    between atoms: C_16  and  O_21
REMARK    4  A    between atoms: C_23  and  C_24
REMARK    5  A    between atoms: C_25  and  N_27
REMARK    6  A    between atoms: C_28  and  C_30
REMARK    7  A    between atoms: C_31  and  C_32
REMARK    8  A    between atoms: C_33  and  C_34
REMARK                            x       y       z     vdW  Elec       q    Type
REMARK                         _______ _______ _______ _____ _____    ______ ____
ROOT
ATOM      1  O   UNL     1       3.767   0.032   1.080  0.00  0.00    -0.358 OA
ATOM      2  O   UNL     1       1.195  -0.696   0.100  0.00  0.00    -0.449 OA
ATOM      3  O   UNL     1       1.037   0.233   2.227  0.00  0.00    -0.245 OA
ATOM      4  C   UNL     1       4.158  -1.328   0.906  0.00  0.00    +0.121 C 
ATOM      5  C   UNL     1       3.848   0.846  -0.095  0.00  0.00    +0.122 C 
ATOM      6  C   UNL     1       5.596  -1.403   0.382  0.00  0.00    +0.059 C 
ATOM      7  C   UNL     1       5.839  -0.478  -0.809  0.00  0.00    +0.115 C 
ATOM      8  C   UNL     1       5.313   0.929  -0.519  0.00  0.00    +0.059 C 
ATOM      9  C   UNL     1       3.147  -2.142   0.072  0.00  0.00    +0.074 C 
ATOM     10  C   UNL     1       3.249   2.217   0.263  0.00  0.00    +0.056 C 
ATOM     11  C   UNL     1       1.691  -1.976   0.553  0.00  0.00    +0.176 C 
ATOM     12  C   UNL     1       1.783   2.395  -0.106  0.00  0.00    -0.011 C 
ATOM     13  C   UNL     1       0.745   1.513   0.252  0.00  0.00    +0.105 C 
ATOM     14  C   UNL     1       0.991   0.285   1.012  0.00  0.00    +0.344 C 
ATOM     15  C   UNL     1       1.424   3.553  -0.821  0.00  0.00    -0.004 C 
ATOM     16  C   UNL     1      -0.588   1.767  -0.096  0.00  0.00    +0.140 C 
ATOM     17  C   UNL     1       0.096   3.808  -1.175  0.00  0.00    +0.003 C 
ATOM     18  C   UNL     1      -0.908   2.916  -0.813  0.00  0.00    +0.037 C 
ENDROOT
BRANCH   7  19
ATOM     19  O   UNL     1       7.236  -0.428  -1.076  0.00  0.00    -0.384 OA
ATOM     20  H   UNL     1       7.562  -1.323  -1.259  0.00  0.00    +0.210 HD
ENDBRANCH   7  19
BRANCH  16  21
ATOM     21  O   UNL     1      -1.589   0.911   0.253  0.00  0.00    -0.505 OA
ATOM     22  H   UNL     1      -1.393   0.132   0.736  0.00  0.00    +0.292 HD
ENDBRANCH  16  21
BRANCH  11  23
ATOM     23  C   UNL     1       0.791  -3.036  -0.070  0.00  0.00    +0.071 C 
BRANCH  23  24
ATOM     24  C   UNL     1      -0.634  -2.862   0.359  0.00  0.00    -0.006 C 
ATOM     25  C   UNL     1      -1.639  -2.630  -0.493  0.00  0.00    +0.060 C 
BRANCH  25  27
ATOM     26  O   UNL     1      -3.903  -2.133  -2.176  0.00  0.00    -0.270 OA
ATOM     27  N   UNL     1      -2.930  -2.481  -0.088  0.00  0.00    -0.280 N 
ATOM     28  C   UNL     1      -3.986  -2.241  -0.957  0.00  0.00    +0.250 C 
ATOM     29  H   UNL     1      -3.126  -2.548   0.875  0.00  0.00    +0.155 HD
BRANCH  28  30
ATOM     30  C   UNL     1      -5.283  -2.124  -0.233  0.00  0.00    +0.058 C 
ATOM     31  C   UNL     1      -5.705  -0.930   0.206  0.00  0.00    +0.004 C 
BRANCH  31  32
ATOM     32  C   UNL     1      -4.947   0.286   0.010  0.00  0.00    -0.004 C 
ATOM     33  C   UNL     1      -5.358   1.487   0.445  0.00  0.00    -0.026 C 
BRANCH  33  34
ATOM     34  C   UNL     1      -6.647   1.706   1.182  0.00  0.00    +0.026 C 
ATOM     35  C   UNL     1      -7.790   2.004   0.225  0.00  0.00    +0.005 C 
ENDBRANCH  33  34
ENDBRANCH  31  32
ENDBRANCH  28  30
ENDBRANCH  25  27
ENDBRANCH  23  24
ENDBRANCH  11  23
TORSDOF 8
