REMARK  Name = 10739389
REMARK  4 active torsions:
REMARK  status: ('A' for Active; 'I' for Inactive)
REMARK    1  A    between atoms: C_9  and  O_25
REMARK    2  A    between atoms: C_11  and  O_27
REMARK    3  A    between atoms: C_14  and  O_29
REMARK    4  A    between atoms: C_16  and  O_31
REMARK                            x       y       z     vdW  Elec       q    Type
REMARK                         _______ _______ _______ _____ _____    ______ ____
ROOT
ATOM      1  O   UNL     1      -1.279   1.605  -1.800  0.00  0.00    -0.332 OA
ATOM      2  O   UNL     1      -0.463  -2.794   0.135  0.00  0.00    -0.452 OA
ATOM      3  O   UNL     1      -1.488  -3.649   1.935  0.00  0.00    -0.250 OA
ATOM      4  O   UNL     1       4.385   1.799   1.410  0.00  0.00    -0.289 OA
ATOM      5  C   UNL     1      -1.033  -0.541  -0.800  0.00  0.00    +0.072 C 
ATOM      6  C   UNL     1      -0.204   0.491   0.005  0.00  0.00    +0.063 C 
ATOM      7  C   UNL     1       1.372   0.482  -0.242  0.00  0.00    +0.040 C 
ATOM      8  C   UNL     1      -2.436  -0.769  -0.130  0.00  0.00    +0.044 C 
ATOM      9  C   UNL     1      -1.024   1.747  -0.386  0.00  0.00    +0.211 C 
ATOM     10  C   UNL     1      -0.381  -1.905  -1.012  0.00  0.00    +0.172 C 
ATOM     11  C   UNL     1      -3.276   0.546   0.034  0.00  0.00    +0.118 C 
ATOM     12  C   UNL     1       1.868  -1.014  -0.282  0.00  0.00    +0.025 C 
ATOM     13  C   UNL     1      -1.223   0.207  -2.128  0.00  0.00    +0.148 C 
ATOM     14  C   UNL     1      -2.384   1.767   0.364  0.00  0.00    +0.186 C 
ATOM     15  C   UNL     1       1.110  -1.824  -1.353  0.00  0.00    +0.048 C 
ATOM     16  C   UNL     1       2.107   1.103   0.997  0.00  0.00    +0.172 C 
ATOM     17  C   UNL     1      -2.266  -1.533   1.183  0.00  0.00    +0.112 C 
ATOM     18  C   UNL     1       1.802   1.246  -1.527  0.00  0.00    +0.003 C 
ATOM     19  C   UNL     1       3.389  -1.137  -0.332  0.00  0.00    -0.041 C 
ATOM     20  C   UNL     1      -4.452   0.409   1.014  0.00  0.00    +0.032 C 
ATOM     21  C   UNL     1      -1.399  -2.752   1.099  0.00  0.00    +0.317 C 
ATOM     22  C   UNL     1       3.622   0.971   0.914  0.00  0.00    +0.199 C 
ATOM     23  C   UNL     1       4.189  -0.217   0.232  0.00  0.00    +0.031 C 
ATOM     24  C   UNL     1       4.003  -2.357  -0.961  0.00  0.00    +0.026 C 
ENDROOT
BRANCH   9  25
ATOM     25  O   UNL     1      -0.345   2.962  -0.117  0.00  0.00    -0.362 OA
ATOM     26  H   UNL     1       0.507   2.964  -0.580  0.00  0.00    +0.213 HD
ENDBRANCH   9  25
BRANCH  11  27
ATOM     27  O   UNL     1      -3.897   0.839  -1.235  0.00  0.00    -0.384 OA
ATOM     28  H   UNL     1      -3.213   0.941  -1.914  0.00  0.00    +0.210 HD
ENDBRANCH  11  27
BRANCH  14  29
ATOM     29  O   UNL     1      -2.112   1.850   1.764  0.00  0.00    -0.378 OA
ATOM     30  H   UNL     1      -1.552   2.623   1.939  0.00  0.00    +0.211 HD
ENDBRANCH  14  29
BRANCH  16  31
ATOM     31  O   UNL     1       1.816   2.470   1.220  0.00  0.00    -0.377 OA
ATOM     32  H   UNL     1       0.856   2.591   1.278  0.00  0.00    +0.211 HD
ENDBRANCH  16  31
TORSDOF 4
