REMARK  Name = 10735833
REMARK  9 active torsions:
REMARK  status: ('A' for Active; 'I' for Inactive)
REMARK    1  A    between atoms: C_1  and  O_2
REMARK    2  A    between atoms: C_1  and  C_4
REMARK    3  A    between atoms: C_1  and  C_14
REMARK    4  A    between atoms: C_4  and  C_6
REMARK    5  A    between atoms: C_6  and  O_8
REMARK    6  A    between atoms: C_7  and  C_11
REMARK    7  A    between atoms: C_11  and  O_12
REMARK    8  A    between atoms: C_15  and  C_18
REMARK    9  A    between atoms: C_20  and  C_22
REMARK                            x       y       z     vdW  Elec       q    Type
REMARK                         _______ _______ _______ _____ _____    ______ ____
ROOT
ATOM      1  C   UNL     1      -1.882   1.435   0.827  0.00  0.00    +0.144 C 
ENDROOT
BRANCH   1   2
ATOM      2  O   UNL     1      -2.121   1.907   2.151  0.00  0.00    -0.349 OA
ATOM      3  C   UNL     1      -1.342   3.058   2.438  0.00  0.00    +0.174 C 
ENDBRANCH   1   2
BRANCH   1   4
ATOM      4  C   UNL     1      -2.853   0.273   0.489  0.00  0.00    +0.088 C 
ATOM      5  C   UNL     1      -4.300   0.654   0.828  0.00  0.00    +0.011 C 
BRANCH   4   6
ATOM      6  C   UNL     1      -2.757  -0.195  -0.957  0.00  0.00    +0.125 C 
ATOM      7  C   UNL     1      -2.399  -1.454  -1.267  0.00  0.00    +0.114 C 
BRANCH   6   8
ATOM      8  O   UNL     1      -3.067   0.773  -1.891  0.00  0.00    -0.475 OA
ATOM      9  C   UNL     1      -1.970   1.011  -2.749  0.00  0.00    +0.252 C 
ENDBRANCH   6   8
BRANCH   7  11
ATOM     10  O   UNL     1      -2.864  -3.268   0.244  0.00  0.00    -0.245 OA
ATOM     11  C   UNL     1      -2.070  -2.490  -0.259  0.00  0.00    +0.344 C 
BRANCH  11  12
ATOM     12  O   UNL     1      -0.736  -2.407  -0.004  0.00  0.00    -0.441 OA
ATOM     13  C   UNL     1      -0.234  -3.340   0.958  0.00  0.00    +0.256 C 
ENDBRANCH  11  12
ENDBRANCH   7  11
ENDBRANCH   4   6
ENDBRANCH   1   4
BRANCH   1  14
ATOM     14  C   UNL     1      -0.435   1.053   0.601  0.00  0.00    +0.006 C 
ATOM     15  C   UNL     1       0.414   1.638  -0.263  0.00  0.00    +0.026 C 
BRANCH  15  18
ATOM     16  S   UNL     1       4.153   1.240  -1.347  0.00  0.00    -0.072 S 
ATOM     17  N   UNL     1       2.344   0.281   0.232  0.00  0.00    -0.396 NA
ATOM     18  C   UNL     1       1.798   1.303  -0.493  0.00  0.00    +0.121 C 
ATOM     19  C   UNL     1       2.592   1.948  -1.391  0.00  0.00    +0.123 C 
ATOM     20  C   UNL     1       3.599   0.154  -0.138  0.00  0.00    +0.191 C 
BRANCH  20  22
ATOM     21  O   UNL     1       5.683  -0.968   0.082  0.00  0.00    -0.288 OA
ATOM     22  C   UNL     1       4.478  -0.821   0.414  0.00  0.00    +0.209 C 
ATOM     23  C   UNL     1       3.972  -1.786   1.494  0.00  0.00    +0.081 C 
ENDBRANCH  20  22
ENDBRANCH  15  18
ENDBRANCH   1  14
TORSDOF 9
