REMARK  Name = 10733722
REMARK  5 active torsions:
REMARK  status: ('A' for Active; 'I' for Inactive)
REMARK    1  A    between atoms: C_13  and  C_27
REMARK    2  A    between atoms: C_14  and  O_18
REMARK    3  A    between atoms: C_15  and  O_20
REMARK    4  A    between atoms: C_16  and  O_22
REMARK    5  A    between atoms: C_17  and  O_24
REMARK                            x       y       z     vdW  Elec       q    Type
REMARK                         _______ _______ _______ _____ _____    ______ ____
ROOT
ATOM      1  O   UNL     1      -1.227   2.526   0.000  0.00  0.00    -0.450 OA
ATOM      2  C   UNL     1       0.751  -1.122  -0.001  0.00  0.00    +0.004 A 
ATOM      3  C   UNL     1       1.434   0.130  -0.001  0.00  0.00    +0.006 A 
ATOM      4  C   UNL     1      -0.686  -1.152  -0.001  0.00  0.00    +0.006 A 
ATOM      5  C   UNL     1       0.696   1.341  -0.001  0.00  0.00    +0.038 A 
ATOM      6  C   UNL     1      -1.415   0.065  -0.001  0.00  0.00    +0.038 A 
ATOM      7  C   UNL     1      -0.691   1.269  -0.001  0.00  0.00    +0.145 A 
ATOM      8  C   UNL     1       1.005   2.733   0.000  0.00  0.00    +0.044 C 
ATOM      9  C   UNL     1       1.567  -2.279   0.000  0.00  0.00    +0.040 C 
ATOM     10  C   UNL     1       2.844   0.192   0.000  0.00  0.00    +0.040 C 
ATOM     11  C   UNL     1      -1.466  -2.334   0.000  0.00  0.00    +0.040 C 
ATOM     12  C   UNL     1      -2.825   0.098   0.000  0.00  0.00    +0.043 C 
ATOM     13  C   UNL     1      -0.194   3.403   0.000  0.00  0.00    +0.187 C 
ATOM     14  C   UNL     1       2.964  -2.208   0.001  0.00  0.00    +0.167 C 
ATOM     15  C   UNL     1       3.601  -0.975   0.001  0.00  0.00    +0.167 C 
ATOM     16  C   UNL     1      -2.867  -2.304   0.000  0.00  0.00    +0.167 C 
ATOM     17  C   UNL     1      -3.544  -1.091   0.000  0.00  0.00    +0.168 C 
ENDROOT
BRANCH  14  18
ATOM     18  O   UNL     1       3.690  -3.361   0.001  0.00  0.00    -0.503 OA
ATOM     19  H   UNL     1       3.253  -4.190   0.001  0.00  0.00    +0.292 HD
ENDBRANCH  14  18
BRANCH  15  20
ATOM     20  O   UNL     1       4.960  -0.894   0.000  0.00  0.00    -0.503 OA
ATOM     21  H   UNL     1       5.380  -0.057   0.000  0.00  0.00    +0.292 HD
ENDBRANCH  15  20
BRANCH  16  22
ATOM     22  O   UNL     1      -3.557  -3.480   0.000  0.00  0.00    -0.503 OA
ATOM     23  H   UNL     1      -3.095  -4.295   0.000  0.00  0.00    +0.292 HD
ENDBRANCH  16  22
BRANCH  17  24
ATOM     24  O   UNL     1      -4.905  -1.054   0.001  0.00  0.00    -0.503 OA
ATOM     25  H   UNL     1      -5.351  -0.230   0.001  0.00  0.00    +0.292 HD
ENDBRANCH  17  24
BRANCH  13  27
ATOM     26  O   UNL     1       0.361   5.703   0.000  0.00  0.00    -0.280 OA
ATOM     27  C   UNL     1      -0.498   4.793   0.000  0.00  0.00    +0.271 C 
ENDBRANCH  13  27
TORSDOF 5
