REMARK  Name = 107352
REMARK  12 active torsions:
REMARK  status: ('A' for Active; 'I' for Inactive)
REMARK    1  A    between atoms: S_1  and  C_2
REMARK    2  A    between atoms: S_1  and  C_12
REMARK    3  A    between atoms: C_2  and  C_4
REMARK    4  A    between atoms: C_2  and  C_7
REMARK    5  A    between atoms: C_4  and  O_5
REMARK    6  A    between atoms: C_7  and  C_9
REMARK    7  A    between atoms: C_9  and  O_10
REMARK    8  A    between atoms: C_12  and  C_14
REMARK    9  A    between atoms: C_12  and  C_17
REMARK   10  A    between atoms: C_14  and  O_15
REMARK   11  A    between atoms: C_17  and  C_19
REMARK   12  A    between atoms: C_19  and  O_20
REMARK                            x       y       z     vdW  Elec       q    Type
REMARK                         _______ _______ _______ _____ _____    ______ ____
ROOT
ATOM      1  S   UNL     1      -0.501  -0.476   1.019  0.00  0.00    -0.119 S 
ENDROOT
BRANCH   1   2
ATOM      2  C   UNL     1      -1.529   0.530  -0.111  0.00  0.00    +0.158 C 
BRANCH   2   4
ATOM      3  O   UNL     1      -0.789   2.514   1.114  0.00  0.00    -0.249 OA
ATOM      4  C   UNL     1      -1.137   1.988   0.064  0.00  0.00    +0.324 C 
BRANCH   4   5
ATOM      5  O   UNL     1      -1.254   2.687  -1.097  0.00  0.00    -0.480 OA
ATOM      6  H   UNL     1      -1.523   2.251  -1.881  0.00  0.00    +0.295 HD
ENDBRANCH   4   5
ENDBRANCH   2   4
BRANCH   2   7
ATOM      7  C   UNL     1      -3.007   0.330   0.214  0.00  0.00    +0.131 C 
BRANCH   7   9
ATOM      8  O   UNL     1      -3.260  -1.793  -0.913  0.00  0.00    -0.250 OA
ATOM      9  C   UNL     1      -3.387  -1.128   0.108  0.00  0.00    +0.315 C 
BRANCH   9  10
ATOM     10  O   UNL     1      -3.911  -1.621   1.257  0.00  0.00    -0.480 OA
ATOM     11  H   UNL     1      -3.986  -1.071   2.011  0.00  0.00    +0.295 HD
ENDBRANCH   9  10
ENDBRANCH   7   9
ENDBRANCH   2   7
ENDBRANCH   1   2
BRANCH   1  12
ATOM     12  C   UNL     1       1.116  -0.025   0.353  0.00  0.00    +0.158 C 
BRANCH  12  14
ATOM     13  O   UNL     1       1.103  -1.590  -1.526  0.00  0.00    -0.249 OA
ATOM     14  C   UNL     1       1.159  -0.441  -1.108  0.00  0.00    +0.324 C 
BRANCH  14  15
ATOM     15  O   UNL     1       1.312   0.628  -1.934  0.00  0.00    -0.480 OA
ATOM     16  H   UNL     1       1.351   1.494  -1.578  0.00  0.00    +0.295 HD
ENDBRANCH  14  15
ENDBRANCH  12  14
BRANCH  12  17
ATOM     17  C   UNL     1       2.217  -0.729   1.143  0.00  0.00    +0.131 C 
BRANCH  17  19
ATOM     18  O   UNL     1       4.005   0.822   0.655  0.00  0.00    -0.250 OA
ATOM     19  C   UNL     1       3.582  -0.327   0.635  0.00  0.00    +0.315 C 
BRANCH  19  20
ATOM     20  O   UNL     1       4.283  -1.370   0.127  0.00  0.00    -0.480 OA
ATOM     21  H   UNL     1       3.914  -2.231   0.135  0.00  0.00    +0.295 HD
ENDBRANCH  19  20
ENDBRANCH  17  19
ENDBRANCH  12  17
ENDBRANCH   1  12
TORSDOF 12
