REMARK  Name = 10732876
REMARK  5 active torsions:
REMARK  status: ('A' for Active; 'I' for Inactive)
REMARK    1  A    between atoms: N_3  and  C1*_17
REMARK    2  A    between atoms: C_8  and  O_26
REMARK    3  A    between atoms: C3*_19  and  O3*_21
REMARK    4  A    between atoms: C4*_20  and  C5*_23
REMARK    5  A    between atoms: C5*_23  and  O5*_24
REMARK                            x       y       z     vdW  Elec       q    Type
REMARK                         _______ _______ _______ _____ _____    ______ ____
ROOT
ATOM      1  O   UNL     1      -0.087  -3.345   0.794  0.00  0.00    -0.193 OA
ATOM      2  O   UNL     1      -4.226  -0.647  -0.800  0.00  0.00    -0.267 OA
ATOM      3  N   UNL     1       0.133  -1.097   0.203  0.00  0.00    -0.159 N 
ATOM      4  N   UNL     1      -1.903  -2.047   0.193  0.00  0.00    -0.315 NA
ATOM      5  N   UNL     1      -0.769   1.175   0.451  0.00  0.00    -0.196 NA
ATOM      6  N   UNL     1      -3.104   1.232   0.043  0.00  0.00    -0.252 N 
ATOM      7  N   UNL     1      -2.049   3.004   1.140  0.00  0.00    -0.331 N 
ATOM      8  C   UNL     1      -0.703  -0.047  -0.343  0.00  0.00    +0.309 C 
ATOM      9  C   UNL     1      -1.969  -0.814  -0.181  0.00  0.00    +0.242 C 
ATOM     10  C   UNL     1      -0.564  -2.278   0.427  0.00  0.00    +0.274 C 
ATOM     11  C   UNL     1      -3.240  -0.076  -0.375  0.00  0.00    +0.284 C 
ATOM     12  C   UNL     1      -1.917   1.780   0.538  0.00  0.00    +0.184 C 
ATOM     13  H   UNL     1      -3.894   1.817  -0.011  0.00  0.00    +0.158 HD
ATOM     14  H   UNL     1      -1.258   3.456   1.515  0.00  0.00    +0.145 HD
ATOM     15  H   UNL     1      -2.934   3.432   1.198  0.00  0.00    +0.145 HD
ENDROOT
BRANCH   3  17
ATOM     16  O4* UNL     1       1.780   0.418   0.887  0.00  0.00    -0.334 OA
ATOM     17  C1* UNL     1       1.530  -0.935   0.481  0.00  0.00    +0.209 C 
ATOM     18  C2* UNL     1       2.409  -1.215  -0.727  0.00  0.00    +0.084 C 
ATOM     19  C3* UNL     1       3.562  -0.261  -0.521  0.00  0.00    +0.144 C 
ATOM     20  C4* UNL     1       2.904   0.937   0.150  0.00  0.00    +0.173 C 
BRANCH  19  21
ATOM     21  O3* UNL     1       4.518  -0.846   0.361  0.00  0.00    -0.382 OA
ATOM     22  H3* UNL     1       4.933  -1.608  -0.072  0.00  0.00    +0.210 HD
ENDBRANCH  19  21
BRANCH  20  23
ATOM     23  C5* UNL     1       2.377   1.960  -0.849  0.00  0.00    +0.169 C 
BRANCH  23  24
ATOM     24  O5* UNL     1       1.775   3.027  -0.136  0.00  0.00    -0.379 OA
ATOM     25  H5* UNL     1       1.436   3.685  -0.764  0.00  0.00    +0.211 HD
ENDBRANCH  23  24
ENDBRANCH  20  23
ENDBRANCH   3  17
BRANCH   8  26
ATOM     26  O   UNL     1      -0.456   0.075  -1.735  0.00  0.00    -0.347 OA
ATOM     27  H   UNL     1       0.365   0.571  -1.876  0.00  0.00    +0.214 HD
ENDBRANCH   8  26
TORSDOF 5
