REMARK  Name = 10739390
REMARK  9 active torsions:
REMARK  status: ('A' for Active; 'I' for Inactive)
REMARK    1  A    between atoms: C_8  and  C_20
REMARK    2  A    between atoms: C_9  and  O_17
REMARK    3  A    between atoms: C_10  and  O_21
REMARK    4  A    between atoms: O_21  and  C_23
REMARK    5  A    between atoms: C_23  and  C_24
REMARK    6  A    between atoms: C_24  and  C_26
REMARK    7  A    between atoms: C_26  and  O_27
REMARK    8  A    between atoms: C_26  and  C_29
REMARK    9  A    between atoms: C_29  and  O_30
REMARK                            x       y       z     vdW  Elec       q    Type
REMARK                         _______ _______ _______ _____ _____    ______ ____
ROOT
ATOM      1  O   UNL     1       2.458   2.405  -0.423  0.00  0.00    -0.449 OA
ATOM      2  O   UNL     1       1.872   4.641  -0.333  0.00  0.00    -0.245 OA
ATOM      3  C   UNL     1       1.494  -1.294   0.080  0.00  0.00    +0.032 C 
ATOM      4  C   UNL     1       2.316  -0.094  -0.507  0.00  0.00    +0.050 C 
ATOM      5  C   UNL     1       1.811   1.230   0.074  0.00  0.00    +0.177 C 
ATOM      6  C   UNL     1      -0.027  -1.036  -0.172  0.00  0.00    +0.047 C 
ATOM      7  C   UNL     1       0.356   1.432  -0.309  0.00  0.00    +0.109 C 
ATOM      8  C   UNL     1       3.845  -0.276  -0.470  0.00  0.00    +0.069 C 
ATOM      9  C   UNL     1       1.943  -2.579  -0.670  0.00  0.00    +0.111 C 
ATOM     10  C   UNL     1      -0.524   0.349   0.302  0.00  0.00    +0.177 C 
ATOM     11  C   UNL     1       4.265  -1.614  -1.089  0.00  0.00    +0.010 C 
ATOM     12  C   UNL     1       3.456  -2.811  -0.591  0.00  0.00    +0.030 C 
ATOM     13  C   UNL     1       1.666  -1.487   1.609  0.00  0.00    +0.003 C 
ATOM     14  C   UNL     1       0.260   2.868   0.060  0.00  0.00    +0.060 C 
ATOM     15  C   UNL     1       1.595   3.460  -0.237  0.00  0.00    +0.337 C 
ATOM     16  C   UNL     1      -0.739   3.573   0.592  0.00  0.00    +0.002 C 
ENDROOT
BRANCH   9  17
ATOM     17  O   UNL     1       1.268  -3.723  -0.149  0.00  0.00    -0.384 OA
ATOM     18  H   UNL     1       0.309  -3.582  -0.196  0.00  0.00    +0.210 HD
ENDBRANCH   9  17
BRANCH   8  20
ATOM     19  O   UNL     1       5.109  -0.961   1.459  0.00  0.00    -0.288 OA
ATOM     20  C   UNL     1       4.448  -0.096   0.894  0.00  0.00    +0.207 C 
ENDBRANCH   8  20
BRANCH  10  21
ATOM     21  O   UNL     1      -1.863   0.525  -0.152  0.00  0.00    -0.449 OA
BRANCH  21  23
ATOM     22  O   UNL     1      -2.712  -0.982   1.360  0.00  0.00    -0.245 OA
ATOM     23  C   UNL     1      -2.770  -0.391   0.290  0.00  0.00    +0.339 C 
BRANCH  23  24
ATOM     24  C   UNL     1      -3.854  -0.623  -0.712  0.00  0.00    +0.082 C 
ATOM     25  C   UNL     1      -3.619  -0.467  -2.025  0.00  0.00    +0.005 C 
BRANCH  24  26
ATOM     26  C   UNL     1      -5.224  -1.017  -0.209  0.00  0.00    +0.168 C 
BRANCH  26  27
ATOM     27  O   UNL     1      -5.144  -2.296   0.421  0.00  0.00    -0.377 OA
ATOM     28  H   UNL     1      -4.776  -2.941  -0.202  0.00  0.00    +0.211 HD
ENDBRANCH  26  27
BRANCH  26  29
ATOM     29  C   UNL     1      -5.805  -0.002   0.775  0.00  0.00    +0.171 C 
BRANCH  29  30
ATOM     30  O   UNL     1      -5.881   1.266   0.130  0.00  0.00    -0.379 OA
ATOM     31  H   UNL     1      -6.249   1.920   0.745  0.00  0.00    +0.211 HD
ENDBRANCH  29  30
ENDBRANCH  26  29
ENDBRANCH  24  26
ENDBRANCH  23  24
ENDBRANCH  21  23
ENDBRANCH  10  21
TORSDOF 9
