10739390
  -OEChem-03292013303D

 54 56  0     1  0  0  0  0  0999 V2000
    2.4584    2.4053   -0.4235 O   0  0  0  0  0  0  0  0  0  0  0  0
   -1.8635    0.5255   -0.1523 O   0  0  0  0  0  0  0  0  0  0  0  0
    1.2680   -3.7227   -0.1492 O   0  0  0  0  0  0  0  0  0  0  0  0
    5.1090   -0.9608    1.4594 O   0  0  0  0  0  0  0  0  0  0  0  0
    1.8723    4.6408   -0.3325 O   0  0  0  0  0  0  0  0  0  0  0  0
   -2.7117   -0.9822    1.3604 O   0  0  0  0  0  0  0  0  0  0  0  0
   -5.1443   -2.2961    0.4214 O   0  0  0  0  0  0  0  0  0  0  0  0
   -5.8813    1.2664    0.1303 O   0  0  0  0  0  0  0  0  0  0  0  0
    1.4935   -1.2940    0.0802 C   0  0  1  0  0  0  0  0  0  0  0  0
    2.3164   -0.0941   -0.5066 C   0  0  1  0  0  0  0  0  0  0  0  0
    1.8113    1.2300    0.0741 C   0  0  2  0  0  0  0  0  0  0  0  0
   -0.0274   -1.0360   -0.1720 C   0  0  0  0  0  0  0  0  0  0  0  0
    0.3561    1.4318   -0.3088 C   0  0  1  0  0  0  0  0  0  0  0  0
    3.8453   -0.2755   -0.4696 C   0  0  2  0  0  0  0  0  0  0  0  0
    1.9427   -2.5795   -0.6700 C   0  0  1  0  0  0  0  0  0  0  0  0
   -0.5239    0.3489    0.3018 C   0  0  1  0  0  0  0  0  0  0  0  0
    4.2648   -1.6139   -1.0892 C   0  0  0  0  0  0  0  0  0  0  0  0
    3.4563   -2.8108   -0.5914 C   0  0  0  0  0  0  0  0  0  0  0  0
    1.6661   -1.4873    1.6094 C   0  0  0  0  0  0  0  0  0  0  0  0
    0.2602    2.8681    0.0599 C   0  0  0  0  0  0  0  0  0  0  0  0
    4.4477   -0.0964    0.8937 C   0  0  0  0  0  0  0  0  0  0  0  0
    1.5946    3.4596   -0.2375 C   0  0  0  0  0  0  0  0  0  0  0  0
   -0.7386    3.5727    0.5922 C   0  0  0  0  0  0  0  0  0  0  0  0
   -2.7697   -0.3913    0.2901 C   0  0  0  0  0  0  0  0  0  0  0  0
   -3.8544   -0.6226   -0.7118 C   0  0  0  0  0  0  0  0  0  0  0  0
   -5.2242   -1.0171   -0.2090 C   0  0  2  0  0  0  0  0  0  0  0  0
   -3.6192   -0.4669   -2.0248 C   0  0  0  0  0  0  0  0  0  0  0  0
   -5.8046   -0.0019    0.7753 C   0  0  0  0  0  0  0  0  0  0  0  0
    2.0865   -0.0564   -1.5847 H   0  0  0  0  0  0  0  0  0  0  0  0
    1.9509    1.2370    1.1635 H   0  0  0  0  0  0  0  0  0  0  0  0
   -0.6122   -1.8393    0.2911 H   0  0  0  0  0  0  0  0  0  0  0  0
   -0.2332   -1.1250   -1.2487 H   0  0  0  0  0  0  0  0  0  0  0  0
    0.2350    1.4011   -1.4033 H   0  0  0  0  0  0  0  0  0  0  0  0
    4.3027    0.5181   -1.0765 H   0  0  0  0  0  0  0  0  0  0  0  0
    1.6574   -2.4970   -1.7269 H   0  0  0  0  0  0  0  0  0  0  0  0
   -0.5087    0.4231    1.3961 H   0  0  0  0  0  0  0  0  0  0  0  0
    5.3337   -1.8053   -0.9355 H   0  0  0  0  0  0  0  0  0  0  0  0
    4.1252   -1.5435   -2.1764 H   0  0  0  0  0  0  0  0  0  0  0  0
    3.7163   -3.6934   -1.1899 H   0  0  0  0  0  0  0  0  0  0  0  0
    3.7502   -3.0745    0.4309 H   0  0  0  0  0  0  0  0  0  0  0  0
    1.4296   -0.5844    2.1781 H   0  0  0  0  0  0  0  0  0  0  0  0
    0.9973   -2.2724    1.9821 H   0  0  0  0  0  0  0  0  0  0  0  0
    2.6771   -1.7875    1.8875 H   0  0  0  0  0  0  0  0  0  0  0  0
    4.2931    0.8862    1.3696 H   0  0  0  0  0  0  0  0  0  0  0  0
    1.5587   -4.4952   -0.6632 H   0  0  0  0  0  0  0  0  0  0  0  0
   -1.6933    3.1101    0.8159 H   0  0  0  0  0  0  0  0  0  0  0  0
   -0.6307    4.6279    0.8197 H   0  0  0  0  0  0  0  0  0  0  0  0
   -5.9130   -1.1189   -1.0572 H   0  0  0  0  0  0  0  0  0  0  0  0
   -4.4040   -0.6256   -2.7577 H   0  0  0  0  0  0  0  0  0  0  0  0
   -2.6448   -0.1898   -2.4126 H   0  0  0  0  0  0  0  0  0  0  0  0
   -5.1964    0.0963    1.6802 H   0  0  0  0  0  0  0  0  0  0  0  0
   -6.8086   -0.2979    1.0987 H   0  0  0  0  0  0  0  0  0  0  0  0
   -6.0396   -2.5328    0.7181 H   0  0  0  0  0  0  0  0  0  0  0  0
   -6.4656    1.1677   -0.6407 H   0  0  0  0  0  0  0  0  0  0  0  0
  1 11  1  0  0  0  0
  1 22  1  0  0  0  0
  2 16  1  0  0  0  0
  2 24  1  0  0  0  0
  3 15  1  0  0  0  0
  3 45  1  0  0  0  0
  4 21  2  0  0  0  0
  5 22  2  0  0  0  0
  6 24  2  0  0  0  0
  7 26  1  0  0  0  0
  7 53  1  0  0  0  0
  8 28  1  0  0  0  0
  8 54  1  0  0  0  0
  9 10  1  0  0  0  0
  9 12  1  0  0  0  0
  9 15  1  0  0  0  0
  9 19  1  0  0  0  0
 10 11  1  0  0  0  0
 10 14  1  0  0  0  0
 10 29  1  0  0  0  0
 11 13  1  0  0  0  0
 11 30  1  0  0  0  0
 12 16  1  0  0  0  0
 12 31  1  0  0  0  0
 12 32  1  0  0  0  0
 13 16  1  0  0  0  0
 13 20  1  0  0  0  0
 13 33  1  0  0  0  0
 14 17  1  0  0  0  0
 14 21  1  0  0  0  0
 14 34  1  0  0  0  0
 15 18  1  0  0  0  0
 15 35  1  0  0  0  0
 16 36  1  0  0  0  0
 17 18  1  0  0  0  0
 17 37  1  0  0  0  0
 17 38  1  0  0  0  0
 18 39  1  0  0  0  0
 18 40  1  0  0  0  0
 19 41  1  0  0  0  0
 19 42  1  0  0  0  0
 19 43  1  0  0  0  0
 20 22  1  0  0  0  0
 20 23  2  0  0  0  0
 21 44  1  0  0  0  0
 23 46  1  0  0  0  0
 23 47  1  0  0  0  0
 24 25  1  0  0  0  0
 25 26  1  0  0  0  0
 25 27  2  0  0  0  0
 26 28  1  0  0  0  0
 26 48  1  0  0  0  0
 27 49  1  0  0  0  0
 27 50  1  0  0  0  0
 28 51  1  0  0  0  0
 28 52  1  0  0  0  0
M  END
> <PUBCHEM_COMPOUND_CID>
10739390

> <PUBCHEM_CONFORMER_RMSD>
0.8

> <PUBCHEM_CONFORMER_DIVERSEORDER>
1
51
60
24
40
48
7
34
27
32
49
19
33
43
52
2
38
23
26
61
36
47
46
39
20
28
9
42
54
15
18
59
37
10
30
14
56
12
58
31
29
17
8
45
21
35
25
16
50
6
22
4
44
5
57
55
41
53
13
11
3

> <PUBCHEM_MMFF94_PARTIAL_CHARGES>
30
1 -0.43
11 0.28
13 0.14
14 0.06
15 0.28
16 0.28
2 -0.43
20 -0.12
21 0.45
22 0.71
23 -0.3
24 0.71
25 -0.12
26 0.42
27 -0.3
28 0.28
3 -0.68
4 -0.57
44 0.06
45 0.4
46 0.15
47 0.15
49 0.15
5 -0.57
50 0.15
53 0.4
54 0.4
6 -0.57
7 -0.68
8 -0.68

> <PUBCHEM_EFFECTIVE_ROTOR_COUNT>
7.4

> <PUBCHEM_PHARMACOPHORE_FEATURES>
13
1 27 hydrophobe
1 3 acceptor
1 3 donor
1 4 acceptor
1 5 acceptor
1 6 acceptor
1 7 acceptor
1 7 donor
1 8 acceptor
1 8 donor
5 1 11 13 20 22 rings
6 9 10 11 12 13 16 rings
6 9 10 14 15 17 18 rings

> <PUBCHEM_HEAVY_ATOM_COUNT>
28

> <PUBCHEM_ATOM_DEF_STEREO_COUNT>
8

> <PUBCHEM_ATOM_UDEF_STEREO_COUNT>
0

> <PUBCHEM_BOND_DEF_STEREO_COUNT>
0

> <PUBCHEM_BOND_UDEF_STEREO_COUNT>
0

> <PUBCHEM_ISOTOPIC_ATOM_COUNT>
0

> <PUBCHEM_COMPONENT_COUNT>
1

> <PUBCHEM_CACTVS_TAUTO_COUNT>
2

> <PUBCHEM_CONFORMER_ID>
00A3DEBE00000001

> <PUBCHEM_MMFF94_ENERGY>
83.3797

> <PUBCHEM_FEATURE_SELFOVERLAP>
66.065

> <PUBCHEM_SHAPE_FINGERPRINT>
10411042 1 18266745684149488142
10906281 52 18335718143001353104
1100329 8 18267018534647109034
11135609 187 18265625453705426140
11578080 2 17416100820791338936
12107183 9 18198919020062037401
12236239 1 17632578245341596015
12553582 1 18339637845903651791
12788726 201 17973165023980995233
12895836 83 11527081530514330642
13004483 165 18124587596484574359
13009979 54 17702685279522817755
13140716 1 18266735973238617658
13533116 47 18270116967906027743
13690498 29 17767982934762050806
13782708 43 17749393710978109963
138480 1 18411422821034614924
13911987 19 18189640357024910454
140371 6 18410584954508481299
14178342 30 18049435951567892528
14790565 3 17689441902648883348
14863182 85 18412268320302780782
14955137 171 18411982481385744910
15042514 8 17907864993942235812
15081414 286 18413110537086478598
15250474 111 17986385801598563127
15664445 248 18270977773139586268
15927050 60 17835805575213276140
1601671 61 18412543193455340271
16087824 20 17906741298203994257
17492 54 18115889523828299932
17818456 19 17702956820905207345
17844677 252 18340216267056909611
1813 80 18130519543130667135
18393751 57 18127950075764055242
18681886 176 18342454893457260218
18785283 64 18190743226694625805
20645477 70 18335983180985033077
21197605 99 17687472673134045035
21478907 32 18122629353179236533
21703447 108 18123176910719826122
221357 26 18335416842909161549
23419403 2 17824512323733432212
23559900 14 18411134749625960475
24771293 8 18129368445336656792
3680242 22 18333731286492722498
46194498 28 17822575005598327637
463206 1 18411418440389707695
5104073 3 18337678637053657777
6443956 14 18410016528461513501
7495541 125 18041279962685190035
9709674 26 18263369238844208395

> <PUBCHEM_SHAPE_MULTIPOLES>
529.27
10.71
4.34
1.17
13.45
4.15
0
-5.44
-0.8
-3.09
0.38
0.03
-0.42
-0.01

> <PUBCHEM_SHAPE_SELFOVERLAP>
1120.877

> <PUBCHEM_SHAPE_VOLUME>
292.1

> <PUBCHEM_COORDINATE_TYPE>
2
5
10

$$$$
