10733722
  -OEChem-03292013303D

 33 36  0     0  0  0  0  0  0999 V2000
   -1.2271    2.5262    0.0002 O   0  0  0  0  0  0  0  0  0  0  0  0
    3.6904   -3.3609    0.0008 O   0  0  0  0  0  0  0  0  0  0  0  0
    4.9605   -0.8944    0.0000 O   0  0  0  0  0  0  0  0  0  0  0  0
   -3.5570   -3.4797   -0.0004 O   0  0  0  0  0  0  0  0  0  0  0  0
   -4.9049   -1.0539    0.0012 O   0  0  0  0  0  0  0  0  0  0  0  0
    0.3611    5.7031    0.0001 O   0  0  0  0  0  0  0  0  0  0  0  0
    0.7512   -1.1218   -0.0006 C   0  0  0  0  0  0  0  0  0  0  0  0
    1.4342    0.1295   -0.0005 C   0  0  0  0  0  0  0  0  0  0  0  0
   -0.6857   -1.1520   -0.0007 C   0  0  0  0  0  0  0  0  0  0  0  0
    0.6961    1.3410   -0.0005 C   0  0  0  0  0  0  0  0  0  0  0  0
   -1.4153    0.0645   -0.0005 C   0  0  0  0  0  0  0  0  0  0  0  0
   -0.6914    1.2694   -0.0005 C   0  0  0  0  0  0  0  0  0  0  0  0
    1.0051    2.7334    0.0000 C   0  0  0  0  0  0  0  0  0  0  0  0
    1.5667   -2.2794   -0.0002 C   0  0  0  0  0  0  0  0  0  0  0  0
    2.8444    0.1920   -0.0002 C   0  0  0  0  0  0  0  0  0  0  0  0
   -1.4660   -2.3341   -0.0003 C   0  0  0  0  0  0  0  0  0  0  0  0
   -2.8248    0.0982   -0.0001 C   0  0  0  0  0  0  0  0  0  0  0  0
   -0.1939    3.4031    0.0004 C   0  0  0  0  0  0  0  0  0  0  0  0
    2.9640   -2.2076    0.0005 C   0  0  0  0  0  0  0  0  0  0  0  0
    3.6012   -0.9747    0.0006 C   0  0  0  0  0  0  0  0  0  0  0  0
   -2.8666   -2.3041    0.0002 C   0  0  0  0  0  0  0  0  0  0  0  0
   -3.5440   -1.0909    0.0003 C   0  0  0  0  0  0  0  0  0  0  0  0
   -0.4982    4.7930    0.0002 C   0  0  0  0  0  0  0  0  0  0  0  0
    1.9860    3.1885    0.0000 H   0  0  0  0  0  0  0  0  0  0  0  0
    1.1232   -3.2723   -0.0003 H   0  0  0  0  0  0  0  0  0  0  0  0
    3.3539    1.1533   -0.0004 H   0  0  0  0  0  0  0  0  0  0  0  0
   -0.9838   -3.3088   -0.0005 H   0  0  0  0  0  0  0  0  0  0  0  0
   -3.3614    1.0443    0.0002 H   0  0  0  0  0  0  0  0  0  0  0  0
   -1.5679    5.0631    0.0003 H   0  0  0  0  0  0  0  0  0  0  0  0
    4.6351   -3.1279    0.0012 H   0  0  0  0  0  0  0  0  0  0  0  0
    5.2241    0.0418   -0.0001 H   0  0  0  0  0  0  0  0  0  0  0  0
   -2.9268   -4.2203   -0.0007 H   0  0  0  0  0  0  0  0  0  0  0  0
   -5.2360   -1.9688    0.0016 H   0  0  0  0  0  0  0  0  0  0  0  0
  1 12  1  0  0  0  0
  1 18  1  0  0  0  0
  2 19  1  0  0  0  0
  2 30  1  0  0  0  0
  3 20  1  0  0  0  0
  3 31  1  0  0  0  0
  4 21  1  0  0  0  0
  4 32  1  0  0  0  0
  5 22  1  0  0  0  0
  5 33  1  0  0  0  0
  6 23  2  0  0  0  0
  7  8  1  0  0  0  0
  7  9  1  0  0  0  0
  7 14  2  0  0  0  0
  8 10  1  0  0  0  0
  8 15  2  0  0  0  0
  9 11  1  0  0  0  0
  9 16  2  0  0  0  0
 10 12  2  0  0  0  0
 10 13  1  0  0  0  0
 11 12  1  0  0  0  0
 11 17  2  0  0  0  0
 13 18  2  0  0  0  0
 13 24  1  0  0  0  0
 14 19  1  0  0  0  0
 14 25  1  0  0  0  0
 15 20  1  0  0  0  0
 15 26  1  0  0  0  0
 16 21  1  0  0  0  0
 16 27  1  0  0  0  0
 17 22  1  0  0  0  0
 17 28  1  0  0  0  0
 18 23  1  0  0  0  0
 19 20  2  0  0  0  0
 21 22  2  0  0  0  0
 23 29  1  0  0  0  0
M  END
> <PUBCHEM_COMPOUND_CID>
10733722

> <PUBCHEM_CONFORMER_RMSD>
0.6

> <PUBCHEM_CONFORMER_DIVERSEORDER>
1

> <PUBCHEM_MMFF94_PARTIAL_CHARGES>
28
1 -0.28
12 0.14
13 -0.15
14 -0.15
15 -0.15
16 -0.15
17 -0.15
18 0.05
19 0.08
2 -0.53
20 0.08
21 0.08
22 0.08
23 0.59
24 0.15
25 0.15
26 0.15
27 0.15
28 0.15
29 0.06
3 -0.53
30 0.45
31 0.45
32 0.45
33 0.45
4 -0.53
5 -0.53
6 -0.57

> <PUBCHEM_EFFECTIVE_ROTOR_COUNT>
1

> <PUBCHEM_PHARMACOPHORE_FEATURES>
10
1 1 acceptor
1 2 donor
1 3 donor
1 4 donor
1 5 donor
1 6 acceptor
5 1 10 12 13 18 rings
6 7 8 14 15 19 20 rings
6 7 8 9 10 11 12 rings
6 9 11 16 17 21 22 rings

> <PUBCHEM_HEAVY_ATOM_COUNT>
23

> <PUBCHEM_ATOM_DEF_STEREO_COUNT>
0

> <PUBCHEM_ATOM_UDEF_STEREO_COUNT>
0

> <PUBCHEM_BOND_DEF_STEREO_COUNT>
0

> <PUBCHEM_BOND_UDEF_STEREO_COUNT>
0

> <PUBCHEM_ISOTOPIC_ATOM_COUNT>
0

> <PUBCHEM_COMPONENT_COUNT>
1

> <PUBCHEM_CACTVS_TAUTO_COUNT>
306

> <PUBCHEM_CONFORMER_ID>
00A3C89A00000001

> <PUBCHEM_MMFF94_ENERGY>
59.5257

> <PUBCHEM_FEATURE_SELFOVERLAP>
50.895

> <PUBCHEM_SHAPE_FINGERPRINT>
10050765 1 18122344576597353130
10319926 262 15607075902817331433
10411042 1 18410575093280088838
10967382 1 18266740366684167142
1100329 8 18411423869576542297
11578080 2 17025957940205625636
116883 192 18268432334764918022
12173636 292 17905886972851122532
12553582 1 18410852170194204302
12788726 201 18261392183455708882
13004483 165 18338226064294131371
13140716 1 18409162199584749338
138480 1 14951810145646212832
14790565 3 17835527016029489401
14866123 147 17690278205684764019
15042514 8 18266180522050090803
15230672 131 17182500037156266604
15664445 248 18126589996347968476
16087824 20 18266462006419180285
16945 1 18410855421573851822
20510252 161 18126000469036692338
20600515 1 18272381857935778381
20775438 99 17405090513937212711
21029758 11 18410286995864214831
21049683 271 17971486327386807709
21267235 1 18410583889362671970
21478907 32 18266177236495184683
221490 88 18119533386498149203
2255824 54 17979356683083961463
2334 1 17978511158663203206
23366157 5 17827351399767645001
23557571 272 18200600181487917982
23558518 356 17973734575705715306
23559900 14 18194393622927149491
2748010 2 18268413789085155420
3071541 12 18050569843807518605
3091708 16 9209549526473909609
314173 41 18339652242634125423
335352 9 18410856581869318775
34934 24 18410848871648953346
350125 39 17690287014546136736
352729 6 17690558580980372498
4409770 3 18118111486003091293
458136 41 17472713888811105513
532947 4 17907587178779289020
5939293 188 18267018534472795346
6443956 14 18337390560037083173
7164475 11 18265056843015932206
7364860 26 18050567640394317763
81228 2 18261680251111967664
84936 182 17623859328512922721
9709674 26 17910953535506986638
9981440 41 17112690393828008328

> <PUBCHEM_SHAPE_MULTIPOLES>
438.11
6.48
6.09
0.59
0.17
9.62
0
-7.71
0
-0.07
0
0
0
0

> <PUBCHEM_SHAPE_SELFOVERLAP>
1008.389

> <PUBCHEM_SHAPE_VOLUME>
228.2

> <PUBCHEM_COORDINATE_TYPE>
2
5
10

$$$$
