REMARK  Name = 107461
REMARK  5 active torsions:
REMARK  status: ('A' for Active; 'I' for Inactive)
REMARK    1  A    between atoms: N_3  and  C1*_16
REMARK    2  A    between atoms: C2*_14  and  O2*_18
REMARK    3  A    between atoms: C3*_15  and  O3*_20
REMARK    4  A    between atoms: C4*_17  and  C5*_22
REMARK    5  A    between atoms: C5*_22  and  O5*_23
REMARK                            x       y       z     vdW  Elec       q    Type
REMARK                         _______ _______ _______ _____ _____    ______ ____
ROOT
ATOM      1  O   UNL     1       0.589   2.309   0.730  0.00  0.00    -0.193 OA
ATOM      2  O   UNL     1       4.762   1.076   0.159  0.00  0.00    -0.275 OA
ATOM      3  N   UNL     1      -0.205   0.183   0.290  0.00  0.00    -0.178 N 
ATOM      4  N   UNL     1       2.149   0.726   0.256  0.00  0.00    -0.305 NA
ATOM      5  N   UNL     1       3.665  -0.944  -0.235  0.00  0.00    -0.259 N 
ATOM      6  C   UNL     1       0.111  -1.132  -0.036  0.00  0.00    +0.083 C 
ATOM      7  C   UNL     1       0.838   1.138   0.441  0.00  0.00    +0.276 C 
ATOM      8  C   UNL     1       1.362  -1.554  -0.219  0.00  0.00    +0.066 C 
ATOM      9  C   UNL     1       2.381  -0.508  -0.046  0.00  0.00    +0.201 C 
ATOM     10  C   UNL     1       4.771  -0.120  -0.120  0.00  0.00    +0.228 C 
ATOM     11  C   UNL     1       6.050  -0.863  -0.403  0.00  0.00    +0.095 C 
ATOM     12  H   UNL     1       3.809  -1.890  -0.465  0.00  0.00    +0.157 HD
ENDROOT
BRANCH   3  16
ATOM     13  O4* UNL     1      -2.308  -0.539   1.012  0.00  0.00    -0.332 OA
ATOM     14  C2* UNL     1      -2.251   0.947  -0.834  0.00  0.00    +0.188 C 
ATOM     15  C3* UNL     1      -3.692   0.568  -0.561  0.00  0.00    +0.171 C 
ATOM     16  C1* UNL     1      -1.574   0.573   0.474  0.00  0.00    +0.236 C 
ATOM     17  C4* UNL     1      -3.537  -0.699   0.269  0.00  0.00    +0.175 C 
BRANCH  14  18
ATOM     18  O2* UNL     1      -2.107   2.316  -1.148  0.00  0.00    -0.378 OA
ATOM     19  H2* UNL     1      -2.554   2.504  -1.988  0.00  0.00    +0.211 HD
ENDBRANCH  14  18
BRANCH  15  20
ATOM     20  O3* UNL     1      -4.316   1.556   0.258  0.00  0.00    -0.379 OA
ATOM     21  H3* UNL     1      -4.426   2.375  -0.250  0.00  0.00    +0.211 HD
ENDBRANCH  15  20
BRANCH  17  22
ATOM     22  C5* UNL     1      -3.419  -1.961  -0.576  0.00  0.00    +0.169 C 
BRANCH  22  23
ATOM     23  O5* UNL     1      -3.269  -3.073   0.289  0.00  0.00    -0.379 OA
ATOM     24  H5* UNL     1      -3.193  -3.884  -0.238  0.00  0.00    +0.211 HD
ENDBRANCH  22  23
ENDBRANCH  17  22
ENDBRANCH   3  16
TORSDOF 5
