107496
  -OEChem-03292013323D

 42 44  0     1  0  0  0  0  0999 V2000
    0.4802    0.9641   -0.6006 S   0  0  1  0  0  0  0  0  0  0  0  0
    0.0690    1.5966   -1.8972 O   0  0  0  0  0  0  0  0  0  0  0  0
    2.3768   -2.5638    1.4016 O   0  0  0  0  0  0  0  0  0  0  0  0
    4.9238    1.3878    1.1094 O   0  0  0  0  0  0  0  0  0  0  0  0
    5.0448   -0.4867   -0.1819 O   0  0  0  0  0  0  0  0  0  0  0  0
   -1.8976   -1.6852   -1.6248 O   0  0  0  0  0  0  0  0  0  0  0  0
    2.4043   -0.8070   -0.1725 N   0  0  0  0  0  0  0  0  0  0  0  0
   -0.5443   -1.9255    0.2454 N   0  0  0  0  0  0  0  0  0  0  0  0
    1.2505   -0.6888   -1.0718 C   0  0  1  0  0  0  0  0  0  0  0  0
    2.2182    1.5941   -0.1645 C   0  0  0  0  0  0  0  0  0  0  0  0
    2.8964    0.3763    0.5012 C   0  0  2  0  0  0  0  0  0  0  0  0
    0.7338   -2.0034   -0.4673 C   0  0  1  0  0  0  0  0  0  0  0  0
    1.9762   -1.9471    0.4405 C   0  0  0  0  0  0  0  0  0  0  0  0
    2.9145    2.0787   -1.4456 C   0  0  0  0  0  0  0  0  0  0  0  0
    2.0611    2.7558    0.8196 C   0  0  0  0  0  0  0  0  0  0  0  0
    4.3889    0.3509    0.4196 C   0  0  0  0  0  0  0  0  0  0  0  0
   -1.7709   -1.7704   -0.4060 C   0  0  0  0  0  0  0  0  0  0  0  0
   -2.9331   -1.7168    0.5662 C   0  0  0  0  0  0  0  0  0  0  0  0
   -3.7147   -0.4319    0.4908 C   0  0  0  0  0  0  0  0  0  0  0  0
   -3.3468    0.6394    1.2927 C   0  0  0  0  0  0  0  0  0  0  0  0
   -4.7914   -0.3371   -0.3798 C   0  0  0  0  0  0  0  0  0  0  0  0
   -4.0705    1.8298    1.2229 C   0  0  0  0  0  0  0  0  0  0  0  0
   -5.5150    0.8534   -0.4495 C   0  0  0  0  0  0  0  0  0  0  0  0
   -5.1544    1.9368    0.3517 C   0  0  0  0  0  0  0  0  0  0  0  0
    1.5337   -0.7522   -2.1276 H   0  0  0  0  0  0  0  0  0  0  0  0
    2.6123    0.2834    1.5578 H   0  0  0  0  0  0  0  0  0  0  0  0
    0.7617   -2.8565   -1.1553 H   0  0  0  0  0  0  0  0  0  0  0  0
    3.0308    1.2749   -2.1803 H   0  0  0  0  0  0  0  0  0  0  0  0
    2.3463    2.8822   -1.9283 H   0  0  0  0  0  0  0  0  0  0  0  0
    3.9106    2.4808   -1.2317 H   0  0  0  0  0  0  0  0  0  0  0  0
    1.5438    2.4416    1.7334 H   0  0  0  0  0  0  0  0  0  0  0  0
    3.0304    3.1727    1.1100 H   0  0  0  0  0  0  0  0  0  0  0  0
    1.4721    3.5693    0.3798 H   0  0  0  0  0  0  0  0  0  0  0  0
   -0.5465   -1.9836    1.2610 H   0  0  0  0  0  0  0  0  0  0  0  0
    5.9039    1.3894    1.0672 H   0  0  0  0  0  0  0  0  0  0  0  0
   -3.5865   -2.5693    0.3394 H   0  0  0  0  0  0  0  0  0  0  0  0
   -2.5985   -1.8793    1.5980 H   0  0  0  0  0  0  0  0  0  0  0  0
   -2.5022    0.5668    1.9721 H   0  0  0  0  0  0  0  0  0  0  0  0
   -5.0793   -1.1741   -1.0095 H   0  0  0  0  0  0  0  0  0  0  0  0
   -3.7891    2.6737    1.8459 H   0  0  0  0  0  0  0  0  0  0  0  0
   -6.3587    0.9371   -1.1283 H   0  0  0  0  0  0  0  0  0  0  0  0
   -5.7176    2.8639    0.2968 H   0  0  0  0  0  0  0  0  0  0  0  0
  1  2  2  0  0  0  0
  1  9  1  0  0  0  0
  1 10  1  0  0  0  0
  3 13  2  0  0  0  0
  4 16  1  0  0  0  0
  4 35  1  0  0  0  0
  5 16  2  0  0  0  0
  6 17  2  0  0  0  0
  7  9  1  0  0  0  0
  7 11  1  0  0  0  0
  7 13  1  0  0  0  0
  8 12  1  0  0  0  0
  8 17  1  0  0  0  0
  8 34  1  0  0  0  0
  9 12  1  0  0  0  0
  9 25  1  0  0  0  0
 10 11  1  0  0  0  0
 10 14  1  0  0  0  0
 10 15  1  0  0  0  0
 11 16  1  0  0  0  0
 11 26  1  0  0  0  0
 12 13  1  0  0  0  0
 12 27  1  0  0  0  0
 14 28  1  0  0  0  0
 14 29  1  0  0  0  0
 14 30  1  0  0  0  0
 15 31  1  0  0  0  0
 15 32  1  0  0  0  0
 15 33  1  0  0  0  0
 17 18  1  0  0  0  0
 18 19  1  0  0  0  0
 18 36  1  0  0  0  0
 18 37  1  0  0  0  0
 19 20  2  0  0  0  0
 19 21  1  0  0  0  0
 20 22  1  0  0  0  0
 20 38  1  0  0  0  0
 21 23  2  0  0  0  0
 21 39  1  0  0  0  0
 22 24  2  0  0  0  0
 22 40  1  0  0  0  0
 23 24  1  0  0  0  0
 23 41  1  0  0  0  0
 24 42  1  0  0  0  0
M  END
> <PUBCHEM_COMPOUND_CID>
107496

> <PUBCHEM_CONFORMER_RMSD>
0.8

> <PUBCHEM_CONFORMER_DIVERSEORDER>
1
15
12
16
28
34
27
2
29
25
5
10
22
20
32
3
26
21
30
11
13
33
14
24
23
18
6
31
9
7
19
17
4
8

> <PUBCHEM_MMFF94_PARTIAL_CHARGES>
29
1 0.13
10 0.19
11 0.36
12 0.28
13 0.58
16 0.66
17 0.57
18 0.2
19 -0.14
2 -0.5
20 -0.15
21 -0.15
22 -0.15
23 -0.15
24 -0.15
3 -0.57
34 0.37
35 0.5
38 0.15
39 0.15
4 -0.65
40 0.15
41 0.15
42 0.15
5 -0.57
6 -0.57
7 -0.59
8 -0.65
9 0.4

> <PUBCHEM_EFFECTIVE_ROTOR_COUNT>
5.6

> <PUBCHEM_PHARMACOPHORE_FEATURES>
11
1 2 acceptor
1 3 acceptor
1 4 acceptor
1 5 acceptor
1 6 acceptor
1 8 donor
3 10 14 15 hydrophobe
3 4 5 16 anion
4 7 9 12 13 rings
6 19 20 21 22 23 24 rings
7 1 7 9 10 11 12 13 rings

> <PUBCHEM_HEAVY_ATOM_COUNT>
24

> <PUBCHEM_ATOM_DEF_STEREO_COUNT>
3

> <PUBCHEM_ATOM_UDEF_STEREO_COUNT>
1

> <PUBCHEM_BOND_DEF_STEREO_COUNT>
0

> <PUBCHEM_BOND_UDEF_STEREO_COUNT>
0

> <PUBCHEM_ISOTOPIC_ATOM_COUNT>
0

> <PUBCHEM_COMPONENT_COUNT>
1

> <PUBCHEM_CACTVS_TAUTO_COUNT>
2

> <PUBCHEM_CONFORMER_ID>
0001A3E800000001

> <PUBCHEM_MMFF94_ENERGY>
56.401

> <PUBCHEM_FEATURE_SELFOVERLAP>
59.508

> <PUBCHEM_SHAPE_FINGERPRINT>
10382601 240 18187082841064503602
10906281 52 18116155657572192948
11089746 13 18272644653825405742
11370993 70 18342174483938114721
11640471 11 18343589559645405375
12011746 2 18411704253367139988
12422481 6 18189876653192836954
12633257 1 17023179474148064586
13140716 1 18044368559957349770
13583140 156 18186527605283900363
14178342 30 18043251438589510139
14251764 38 18413111641531805753
14466204 15 18341045302644908544
14739800 52 17988060267190775250
14790565 3 18189344635631428052
15209294 21 18413105082419970646
15238133 3 18113910337808914982
15420108 30 18341878706594415626
15475509 8 18337126609460558972
1601671 61 18408045104597941382
17492 89 18413111654527964695
20511986 3 18340752776870007281
20715895 44 18051692136686190017
20739085 24 18261111812396485902
21298829 104 18340206264084254913
21304253 335 18411703179430228268
21421861 104 17604700059204875002
21503847 285 18334297591194961342
22749437 52 18412271640375420321
235170 7 15051740763676595081
23557571 272 16128655280244854191
23559900 14 17916311545494154583
2838139 119 18131628967764546953
351380 180 18201438095105048289
474 4 18334295379292254163
5895379 119 17488193586411242961
59755656 215 18271252621356467806
6328613 192 18337400439169116116
633830 44 18335984285166499798
653340 110 18195524792421962409
6669772 16 13182433557651759446
6786 2 13340145464818326927
7064713 232 18411700988891762841
9981440 41 18412548717395745875

> <PUBCHEM_SHAPE_MULTIPOLES>
458.45
10.97
2.93
1.33
6.58
0.06
-0.23
-4.62
1.99
-0.6
0.28
-0.12
-0.25
-0.8

> <PUBCHEM_SHAPE_SELFOVERLAP>
960.452

> <PUBCHEM_SHAPE_VOLUME>
260.1

> <PUBCHEM_COORDINATE_TYPE>
2
5
10

$$$$
