REMARK  Name = 107496
REMARK  5 active torsions:
REMARK  status: ('A' for Active; 'I' for Inactive)
REMARK    1  A    between atoms: CA_7  and  C_24
REMARK    2  A    between atoms: CA_8  and  N_13
REMARK    3  A    between atoms: C_14  and  C_16
REMARK    4  A    between atoms: C_16  and  C_17
REMARK    5  A    between atoms: C_24  and  O_25
REMARK                            x       y       z     vdW  Elec       q    Type
REMARK                         _______ _______ _______ _____ _____    ______ ____
ROOT
ATOM      1  S   UNL     1       0.480   0.964  -0.601  0.00  0.00    +0.062 S 
ATOM      2  O   UNL     1       0.069   1.597  -1.897  0.00  0.00    -0.254 OA
ATOM      3  O   UNL     1       2.377  -2.564   1.402  0.00  0.00    -0.273 OA
ATOM      4  N   UNL     1       2.404  -0.807  -0.172  0.00  0.00    -0.258 N 
ATOM      5  C   UNL     1       1.250  -0.689  -1.072  0.00  0.00    +0.182 C 
ATOM      6  C   UNL     1       2.218   1.594  -0.165  0.00  0.00    +0.097 C 
ATOM      7  CA  UNL     1       2.896   0.376   0.501  0.00  0.00    +0.187 C 
ATOM      8  CA  UNL     1       0.734  -2.003  -0.467  0.00  0.00    +0.180 C 
ATOM      9  C   UNL     1       1.976  -1.947   0.441  0.00  0.00    +0.247 C 
ATOM     10  C   UNL     1       2.914   2.079  -1.446  0.00  0.00    +0.016 C 
ATOM     11  C   UNL     1       2.061   2.756   0.820  0.00  0.00    +0.016 C 
ENDROOT
BRANCH   8  13
ATOM     12  O   UNL     1      -1.898  -1.685  -1.625  0.00  0.00    -0.275 OA
ATOM     13  N   UNL     1      -0.544  -1.925   0.245  0.00  0.00    -0.296 N 
ATOM     14  C   UNL     1      -1.771  -1.770  -0.406  0.00  0.00    +0.227 C 
ATOM     15  H   UNL     1      -0.539  -1.985   1.228  0.00  0.00    +0.150 HD
BRANCH  14  16
ATOM     16  C   UNL     1      -2.933  -1.717   0.566  0.00  0.00    +0.111 C 
BRANCH  16  17
ATOM     17  C   UNL     1      -3.715  -0.432   0.491  0.00  0.00    -0.013 C 
ATOM     18  C   UNL     1      -3.347   0.639   1.293  0.00  0.00    -0.004 C 
ATOM     19  C   UNL     1      -4.791  -0.337  -0.380  0.00  0.00    -0.004 C 
ATOM     20  C   UNL     1      -4.071   1.830   1.223  0.00  0.00    -0.000 C 
ATOM     21  C   UNL     1      -5.515   0.853  -0.450  0.00  0.00    -0.000 C 
ATOM     22  C   UNL     1      -5.154   1.937   0.352  0.00  0.00    -0.000 C 
ENDBRANCH  16  17
ENDBRANCH  14  16
ENDBRANCH   8  13
BRANCH   7  24
ATOM     23  OXT UNL     1       5.045  -0.487  -0.182  0.00  0.00    -0.248 OA
ATOM     24  C   UNL     1       4.389   0.351   0.420  0.00  0.00    +0.333 C 
BRANCH  24  25
ATOM     25  O   UNL     1       4.924   1.388   1.109  0.00  0.00    -0.479 OA
ATOM     26  H   UNL     1       4.364   1.996   1.550  0.00  0.00    +0.295 HD
ENDBRANCH  24  25
ENDBRANCH   7  24
TORSDOF 5
