REMARK  Name = 10741574
REMARK  9 active torsions:
REMARK  status: ('A' for Active; 'I' for Inactive)
REMARK    1  A    between atoms: C_2  and  O_10
REMARK    2  A    between atoms: C_3  and  O_8
REMARK    3  A    between atoms: C_5  and  O_22
REMARK    4  A    between atoms: O_10  and  C_12
REMARK    5  A    between atoms: C_14  and  O_18
REMARK    6  A    between atoms: C_15  and  O_20
REMARK    7  A    between atoms: O_22  and  C_24
REMARK    8  A    between atoms: C_25  and  O_30
REMARK    9  A    between atoms: C_28  and  O_32
REMARK                            x       y       z     vdW  Elec       q    Type
REMARK                         _______ _______ _______ _____ _____    ______ ____
ROOT
ATOM      1  O   UNL     1       1.274   0.098  -0.356  0.00  0.00    -0.330 OA
ATOM      2  C   UNL     1      -1.048  -0.534  -0.039  0.00  0.00    +0.172 C 
ATOM      3  C   UNL     1      -0.626  -1.648   0.923  0.00  0.00    +0.145 C 
ATOM      4  C   UNL     1       0.067  -0.235  -1.052  0.00  0.00    +0.147 C 
ATOM      5  C   UNL     1       1.754  -0.966   0.466  0.00  0.00    +0.238 C 
ATOM      6  C   UNL     1       0.726  -1.309   1.545  0.00  0.00    +0.093 C 
ATOM      7  C   UNL     1      -0.275   0.946  -1.954  0.00  0.00    +0.035 C 
ENDROOT
BRANCH   3   8
ATOM      8  O   UNL     1      -0.516  -2.878   0.205  0.00  0.00    -0.382 OA
ATOM      9  H   UNL     1      -1.373  -3.098  -0.192  0.00  0.00    +0.210 HD
ENDBRANCH   3   8
BRANCH   2  10
ATOM     10  O   UNL     1      -2.252  -0.920  -0.692  0.00  0.00    -0.328 OA
BRANCH  10  12
ATOM     11  O   UNL     1      -3.570  -0.027   1.025  0.00  0.00    -0.330 OA
ATOM     12  C   UNL     1      -3.322  -0.034  -0.380  0.00  0.00    +0.238 C 
ATOM     13  C   UNL     1      -4.562  -0.518  -1.122  0.00  0.00    +0.093 C 
ATOM     14  C   UNL     1      -5.773   0.345  -0.784  0.00  0.00    +0.149 C 
ATOM     15  C   UNL     1      -5.935   0.472   0.732  0.00  0.00    +0.165 C 
ATOM     16  C   UNL     1      -4.612   0.882   1.392  0.00  0.00    +0.147 C 
ATOM     17  C   UNL     1      -4.717   0.874   2.914  0.00  0.00    +0.035 C 
BRANCH  14  18
ATOM     18  O   UNL     1      -6.947  -0.252  -1.327  0.00  0.00    -0.351 OA
ATOM     19  C   UNL     1      -7.078   0.031  -2.713  0.00  0.00    +0.174 C 
ENDBRANCH  14  18
BRANCH  15  20
ATOM     20  O   UNL     1      -6.947   1.432   1.022  0.00  0.00    -0.380 OA
ATOM     21  H   UNL     1      -7.778   1.163   0.601  0.00  0.00    +0.211 HD
ENDBRANCH  15  20
ENDBRANCH  10  12
ENDBRANCH   2  10
BRANCH   5  22
ATOM     22  O   UNL     1       2.960  -0.581   1.119  0.00  0.00    -0.328 OA
BRANCH  22  24
ATOM     23  O   UNL     1       6.251  -0.768  -0.515  0.00  0.00    -0.331 OA
ATOM     24  C   UNL     1       3.977  -0.244   0.179  0.00  0.00    +0.172 C 
ATOM     25  C   UNL     1       4.371   1.223   0.359  0.00  0.00    +0.150 C 
ATOM     26  C   UNL     1       5.191  -1.164   0.360  0.00  0.00    +0.147 C 
ATOM     27  C   UNL     1       5.594   1.556  -0.488  0.00  0.00    +0.093 C 
ATOM     28  C   UNL     1       6.716   0.554  -0.246  0.00  0.00    +0.234 C 
ATOM     29  C   UNL     1       4.848  -2.616   0.044  0.00  0.00    +0.035 C 
BRANCH  25  30
ATOM     30  O   UNL     1       3.279   2.049  -0.037  0.00  0.00    -0.351 OA
ATOM     31  C   UNL     1       3.376   3.345   0.534  0.00  0.00    +0.174 C 
ENDBRANCH  25  30
BRANCH  28  32
ATOM     32  O   UNL     1       7.795   0.887  -1.113  0.00  0.00    -0.360 OA
ATOM     33  H   UNL     1       8.524   0.261  -0.978  0.00  0.00    +0.213 HD
ENDBRANCH  28  32
ENDBRANCH  22  24
ENDBRANCH   5  22
TORSDOF 9
