10741574
  -OEChem-03292013303D

 66 68  0     1  0  0  0  0  0999 V2000
    1.2743    0.0984   -0.3561 O   0  0  0  0  0  0  0  0  0  0  0  0
   -2.2515   -0.9203   -0.6915 O   0  0  0  0  0  0  0  0  0  0  0  0
    2.9602   -0.5812    1.1193 O   0  0  0  0  0  0  0  0  0  0  0  0
   -3.5696   -0.0269    1.0254 O   0  0  0  0  0  0  0  0  0  0  0  0
    6.2508   -0.7684   -0.5155 O   0  0  0  0  0  0  0  0  0  0  0  0
   -0.5163   -2.8781    0.2053 O   0  0  0  0  0  0  0  0  0  0  0  0
    3.2792    2.0486   -0.0374 O   0  0  0  0  0  0  0  0  0  0  0  0
   -6.9472   -0.2515   -1.3275 O   0  0  0  0  0  0  0  0  0  0  0  0
   -6.9469    1.4323    1.0220 O   0  0  0  0  0  0  0  0  0  0  0  0
    7.7952    0.8872   -1.1134 O   0  0  0  0  0  0  0  0  0  0  0  0
   -1.0485   -0.5345   -0.0393 C   0  0  1  0  0  0  0  0  0  0  0  0
   -0.6256   -1.6481    0.9229 C   0  0  2  0  0  0  0  0  0  0  0  0
    0.0668   -0.2354   -1.0519 C   0  0  1  0  0  0  0  0  0  0  0  0
    1.7544   -0.9659    0.4655 C   0  0  1  0  0  0  0  0  0  0  0  0
    0.7255   -1.3090    1.5451 C   0  0  0  0  0  0  0  0  0  0  0  0
    3.9766   -0.2442    0.1787 C   0  0  1  0  0  0  0  0  0  0  0  0
    4.3707    1.2230    0.3591 C   0  0  1  0  0  0  0  0  0  0  0  0
   -3.3217   -0.0341   -0.3803 C   0  0  2  0  0  0  0  0  0  0  0  0
    5.1911   -1.1638    0.3605 C   0  0  1  0  0  0  0  0  0  0  0  0
   -4.5621   -0.5176   -1.1222 C   0  0  0  0  0  0  0  0  0  0  0  0
   -5.7728    0.3446   -0.7837 C   0  0  2  0  0  0  0  0  0  0  0  0
   -5.9348    0.4716    0.7322 C   0  0  1  0  0  0  0  0  0  0  0  0
   -4.6121    0.8821    1.3920 C   0  0  1  0  0  0  0  0  0  0  0  0
    5.5936    1.5565   -0.4876 C   0  0  0  0  0  0  0  0  0  0  0  0
    6.7159    0.5542   -0.2464 C   0  0  1  0  0  0  0  0  0  0  0  0
   -0.2745    0.9461   -1.9542 C   0  0  0  0  0  0  0  0  0  0  0  0
    4.8484   -2.6161    0.0440 C   0  0  0  0  0  0  0  0  0  0  0  0
   -4.7170    0.8744    2.9137 C   0  0  0  0  0  0  0  0  0  0  0  0
    3.3759    3.3448    0.5341 C   0  0  0  0  0  0  0  0  0  0  0  0
   -7.0778    0.0312   -2.7128 C   0  0  0  0  0  0  0  0  0  0  0  0
   -1.1877    0.3742    0.5656 H   0  0  0  0  0  0  0  0  0  0  0  0
   -1.3876   -1.7944    1.6961 H   0  0  0  0  0  0  0  0  0  0  0  0
    0.2500   -1.1040   -1.6974 H   0  0  0  0  0  0  0  0  0  0  0  0
    1.9550   -1.8470   -0.1579 H   0  0  0  0  0  0  0  0  0  0  0  0
    1.1001   -2.1431    2.1502 H   0  0  0  0  0  0  0  0  0  0  0  0
    0.6085   -0.4519    2.2205 H   0  0  0  0  0  0  0  0  0  0  0  0
    3.6192   -0.3626   -0.8554 H   0  0  0  0  0  0  0  0  0  0  0  0
    4.5874    1.3904    1.4233 H   0  0  0  0  0  0  0  0  0  0  0  0
   -3.0555    0.9775   -0.7147 H   0  0  0  0  0  0  0  0  0  0  0  0
    5.5484   -1.1243    1.3980 H   0  0  0  0  0  0  0  0  0  0  0  0
   -4.3643   -0.5316   -2.1999 H   0  0  0  0  0  0  0  0  0  0  0  0
   -4.7719   -1.5627   -0.8555 H   0  0  0  0  0  0  0  0  0  0  0  0
   -5.6477    1.3525   -1.2034 H   0  0  0  0  0  0  0  0  0  0  0  0
   -6.2781   -0.4891    1.1358 H   0  0  0  0  0  0  0  0  0  0  0  0
   -4.3273    1.8967    1.0835 H   0  0  0  0  0  0  0  0  0  0  0  0
    5.9572    2.5711   -0.2898 H   0  0  0  0  0  0  0  0  0  0  0  0
    5.3138    1.5548   -1.5502 H   0  0  0  0  0  0  0  0  0  0  0  0
    7.0773    0.6178    0.7875 H   0  0  0  0  0  0  0  0  0  0  0  0
   -1.1615    0.7458   -2.5621 H   0  0  0  0  0  0  0  0  0  0  0  0
    0.5630    1.1657   -2.6256 H   0  0  0  0  0  0  0  0  0  0  0  0
   -0.4484    1.8524   -1.3638 H   0  0  0  0  0  0  0  0  0  0  0  0
    4.0869   -3.0100    0.7234 H   0  0  0  0  0  0  0  0  0  0  0  0
    5.7424   -3.2438    0.1283 H   0  0  0  0  0  0  0  0  0  0  0  0
    4.4900   -2.7191   -0.9862 H   0  0  0  0  0  0  0  0  0  0  0  0
   -0.2460   -3.5636    0.8397 H   0  0  0  0  0  0  0  0  0  0  0  0
   -4.9687   -0.1258    3.2834 H   0  0  0  0  0  0  0  0  0  0  0  0
   -3.7531    1.1401    3.3617 H   0  0  0  0  0  0  0  0  0  0  0  0
   -5.4715    1.5815    3.2704 H   0  0  0  0  0  0  0  0  0  0  0  0
   -6.6482    2.2932    0.6827 H   0  0  0  0  0  0  0  0  0  0  0  0
    8.6048    0.5283   -0.7121 H   0  0  0  0  0  0  0  0  0  0  0  0
    3.4068    3.2904    1.6269 H   0  0  0  0  0  0  0  0  0  0  0  0
    4.2454    3.8874    0.1548 H   0  0  0  0  0  0  0  0  0  0  0  0
    2.4809    3.9052    0.2487 H   0  0  0  0  0  0  0  0  0  0  0  0
   -8.0254   -0.3948   -3.0551 H   0  0  0  0  0  0  0  0  0  0  0  0
   -6.2750   -0.4291   -3.2942 H   0  0  0  0  0  0  0  0  0  0  0  0
   -7.1079    1.1106   -2.8919 H   0  0  0  0  0  0  0  0  0  0  0  0
  1 13  1  0  0  0  0
  1 14  1  0  0  0  0
  2 11  1  0  0  0  0
  2 18  1  0  0  0  0
  3 14  1  0  0  0  0
  3 16  1  0  0  0  0
  4 18  1  0  0  0  0
  4 23  1  0  0  0  0
  5 19  1  0  0  0  0
  5 25  1  0  0  0  0
  6 12  1  0  0  0  0
  6 55  1  0  0  0  0
  7 17  1  0  0  0  0
  7 29  1  0  0  0  0
  8 21  1  0  0  0  0
  8 30  1  0  0  0  0
  9 22  1  0  0  0  0
  9 59  1  0  0  0  0
 10 25  1  0  0  0  0
 10 60  1  0  0  0  0
 11 12  1  0  0  0  0
 11 13  1  0  0  0  0
 11 31  1  0  0  0  0
 12 15  1  0  0  0  0
 12 32  1  0  0  0  0
 13 26  1  0  0  0  0
 13 33  1  0  0  0  0
 14 15  1  0  0  0  0
 14 34  1  0  0  0  0
 15 35  1  0  0  0  0
 15 36  1  0  0  0  0
 16 17  1  0  0  0  0
 16 19  1  0  0  0  0
 16 37  1  0  0  0  0
 17 24  1  0  0  0  0
 17 38  1  0  0  0  0
 18 20  1  0  0  0  0
 18 39  1  0  0  0  0
 19 27  1  0  0  0  0
 19 40  1  0  0  0  0
 20 21  1  0  0  0  0
 20 41  1  0  0  0  0
 20 42  1  0  0  0  0
 21 22  1  0  0  0  0
 21 43  1  0  0  0  0
 22 23  1  0  0  0  0
 22 44  1  0  0  0  0
 23 28  1  0  0  0  0
 23 45  1  0  0  0  0
 24 25  1  0  0  0  0
 24 46  1  0  0  0  0
 24 47  1  0  0  0  0
 25 48  1  0  0  0  0
 26 49  1  0  0  0  0
 26 50  1  0  0  0  0
 26 51  1  0  0  0  0
 27 52  1  0  0  0  0
 27 53  1  0  0  0  0
 27 54  1  0  0  0  0
 28 56  1  0  0  0  0
 28 57  1  0  0  0  0
 28 58  1  0  0  0  0
 29 61  1  0  0  0  0
 29 62  1  0  0  0  0
 29 63  1  0  0  0  0
 30 64  1  0  0  0  0
 30 65  1  0  0  0  0
 30 66  1  0  0  0  0
M  END
> <PUBCHEM_COMPOUND_CID>
10741574

> <PUBCHEM_CONFORMER_RMSD>
1

> <PUBCHEM_CONFORMER_DIVERSEORDER>
1
121
66
182
124
111
153
185
198
155
33
159
80
4
50
109
34
188
147
142
170
204
174
26
36
82
129
14
190
194
99
151
32
38
102
85
69
116
161
193
138
125
68
86
110
133
164
132
28
67
19
113
123
30
191
25
117
118
94
56
13
163
106
27
10
89
167
23
156
181
189
152
199
135
55
40
166
78
5
75
180
107
72
126
162
22
173
54
3
178
184
201
45
205
11
127
62
101
63
115
187
131
6
20
73
202
146
144
104
2
148
158
203
8
200
64
52
171
137
90
87
59
88
60
128
16
183
57
143
114
47
192
122
136
96
105
177
42
108
169
134
149
141
48
39
9
76
103
74
100
53
186
83
35
165
44
172
157
98
7
37
51
92
150
168
119
71
15
97
24
139
160
81
46
77
29
130
196
179
41
154
21
91
12
17
58
120
176
145
140
84
49
61
65
79
31
43
93
70
175
95
18
195
112
197

> <PUBCHEM_MMFF94_PARTIAL_CHARGES>
27
1 -0.56
10 -0.68
11 0.28
12 0.28
13 0.28
14 0.56
16 0.28
17 0.28
18 0.56
19 0.28
2 -0.56
21 0.28
22 0.28
23 0.28
25 0.56
29 0.28
3 -0.56
30 0.28
4 -0.56
5 -0.56
55 0.4
59 0.4
6 -0.68
60 0.4
7 -0.56
8 -0.56
9 -0.68

> <PUBCHEM_EFFECTIVE_ROTOR_COUNT>
9.6

> <PUBCHEM_PHARMACOPHORE_FEATURES>
16
1 1 acceptor
1 10 acceptor
1 10 donor
1 2 acceptor
1 3 acceptor
1 4 acceptor
1 5 acceptor
1 6 acceptor
1 6 donor
1 7 acceptor
1 8 acceptor
1 9 acceptor
1 9 donor
6 1 11 12 13 14 15 rings
6 4 18 20 21 22 23 rings
6 5 16 17 19 24 25 rings

> <PUBCHEM_HEAVY_ATOM_COUNT>
30

> <PUBCHEM_ATOM_DEF_STEREO_COUNT>
12

> <PUBCHEM_ATOM_UDEF_STEREO_COUNT>
0

> <PUBCHEM_BOND_DEF_STEREO_COUNT>
0

> <PUBCHEM_BOND_UDEF_STEREO_COUNT>
0

> <PUBCHEM_ISOTOPIC_ATOM_COUNT>
0

> <PUBCHEM_COMPONENT_COUNT>
1

> <PUBCHEM_CACTVS_TAUTO_COUNT>
1

> <PUBCHEM_CONFORMER_ID>
00A3E74600000001

> <PUBCHEM_MMFF94_ENERGY>
87.1701

> <PUBCHEM_FEATURE_SELFOVERLAP>
81.348

> <PUBCHEM_SHAPE_FINGERPRINT>
10 15 16588025731627432648
10319926 262 15430038781937732405
10670039 82 17418377974044943889
11089746 13 18412544318868705573
12166972 35 16917062291526963425
12236239 1 18272929406468908995
12596602 18 18410577301604838467
13533116 47 18341048528434294826
14251764 18 18130786759105988030
14294032 229 16485872206624959641
14394314 77 11674871187518084287
14840074 17 18187361026228024079
14849402 71 18336553797308183745
14856354 85 17131547332504317007
14955137 171 17023194837446620420
15183329 4 18060139834233701320
1577012 14 18131070411689120697
17093844 174 14707207713271415261
18335252 114 18411129225702126828
21033648 29 17604135012822232989
21315759 40 17775279443972922423
21792961 116 18041564642804612818
221357 26 18408880720856364276
22224240 67 17530970181095783459
23081809 10 17988924440164378971
23198884 109 17632297886713205251
23559900 14 18340483473951777114
23569943 247 18051693244065774082
249057 25 17917992776250974281
2838139 119 18202569496891721945
3004659 81 16271924922335418850
3633792 109 18338787932717180007
394071 54 18259991478893534980
397830 11 16878804827171963593
4340502 62 12035445035010094912
4403749 210 16805889597311860443
504579 68 17988916791186022557
5104073 3 18115582794311948994
58902169 19 18130782369406857893
7226269 152 15719386197578858901

> <PUBCHEM_SHAPE_MULTIPOLES>
558.69
20.5
2.23
1.86
4.12
0.28
-0.12
5.59
4.76
-3.51
-0.5
4.24
0.36
-1.27

> <PUBCHEM_SHAPE_SELFOVERLAP>
1137.381

> <PUBCHEM_SHAPE_VOLUME>
320.7

> <PUBCHEM_COORDINATE_TYPE>
2
5
10

$$$$
