107461
  -OEChem-03292013323D

 35 36  0     1  0  0  0  0  0999 V2000
   -2.3083   -0.5390    1.0117 O   0  0  0  0  0  0  0  0  0  0  0  0
   -2.1067    2.3163   -1.1483 O   0  0  0  0  0  0  0  0  0  0  0  0
   -4.3163    1.5563    0.2582 O   0  0  0  0  0  0  0  0  0  0  0  0
   -3.2692   -3.0731    0.2890 O   0  0  0  0  0  0  0  0  0  0  0  0
    0.5891    2.3093    0.7302 O   0  0  0  0  0  0  0  0  0  0  0  0
    4.7617    1.0762    0.1585 O   0  0  0  0  0  0  0  0  0  0  0  0
   -0.2051    0.1827    0.2904 N   0  0  0  0  0  0  0  0  0  0  0  0
    2.1491    0.7262    0.2561 N   0  0  0  0  0  0  0  0  0  0  0  0
    3.6652   -0.9440   -0.2355 N   0  0  0  0  0  0  0  0  0  0  0  0
   -2.2510    0.9466   -0.8335 C   0  0  2  0  0  0  0  0  0  0  0  0
   -3.6915    0.5681   -0.5607 C   0  0  1  0  0  0  0  0  0  0  0  0
   -1.5740    0.5729    0.4738 C   0  0  1  0  0  0  0  0  0  0  0  0
   -3.5367   -0.6992    0.2689 C   0  0  1  0  0  0  0  0  0  0  0  0
   -3.4191   -1.9609   -0.5757 C   0  0  0  0  0  0  0  0  0  0  0  0
    0.1106   -1.1316   -0.0360 C   0  0  0  0  0  0  0  0  0  0  0  0
    0.8381    1.1376    0.4412 C   0  0  0  0  0  0  0  0  0  0  0  0
    1.3619   -1.5540   -0.2189 C   0  0  0  0  0  0  0  0  0  0  0  0
    2.3809   -0.5080   -0.0459 C   0  0  0  0  0  0  0  0  0  0  0  0
    4.7715   -0.1199   -0.1202 C   0  0  0  0  0  0  0  0  0  0  0  0
    6.0498   -0.8627   -0.4032 C   0  0  0  0  0  0  0  0  0  0  0  0
   -1.8661    0.3557   -1.6734 H   0  0  0  0  0  0  0  0  0  0  0  0
   -4.2971    0.4520   -1.4632 H   0  0  0  0  0  0  0  0  0  0  0  0
   -1.6233    1.3936    1.1991 H   0  0  0  0  0  0  0  0  0  0  0  0
   -4.3388   -0.8163    1.0065 H   0  0  0  0  0  0  0  0  0  0  0  0
   -2.5655   -1.9345   -1.2575 H   0  0  0  0  0  0  0  0  0  0  0  0
   -4.3290   -2.1063   -1.1672 H   0  0  0  0  0  0  0  0  0  0  0  0
   -1.1550    2.4994   -1.2254 H   0  0  0  0  0  0  0  0  0  0  0  0
   -3.8555    1.5978    1.1126 H   0  0  0  0  0  0  0  0  0  0  0  0
   -0.6970   -1.8400   -0.1423 H   0  0  0  0  0  0  0  0  0  0  0  0
   -3.2081   -3.8657   -0.2710 H   0  0  0  0  0  0  0  0  0  0  0  0
    1.6158   -2.5740   -0.4712 H   0  0  0  0  0  0  0  0  0  0  0  0
    3.8195   -1.9205   -0.4756 H   0  0  0  0  0  0  0  0  0  0  0  0
    6.9058   -0.2104   -0.2089 H   0  0  0  0  0  0  0  0  0  0  0  0
    6.0699   -1.1757   -1.4509 H   0  0  0  0  0  0  0  0  0  0  0  0
    6.1244   -1.7421    0.2428 H   0  0  0  0  0  0  0  0  0  0  0  0
  1 12  1  0  0  0  0
  1 13  1  0  0  0  0
  2 10  1  0  0  0  0
  2 27  1  0  0  0  0
  3 11  1  0  0  0  0
  3 28  1  0  0  0  0
  4 14  1  0  0  0  0
  4 30  1  0  0  0  0
  5 16  2  0  0  0  0
  6 19  2  0  0  0  0
  7 12  1  0  0  0  0
  7 15  1  0  0  0  0
  7 16  1  0  0  0  0
  8 16  1  0  0  0  0
  8 18  2  0  0  0  0
  9 18  1  0  0  0  0
  9 19  1  0  0  0  0
  9 32  1  0  0  0  0
 10 11  1  0  0  0  0
 10 12  1  0  0  0  0
 10 21  1  0  0  0  0
 11 13  1  0  0  0  0
 11 22  1  0  0  0  0
 12 23  1  0  0  0  0
 13 14  1  0  0  0  0
 13 24  1  0  0  0  0
 14 25  1  0  0  0  0
 14 26  1  0  0  0  0
 15 17  2  0  0  0  0
 15 29  1  0  0  0  0
 17 18  1  0  0  0  0
 17 31  1  0  0  0  0
 19 20  1  0  0  0  0
 20 33  1  0  0  0  0
 20 34  1  0  0  0  0
 20 35  1  0  0  0  0
M  END
> <PUBCHEM_COMPOUND_CID>
107461

> <PUBCHEM_CONFORMER_RMSD>
0.8

> <PUBCHEM_CONFORMER_DIVERSEORDER>
1
8
6
9
5
7
4
2
10
3
11

> <PUBCHEM_MMFF94_PARTIAL_CHARGES>
26
1 -0.56
10 0.28
11 0.28
12 0.58
13 0.28
14 0.28
15 -0.04
16 0.84
17 -0.14
18 0.5
19 0.57
2 -0.68
20 0.06
27 0.4
28 0.4
29 0.15
3 -0.68
30 0.4
31 0.15
32 0.37
4 -0.68
5 -0.57
6 -0.57
7 -0.47
8 -0.66
9 -0.49

> <PUBCHEM_EFFECTIVE_ROTOR_COUNT>
5

> <PUBCHEM_PHARMACOPHORE_FEATURES>
13
1 1 acceptor
1 2 acceptor
1 2 donor
1 3 acceptor
1 3 donor
1 4 acceptor
1 4 donor
1 5 acceptor
1 6 acceptor
1 8 donor
1 9 donor
5 1 10 11 12 13 rings
6 7 8 15 16 17 18 rings

> <PUBCHEM_HEAVY_ATOM_COUNT>
20

> <PUBCHEM_ATOM_DEF_STEREO_COUNT>
4

> <PUBCHEM_ATOM_UDEF_STEREO_COUNT>
0

> <PUBCHEM_BOND_DEF_STEREO_COUNT>
0

> <PUBCHEM_BOND_UDEF_STEREO_COUNT>
0

> <PUBCHEM_ISOTOPIC_ATOM_COUNT>
0

> <PUBCHEM_COMPONENT_COUNT>
1

> <PUBCHEM_CACTVS_TAUTO_COUNT>
4

> <PUBCHEM_CONFORMER_ID>
0001A3C500000001

> <PUBCHEM_MMFF94_ENERGY>
56.2542

> <PUBCHEM_FEATURE_SELFOVERLAP>
66.041

> <PUBCHEM_SHAPE_FINGERPRINT>
10680689 15 18260834790968214074
12236239 1 16845570911527949697
12403259 226 18268143343431571193
12788726 201 17415841297661464409
13214271 11 18273214188021779175
13288520 33 18342459261586524231
13760787 19 18113615651671349610
15196674 1 18413108394361787432
16945 1 18263626412816473009
19489759 90 17749106678080933424
19591789 44 18341048644160995862
200 152 17846775209101636221
20645477 56 18261393283014724517
20871999 31 18409445899127646214
21267235 1 18411706521331801523
221490 88 18267586999122098338
23402539 116 17385442115876754446
23557571 272 18342463620724881916
23559900 14 18341048511391569090
2871803 45 18264476459853994959
3268164 11 17313376825104458183
34934 24 18339359656608512539
350125 39 18268996556233867483
4214541 1 18411419505308793096
5104073 3 18342174492564973250
8809292 202 18408604786007722251

> <PUBCHEM_SHAPE_MULTIPOLES>
361.43
10.31
2.29
0.82
11.76
0.45
0.06
1.79
1.18
-2.2
0.06
-0.39
-0.15
0.61

> <PUBCHEM_SHAPE_SELFOVERLAP>
759.887

> <PUBCHEM_SHAPE_VOLUME>
202.6

> <PUBCHEM_COORDINATE_TYPE>
2
5
10

$$$$
