REMARK  Name = 10743861
REMARK  13 active torsions:
REMARK  status: ('A' for Active; 'I' for Inactive)
REMARK    1  A    between atoms: C_5  and  O_21
REMARK    2  A    between atoms: C_5  and  C_23
REMARK    3  A    between atoms: C_8  and  N_10
REMARK    4  A    between atoms: C_11  and  C_13
REMARK    5  A    between atoms: C_14  and  C_15
REMARK    6  A    between atoms: C_15  and  C_17
REMARK    7  A    between atoms: C_17  and  C_18
REMARK    8  A    between atoms: C_18  and  C_19
REMARK    9  A    between atoms: C_24  and  C_25
REMARK   10  A    between atoms: C_26  and  C_27
REMARK   11  A    between atoms: C_28  and  C_31
REMARK   12  A    between atoms: N_30  and  C_36
REMARK   13  A    between atoms: C_37  and  O_39
REMARK                            x       y       z     vdW  Elec       q    Type
REMARK                         _______ _______ _______ _____ _____    ______ ____
ROOT
ATOM      1  O   UNL     1       2.328  -4.571   0.885  0.00  0.00    -0.342 OA
ATOM      2  O   UNL     1       5.566  -4.009   0.800  0.00  0.00    -0.287 OA
ATOM      3  C   UNL     1       2.104  -4.224  -0.491  0.00  0.00    +0.182 C 
ATOM      4  C   UNL     1       3.457  -4.647   0.001  0.00  0.00    +0.208 C 
ATOM      5  C   UNL     1       1.834  -2.768  -0.760  0.00  0.00    +0.154 C 
ATOM      6  C   UNL     1       4.501  -3.652   0.312  0.00  0.00    +0.216 C 
ATOM      7  C   UNL     1       3.005  -1.851  -0.473  0.00  0.00    +0.024 C 
ATOM      8  C   UNL     1       4.200  -2.228   0.005  0.00  0.00    +0.087 C 
ENDROOT
BRANCH   8  10
ATOM      9  O   UNL     1       3.861   0.519   0.739  0.00  0.00    -0.270 OA
ATOM     10  N   UNL     1       5.196  -1.323   0.234  0.00  0.00    -0.278 N 
ATOM     11  C   UNL     1       4.962  -0.003   0.587  0.00  0.00    +0.249 C 
ATOM     12  H   UNL     1       6.129  -1.623   0.143  0.00  0.00    +0.155 HD
BRANCH  11  13
ATOM     13  C   UNL     1       6.235   0.752   0.770  0.00  0.00    +0.053 C 
ATOM     14  C   UNL     1       6.210   2.047   1.115  0.00  0.00    -0.022 C 
BRANCH  14  15
ATOM     15  C   UNL     1       7.403   2.952   1.341  0.00  0.00    +0.022 C 
ATOM     16  C   UNL     1       7.419   3.381   2.813  0.00  0.00    +0.005 C 
BRANCH  15  17
ATOM     17  C   UNL     1       7.522   4.208   0.450  0.00  0.00    +0.004 C 
BRANCH  17  18
ATOM     18  C   UNL     1       7.514   3.884  -1.049  0.00  0.00    +0.000 C 
BRANCH  18  19
ATOM     19  C   UNL     1       7.527   5.162  -1.890  0.00  0.00    +0.000 C 
ATOM     20  C   UNL     1       7.462   4.851  -3.377  0.00  0.00    +0.000 C 
ENDBRANCH  18  19
ENDBRANCH  17  18
ENDBRANCH  15  17
ENDBRANCH  14  15
ENDBRANCH  11  13
ENDBRANCH   8  10
BRANCH   5  21
ATOM     21  O   UNL     1       1.572  -2.654  -2.169  0.00  0.00    -0.376 OA
ATOM     22  H   UNL     1       2.347  -2.957  -2.667  0.00  0.00    +0.211 HD
ENDBRANCH   5  21
BRANCH   5  23
ATOM     23  C   UNL     1       0.603  -2.286  -0.038  0.00  0.00    +0.007 C 
ATOM     24  C   UNL     1      -0.532  -1.933  -0.660  0.00  0.00    -0.002 C 
BRANCH  24  25
ATOM     25  C   UNL     1      -1.724  -1.438  -0.007  0.00  0.00    -0.000 C 
ATOM     26  C   UNL     1      -2.858  -1.085  -0.632  0.00  0.00    +0.000 C 
BRANCH  26  27
ATOM     27  C   UNL     1      -4.014  -0.565   0.066  0.00  0.00    +0.005 C 
ATOM     28  C   UNL     1      -5.144  -0.215  -0.565  0.00  0.00    +0.058 C 
BRANCH  28  31
ATOM     29  O   UNL     1      -6.269   0.452   1.429  0.00  0.00    -0.270 OA
ATOM     30  N   UNL     1      -7.373   0.620  -0.616  0.00  0.00    -0.275 N 
ATOM     31  C   UNL     1      -6.301   0.315   0.210  0.00  0.00    +0.250 C 
ATOM     32  H   UNL     1      -7.275   0.465  -1.583  0.00  0.00    +0.155 HD
BRANCH  30  36
ATOM     33  O   UNL     1     -10.014   0.209  -1.803  0.00  0.00    -0.285 OA
ATOM     34  C   UNL     1     -10.230   2.264   1.105  0.00  0.00    +0.041 C 
ATOM     35  C   UNL     1     -10.964   1.579  -0.048  0.00  0.00    +0.047 C 
ATOM     36  C   UNL     1      -8.556   1.123  -0.159  0.00  0.00    +0.124 C 
ATOM     37  C   UNL     1      -8.798   1.896   0.899  0.00  0.00    +0.150 C 
ATOM     38  C   UNL     1      -9.858   0.884  -0.797  0.00  0.00    +0.212 C 
BRANCH  37  39
ATOM     39  O   UNL     1      -7.847   2.353   1.771  0.00  0.00    -0.504 OA
ATOM     40  H   UNL     1      -8.096   2.894   2.494  0.00  0.00    +0.292 HD
ENDBRANCH  37  39
ENDBRANCH  30  36
ENDBRANCH  28  31
ENDBRANCH  26  27
ENDBRANCH  24  25
ENDBRANCH   5  23
TORSDOF 13
