REMARK  Name = 107534
REMARK  13 active torsions:
REMARK  status: ('A' for Active; 'I' for Inactive)
REMARK    1  A    between atoms: C_1  and  N_3
REMARK    2  A    between atoms: C_1  and  C_15
REMARK    3  A    between atoms: C_1  and  C_26
REMARK    4  A    between atoms: C_4  and  O_6
REMARK    5  A    between atoms: O_6  and  C_7
REMARK    6  A    between atoms: C_7  and  C_8
REMARK    7  A    between atoms: C_15  and  O_16
REMARK    8  A    between atoms: O_16  and  C_17
REMARK    9  A    between atoms: C_22  and  N_25
REMARK   10  A    between atoms: C_26  and  C_27
REMARK   11  A    between atoms: C_27  and  C_28
REMARK   12  A    between atoms: C_28  and  C_29
REMARK   13  A    between atoms: C_29  and  N_30
REMARK                            x       y       z     vdW  Elec       q    Type
REMARK                         _______ _______ _______ _____ _____    ______ ____
ROOT
ATOM      1  C   UNL     1      -0.044   1.479  -1.631  0.00  0.00    +0.174 C 
ENDROOT
BRANCH   1   3
ATOM      2  O   UNL     1      -2.723   0.933  -2.612  0.00  0.00    -0.226 OA
ATOM      3  N   UNL     1      -1.081   0.715  -0.987  0.00  0.00    -0.262 N 
ATOM      4  C   UNL     1      -2.333   0.506  -1.530  0.00  0.00    +0.402 C 
ATOM      5  H   UNL     1      -0.885   0.319  -0.107  0.00  0.00    +0.153 HD
BRANCH   4   6
ATOM      6  O   UNL     1      -3.086  -0.255  -0.680  0.00  0.00    -0.430 OA
BRANCH   6   7
ATOM      7  C   UNL     1      -4.416  -0.552  -1.120  0.00  0.00    +0.237 C 
BRANCH   7   8
ATOM      8  C   UNL     1      -5.101  -1.388  -0.079  0.00  0.00    +0.021 C 
ATOM      9  C   UNL     1      -5.016  -2.779  -0.136  0.00  0.00    -0.001 C 
ATOM     10  C   UNL     1      -5.822  -0.775   0.946  0.00  0.00    -0.001 C 
ATOM     11  C   UNL     1      -5.653  -3.557   0.831  0.00  0.00    -0.000 C 
ATOM     12  C   UNL     1      -6.458  -1.553   1.913  0.00  0.00    -0.000 C 
ATOM     13  C   UNL     1      -6.373  -2.944   1.856  0.00  0.00    -0.000 C 
ENDBRANCH   7   8
ENDBRANCH   6   7
ENDBRANCH   4   6
ENDBRANCH   1   3
BRANCH   1  15
ATOM     14  O   UNL     1       2.361   1.373  -1.878  0.00  0.00    -0.248 OA
ATOM     15  C   UNL     1       1.347   0.924  -1.351  0.00  0.00    +0.340 C 
BRANCH  15  16
ATOM     16  O   UNL     1       1.300  -0.122  -0.437  0.00  0.00    -0.423 OA
BRANCH  16  17
ATOM     17  C   UNL     1       2.557  -0.660  -0.152  0.00  0.00    +0.149 C 
ATOM     18  C   UNL     1       3.316  -0.142   0.897  0.00  0.00    +0.039 C 
ATOM     19  C   UNL     1       3.053  -1.716  -0.917  0.00  0.00    +0.039 C 
ATOM     20  C   UNL     1       4.571  -0.680   1.182  0.00  0.00    +0.027 C 
ATOM     21  C   UNL     1       4.309  -2.253  -0.632  0.00  0.00    +0.027 C 
ATOM     22  C   UNL     1       5.067  -1.736   0.417  0.00  0.00    +0.143 C 
BRANCH  22  25
ATOM     23  O   UNL     1       7.011  -1.803   1.657  0.00  0.00    -0.126 OA
ATOM     24  O   UNL     1       6.772  -3.233   0.008  0.00  0.00    -0.126 OA
ATOM     25  N   UNL     1       6.345  -2.284   0.708  0.00  0.00    +0.058 N 
ENDBRANCH  22  25
ENDBRANCH  16  17
ENDBRANCH  15  16
ENDBRANCH   1  15
BRANCH   1  26
ATOM     26  C   UNL     1      -0.135   2.967  -1.271  0.00  0.00    +0.031 C 
BRANCH  26  27
ATOM     27  C   UNL     1       0.107   3.262   0.216  0.00  0.00    +0.000 C 
BRANCH  27  28
ATOM     28  C   UNL     1      -0.051   4.755   0.516  0.00  0.00    -0.024 C 
BRANCH  28  29
ATOM     29  C   UNL     1       0.155   5.044   2.002  0.00  0.00    -0.086 C 
BRANCH  29  30
ATOM     30  N   UNL     1       0.021   6.472   2.263  0.00  0.00    +0.380 N 
ATOM     31  H   UNL     1       0.161   6.650   3.258  0.00  0.00    -0.089 HD
ATOM     32  H   UNL     1      -0.912   6.781   1.991  0.00  0.00    -0.089 HD
ATOM     33  H   UNL     1       0.719   6.984   1.724  0.00  0.00    -0.089 HD
ENDBRANCH  29  30
ENDBRANCH  28  29
ENDBRANCH  27  28
ENDBRANCH  26  27
ENDBRANCH   1  26
TORSDOF 13
