107534
  -OEChem-03292013323D

 52 53  0     1  0  0  0  0  0999 V2000
    1.2998   -0.1217   -0.4371 O   0  0  0  0  0  0  0  0  0  0  0  0
   -3.0860   -0.2549   -0.6800 O   0  0  0  0  0  0  0  0  0  0  0  0
    2.3606    1.3727   -1.8780 O   0  0  0  0  0  0  0  0  0  0  0  0
   -2.7228    0.9334   -2.6116 O   0  0  0  0  0  0  0  0  0  0  0  0
    7.0109   -1.8034    1.6565 O   0  5  0  0  0  0  0  0  0  0  0  0
    6.7725   -3.2329    0.0076 O   0  0  0  0  0  0  0  0  0  0  0  0
   -1.0807    0.7152   -0.9865 N   0  0  0  0  0  0  0  0  0  0  0  0
    0.0206    6.4722    2.2632 N   0  0  0  0  0  0  0  0  0  0  0  0
    6.3449   -2.2835    0.7077 N   0  3  0  0  0  0  0  0  0  0  0  0
   -0.1353    2.9667   -1.2706 C   0  0  0  0  0  0  0  0  0  0  0  0
    0.1070    3.2618    0.2159 C   0  0  0  0  0  0  0  0  0  0  0  0
   -0.0436    1.4793   -1.6311 C   0  0  1  0  0  0  0  0  0  0  0  0
   -0.0514    4.7550    0.5159 C   0  0  0  0  0  0  0  0  0  0  0  0
    0.1553    5.0441    2.0017 C   0  0  0  0  0  0  0  0  0  0  0  0
    1.3475    0.9241   -1.3508 C   0  0  0  0  0  0  0  0  0  0  0  0
   -2.3334    0.5059   -1.5299 C   0  0  0  0  0  0  0  0  0  0  0  0
    2.5570   -0.6602   -0.1520 C   0  0  0  0  0  0  0  0  0  0  0  0
   -4.4162   -0.5516   -1.1197 C   0  0  0  0  0  0  0  0  0  0  0  0
   -5.1010   -1.3881   -0.0790 C   0  0  0  0  0  0  0  0  0  0  0  0
    3.3158   -0.1422    0.8975 C   0  0  0  0  0  0  0  0  0  0  0  0
    3.0533   -1.7157   -0.9171 C   0  0  0  0  0  0  0  0  0  0  0  0
    4.5708   -0.6799    1.1823 C   0  0  0  0  0  0  0  0  0  0  0  0
    4.3085   -2.2535   -0.6323 C   0  0  0  0  0  0  0  0  0  0  0  0
    5.0673   -1.7356    0.4174 C   0  0  0  0  0  0  0  0  0  0  0  0
   -5.0165   -2.7792   -0.1361 C   0  0  0  0  0  0  0  0  0  0  0  0
   -5.8216   -0.7747    0.9458 C   0  0  0  0  0  0  0  0  0  0  0  0
   -5.6527   -3.5570    0.8313 C   0  0  0  0  0  0  0  0  0  0  0  0
   -6.4578   -1.5526    1.9132 C   0  0  0  0  0  0  0  0  0  0  0  0
   -6.3733   -2.9437    1.8559 C   0  0  0  0  0  0  0  0  0  0  0  0
   -1.1255    3.3457   -1.5545 H   0  0  0  0  0  0  0  0  0  0  0  0
    0.5983    3.5273   -1.8641 H   0  0  0  0  0  0  0  0  0  0  0  0
    1.1141    2.9391    0.5042 H   0  0  0  0  0  0  0  0  0  0  0  0
   -0.6031    2.6946    0.8290 H   0  0  0  0  0  0  0  0  0  0  0  0
   -0.1944    1.3731   -2.7129 H   0  0  0  0  0  0  0  0  0  0  0  0
    0.6733    5.3251   -0.0791 H   0  0  0  0  0  0  0  0  0  0  0  0
   -1.0521    5.0854    0.2099 H   0  0  0  0  0  0  0  0  0  0  0  0
   -0.5789    4.4943    2.6008 H   0  0  0  0  0  0  0  0  0  0  0  0
    1.1529    4.7172    2.3139 H   0  0  0  0  0  0  0  0  0  0  0  0
   -0.8882    0.3126   -0.0740 H   0  0  0  0  0  0  0  0  0  0  0  0
   -0.9146    6.7823    2.0026 H   0  0  0  0  0  0  0  0  0  0  0  0
    0.1095    6.6423    3.2641 H   0  0  0  0  0  0  0  0  0  0  0  0
   -4.9701    0.3818   -1.2794 H   0  0  0  0  0  0  0  0  0  0  0  0
   -4.3789   -1.0911   -2.0743 H   0  0  0  0  0  0  0  0  0  0  0  0
    2.9335    0.6798    1.4965 H   0  0  0  0  0  0  0  0  0  0  0  0
    2.4660   -2.1233   -1.7355 H   0  0  0  0  0  0  0  0  0  0  0  0
    5.1338   -0.2513    2.0074 H   0  0  0  0  0  0  0  0  0  0  0  0
    4.6629   -3.0753   -1.2491 H   0  0  0  0  0  0  0  0  0  0  0  0
   -4.4562   -3.2687   -0.9283 H   0  0  0  0  0  0  0  0  0  0  0  0
   -5.8928    0.3082    1.0024 H   0  0  0  0  0  0  0  0  0  0  0  0
   -5.5864   -4.6402    0.7872 H   0  0  0  0  0  0  0  0  0  0  0  0
   -7.0184   -1.0751    2.7116 H   0  0  0  0  0  0  0  0  0  0  0  0
   -6.8683   -3.5492    2.6094 H   0  0  0  0  0  0  0  0  0  0  0  0
  1 15  1  0  0  0  0
  1 17  1  0  0  0  0
  2 16  1  0  0  0  0
  2 18  1  0  0  0  0
  3 15  2  0  0  0  0
  4 16  2  0  0  0  0
  5  9  1  0  0  0  0
  6  9  2  0  0  0  0
  7 12  1  0  0  0  0
  7 16  1  0  0  0  0
  7 39  1  0  0  0  0
  8 14  1  0  0  0  0
  8 40  1  0  0  0  0
  8 41  1  0  0  0  0
  9 24  1  0  0  0  0
 10 11  1  0  0  0  0
 10 12  1  0  0  0  0
 10 30  1  0  0  0  0
 10 31  1  0  0  0  0
 11 13  1  0  0  0  0
 11 32  1  0  0  0  0
 11 33  1  0  0  0  0
 12 15  1  0  0  0  0
 12 34  1  0  0  0  0
 13 14  1  0  0  0  0
 13 35  1  0  0  0  0
 13 36  1  0  0  0  0
 14 37  1  0  0  0  0
 14 38  1  0  0  0  0
 17 20  2  0  0  0  0
 17 21  1  0  0  0  0
 18 19  1  0  0  0  0
 18 42  1  0  0  0  0
 18 43  1  0  0  0  0
 19 25  2  0  0  0  0
 19 26  1  0  0  0  0
 20 22  1  0  0  0  0
 20 44  1  0  0  0  0
 21 23  2  0  0  0  0
 21 45  1  0  0  0  0
 22 24  2  0  0  0  0
 22 46  1  0  0  0  0
 23 24  1  0  0  0  0
 23 47  1  0  0  0  0
 25 27  1  0  0  0  0
 25 48  1  0  0  0  0
 26 28  2  0  0  0  0
 26 49  1  0  0  0  0
 27 29  2  0  0  0  0
 27 50  1  0  0  0  0
 28 29  1  0  0  0  0
 28 51  1  0  0  0  0
 29 52  1  0  0  0  0
M  CHG  2   5  -1   9   1
M  END
> <PUBCHEM_COMPOUND_CID>
107534

> <PUBCHEM_CONFORMER_RMSD>
1.2

> <PUBCHEM_CONFORMER_DIVERSEORDER>
1
63
35
65
22
38
13
20
64
32
23
39
25
26
52
10
40
5
17
61
50
27
56
51
37
55
42
18
44
41
58
54
49
46
66
8
47
34
9
3
30
29
43
57
14
19
24
60
21
59
48
36
7
4
45
62
33
53
16
15
11
2
28
12
31
6

> <PUBCHEM_MMFF94_PARTIAL_CHARGES>
38
1 -0.23
12 0.36
14 0.27
15 0.66
16 0.78
17 0.08
18 0.42
19 -0.14
2 -0.43
20 -0.15
21 -0.15
22 -0.15
23 -0.15
24 0.13
25 -0.15
26 -0.15
27 -0.15
28 -0.15
29 -0.15
3 -0.57
39 0.37
4 -0.57
40 0.36
41 0.36
44 0.15
45 0.15
46 0.15
47 0.15
48 0.15
49 0.15
5 -0.52
50 0.15
51 0.15
52 0.15
6 -0.52
7 -0.73
8 -0.99
9 0.91

> <PUBCHEM_EFFECTIVE_ROTOR_COUNT>
13

> <PUBCHEM_PHARMACOPHORE_FEATURES>
10
1 3 acceptor
1 4 acceptor
1 5 acceptor
1 5 anion
1 6 acceptor
1 7 donor
1 8 cation
1 8 donor
6 17 20 21 22 23 24 rings
6 19 25 26 27 28 29 rings

> <PUBCHEM_HEAVY_ATOM_COUNT>
29

> <PUBCHEM_ATOM_DEF_STEREO_COUNT>
1

> <PUBCHEM_ATOM_UDEF_STEREO_COUNT>
0

> <PUBCHEM_BOND_DEF_STEREO_COUNT>
0

> <PUBCHEM_BOND_UDEF_STEREO_COUNT>
0

> <PUBCHEM_ISOTOPIC_ATOM_COUNT>
0

> <PUBCHEM_COMPONENT_COUNT>
1

> <PUBCHEM_CACTVS_TAUTO_COUNT>
2

> <PUBCHEM_CONFORMER_ID>
0001A40E00000001

> <PUBCHEM_MMFF94_ENERGY>
63.6024

> <PUBCHEM_FEATURE_SELFOVERLAP>
50.828

> <PUBCHEM_SHAPE_FINGERPRINT>
10074138 170 17984148054659413785
11070050 100 17621600940272594481
11399510 152 17905627836885354179
12166972 35 17022907856348892246
12342043 65 17968658349937931207
13540713 4 17970045929354323133
13690498 29 17168142317560757847
14068700 675 18114184107867575478
14444916 359 17834670879172297920
15878777 1 12408766392070137853
15950262 2 14114129160842643320
17138139 8 16950275200644278698
20505436 4 14275408464346670757
21796203 349 18341341092320160342
23559900 14 18041551568607686021
24941158 1 17905628931337376841
2747138 104 18340762660001380962
2748736 6 12031790240726499667
2835447 4 17121145071959042059
2838139 119 11095878255039726927
312425 83 9078025912222758755
32027 91 18262512736634988047
3418910 222 18409165486348209908
3862424 121 15503809470953224011
4408954 87 17269492933383894649
5219985 13 10592041366631688622
636775 8 18188215287325263206
6376802 137 18408604738667805712
7970288 3 18113897126400770314

> <PUBCHEM_SHAPE_MULTIPOLES>
546.65
16.95
6.77
2.13
5.3
13.19
-0.04
-29.2
-9.07
-2.56
-5.35
0.99
1.63
1.37

> <PUBCHEM_SHAPE_SELFOVERLAP>
1135.085

> <PUBCHEM_SHAPE_VOLUME>
309

> <PUBCHEM_COORDINATE_TYPE>
2
5
10

$$$$
