REMARK  Name = 10753
REMARK  2 active torsions:
REMARK  status: ('A' for Active; 'I' for Inactive)
REMARK    1  A    between atoms: C_5  and  C_12
REMARK    2  A    between atoms: C_14  and  N_18
REMARK                            x       y       z     vdW  Elec       q    Type
REMARK                         _______ _______ _______ _____ _____    ______ ____
ROOT
ATOM      1  S   UNL     1      -2.051  -2.422   0.001  0.00  0.00    -0.059 S 
ATOM      2  O   UNL     1      -3.873   1.873   0.001  0.00  0.00    -0.275 OA
ATOM      3  N   UNL     1      -1.486   0.100  -0.001  0.00  0.00    -0.381 NA
ATOM      4  N   UNL     1      -3.822  -0.490   0.001  0.00  0.00    -0.254 N 
ATOM      5  C   UNL     1      -0.293  -0.595  -0.001  0.00  0.00    +0.157 C 
ATOM      6  C   UNL     1      -2.479  -0.761  -0.001  0.00  0.00    +0.213 C 
ATOM      7  C   UNL     1      -0.397  -1.970  -0.001  0.00  0.00    +0.128 C 
ATOM      8  C   UNL     1      -4.426   0.779   0.001  0.00  0.00    +0.229 C 
ATOM      9  C   UNL     1      -5.931   0.681   0.000  0.00  0.00    +0.095 C 
ATOM     10  H   UNL     1      -4.428  -1.266   0.001  0.00  0.00    +0.158 HD
ENDROOT
BRANCH   5  12
ATOM     11  O   UNL     1       2.212  -0.525   0.000  0.00  0.00    -0.431 OA
ATOM     12  C   UNL     1       1.006   0.102  -0.001  0.00  0.00    +0.174 C 
ATOM     13  C   UNL     1       1.172   1.468  -0.001  0.00  0.00    +0.045 C 
ATOM     14  C   UNL     1       3.158   0.451   0.000  0.00  0.00    +0.289 C 
ATOM     15  C   UNL     1       2.569   1.694   0.000  0.00  0.00    +0.066 C 
BRANCH  14  18
ATOM     16  O   UNL     1       5.430   0.845   0.001  0.00  0.00    -0.123 OA
ATOM     17  O   UNL     1       4.730  -1.236   0.001  0.00  0.00    -0.123 OA
ATOM     18  N   UNL     1       4.481   0.006   0.001  0.00  0.00    +0.093 N 
ENDBRANCH  14  18
ENDBRANCH   5  12
TORSDOF 2
