REMARK  Name = 10754564
REMARK  8 active torsions:
REMARK  status: ('A' for Active; 'I' for Inactive)
REMARK    1  A    between atoms: C_1  and  C_15
REMARK    2  A    between atoms: C_2  and  O_13
REMARK    3  A    between atoms: C_4  and  N_9
REMARK    4  A    between atoms: C_5  and  N_12
REMARK    5  A    between atoms: C_15  and  CA_16
REMARK    6  A    between atoms: CA_16  and  N_17
REMARK    7  A    between atoms: CA_16  and  C_22
REMARK    8  A    between atoms: C_22  and  O_23
REMARK                            x       y       z     vdW  Elec       q    Type
REMARK                         _______ _______ _______ _____ _____    ______ ____
ROOT
ATOM      1  C   UNL     1      -0.433   0.359   0.644  0.00  0.00    +0.013 C 
ATOM      2  C   UNL     1       0.563   1.274   0.344  0.00  0.00    +0.152 C 
ATOM      3  C   UNL     1      -0.199  -1.006   0.585  0.00  0.00    +0.023 C 
ATOM      4  C   UNL     1       1.827   0.812  -0.025  0.00  0.00    +0.178 C 
ATOM      5  C   UNL     1       1.064  -1.468   0.217  0.00  0.00    +0.144 C 
ATOM      6  C   UNL     1       2.077  -0.558  -0.088  0.00  0.00    +0.051 C 
ENDROOT
BRANCH   4   9
ATOM      7  O   UNL     1       3.994   1.269  -0.666  0.00  0.00    -0.126 OA
ATOM      8  O   UNL     1       2.641   2.954  -0.281  0.00  0.00    -0.126 OA
ATOM      9  N   UNL     1       2.872   1.724  -0.340  0.00  0.00    +0.061 N 
ENDBRANCH   4   9
BRANCH   5  12
ATOM     10  O   UNL     1       0.394  -3.664   0.431  0.00  0.00    -0.126 OA
ATOM     11  O   UNL     1       2.462  -3.257  -0.182  0.00  0.00    -0.126 OA
ATOM     12  N   UNL     1       1.319  -2.863   0.152  0.00  0.00    +0.058 N 
ENDBRANCH   5  12
BRANCH   2  13
ATOM     13  O   UNL     1       0.310   2.614   0.408  0.00  0.00    -0.504 OA
ATOM     14  H   UNL     1      -0.540   2.919   0.656  0.00  0.00    +0.292 HD
ENDBRANCH   2  13
BRANCH   1  15
ATOM     15  C   UNL     1      -1.809   0.839   1.045  0.00  0.00    +0.019 C 
BRANCH  15  16
ATOM     16  CA  UNL     1      -2.753   1.018  -0.155  0.00  0.00    +0.040 C 
BRANCH  16  17
ATOM     17  N   UNL     1      -3.853   1.908   0.210  0.00  0.00    +0.389 N 
ATOM     18  H1  UNL     1      -3.477   2.808   0.510  0.00  0.00    -0.088 HD
ATOM     19  H2  UNL     1      -4.388   1.492   0.972  0.00  0.00    -0.088 HD
ATOM     20  H3  UNL     1      -4.461   2.045  -0.597  0.00  0.00    -0.088 HD
ENDBRANCH  16  17
BRANCH  16  22
ATOM     21  OXT UNL     1      -4.424  -0.753  -0.139  0.00  0.00    -0.253 OA
ATOM     22  C   UNL     1      -3.381  -0.295  -0.588  0.00  0.00    +0.293 C 
BRANCH  22  23
ATOM     23  O   UNL     1      -2.672  -0.907  -1.572  0.00  0.00    -0.482 OA
ATOM     24  H   UNL     1      -1.878  -0.521  -1.887  0.00  0.00    +0.295 HD
ENDBRANCH  22  23
ENDBRANCH  16  22
ENDBRANCH  15  16
ENDBRANCH   1  15
TORSDOF 8
