10754564
  -OEChem-03292013303D

 28 28  0     1  0  0  0  0  0999 V2000
    0.3105    2.6138    0.4078 O   0  0  0  0  0  0  0  0  0  0  0  0
   -2.6721   -0.9072   -1.5720 O   0  0  0  0  0  0  0  0  0  0  0  0
   -4.4239   -0.7534   -0.1392 O   0  0  0  0  0  0  0  0  0  0  0  0
    3.9941    1.2693   -0.6664 O   0  5  0  0  0  0  0  0  0  0  0  0
    2.6410    2.9545   -0.2810 O   0  0  0  0  0  0  0  0  0  0  0  0
    0.3938   -3.6636    0.4306 O   0  5  0  0  0  0  0  0  0  0  0  0
    2.4624   -3.2575   -0.1819 O   0  0  0  0  0  0  0  0  0  0  0  0
   -3.8528    1.9079    0.2102 N   0  0  0  0  0  0  0  0  0  0  0  0
    2.8723    1.7237   -0.3396 N   0  3  0  0  0  0  0  0  0  0  0  0
    1.3191   -2.8631    0.1522 N   0  3  0  0  0  0  0  0  0  0  0  0
   -1.8094    0.8390    1.0452 C   0  0  0  0  0  0  0  0  0  0  0  0
   -0.4335    0.3590    0.6441 C   0  0  0  0  0  0  0  0  0  0  0  0
   -2.7526    1.0183   -0.1546 C   0  0  1  0  0  0  0  0  0  0  0  0
    0.5631    1.2740    0.3438 C   0  0  0  0  0  0  0  0  0  0  0  0
   -0.1992   -1.0060    0.5854 C   0  0  0  0  0  0  0  0  0  0  0  0
    1.8268    0.8122   -0.0248 C   0  0  0  0  0  0  0  0  0  0  0  0
    1.0642   -1.4676    0.2168 C   0  0  0  0  0  0  0  0  0  0  0  0
    2.0773   -0.5585   -0.0883 C   0  0  0  0  0  0  0  0  0  0  0  0
   -3.3812   -0.2948   -0.5884 C   0  0  0  0  0  0  0  0  0  0  0  0
   -2.2419    0.1179    1.7543 H   0  0  0  0  0  0  0  0  0  0  0  0
   -1.7210    1.7626    1.6321 H   0  0  0  0  0  0  0  0  0  0  0  0
   -2.2407    1.4644   -1.0151 H   0  0  0  0  0  0  0  0  0  0  0  0
   -1.0030   -1.6957    0.8302 H   0  0  0  0  0  0  0  0  0  0  0  0
    3.0614   -0.9216   -0.3754 H   0  0  0  0  0  0  0  0  0  0  0  0
   -3.4811    2.8220    0.4669 H   0  0  0  0  0  0  0  0  0  0  0  0
   -4.3213    1.5551    1.0447 H   0  0  0  0  0  0  0  0  0  0  0  0
   -0.6368    2.7879    0.2922 H   0  0  0  0  0  0  0  0  0  0  0  0
   -3.0907   -1.7478   -1.8554 H   0  0  0  0  0  0  0  0  0  0  0  0
  1 14  1  0  0  0  0
  1 27  1  0  0  0  0
  2 19  1  0  0  0  0
  2 28  1  0  0  0  0
  3 19  2  0  0  0  0
  4  9  1  0  0  0  0
  5  9  2  0  0  0  0
  6 10  1  0  0  0  0
  7 10  2  0  0  0  0
  8 13  1  0  0  0  0
  8 25  1  0  0  0  0
  8 26  1  0  0  0  0
  9 16  1  0  0  0  0
 10 17  1  0  0  0  0
 11 12  1  0  0  0  0
 11 13  1  0  0  0  0
 11 20  1  0  0  0  0
 11 21  1  0  0  0  0
 12 14  2  0  0  0  0
 12 15  1  0  0  0  0
 13 19  1  0  0  0  0
 13 22  1  0  0  0  0
 14 16  1  0  0  0  0
 15 17  2  0  0  0  0
 15 23  1  0  0  0  0
 16 18  2  0  0  0  0
 17 18  1  0  0  0  0
 18 24  1  0  0  0  0
M  CHG  4   4  -1   6  -1   9   1  10   1
M  END
> <PUBCHEM_COMPOUND_CID>
10754564

> <PUBCHEM_CONFORMER_RMSD>
0.6

> <PUBCHEM_CONFORMER_DIVERSEORDER>
3
4
12
13
10
5
6
11
8
2
9
1
7

> <PUBCHEM_MMFF94_PARTIAL_CHARGES>
25
1 -0.53
10 0.91
11 0.14
12 -0.14
13 0.33
14 0.08
15 -0.15
16 0.13
17 0.13
18 -0.15
19 0.66
2 -0.65
23 0.15
24 0.15
25 0.36
26 0.36
27 0.45
28 0.5
3 -0.57
4 -0.52
5 -0.52
6 -0.52
7 -0.52
8 -0.99
9 0.91

> <PUBCHEM_EFFECTIVE_ROTOR_COUNT>
5

> <PUBCHEM_PHARMACOPHORE_FEATURES>
13
1 1 donor
1 2 acceptor
1 3 acceptor
1 4 acceptor
1 4 anion
1 5 acceptor
1 6 acceptor
1 6 anion
1 7 acceptor
1 8 cation
1 8 donor
3 2 3 19 anion
6 12 14 15 16 17 18 rings

> <PUBCHEM_HEAVY_ATOM_COUNT>
19

> <PUBCHEM_ATOM_DEF_STEREO_COUNT>
1

> <PUBCHEM_ATOM_UDEF_STEREO_COUNT>
0

> <PUBCHEM_BOND_DEF_STEREO_COUNT>
0

> <PUBCHEM_BOND_UDEF_STEREO_COUNT>
0

> <PUBCHEM_ISOTOPIC_ATOM_COUNT>
0

> <PUBCHEM_COMPONENT_COUNT>
1

> <PUBCHEM_CACTVS_TAUTO_COUNT>
6

> <PUBCHEM_CONFORMER_ID>
00A41A0400000003

> <PUBCHEM_MMFF94_ENERGY>
55.3146

> <PUBCHEM_FEATURE_SELFOVERLAP>
66.195

> <PUBCHEM_SHAPE_FINGERPRINT>
10693767 8 18202283559306893230
10967382 1 18410576214387339882
12553582 1 17833830465345293003
12730499 353 18335424616720858819
13004483 165 17327445931091438931
13380535 76 18334295413467116530
14181834 199 18113616742650960878
15279307 12 18272653437439668901
15442244 35 18052538764380397017
15502722 9 18409167692747524907
16945 1 18265349304249837280
19591789 44 17762341714040221627
20645477 70 18334569106379843915
21160774 45 17832996313950221651
21499 59 18335701710097782372
21524375 3 18114459084432316144
21634736 98 18269838618536828534
221490 88 18336274452951464467
2255824 54 18337954471958034434
22907989 373 17469620949411347668
23114952 82 18042962082226180533
23388829 49 18195802964805335290
23402539 116 18342738533567161756
23419403 2 17098866414947400166
23532345 88 18337387119789228693
23598291 2 18129103321083897465
25 1 18335138712915538441
257057 1 17688022016530137482
2748010 2 18192735520732145170
2871803 45 18127116692746259535
3060560 45 18336259162545890532
34934 24 17543067879359577858
352729 6 18194412318887763802
58051976 378 18339921627372518535
58779409 54 17908705386446566574
6338986 31 17833263129976827626
6992083 37 17479182959698668833
7364860 26 18266180539293146536
7832392 63 18123186793022218913
81228 2 17329140269871953946
84936 182 18272366481758291056

> <PUBCHEM_SHAPE_MULTIPOLES>
334.98
6.12
3.6
0.87
4.21
2.11
-0.08
-1.66
-1.59
-3.16
0.12
0.39
0.04
-0.73

> <PUBCHEM_SHAPE_SELFOVERLAP>
707.477

> <PUBCHEM_SHAPE_VOLUME>
187.2

> <PUBCHEM_COORDINATE_TYPE>
2
5
10

$$$$
