REMARK  Name = 10765968
REMARK  9 active torsions:
REMARK  status: ('A' for Active; 'I' for Inactive)
REMARK    1  A    between atoms: C_2  and  O_10
REMARK    2  A    between atoms: C_3  and  O_8
REMARK    3  A    between atoms: C_6  and  O_22
REMARK    4  A    between atoms: O_10  and  C_12
REMARK    5  A    between atoms: C_14  and  O_18
REMARK    6  A    between atoms: C_15  and  O_20
REMARK    7  A    between atoms: O_22  and  C_24
REMARK    8  A    between atoms: C_25  and  O_30
REMARK    9  A    between atoms: C_28  and  O_32
REMARK                            x       y       z     vdW  Elec       q    Type
REMARK                         _______ _______ _______ _____ _____    ______ ____
ROOT
ATOM      1  O   UNL     1       1.294  -0.277   0.352  0.00  0.00    -0.330 OA
ATOM      2  C   UNL     1      -1.031   0.386   0.134  0.00  0.00    +0.172 C 
ATOM      3  C   UNL     1      -0.614   1.632  -0.651  0.00  0.00    +0.150 C 
ATOM      4  C   UNL     1       0.086  -0.056   1.091  0.00  0.00    +0.147 C 
ATOM      5  C   UNL     1       0.738   1.395  -1.318  0.00  0.00    +0.093 C 
ATOM      6  C   UNL     1       1.769   0.899  -0.302  0.00  0.00    +0.238 C 
ATOM      7  C   UNL     1      -0.249  -1.360   1.807  0.00  0.00    +0.035 C 
ENDROOT
BRANCH   3   8
ATOM      8  O   UNL     1      -0.509   2.742   0.241  0.00  0.00    -0.351 OA
ATOM      9  C   UNL     1      -0.584   3.975  -0.456  0.00  0.00    +0.174 C 
ENDBRANCH   3   8
BRANCH   2  10
ATOM     10  O   UNL     1      -2.235   0.665   0.837  0.00  0.00    -0.328 OA
BRANCH  10  12
ATOM     11  O   UNL     1      -3.551   0.032  -0.993  0.00  0.00    -0.330 OA
ATOM     12  C   UNL     1      -3.302  -0.170   0.398  0.00  0.00    +0.238 C 
ATOM     13  C   UNL     1      -4.544   0.193   1.204  0.00  0.00    +0.093 C 
ATOM     14  C   UNL     1      -5.751  -0.615   0.742  0.00  0.00    +0.149 C 
ATOM     15  C   UNL     1      -5.914  -0.515  -0.776  0.00  0.00    +0.165 C 
ATOM     16  C   UNL     1      -4.590  -0.817  -1.490  0.00  0.00    +0.147 C 
ATOM     17  C   UNL     1      -4.697  -0.583  -2.994  0.00  0.00    +0.035 C 
BRANCH  14  18
ATOM     18  O   UNL     1      -6.927  -0.112   1.369  0.00  0.00    -0.351 OA
ATOM     19  C   UNL     1      -7.055  -0.598   2.696  0.00  0.00    +0.174 C 
ENDBRANCH  14  18
BRANCH  15  20
ATOM     20  O   UNL     1      -6.923  -1.426  -1.206  0.00  0.00    -0.380 OA
ATOM     21  H   UNL     1      -7.754  -1.227  -0.748  0.00  0.00    +0.211 HD
ENDBRANCH  15  20
ENDBRANCH  10  12
ENDBRANCH   2  10
BRANCH   6  22
ATOM     22  O   UNL     1       2.976   0.622  -1.006  0.00  0.00    -0.328 OA
BRANCH  22  24
ATOM     23  O   UNL     1       6.268   0.577   0.636  0.00  0.00    -0.331 OA
ATOM     24  C   UNL     1       3.995   0.153  -0.127  0.00  0.00    +0.172 C 
ATOM     25  C   UNL     1       4.395  -1.270  -0.524  0.00  0.00    +0.150 C 
ATOM     26  C   UNL     1       5.205   1.094  -0.170  0.00  0.00    +0.147 C 
ATOM     27  C   UNL     1       5.620  -1.720   0.263  0.00  0.00    +0.093 C 
ATOM     28  C   UNL     1       6.738  -0.688   0.173  0.00  0.00    +0.234 C 
ATOM     29  C   UNL     1       4.857   2.482   0.359  0.00  0.00    +0.035 C 
BRANCH  25  30
ATOM     30  O   UNL     1       3.307  -2.150  -0.255  0.00  0.00    -0.351 OA
ATOM     31  C   UNL     1       3.409  -3.346  -1.013  0.00  0.00    +0.174 C 
ENDBRANCH  25  30
BRANCH  28  32
ATOM     32  O   UNL     1       7.820  -1.142   0.980  0.00  0.00    -0.360 OA
ATOM     33  H   UNL     1       8.545  -0.500   0.939  0.00  0.00    +0.213 HD
ENDBRANCH  28  32
ENDBRANCH  22  24
ENDBRANCH   6  22
TORSDOF 9
