REMARK  Name = 10765018
REMARK  5 active torsions:
REMARK  status: ('A' for Active; 'I' for Inactive)
REMARK    1  A    between atoms: N_5  and  C_18
REMARK    2  A    between atoms: C_8  and  C_13
REMARK    3  A    between atoms: C_12  and  O_16
REMARK    4  A    between atoms: C_18  and  O_19
REMARK    5  A    between atoms: O_19  and  C_23
REMARK                            x       y       z     vdW  Elec       q    Type
REMARK                         _______ _______ _______ _____ _____    ______ ____
ROOT
ATOM      1  S   UNL     1       1.562  -1.934  -0.274  0.00  0.00    +0.082 S 
ATOM      2  O   UNL     1       1.251  -2.577   0.984  0.00  0.00    -0.150 OA
ATOM      3  O   UNL     1       1.600  -2.636  -1.539  0.00  0.00    -0.150 OA
ATOM      4  O   UNL     1       1.047   1.868  -0.436  0.00  0.00    -0.268 OA
ATOM      5  N   UNL     1       0.673  -0.470  -0.431  0.00  0.00    -0.114 N 
ATOM      6  C   UNL     1       2.866   0.323  -0.147  0.00  0.00    +0.070 C 
ATOM      7  C   UNL     1       3.056  -1.058  -0.088  0.00  0.00    +0.133 C 
ATOM      8  C   UNL     1       3.943   1.183  -0.017  0.00  0.00    -0.014 C 
ATOM      9  C   UNL     1       1.462   0.727  -0.351  0.00  0.00    +0.271 C 
ATOM     10  C   UNL     1       4.296  -1.634   0.097  0.00  0.00    +0.057 C 
ATOM     11  C   UNL     1       5.211   0.624   0.172  0.00  0.00    +0.033 C 
ATOM     12  C   UNL     1       5.386  -0.771   0.228  0.00  0.00    +0.140 C 
ENDROOT
BRANCH   8  13
ATOM     13  C   UNL     1       3.803   2.665  -0.071  0.00  0.00    +0.023 C 
ATOM     14  C   UNL     1       4.574   3.288  -1.252  0.00  0.00    +0.005 C 
ATOM     15  C   UNL     1       4.226   3.346   1.245  0.00  0.00    +0.005 C 
ENDBRANCH   8  13
BRANCH  12  16
ATOM     16  O   UNL     1       6.634  -1.285   0.413  0.00  0.00    -0.471 OA
ATOM     17  C   UNL     1       6.749  -2.705   0.463  0.00  0.00    +0.252 C 
ENDBRANCH  12  16
BRANCH   5  18
ATOM     18  C   UNL     1      -0.783  -0.445  -0.633  0.00  0.00    +0.330 C 
BRANCH  18  19
ATOM     19  O   UNL     1      -1.371   0.261   0.455  0.00  0.00    -0.431 OA
BRANCH  19  23
ATOM     20  O   UNL     1      -5.239   2.813   0.066  0.00  0.00    -0.274 OA
ATOM     21  N   UNL     1      -5.416   0.471   0.075  0.00  0.00    -0.211 N 
ATOM     22  N   UNL     1      -3.420  -0.824   0.275  0.00  0.00    -0.355 NA
ATOM     23  C   UNL     1      -2.717   0.350   0.328  0.00  0.00    +0.265 C 
ATOM     24  C   UNL     1      -3.269   1.566   0.263  0.00  0.00    +0.185 C 
ATOM     25  C   UNL     1      -4.712  -0.739   0.153  0.00  0.00    +0.196 C 
ATOM     26  C   UNL     1      -4.738   1.692   0.125  0.00  0.00    +0.246 C 
ATOM     27  C   UNL     1      -5.516  -1.996   0.092  0.00  0.00    +0.049 C 
ATOM     28  C   UNL     1      -6.801   0.476  -0.054  0.00  0.00    +0.074 C 
ATOM     29  C   UNL     1      -6.846  -1.926  -0.032  0.00  0.00    +0.005 C 
ATOM     30  C   UNL     1      -7.512  -0.656  -0.107  0.00  0.00    +0.017 C 
ENDBRANCH  19  23
ENDBRANCH  18  19
ENDBRANCH   5  18
TORSDOF 5
