REMARK  Name = 107646
REMARK  4 active torsions:
REMARK  status: ('A' for Active; 'I' for Inactive)
REMARK    1  A    between atoms: N_2  and  C_12
REMARK    2  A    between atoms: N_4  and  C_6
REMARK    3  A    between atoms: N_4  and  N_11
REMARK    4  A    between atoms: C_12  and  C_16
REMARK                            x       y       z     vdW  Elec       q    Type
REMARK                         _______ _______ _______ _____ _____    ______ ____
ROOT
ATOM      1  O   UNL     1      -1.740  -2.799  -0.374  0.00  0.00    -0.320 OA
ATOM      2  N   UNL     1      -0.395  -1.141   0.688  0.00  0.00    -0.212 NA
ATOM      3  N   UNL     1      -2.233  -0.473  -0.646  0.00  0.00    -0.215 NA
ATOM      4  C   UNL     1      -0.426  -2.453   0.053  0.00  0.00    +0.224 C 
ATOM      5  C   UNL     1      -1.271  -0.115   0.309  0.00  0.00    +0.245 C 
ATOM      6  C   UNL     1      -2.254  -1.801  -1.253  0.00  0.00    +0.224 C 
ATOM      7  C   UNL     1      -3.167   0.496  -1.211  0.00  0.00    +0.095 C 
ENDROOT
BRANCH   5   8
ATOM      8  N   UNL     1      -1.175   1.083   0.830  0.00  0.00    -0.058 NA
BRANCH   8  11
ATOM      9  O   UNL     1      -3.188   2.016   0.939  0.00  0.00    -0.108 OA
ATOM     10  O   UNL     1      -1.812   2.637  -0.632  0.00  0.00    -0.108 OA
ATOM     11  N   UNL     1      -2.098   1.935   0.351  0.00  0.00    +0.142 N 
ENDBRANCH   8  11
ENDBRANCH   5   8
BRANCH   2  12
ATOM     12  C   UNL     1       0.725  -0.885   1.587  0.00  0.00    +0.112 C 
BRANCH  12  16
ATOM     13 CL   UNL     1       4.570   1.909  -1.184  0.00  0.00    -0.054 Cl
ATOM     14  S   UNL     1       2.182   1.172   0.429  0.00  0.00    -0.058 S 
ATOM     15  N   UNL     1       3.871  -0.568  -0.467  0.00  0.00    -0.226 NA
ATOM     16  C   UNL     1       1.918  -0.474   0.777  0.00  0.00    +0.045 C 
ATOM     17  C   UNL     1       2.897  -1.253   0.233  0.00  0.00    +0.104 C 
ATOM     18  C   UNL     1       3.596   0.717  -0.429  0.00  0.00    +0.168 C 
ENDBRANCH  12  16
ENDBRANCH   2  12
TORSDOF 4
