REMARK  Name = 10766085
REMARK  9 active torsions:
REMARK  status: ('A' for Active; 'I' for Inactive)
REMARK    1  A    between atoms: C_3  and  O_15
REMARK    2  A    between atoms: C_6  and  O_19
REMARK    3  A    between atoms: C_7  and  O_17
REMARK    4  A    between atoms: C_10  and  C_34
REMARK    5  A    between atoms: O_19  and  C_21
REMARK    6  A    between atoms: C_21  and  C_23
REMARK    7  A    between atoms: C_25  and  O_30
REMARK    8  A    between atoms: C_29  and  O_32
REMARK    9  A    between atoms: C_34  and  O_35
REMARK                            x       y       z     vdW  Elec       q    Type
REMARK                         _______ _______ _______ _____ _____    ______ ____
ROOT
ATOM      1  C   UNL     1       2.301   1.042  -0.715  0.00  0.00    +0.035 C 
ATOM      2  C   UNL     1       3.350  -0.039  -0.901  0.00  0.00    +0.034 C 
ATOM      3  C   UNL     1       1.447   1.028   0.585  0.00  0.00    +0.142 C 
ATOM      4  C   UNL     1       2.986  -1.391  -0.259  0.00  0.00    +0.024 C 
ATOM      5  C   UNL     1       0.979   0.881  -1.513  0.00  0.00    +0.049 C 
ATOM      6  C   UNL     1       0.249   1.479  -0.296  0.00  0.00    +0.197 C 
ATOM      7  C   UNL     1       4.714   0.330  -0.298  0.00  0.00    +0.111 C 
ATOM      8  C   UNL     1       5.445  -1.029  -0.228  0.00  0.00    +0.025 C 
ATOM      9  C   UNL     1       4.326  -1.978   0.254  0.00  0.00    +0.007 C 
ATOM     10  C   UNL     1       1.272  -0.289   1.263  0.00  0.00    +0.008 C 
ATOM     11  C   UNL     1       2.782   2.500  -0.936  0.00  0.00    +0.003 C 
ATOM     12  C   UNL     1       1.974  -1.358   0.856  0.00  0.00    -0.030 C 
ATOM     13  C   UNL     1       6.628  -1.034   0.749  0.00  0.00    +0.002 C 
ATOM     14  C   UNL     1       5.960  -1.463  -1.613  0.00  0.00    +0.002 C 
ENDROOT
BRANCH   3  15
ATOM     15  O   UNL     1       1.812   2.045   1.546  0.00  0.00    -0.379 OA
ATOM     16  H   UNL     1       1.923   2.894   1.091  0.00  0.00    +0.211 HD
ENDBRANCH   3  15
BRANCH   7  17
ATOM     17  O   UNL     1       4.535   0.879   1.005  0.00  0.00    -0.384 OA
ATOM     18  H   UNL     1       4.075   1.730   0.936  0.00  0.00    +0.210 HD
ENDBRANCH   7  17
BRANCH   6  19
ATOM     19  O   UNL     1      -1.046   0.899   0.009  0.00  0.00    -0.446 OA
BRANCH  19  21
ATOM     20  O   UNL     1      -1.950   1.825  -1.894  0.00  0.00    -0.245 OA
ATOM     21  C   UNL     1      -2.043   1.157  -0.876  0.00  0.00    +0.344 C 
BRANCH  21  23
ATOM     22 CL   UNL     1      -5.160  -2.997  -0.950  0.00  0.00    -0.079 Cl
ATOM     23  C   UNL     1      -3.303   0.504  -0.440  0.00  0.00    +0.106 C 
ATOM     24  C   UNL     1      -3.585  -0.782  -0.861  0.00  0.00    +0.001 C 
ATOM     25  C   UNL     1      -4.165   1.208   0.380  0.00  0.00    +0.143 C 
ATOM     26  C   UNL     1      -4.771  -1.387  -0.446  0.00  0.00    +0.088 C 
ATOM     27  C   UNL     1      -5.351   0.604   0.795  0.00  0.00    +0.074 C 
ATOM     28  C   UNL     1      -2.627  -1.514  -1.749  0.00  0.00    +0.032 C 
ATOM     29  C   UNL     1      -5.655  -0.694   0.382  0.00  0.00    +0.147 C 
BRANCH  25  30
ATOM     30  O   UNL     1      -3.889   2.477   0.796  0.00  0.00    -0.505 OA
ATOM     31  H   UNL     1      -3.096   2.896   0.525  0.00  0.00    +0.292 HD
ENDBRANCH  25  30
BRANCH  29  32
ATOM     32  O   UNL     1      -6.823  -1.256   0.805  0.00  0.00    -0.505 OA
ATOM     33  H   UNL     1      -7.046  -2.127   0.540  0.00  0.00    +0.292 HD
ENDBRANCH  29  32
ENDBRANCH  21  23
ENDBRANCH  19  21
ENDBRANCH   6  19
BRANCH  10  34
ATOM     34  C   UNL     1       0.309  -0.348   2.412  0.00  0.00    +0.161 C 
BRANCH  34  35
ATOM     35  O   UNL     1      -0.703  -1.299   2.137  0.00  0.00    -0.377 OA
ATOM     36  H   UNL     1      -1.323  -1.335   2.882  0.00  0.00    +0.211 HD
ENDBRANCH  34  35
ENDBRANCH  10  34
TORSDOF 9
