REMARK  Name = 107602
REMARK  6 active torsions:
REMARK  status: ('A' for Active; 'I' for Inactive)
REMARK    1  A    between atoms: CA_7  and  C_25
REMARK    2  A    between atoms: CA_8  and  N_13
REMARK    3  A    between atoms: C_14  and  C_16
REMARK    4  A    between atoms: C_16  and  O_17
REMARK    5  A    between atoms: O_17  and  C_18
REMARK    6  A    between atoms: C_25  and  O_26
REMARK                            x       y       z     vdW  Elec       q    Type
REMARK                         _______ _______ _______ _____ _____    ______ ____
ROOT
ATOM      1  S   UNL     1       1.244   1.186  -0.616  0.00  0.00    +0.062 S 
ATOM      2  O   UNL     1       1.011   1.904  -1.913  0.00  0.00    -0.254 OA
ATOM      3  O   UNL     1       2.625  -2.579   1.376  0.00  0.00    -0.273 OA
ATOM      4  N   UNL     1       2.954  -0.773  -0.106  0.00  0.00    -0.258 N 
ATOM      5  C   UNL     1       1.901  -0.512  -1.096  0.00  0.00    +0.182 C 
ATOM      6  C   UNL     1       2.986   1.632  -0.003  0.00  0.00    +0.097 C 
ATOM      7  CA  UNL     1       3.488   0.332   0.662  0.00  0.00    +0.187 C 
ATOM      8  CA  UNL     1       1.215  -1.795  -0.600  0.00  0.00    +0.180 C 
ATOM      9  C   UNL     1       2.370  -1.891   0.413  0.00  0.00    +0.247 C 
ATOM     10  C   UNL     1       3.836   2.098  -1.195  0.00  0.00    +0.016 C 
ATOM     11  C   UNL     1       2.846   2.765   1.017  0.00  0.00    +0.016 C 
ENDROOT
BRANCH   8  13
ATOM     12  O   UNL     1      -1.271  -1.184  -1.962  0.00  0.00    -0.271 OA
ATOM     13  N   UNL     1      -0.110  -1.624   0.003  0.00  0.00    -0.293 N 
ATOM     14  C   UNL     1      -1.253  -1.329  -0.743  0.00  0.00    +0.267 C 
ATOM     15  H   UNL     1      -0.198  -1.721   0.978  0.00  0.00    +0.150 HD
BRANCH  14  16
ATOM     16  C   UNL     1      -2.489  -1.206   0.120  0.00  0.00    +0.289 C 
BRANCH  16  17
ATOM     17  O   UNL     1      -3.623  -0.922  -0.671  0.00  0.00    -0.466 OA
BRANCH  17  18
ATOM     18  C   UNL     1      -4.628  -0.187  -0.088  0.00  0.00    +0.139 C 
ATOM     19  C   UNL     1      -4.838  -0.281   1.281  0.00  0.00    +0.037 C 
ATOM     20  C   UNL     1      -5.418   0.637  -0.877  0.00  0.00    +0.037 C 
ATOM     21  C   UNL     1      -5.858   0.464   1.872  0.00  0.00    +0.003 C 
ATOM     22  C   UNL     1      -6.439   1.382  -0.286  0.00  0.00    +0.003 C 
ATOM     23  C   UNL     1      -6.659   1.295   1.089  0.00  0.00    +0.000 C 
ENDBRANCH  17  18
ENDBRANCH  16  17
ENDBRANCH  14  16
ENDBRANCH   8  13
BRANCH   7  25
ATOM     24  OXT UNL     1       5.602  -0.704   0.127  0.00  0.00    -0.248 OA
ATOM     25  C   UNL     1       4.973   0.169   0.708  0.00  0.00    +0.333 C 
BRANCH  25  26
ATOM     26  O   UNL     1       5.535   1.123   1.489  0.00  0.00    -0.479 OA
ATOM     27  H   UNL     1       4.995   1.764   1.907  0.00  0.00    +0.295 HD
ENDBRANCH  25  26
ENDBRANCH   7  25
TORSDOF 6
