10766085
  -OEChem-03292013303D

 60 63  0     1  0  0  0  0  0999 V2000
   -5.1604   -2.9968   -0.9503 Cl  0  0  0  0  0  0  0  0  0  0  0  0
    1.8121    2.0445    1.5455 O   0  0  0  0  0  0  0  0  0  0  0  0
   -1.0456    0.8990    0.0094 O   0  0  0  0  0  0  0  0  0  0  0  0
    4.5348    0.8787    1.0048 O   0  0  0  0  0  0  0  0  0  0  0  0
   -0.7026   -1.2988    2.1373 O   0  0  0  0  0  0  0  0  0  0  0  0
   -1.9503    1.8253   -1.8937 O   0  0  0  0  0  0  0  0  0  0  0  0
   -3.8889    2.4765    0.7956 O   0  0  0  0  0  0  0  0  0  0  0  0
   -6.8226   -1.2562    0.8053 O   0  0  0  0  0  0  0  0  0  0  0  0
    2.3013    1.0423   -0.7148 C   0  0  2  0  0  0  0  0  0  0  0  0
    3.3504   -0.0392   -0.9011 C   0  0  2  0  0  0  0  0  0  0  0  0
    1.4470    1.0284    0.5848 C   0  0  2  0  0  0  0  0  0  0  0  0
    2.9861   -1.3912   -0.2587 C   0  0  1  0  0  0  0  0  0  0  0  0
    0.9793    0.8806   -1.5126 C   0  0  0  0  0  0  0  0  0  0  0  0
    0.2493    1.4791   -0.2962 C   0  0  1  0  0  0  0  0  0  0  0  0
    4.7143    0.3299   -0.2979 C   0  0  2  0  0  0  0  0  0  0  0  0
    5.4447   -1.0287   -0.2277 C   0  0  0  0  0  0  0  0  0  0  0  0
    4.3263   -1.9778    0.2540 C   0  0  0  0  0  0  0  0  0  0  0  0
    1.2715   -0.2886    1.2634 C   0  0  0  0  0  0  0  0  0  0  0  0
    2.7820    2.5004   -0.9356 C   0  0  0  0  0  0  0  0  0  0  0  0
    1.9735   -1.3576    0.8556 C   0  0  0  0  0  0  0  0  0  0  0  0
    6.6281   -1.0341    0.7489 C   0  0  0  0  0  0  0  0  0  0  0  0
    5.9603   -1.4627   -1.6134 C   0  0  0  0  0  0  0  0  0  0  0  0
    0.3091   -0.3481    2.4116 C   0  0  0  0  0  0  0  0  0  0  0  0
   -2.0428    1.1572   -0.8756 C   0  0  0  0  0  0  0  0  0  0  0  0
   -3.3029    0.5039   -0.4404 C   0  0  0  0  0  0  0  0  0  0  0  0
   -3.5849   -0.7825   -0.8606 C   0  0  0  0  0  0  0  0  0  0  0  0
   -4.1649    1.2080    0.3799 C   0  0  0  0  0  0  0  0  0  0  0  0
   -4.7714   -1.3869   -0.4455 C   0  0  0  0  0  0  0  0  0  0  0  0
   -5.3515    0.6037    0.7950 C   0  0  0  0  0  0  0  0  0  0  0  0
   -2.6265   -1.5144   -1.7494 C   0  0  0  0  0  0  0  0  0  0  0  0
   -5.6548   -0.6938    0.3822 C   0  0  0  0  0  0  0  0  0  0  0  0
    3.4914   -0.1955   -1.9790 H   0  0  0  0  0  0  0  0  0  0  0  0
    2.5823   -2.0508   -1.0380 H   0  0  0  0  0  0  0  0  0  0  0  0
    0.7000   -0.1563   -1.7354 H   0  0  0  0  0  0  0  0  0  0  0  0
    0.9008    1.4541   -2.4417 H   0  0  0  0  0  0  0  0  0  0  0  0
    0.1312    2.5694   -0.3486 H   0  0  0  0  0  0  0  0  0  0  0  0
    5.2474    1.0640   -0.9118 H   0  0  0  0  0  0  0  0  0  0  0  0
    4.3286   -2.0439    1.3500 H   0  0  0  0  0  0  0  0  0  0  0  0
    4.4712   -2.9986   -0.1197 H   0  0  0  0  0  0  0  0  0  0  0  0
    3.5092    2.8185   -0.1824 H   0  0  0  0  0  0  0  0  0  0  0  0
    3.2862    2.5676   -1.9079 H   0  0  0  0  0  0  0  0  0  0  0  0
    1.9897    3.2544   -0.9586 H   0  0  0  0  0  0  0  0  0  0  0  0
    1.8090   -2.3055    1.3659 H   0  0  0  0  0  0  0  0  0  0  0  0
    1.5153    2.8990    1.1926 H   0  0  0  0  0  0  0  0  0  0  0  0
    7.1147   -2.0159    0.7703 H   0  0  0  0  0  0  0  0  0  0  0  0
    7.3789   -0.2921    0.4557 H   0  0  0  0  0  0  0  0  0  0  0  0
    6.3173   -0.8084    1.7746 H   0  0  0  0  0  0  0  0  0  0  0  0
    5.1557   -1.5861   -2.3444 H   0  0  0  0  0  0  0  0  0  0  0  0
    6.6659   -0.7261   -2.0137 H   0  0  0  0  0  0  0  0  0  0  0  0
    6.4828   -2.4244   -1.5515 H   0  0  0  0  0  0  0  0  0  0  0  0
   -0.1692    0.6161    2.6103 H   0  0  0  0  0  0  0  0  0  0  0  0
    0.8293   -0.6485    3.3272 H   0  0  0  0  0  0  0  0  0  0  0  0
    5.3906    1.2404    1.2904 H   0  0  0  0  0  0  0  0  0  0  0  0
   -1.1800   -1.0045    1.3427 H   0  0  0  0  0  0  0  0  0  0  0  0
   -6.0345    1.1510    1.4402 H   0  0  0  0  0  0  0  0  0  0  0  0
   -1.7848   -0.9127   -2.1002 H   0  0  0  0  0  0  0  0  0  0  0  0
   -2.2029   -2.3729   -1.2167 H   0  0  0  0  0  0  0  0  0  0  0  0
   -3.1363   -1.8669   -2.6529 H   0  0  0  0  0  0  0  0  0  0  0  0
   -3.0344    2.7727    0.4431 H   0  0  0  0  0  0  0  0  0  0  0  0
   -7.2977   -0.6220    1.3692 H   0  0  0  0  0  0  0  0  0  0  0  0
  1 28  1  0  0  0  0
  2 11  1  0  0  0  0
  2 44  1  0  0  0  0
  3 14  1  0  0  0  0
  3 24  1  0  0  0  0
  4 15  1  0  0  0  0
  4 53  1  0  0  0  0
  5 23  1  0  0  0  0
  5 54  1  0  0  0  0
  6 24  2  0  0  0  0
  7 27  1  0  0  0  0
  7 59  1  0  0  0  0
  8 31  1  0  0  0  0
  8 60  1  0  0  0  0
  9 10  1  0  0  0  0
  9 11  1  0  0  0  0
  9 13  1  0  0  0  0
  9 19  1  0  0  0  0
 10 12  1  0  0  0  0
 10 15  1  0  0  0  0
 10 32  1  0  0  0  0
 11 14  1  0  0  0  0
 11 18  1  0  0  0  0
 12 17  1  0  0  0  0
 12 20  1  0  0  0  0
 12 33  1  0  0  0  0
 13 14  1  0  0  0  0
 13 34  1  0  0  0  0
 13 35  1  0  0  0  0
 14 36  1  0  0  0  0
 15 16  1  0  0  0  0
 15 37  1  0  0  0  0
 16 17  1  0  0  0  0
 16 21  1  0  0  0  0
 16 22  1  0  0  0  0
 17 38  1  0  0  0  0
 17 39  1  0  0  0  0
 18 20  2  0  0  0  0
 18 23  1  0  0  0  0
 19 40  1  0  0  0  0
 19 41  1  0  0  0  0
 19 42  1  0  0  0  0
 20 43  1  0  0  0  0
 21 45  1  0  0  0  0
 21 46  1  0  0  0  0
 21 47  1  0  0  0  0
 22 48  1  0  0  0  0
 22 49  1  0  0  0  0
 22 50  1  0  0  0  0
 23 51  1  0  0  0  0
 23 52  1  0  0  0  0
 24 25  1  0  0  0  0
 25 26  2  0  0  0  0
 25 27  1  0  0  0  0
 26 28  1  0  0  0  0
 26 30  1  0  0  0  0
 27 29  2  0  0  0  0
 28 31  2  0  0  0  0
 29 31  1  0  0  0  0
 29 55  1  0  0  0  0
 30 56  1  0  0  0  0
 30 57  1  0  0  0  0
 30 58  1  0  0  0  0
M  END
> <PUBCHEM_COMPOUND_CID>
10766085

> <PUBCHEM_CONFORMER_RMSD>
0.8

> <PUBCHEM_CONFORMER_DIVERSEORDER>
1
9
8
11
10
3
12
4
6
7
2
5

> <PUBCHEM_MMFF94_PARTIAL_CHARGES>
30
1 -0.18
11 0.37
12 0.14
14 0.26
15 0.28
18 -0.25
2 -0.66
20 -0.29
23 0.42
24 0.63
25 0.09
26 -0.14
27 0.08
28 0.18
29 -0.15
3 -0.41
30 0.14
31 0.08
4 -0.68
43 0.15
44 0.4
5 -0.68
53 0.4
54 0.4
55 0.15
59 0.45
6 -0.57
60 0.45
7 -0.53
8 -0.53

> <PUBCHEM_EFFECTIVE_ROTOR_COUNT>
5

> <PUBCHEM_PHARMACOPHORE_FEATURES>
14
1 2 acceptor
1 2 donor
1 4 acceptor
1 4 donor
1 5 acceptor
1 5 donor
1 6 acceptor
1 7 donor
1 8 donor
3 16 21 22 hydrophobe
4 9 11 13 14 rings
5 10 12 15 16 17 rings
6 25 26 27 28 29 31 rings
6 9 10 11 12 18 20 rings

> <PUBCHEM_HEAVY_ATOM_COUNT>
31

> <PUBCHEM_ATOM_DEF_STEREO_COUNT>
6

> <PUBCHEM_ATOM_UDEF_STEREO_COUNT>
0

> <PUBCHEM_BOND_DEF_STEREO_COUNT>
0

> <PUBCHEM_BOND_UDEF_STEREO_COUNT>
0

> <PUBCHEM_ISOTOPIC_ATOM_COUNT>
0

> <PUBCHEM_COMPONENT_COUNT>
1

> <PUBCHEM_CACTVS_TAUTO_COUNT>
25

> <PUBCHEM_CONFORMER_ID>
00A4470500000001

> <PUBCHEM_MMFF94_ENERGY>
108.3267

> <PUBCHEM_FEATURE_SELFOVERLAP>
71.698

> <PUBCHEM_SHAPE_FINGERPRINT>
10366900 7 14490188332610291237
11488393 25 16082481160054626802
11578080 2 17771900795417764962
117089 54 18120663684763408219
11796584 16 18059858320338736110
11961588 58 16009046003197088796
12107698 1 18335138700415596255
12236239 1 18335707139442976557
12467345 10 18272370862534657531
12633257 1 15912767336056722111
13224815 77 17821719546976495081
13690498 29 18040995099010795645
13782708 43 18409727365672794842
13911987 19 15719685302483657239
14251751 18 17989205975307658895
14341114 176 18131914870863251705
14849402 71 18198901599438152416
14856354 85 18059861657623114885
15142383 8 17774724160393849337
15183329 4 18411420600573465638
15209289 33 18113901533062855681
15238133 3 15841280315232846873
15537594 2 18260829259077028787
15788980 27 16630520722227826244
16110190 28 18202281433097192367
17349148 13 17748827376442278376
17857418 61 18341611538432602607
20028762 73 18409446990477179006
21033648 29 14835858261549279673
21267235 1 18335990813015428183
21814621 53 17632010832790261978
221357 26 18113617880521700407
22393880 68 17531231843103313053
23522609 53 17972068910058414524
23559900 14 18200864180469606353
23569943 247 17900824847351124418
2838139 119 7925905976550513686
3472631 163 10665489822237788975
3737641 26 18191304883842136030
404807 78 14274320171252437329
4340502 62 17917982898443183482
463206 1 18337672030634969623
5104073 3 17774446109054277699
6009941 240 17702951309712898041
653340 110 11886859206554219323
6669772 16 16588308366931524756
7226269 152 16056881286822988851
7495541 125 18131069372011947592
7970288 3 18125152995102760991

> <PUBCHEM_SHAPE_MULTIPOLES>
598.75
15.08
2.5
1.71
3.28
0.07
0.35
7.8
-0.18
1.13
-0.46
-0.16
0.09
-0.62

> <PUBCHEM_SHAPE_SELFOVERLAP>
1297.038

> <PUBCHEM_SHAPE_VOLUME>
330.5

> <PUBCHEM_COORDINATE_TYPE>
2
5
10

$$$$
