107646
  -OEChem-03292013323D

 28 29  0     0  0  0  0  0  0999 V2000
    4.5700    1.9085   -1.1836 Cl  0  0  0  0  0  0  0  0  0  0  0  0
    2.1821    1.1718    0.4295 S   0  0  0  0  0  0  0  0  0  0  0  0
   -1.7405   -2.7994   -0.3742 O   0  0  0  0  0  0  0  0  0  0  0  0
   -3.1875    2.0157    0.9393 O   0  5  0  0  0  0  0  0  0  0  0  0
   -1.8119    2.6369   -0.6320 O   0  0  0  0  0  0  0  0  0  0  0  0
   -0.3949   -1.1405    0.6881 N   0  0  0  0  0  0  0  0  0  0  0  0
   -2.2332   -0.4728   -0.6463 N   0  0  0  0  0  0  0  0  0  0  0  0
   -1.1753    1.0828    0.8298 N   0  0  0  0  0  0  0  0  0  0  0  0
    3.8708   -0.5683   -0.4667 N   0  0  0  0  0  0  0  0  0  0  0  0
   -2.0981    1.9345    0.3507 N   0  3  0  0  0  0  0  0  0  0  0  0
   -0.4259   -2.4525    0.0526 C   0  0  0  0  0  0  0  0  0  0  0  0
   -1.2712   -0.1154    0.3091 C   0  0  0  0  0  0  0  0  0  0  0  0
    0.7252   -0.8853    1.5874 C   0  0  0  0  0  0  0  0  0  0  0  0
   -2.2541   -1.8014   -1.2529 C   0  0  0  0  0  0  0  0  0  0  0  0
    1.9181   -0.4743    0.7769 C   0  0  0  0  0  0  0  0  0  0  0  0
   -3.1666    0.4962   -1.2111 C   0  0  0  0  0  0  0  0  0  0  0  0
    2.8965   -1.2532    0.2329 C   0  0  0  0  0  0  0  0  0  0  0  0
    3.5964    0.7168   -0.4294 C   0  0  0  0  0  0  0  0  0  0  0  0
    0.2490   -2.4791   -0.8112 H   0  0  0  0  0  0  0  0  0  0  0  0
   -0.1039   -3.2310    0.7520 H   0  0  0  0  0  0  0  0  0  0  0  0
    0.9665   -1.7911    2.1582 H   0  0  0  0  0  0  0  0  0  0  0  0
    0.4719   -0.1294    2.3408 H   0  0  0  0  0  0  0  0  0  0  0  0
   -3.2780   -2.1046   -1.4954 H   0  0  0  0  0  0  0  0  0  0  0  0
   -1.6746   -1.8017   -2.1838 H   0  0  0  0  0  0  0  0  0  0  0  0
   -2.7243    1.2226   -1.8953 H   0  0  0  0  0  0  0  0  0  0  0  0
   -4.0007    0.7904   -0.5729 H   0  0  0  0  0  0  0  0  0  0  0  0
   -3.7581   -0.0554   -1.9631 H   0  0  0  0  0  0  0  0  0  0  0  0
    2.9624   -2.3304    0.3070 H   0  0  0  0  0  0  0  0  0  0  0  0
  1 18  1  0  0  0  0
  2 15  1  0  0  0  0
  2 18  1  0  0  0  0
  3 11  1  0  0  0  0
  3 14  1  0  0  0  0
  4 10  1  0  0  0  0
  5 10  2  0  0  0  0
  6 11  1  0  0  0  0
  6 12  1  0  0  0  0
  6 13  1  0  0  0  0
  7 12  1  0  0  0  0
  7 14  1  0  0  0  0
  7 16  1  0  0  0  0
  8 10  1  0  0  0  0
  8 12  2  3  0  0  0
  9 17  1  0  0  0  0
  9 18  2  0  0  0  0
 11 19  1  0  0  0  0
 11 20  1  0  0  0  0
 13 15  1  0  0  0  0
 13 21  1  0  0  0  0
 13 22  1  0  0  0  0
 14 23  1  0  0  0  0
 14 24  1  0  0  0  0
 15 17  2  0  0  0  0
 16 25  1  0  0  0  0
 16 26  1  0  0  0  0
 16 27  1  0  0  0  0
 17 28  1  0  0  0  0
M  CHG  2   4  -1  10   1
M  END
> <PUBCHEM_COMPOUND_CID>
107646

> <PUBCHEM_CONFORMER_RMSD>
0.6

> <PUBCHEM_CONFORMER_DIVERSEORDER>
1
8
10
15
6
7
16
12
11
5
13
4
2
14
3
9

> <PUBCHEM_MMFF94_PARTIAL_CHARGES>
19
1 -0.12
10 1.09
11 0.65
12 0.55
13 0.55
14 0.65
15 -0.14
16 0.37
17 0.08
18 0.5
2 -0.08
28 0.15
3 -0.56
4 -0.52
5 -0.52
6 -0.79
7 -0.79
8 -0.5
9 -0.57

> <PUBCHEM_EFFECTIVE_ROTOR_COUNT>
4

> <PUBCHEM_PHARMACOPHORE_FEATURES>
7
1 3 acceptor
1 4 acceptor
1 5 acceptor
1 9 acceptor
4 6 7 8 12 cation
5 2 9 15 17 18 rings
6 3 6 7 11 12 14 rings

> <PUBCHEM_HEAVY_ATOM_COUNT>
18

> <PUBCHEM_ATOM_DEF_STEREO_COUNT>
0

> <PUBCHEM_ATOM_UDEF_STEREO_COUNT>
0

> <PUBCHEM_BOND_DEF_STEREO_COUNT>
0

> <PUBCHEM_BOND_UDEF_STEREO_COUNT>
1

> <PUBCHEM_ISOTOPIC_ATOM_COUNT>
0

> <PUBCHEM_COMPONENT_COUNT>
1

> <PUBCHEM_CACTVS_TAUTO_COUNT>
1

> <PUBCHEM_CONFORMER_ID>
0001A47E00000001

> <PUBCHEM_MMFF94_ENERGY>
73.1265

> <PUBCHEM_FEATURE_SELFOVERLAP>
35.61

> <PUBCHEM_SHAPE_FINGERPRINT>
10498660 4 18336539538184897252
11640471 11 17895182312268322206
12173636 292 18341606001734402773
12382932 28 8214138594505822514
12491281 212 18335143094114444378
12824470 246 11023523788572652133
14123250 116 18409738386669808480
14790565 3 18341334405810876449
15502708 8 18272369810352293411
15775835 57 18335424508766570464
16752209 62 18200008674264900557
16945 1 18341599438919152419
17134986 127 18049439249274698237
17357990 137 18118108187410237850
18186145 218 17822298959650156378
18219364 16 15864352501526526844
18785283 64 17836666127460930379
20300324 65 18267025144928559028
20361792 2 14333413376041625666
20645476 183 18266172842538075075
20871999 31 18130788975050773204
21421566 26 17771629232787983382
21501502 16 18409728474238236538
21524375 3 18263643961477786467
22620623 9 17346309440825130543
22802520 49 18059005202379089626
23419403 2 16160201578399070067
235170 7 17415586413191488076
23557571 272 17983554571382006378
23559900 14 17845926313881319578
238 59 17320666428362477484
27216 239 14057276575444092350
2748010 2 17838024329353498019
3060560 45 17906729207015299076
3082319 5 18413108381466394550
4028521 119 18260544563011756132
474 4 17749112244401059084
526903 126 18190456254344522256
59027123 10 18411144649652217454
7615 1 18188475948383126394
7832392 63 18411140208355469656
81228 2 18268697484691879467
9981440 41 17898846018736495952

> <PUBCHEM_SHAPE_MULTIPOLES>
333.64
6.87
2.84
1.24
6.05
0.18
0
2.9
-2.75
-1.74
-0.21
-0.14
0.04
-1.22

> <PUBCHEM_SHAPE_SELFOVERLAP>
677.34

> <PUBCHEM_SHAPE_VOLUME>
197.3

> <PUBCHEM_COORDINATE_TYPE>
2
5
10

$$$$
