REMARK  Name = 107650
REMARK  14 active torsions:
REMARK  status: ('A' for Active; 'I' for Inactive)
REMARK    1  A    between atoms: N_2  and  CA_5
REMARK    2  A    between atoms: C_3  and  C_19
REMARK    3  A    between atoms: CA_5  and  C_8
REMARK    4  A    between atoms: CA_5  and  CB_15
REMARK    5  A    between atoms: N_7  and  CA_10
REMARK    6  A    between atoms: CA_10  and  C_12
REMARK    7  A    between atoms: C_12  and  O_13
REMARK    8  A    between atoms: CB_15  and  SG_16
REMARK    9  A    between atoms: SG_16  and  C_17
REMARK   10  A    between atoms: C_19  and  C_20
REMARK   11  A    between atoms: C_20  and  CA_21
REMARK   12  A    between atoms: CA_21  and  N_22
REMARK   13  A    between atoms: CA_21  and  C_27
REMARK   14  A    between atoms: C_27  and  O_28
REMARK                            x       y       z     vdW  Elec       q    Type
REMARK                         _______ _______ _______ _____ _____    ______ ____
ROOT
ATOM      1  O   UNL     1      -1.532  -0.713  -2.157  0.00  0.00    -0.275 OA
ATOM      2  N   UNL     1      -0.212  -0.523  -0.256  0.00  0.00    -0.298 N 
ATOM      3  C   UNL     1      -1.415  -0.639  -0.937  0.00  0.00    +0.223 C 
ATOM      4  H   UNL     1      -0.230  -0.471   0.727  0.00  0.00    +0.150 HD
ENDROOT
BRANCH   2   5
ATOM      5  CA  UNL     1       1.067  -0.474  -0.926  0.00  0.00    +0.159 C 
BRANCH   5   8
ATOM      6  O   UNL     1       1.864  -1.604   1.069  0.00  0.00    -0.273 OA
ATOM      7  N   UNL     1       3.339  -1.276  -0.692  0.00  0.00    -0.294 N 
ATOM      8  C   ACE A   1       2.106  -1.186  -0.062  0.00  0.00    +0.242 C 
ATOM      9  H   UNL     1       3.434  -0.911  -1.601  0.00  0.00    +0.150 HD
BRANCH   7  10
ATOM     10  CA  UNL     1       4.490  -1.885  -0.067  0.00  0.00    +0.200 C 
BRANCH  10  12
ATOM     11  OXT UNL     1       6.342  -1.215   1.318  0.00  0.00    -0.248 OA
ATOM     12  C   UNL     1       5.319  -0.903   0.720  0.00  0.00    +0.334 C 
BRANCH  12  13
ATOM     13  O   UNL     1       4.826   0.357   0.703  0.00  0.00    -0.479 OA
ATOM     14  H   UNL     1       4.040   0.546   0.229  0.00  0.00    +0.295 HD
ENDBRANCH  12  13
ENDBRANCH  10  12
ENDBRANCH   7  10
ENDBRANCH   5   8
BRANCH   5  15
ATOM     15  CB  UNL     1       1.470   0.952  -1.310  0.00  0.00    +0.086 C 
BRANCH  15  16
ATOM     16  SG  UNL     1       1.704   2.058   0.119  0.00  0.00    -0.138 S 
BRANCH  16  17
ATOM     17  C   UNL     1       2.070   3.576  -0.790  0.00  0.00    +0.058 C 
ATOM     18  C   UNL     1       2.321   4.724   0.169  0.00  0.00    +0.013 C 
ENDBRANCH  16  17
ENDBRANCH  15  16
ENDBRANCH   5  15
ENDBRANCH   2   5
BRANCH   3  19
ATOM     19  C   UNL     1      -2.597  -0.656   0.017  0.00  0.00    +0.083 C 
BRANCH  19  20
ATOM     20  C   UNL     1      -3.935  -0.783  -0.715  0.00  0.00    -0.001 C 
BRANCH  20  21
ATOM     21  CA  UNL     1      -5.130  -0.875   0.241  0.00  0.00    +0.036 C 
BRANCH  21  22
ATOM     22  N   UNL     1      -6.368  -0.994  -0.533  0.00  0.00    +0.389 N 
ATOM     23  H1  UNL     1      -6.325  -1.829  -1.117  0.00  0.00    -0.088 HD
ATOM     24  H2  UNL     1      -6.479  -0.171  -1.126  0.00  0.00    -0.088 HD
ATOM     25  H3  UNL     1      -7.161  -1.064   0.104  0.00  0.00    -0.088 HD
ENDBRANCH  21  22
BRANCH  21  27
ATOM     26  OXT UNL     1      -5.859   1.396   0.742  0.00  0.00    -0.253 OA
ATOM     27  C   UNL     1      -5.261   0.383   1.081  0.00  0.00    +0.293 C 
BRANCH  27  28
ATOM     28  O   UNL     1      -4.610   0.279   2.269  0.00  0.00    -0.482 OA
ATOM     29  H   UNL     1      -4.164  -0.515   2.491  0.00  0.00    +0.295 HD
ENDBRANCH  27  28
ENDBRANCH  21  27
ENDBRANCH  20  21
ENDBRANCH  19  20
ENDBRANCH   3  19
TORSDOF 14
