107702
  -OEChem-03292013323D

 40 45  0     1  0  0  0  0  0999 V2000
   -2.1168    2.5589    0.6258 O   0  0  0  0  0  0  0  0  0  0  0  0
    0.4217    1.2885    1.5503 O   0  0  0  0  0  0  0  0  0  0  0  0
   -4.8501    0.8795   -0.3643 O   0  0  0  0  0  0  0  0  0  0  0  0
   -4.8016   -1.5923    0.3301 O   0  0  0  0  0  0  0  0  0  0  0  0
    4.8941    1.2371    0.1534 O   0  0  0  0  0  0  0  0  0  0  0  0
    5.0363   -1.2851   -0.2529 O   0  0  0  0  0  0  0  0  0  0  0  0
   -0.6328    1.0072   -0.6451 C   0  0  1  0  0  0  0  0  0  0  0  0
   -1.4608    2.2594   -0.6107 C   0  0  1  0  0  0  0  0  0  0  0  0
    0.7008    1.1428    0.1537 C   0  0  2  0  0  0  0  0  0  0  0  0
   -2.9481    2.1977   -0.4926 C   0  0  1  0  0  0  0  0  0  0  0  0
   -1.3918   -0.2498   -0.2300 C   0  0  0  0  0  0  0  0  0  0  0  0
    1.5235   -0.1308    0.0015 C   0  0  0  0  0  0  0  0  0  0  0  0
    1.5132    2.3622   -0.3206 C   0  0  0  0  0  0  0  0  0  0  0  0
   -2.7966   -0.2998   -0.1264 C   0  0  0  0  0  0  0  0  0  0  0  0
   -3.6283    0.9070   -0.3289 C   0  0  0  0  0  0  0  0  0  0  0  0
   -0.6306   -1.4253    0.0017 C   0  0  0  0  0  0  0  0  0  0  0  0
    0.8506   -1.3760   -0.0963 C   0  0  0  0  0  0  0  0  0  0  0  0
    2.8658    2.4406    0.3678 C   0  0  0  0  0  0  0  0  0  0  0  0
    2.9328   -0.0927   -0.0284 C   0  0  0  0  0  0  0  0  0  0  0  0
    3.6673    1.1866    0.1404 C   0  0  0  0  0  0  0  0  0  0  0  0
   -3.4475   -1.4915    0.2062 C   0  0  0  0  0  0  0  0  0  0  0  0
   -1.3158   -2.6051    0.3525 C   0  0  0  0  0  0  0  0  0  0  0  0
    1.6268   -2.5353   -0.2881 C   0  0  0  0  0  0  0  0  0  0  0  0
    3.6743   -1.2642   -0.2032 C   0  0  0  0  0  0  0  0  0  0  0  0
   -2.7060   -2.6396    0.4470 C   0  0  0  0  0  0  0  0  0  0  0  0
    3.0193   -2.4802   -0.3430 C   0  0  0  0  0  0  0  0  0  0  0  0
   -0.3813    0.8519   -1.7059 H   0  0  0  0  0  0  0  0  0  0  0  0
   -1.0414    3.0777   -1.1811 H   0  0  0  0  0  0  0  0  0  0  0  0
   -3.5153    2.9920   -0.9643 H   0  0  0  0  0  0  0  0  0  0  0  0
    0.9811    3.2941   -0.0973 H   0  0  0  0  0  0  0  0  0  0  0  0
    1.6612    2.3161   -1.4079 H   0  0  0  0  0  0  0  0  0  0  0  0
    2.7605    2.5956    1.4470 H   0  0  0  0  0  0  0  0  0  0  0  0
    3.4248    3.2877   -0.0456 H   0  0  0  0  0  0  0  0  0  0  0  0
   -0.0740    2.1157    1.6730 H   0  0  0  0  0  0  0  0  0  0  0  0
   -0.7801   -3.5246    0.5742 H   0  0  0  0  0  0  0  0  0  0  0  0
    1.1631   -3.5112   -0.4090 H   0  0  0  0  0  0  0  0  0  0  0  0
   -3.1906   -3.5736    0.7196 H   0  0  0  0  0  0  0  0  0  0  0  0
    3.5751   -3.4026   -0.4907 H   0  0  0  0  0  0  0  0  0  0  0  0
   -5.0420   -2.5038    0.5688 H   0  0  0  0  0  0  0  0  0  0  0  0
    5.3458   -2.1981   -0.3804 H   0  0  0  0  0  0  0  0  0  0  0  0
  1  8  1  0  0  0  0
  1 10  1  0  0  0  0
  2  9  1  0  0  0  0
  2 34  1  0  0  0  0
  3 15  2  0  0  0  0
  4 21  1  0  0  0  0
  4 39  1  0  0  0  0
  5 20  2  0  0  0  0
  6 24  1  0  0  0  0
  6 40  1  0  0  0  0
  7  8  1  0  0  0  0
  7  9  1  0  0  0  0
  7 11  1  0  0  0  0
  7 27  1  0  0  0  0
  8 10  1  0  0  0  0
  8 28  1  0  0  0  0
  9 12  1  0  0  0  0
  9 13  1  0  0  0  0
 10 15  1  0  0  0  0
 10 29  1  0  0  0  0
 11 14  1  0  0  0  0
 11 16  2  0  0  0  0
 12 17  2  0  0  0  0
 12 19  1  0  0  0  0
 13 18  1  0  0  0  0
 13 30  1  0  0  0  0
 13 31  1  0  0  0  0
 14 15  1  0  0  0  0
 14 21  2  0  0  0  0
 16 17  1  0  0  0  0
 16 22  1  0  0  0  0
 17 23  1  0  0  0  0
 18 20  1  0  0  0  0
 18 32  1  0  0  0  0
 18 33  1  0  0  0  0
 19 20  1  0  0  0  0
 19 24  2  0  0  0  0
 21 25  1  0  0  0  0
 22 25  2  0  0  0  0
 22 35  1  0  0  0  0
 23 26  2  0  0  0  0
 23 36  1  0  0  0  0
 24 26  1  0  0  0  0
 25 37  1  0  0  0  0
 26 38  1  0  0  0  0
M  END
> <PUBCHEM_COMPOUND_CID>
107702

> <PUBCHEM_CONFORMER_RMSD>
0.6

> <PUBCHEM_CONFORMER_DIVERSEORDER>
1
5
3
4
6
2

> <PUBCHEM_MMFF94_PARTIAL_CHARGES>
32
1 -0.3
10 0.05
11 -0.14
12 -0.14
14 0.09
15 0.48
18 0.06
19 0.09
2 -0.68
20 0.42
21 0.08
22 -0.15
23 -0.15
24 0.08
25 -0.15
26 -0.15
28 0.1
29 0.1
3 -0.57
34 0.4
35 0.15
36 0.15
37 0.15
38 0.15
39 0.45
4 -0.53
40 0.45
5 -0.57
6 -0.53
7 0.24
8 -0.05
9 0.42

> <PUBCHEM_EFFECTIVE_ROTOR_COUNT>
0.6

> <PUBCHEM_PHARMACOPHORE_FEATURES>
12
1 1 acceptor
1 2 acceptor
1 2 donor
1 3 acceptor
1 4 donor
1 5 acceptor
1 6 donor
6 11 14 16 21 22 25 rings
6 12 17 19 23 24 26 rings
6 7 9 11 12 16 17 rings
6 9 12 13 18 19 20 rings
7 1 7 8 10 11 14 15 rings

> <PUBCHEM_HEAVY_ATOM_COUNT>
26

> <PUBCHEM_ATOM_DEF_STEREO_COUNT>
0

> <PUBCHEM_ATOM_UDEF_STEREO_COUNT>
4

> <PUBCHEM_BOND_DEF_STEREO_COUNT>
0

> <PUBCHEM_BOND_UDEF_STEREO_COUNT>
0

> <PUBCHEM_ISOTOPIC_ATOM_COUNT>
0

> <PUBCHEM_COMPONENT_COUNT>
1

> <PUBCHEM_CACTVS_TAUTO_COUNT>
198

> <PUBCHEM_CONFORMER_ID>
0001A4B600000001

> <PUBCHEM_MMFF94_ENERGY>
84.9604

> <PUBCHEM_FEATURE_SELFOVERLAP>
61

> <PUBCHEM_SHAPE_FINGERPRINT>
10411042 1 16969421306510936782
10608611 8 18410291415053291958
10616163 171 18337954609491550214
10675989 125 16244611605454718309
10863032 1 18411700954589708964
10967382 1 18338233765101447052
1100329 8 17546446678602029475
11112241 14 16556470942465260160
11370993 70 18409442557648182892
11578080 2 16986851648647698091
11680986 33 18410294713498257613
12011746 2 18336824183047770181
12403259 226 18410853274000370652
12422481 6 18265922231881747211
12633257 1 18266459810693217154
13140716 1 17977664534878750922
13224815 77 18411419522499231274
13402501 40 18410292518791230767
14223421 5 18410575106148464916
14790565 3 17762908662408137997
15196674 1 18410011043788087926
16945 1 18410300223941304926
17357779 13 18336531820455831143
17492 89 18410011039578309146
1813 80 17168141286261821085
19591789 44 18192993725096186375
20510252 161 18411700993571352035
20691752 17 17386001771527085955
20775438 99 17049310592871482271
20905425 154 18340493368902604710
21267235 1 18339651040090735734
21279426 13 18338233765570880861
21421861 104 18187357718992761530
221490 88 18410579470220534910
23227448 37 18411696595208628783
2334 1 17833831951150295542
23558518 356 18260554424003317073
23559900 14 18411976971000778408
23566358 2 18412546483363268614
238 59 17323759341907756813
27425 322 17095246916868392085
2748010 2 18122340456520189439
335352 9 18337953389625854039
3380486 145 18193008221407402395
350125 39 18410298007738232100
3633792 109 18267012866103097205
3680242 22 18046907082739014874
5104073 3 18410291406389251808
5265222 85 17691408934126961752
59755656 215 18409729598897228134
9709674 26 18411702079908330286

> <PUBCHEM_SHAPE_MULTIPOLES>
499.85
8.36
3.51
0.77
0.88
0.25
-0.09
0.57
0.17
-0.22
-0.08
-0.05
-0.15
0.9

> <PUBCHEM_SHAPE_SELFOVERLAP>
1160.305

> <PUBCHEM_SHAPE_VOLUME>
249.3

> <PUBCHEM_COORDINATE_TYPE>
2
5
10

$$$$
