REMARK  Name = 107700
REMARK  12 active torsions:
REMARK  status: ('A' for Active; 'I' for Inactive)
REMARK    1  A    between atoms: C_1  and  N_3
REMARK    2  A    between atoms: C_1  and  N_22
REMARK    3  A    between atoms: C_5  and  C_12
REMARK    4  A    between atoms: C_12  and  CA_13
REMARK    5  A    between atoms: CA_13  and  N_14
REMARK    6  A    between atoms: CA_13  and  C_19
REMARK    7  A    between atoms: C_19  and  O_20
REMARK    8  A    between atoms: C_24  and  C_31
REMARK    9  A    between atoms: C_31  and  CA_32
REMARK   10  A    between atoms: CA_32  and  N_33
REMARK   11  A    between atoms: CA_32  and  C_38
REMARK   12  A    between atoms: C_38  and  O_39
REMARK                            x       y       z     vdW  Elec       q    Type
REMARK                         _______ _______ _______ _____ _____    ______ ____
ROOT
ATOM      1  C   UNL     1       0.153  -1.633   1.815  0.00  0.00    +0.158 C 
ATOM      2  C   UNL     1       0.408  -1.583   3.329  0.00  0.00    +0.045 C 
ENDROOT
BRANCH   1   3
ATOM      3  N   UNL     1       1.312  -1.338   1.000  0.00  0.00    -0.271 N 
ATOM      4  C   UNL     1       1.609  -1.923  -0.210  0.00  0.00    +0.053 C 
ATOM      5  C   UNL     1       3.213  -0.413   0.325  0.00  0.00    -0.008 C 
ATOM      6  C   UNL     1       2.804  -1.357  -0.658  0.00  0.00    +0.011 C 
ATOM      7  C   UNL     1       2.276  -0.424   1.332  0.00  0.00    +0.062 C 
ATOM      8  C   UNL     1       0.917  -2.901  -0.935  0.00  0.00    +0.015 C 
ATOM      9  C   UNL     1       3.338  -1.786  -1.890  0.00  0.00    +0.001 C 
ATOM     10  C   UNL     1       1.465  -3.310  -2.154  0.00  0.00    +0.001 C 
ATOM     11  C   UNL     1       2.657  -2.763  -2.626  0.00  0.00    +0.000 C 
BRANCH   5  12
ATOM     12  C   UNL     1       4.425   0.431   0.281  0.00  0.00    +0.017 C 
BRANCH  12  13
ATOM     13  CA  UNL     1       4.222   1.802  -0.403  0.00  0.00    +0.040 C 
BRANCH  13  14
ATOM     14  N   UNL     1       5.476   2.560  -0.409  0.00  0.00    +0.389 N 
ATOM     15  H1  UNL     1       6.190   2.031  -0.910  0.00  0.00    -0.088 HD
ATOM     16  H2  UNL     1       5.782   2.719   0.551  0.00  0.00    -0.088 HD
ATOM     17  H3  UNL     1       5.330   3.456  -0.873  0.00  0.00    -0.088 HD
ENDBRANCH  13  14
BRANCH  13  19
ATOM     18  OXT UNL     1       3.467   3.377   1.301  0.00  0.00    -0.253 OA
ATOM     19  C   UNL     1       3.208   2.643   0.355  0.00  0.00    +0.293 C 
BRANCH  19  20
ATOM     20  O   UNL     1       1.953   2.516  -0.151  0.00  0.00    -0.482 OA
ATOM     21  H   UNL     1       1.796   1.944  -0.876  0.00  0.00    +0.295 HD
ENDBRANCH  19  20
ENDBRANCH  13  19
ENDBRANCH  12  13
ENDBRANCH   5  12
ENDBRANCH   1   3
BRANCH   1  22
ATOM     22  N   UNL     1      -1.020  -0.858   1.381  0.00  0.00    -0.271 N 
ATOM     23  C   UNL     1      -2.150  -1.398   0.842  0.00  0.00    +0.053 C 
ATOM     24  C   UNL     1      -2.331   0.858   0.979  0.00  0.00    -0.008 C 
ATOM     25  C   UNL     1      -3.006  -0.327   0.575  0.00  0.00    +0.011 C 
ATOM     26  C   UNL     1      -1.101   0.492   1.474  0.00  0.00    +0.062 C 
ATOM     27  C   UNL     1      -2.493  -2.726   0.568  0.00  0.00    +0.015 C 
ATOM     28  C   UNL     1      -4.267  -0.594   0.005  0.00  0.00    +0.001 C 
ATOM     29  C   UNL     1      -3.749  -2.966   0.003  0.00  0.00    +0.001 C 
ATOM     30  C   UNL     1      -4.624  -1.918  -0.275  0.00  0.00    +0.000 C 
BRANCH  24  31
ATOM     31  C   UNL     1      -2.848   2.239   0.886  0.00  0.00    +0.017 C 
BRANCH  31  32
ATOM     32  CA  UNL     1      -2.516   2.956  -0.443  0.00  0.00    +0.040 C 
BRANCH  32  33
ATOM     33  N   UNL     1      -3.057   4.318  -0.436  0.00  0.00    +0.389 N 
ATOM     34  H1  UNL     1      -2.655   4.840   0.343  0.00  0.00    -0.088 HD
ATOM     35  H2  UNL     1      -4.071   4.280  -0.334  0.00  0.00    -0.088 HD
ATOM     36  H3  UNL     1      -2.820   4.782  -1.313  0.00  0.00    -0.088 HD
ENDBRANCH  32  33
BRANCH  32  38
ATOM     37  OXT UNL     1      -4.288   2.432  -2.034  0.00  0.00    -0.253 OA
ATOM     38  C   UNL     1      -3.151   2.239  -1.622  0.00  0.00    +0.293 C 
BRANCH  38  39
ATOM     39  O   UNL     1      -2.300   1.356  -2.207  0.00  0.00    -0.482 OA
ATOM     40  H   UNL     1      -1.437   1.238  -1.861  0.00  0.00    +0.295 HD
ENDBRANCH  38  39
ENDBRANCH  32  38
ENDBRANCH  31  32
ENDBRANCH  24  31
ENDBRANCH   1  22
TORSDOF 12
