REMARK  Name = 107730
REMARK  7 active torsions:
REMARK  status: ('A' for Active; 'I' for Inactive)
REMARK    1  A    between atoms: C_2  and  C_12
REMARK    2  A    between atoms: C_5  and  O_8
REMARK    3  A    between atoms: C_7  and  O_10
REMARK    4  A    between atoms: C_12  and  CA_13
REMARK    5  A    between atoms: CA_13  and  N_14
REMARK    6  A    between atoms: CA_13  and  C_19
REMARK    7  A    between atoms: C_19  and  O_20
REMARK                            x       y       z     vdW  Elec       q    Type
REMARK                         _______ _______ _______ _____ _____    ______ ____
ROOT
ATOM      1  F   UNL     1       0.383   2.735  -0.187  0.00  0.00    -0.204 F 
ATOM      2  C   UNL     1       0.116   0.484   0.517  0.00  0.00    +0.007 C 
ATOM      3  C   UNL     1       0.627  -0.791   0.692  0.00  0.00    +0.038 C 
ATOM      4  C   UNL     1       0.885   1.504  -0.019  0.00  0.00    +0.139 C 
ATOM      5  C   UNL     1       1.945  -1.054   0.321  0.00  0.00    +0.167 C 
ATOM      6  C   UNL     1       2.204   1.240  -0.390  0.00  0.00    +0.069 C 
ATOM      7  C   UNL     1       2.734  -0.038  -0.220  0.00  0.00    +0.170 C 
ENDROOT
BRANCH   5   8
ATOM      8  O   UNL     1       2.452  -2.307   0.491  0.00  0.00    -0.503 OA
ATOM      9  H   UNL     1       1.916  -2.984   0.855  0.00  0.00    +0.292 HD
ENDBRANCH   5   8
BRANCH   7  10
ATOM     10  O   UNL     1       4.023  -0.283  -0.587  0.00  0.00    -0.503 OA
ATOM     11  H   UNL     1       4.387  -1.140  -0.476  0.00  0.00    +0.292 HD
ENDBRANCH   7  10
BRANCH   2  12
ATOM     12  C   UNL     1      -1.314   0.767   0.919  0.00  0.00    +0.018 C 
BRANCH  12  13
ATOM     13  CA  UNL     1      -2.314   0.524  -0.222  0.00  0.00    +0.040 C 
BRANCH  13  14
ATOM     14  N   UNL     1      -3.556   1.245   0.049  0.00  0.00    +0.389 N 
ATOM     15  H1  UNL     1      -3.357   2.241   0.147  0.00  0.00    -0.088 HD
ATOM     16  H2  UNL     1      -3.971   0.895   0.912  0.00  0.00    -0.088 HD
ATOM     17  H3  UNL     1      -4.207   1.103  -0.724  0.00  0.00    -0.088 HD
ENDBRANCH  13  14
BRANCH  13  19
ATOM     18  OXT UNL     1      -3.599  -1.491   0.246  0.00  0.00    -0.253 OA
ATOM     19  C   UNL     1      -2.684  -0.943  -0.355  0.00  0.00    +0.293 C 
BRANCH  19  20
ATOM     20  O   UNL     1      -1.901  -1.593  -1.255  0.00  0.00    -0.482 OA
ATOM     21  H   UNL     1      -1.211  -1.135  -1.693  0.00  0.00    +0.295 HD
ENDBRANCH  19  20
ENDBRANCH  13  19
ENDBRANCH  12  13
ENDBRANCH   2  12
TORSDOF 7
