REMARK  Name = 107714
REMARK  7 active torsions:
REMARK  status: ('A' for Active; 'I' for Inactive)
REMARK    1  A    between atoms: C_6  and  C_26
REMARK    2  A    between atoms: C_8  and  O_22
REMARK    3  A    between atoms: C_10  and  O_18
REMARK    4  A    between atoms: C_13  and  O_20
REMARK    5  A    between atoms: O_22  and  C_24
REMARK    6  A    between atoms: C_26  and  O_27
REMARK    7  A    between atoms: O_27  and  C_29
REMARK                            x       y       z     vdW  Elec       q    Type
REMARK                         _______ _______ _______ _____ _____    ______ ____
ROOT
ATOM      1  O   UNL     1       0.297  -1.775  -2.496  0.00  0.00    -0.351 OA
ATOM      2  O   UNL     1       0.026  -2.470   0.440  0.00  0.00    -0.349 OA
ATOM      3  O   UNL     1      -4.299  -0.202  -0.609  0.00  0.00    -0.289 OA
ATOM      4  C   UNL     1       0.707   0.036  -0.742  0.00  0.00    +0.075 C 
ATOM      5  C   UNL     1       1.023  -1.307  -1.370  0.00  0.00    +0.151 C 
ATOM      6  C   UNL     1      -0.714  -0.105   0.012  0.00  0.00    +0.107 C 
ATOM      7  C   UNL     1       1.265  -2.234  -0.236  0.00  0.00    +0.173 C 
ATOM      8  C   UNL     1       1.878   0.069   0.340  0.00  0.00    +0.200 C 
ATOM      9  C   UNL     1       1.695  -1.518  -2.709  0.00  0.00    +0.172 C 
ATOM     10  C   UNL     1       2.279  -1.414   0.577  0.00  0.00    +0.180 C 
ATOM     11  C   UNL     1      -0.632  -1.321   0.999  0.00  0.00    +0.143 C 
ATOM     12  C   UNL     1       0.787   1.210  -1.724  0.00  0.00    +0.007 C 
ATOM     13  C   UNL     1      -1.914  -0.357  -0.954  0.00  0.00    +0.178 C 
ATOM     14  C   UNL     1      -1.961  -1.813   1.504  0.00  0.00    +0.002 C 
ATOM     15  C   UNL     1      -3.218  -0.634  -0.211  0.00  0.00    +0.196 C 
ATOM     16  C   UNL     1      -3.161  -1.503   0.998  0.00  0.00    +0.013 C 
ATOM     17  C   UNL     1      -4.453  -1.983   1.578  0.00  0.00    +0.034 C 
ENDROOT
BRANCH  10  18
ATOM     18  O   UNL     1       2.284  -1.770   1.945  0.00  0.00    -0.379 OA
ATOM     19  H   UNL     1       2.539  -2.702   2.036  0.00  0.00    +0.211 HD
ENDBRANCH  10  18
BRANCH  13  20
ATOM     20  O   UNL     1      -2.151   0.755  -1.802  0.00  0.00    -0.377 OA
ATOM     21  H   UNL     1      -1.342   0.964  -2.294  0.00  0.00    +0.211 HD
ENDBRANCH  13  20
BRANCH   8  22
ATOM     22  O   UNL     1       3.038   0.746  -0.143  0.00  0.00    -0.450 OA
BRANCH  22  24
ATOM     23  O   UNL     1       4.183   0.183   1.782  0.00  0.00    -0.250 OA
ATOM     24  C   UNL     1       4.122   0.723   0.686  0.00  0.00    +0.318 C 
ATOM     25  C   UNL     1       5.258   1.467   0.052  0.00  0.00    +0.121 C 
ENDBRANCH  22  24
ENDBRANCH   8  22
BRANCH   6  26
ATOM     26  C   UNL     1      -1.023   1.191   0.821  0.00  0.00    +0.214 C 
BRANCH  26  27
ATOM     27  O   UNL     1      -1.077   2.253  -0.097  0.00  0.00    -0.448 OA
BRANCH  27  29
ATOM     28  O   UNL     1      -1.530   3.749   1.605  0.00  0.00    -0.250 OA
ATOM     29  C   UNL     1      -1.341   3.499   0.422  0.00  0.00    +0.318 C 
ATOM     30  C   UNL     1      -1.367   4.527  -0.668  0.00  0.00    +0.121 C 
ENDBRANCH  27  29
ENDBRANCH  26  27
ENDBRANCH   6  26
TORSDOF 7
