REMARK  Name = 107753
REMARK  11 active torsions:
REMARK  status: ('A' for Active; 'I' for Inactive)
REMARK    1  A    between atoms: C_5  and  C_32
REMARK    2  A    between atoms: C_7  and  O_19
REMARK    3  A    between atoms: C_9  and  O_17
REMARK    4  A    between atoms: C_13  and  O_23
REMARK    5  A    between atoms: O_19  and  C_21
REMARK    6  A    between atoms: O_23  and  C_25
REMARK    7  A    between atoms: C_25  and  C_26
REMARK    8  A    between atoms: C_26  and  C_27
REMARK    9  A    between atoms: C_27  and  O_30
REMARK   10  A    between atoms: C_32  and  O_33
REMARK   11  A    between atoms: O_33  and  C_35
REMARK                            x       y       z     vdW  Elec       q    Type
REMARK                         _______ _______ _______ _____ _____    ______ ____
ROOT
ATOM      1  O   UNL     1       2.000  -2.019  -2.378  0.00  0.00    -0.351 OA
ATOM      2  O   UNL     1       1.875  -2.551   0.614  0.00  0.00    -0.349 OA
ATOM      3  C   UNL     1       1.954  -0.048  -0.748  0.00  0.00    +0.073 C 
ATOM      4  C   UNL     1       2.577  -1.319  -1.288  0.00  0.00    +0.151 C 
ATOM      5  C   UNL     1       0.615  -0.455   0.040  0.00  0.00    +0.079 C 
ATOM      6  C   UNL     1       3.026  -2.081  -0.095  0.00  0.00    +0.173 C 
ATOM      7  C   UNL     1       3.093   0.340   0.294  0.00  0.00    +0.200 C 
ATOM      8  C   UNL     1       3.299  -1.449  -2.612  0.00  0.00    +0.172 C 
ATOM      9  C   UNL     1       3.819  -0.990   0.643  0.00  0.00    +0.180 C 
ATOM     10  C   UNL     1       0.961  -1.554   1.101  0.00  0.00    +0.140 C 
ATOM     11  C   UNL     1       1.720   1.040  -1.801  0.00  0.00    +0.006 C 
ATOM     12  C   UNL     1      -0.487  -1.024  -0.913  0.00  0.00    +0.054 C 
ATOM     13  C   UNL     1      -1.747  -1.550  -0.203  0.00  0.00    +0.187 C 
ATOM     14  C   UNL     1      -0.231  -2.308   1.629  0.00  0.00    -0.002 C 
ATOM     15  C   UNL     1      -1.455  -2.297   1.074  0.00  0.00    -0.007 C 
ATOM     16  C   UNL     1      -2.593  -3.067   1.682  0.00  0.00    +0.030 C 
ENDROOT
BRANCH   9  17
ATOM     17  O   UNL     1       3.889  -1.204   2.039  0.00  0.00    -0.379 OA
ATOM     18  H   UNL     1       4.348  -2.041   2.215  0.00  0.00    +0.211 HD
ENDBRANCH   9  17
BRANCH   7  19
ATOM     19  O   UNL     1       4.044   1.223  -0.302  0.00  0.00    -0.450 OA
BRANCH  19  21
ATOM     20  O   UNL     1       4.568   2.081   1.778  0.00  0.00    -0.250 OA
ATOM     21  C   UNL     1       4.711   2.040   0.564  0.00  0.00    +0.318 C 
ATOM     22  C   UNL     1       5.670   2.905  -0.197  0.00  0.00    +0.121 C 
ENDBRANCH  19  21
ENDBRANCH   7  19
BRANCH  13  23
ATOM     23  O   UNL     1      -2.633  -0.462   0.052  0.00  0.00    -0.448 OA
BRANCH  23  25
ATOM     24  O   UNL     1      -3.541  -0.694  -2.057  0.00  0.00    -0.250 OA
ATOM     25  C   UNL     1      -3.482  -0.138  -0.968  0.00  0.00    +0.320 C 
BRANCH  25  26
ATOM     26  C   UNL     1      -4.344   1.041  -0.576  0.00  0.00    +0.136 C 
BRANCH  26  27
ATOM     27  C   UNL     1      -5.623   0.628   0.168  0.00  0.00    +0.099 C 
ATOM     28  C   UNL     1      -6.486  -0.335  -0.649  0.00  0.00    +0.030 C 
ATOM     29  C   UNL     1      -6.438   1.874   0.529  0.00  0.00    +0.030 C 
BRANCH  27  30
ATOM     30  O   UNL     1      -5.274  -0.030   1.388  0.00  0.00    -0.386 OA
ATOM     31  H   UNL     1      -4.755  -0.825   1.189  0.00  0.00    +0.210 HD
ENDBRANCH  27  30
ENDBRANCH  26  27
ENDBRANCH  25  26
ENDBRANCH  23  25
ENDBRANCH  13  23
BRANCH   5  32
ATOM     32  C   UNL     1       0.015   0.786   0.763  0.00  0.00    +0.211 C 
BRANCH  32  33
ATOM     33  O   UNL     1      -0.329   1.724  -0.227  0.00  0.00    -0.448 OA
BRANCH  33  35
ATOM     34  O   UNL     1      -1.095   3.193   1.383  0.00  0.00    -0.250 OA
ATOM     35  C   UNL     1      -0.882   2.902   0.214  0.00  0.00    +0.318 C 
ATOM     36  C   UNL     1      -1.195   3.800  -0.944  0.00  0.00    +0.121 C 
ENDBRANCH  33  35
ENDBRANCH  32  33
ENDBRANCH   5  32
TORSDOF 11
