107700
  -OEChem-03292013323D

 58 61  0     1  0  0  0  0  0999 V2000
    1.9533    2.5162   -0.1514 O   0  0  0  0  0  0  0  0  0  0  0  0
   -2.2996    1.3564   -2.2069 O   0  0  0  0  0  0  0  0  0  0  0  0
    3.4671    3.3767    1.3009 O   0  0  0  0  0  0  0  0  0  0  0  0
   -4.2884    2.4316   -2.0339 O   0  0  0  0  0  0  0  0  0  0  0  0
    1.3118   -1.3378    1.0002 N   0  0  0  0  0  0  0  0  0  0  0  0
   -1.0204   -0.8582    1.3809 N   0  0  0  0  0  0  0  0  0  0  0  0
    5.4763    2.5596   -0.4092 N   0  0  0  0  0  0  0  0  0  0  0  0
   -3.0567    4.3180   -0.4362 N   0  0  0  0  0  0  0  0  0  0  0  0
    0.1529   -1.6329    1.8152 C   0  0  0  0  0  0  0  0  0  0  0  0
    1.6086   -1.9233   -0.2100 C   0  0  0  0  0  0  0  0  0  0  0  0
   -2.1499   -1.3977    0.8424 C   0  0  0  0  0  0  0  0  0  0  0  0
    3.2134   -0.4133    0.3247 C   0  0  0  0  0  0  0  0  0  0  0  0
   -2.3309    0.8584    0.9786 C   0  0  0  0  0  0  0  0  0  0  0  0
    2.8041   -1.3574   -0.6581 C   0  0  0  0  0  0  0  0  0  0  0  0
   -3.0060   -0.3274    0.5746 C   0  0  0  0  0  0  0  0  0  0  0  0
    2.2758   -0.4239    1.3316 C   0  0  0  0  0  0  0  0  0  0  0  0
   -1.1011    0.4917    1.4745 C   0  0  0  0  0  0  0  0  0  0  0  0
    0.4078   -1.5825    3.3285 C   0  0  0  0  0  0  0  0  0  0  0  0
    4.4249    0.4306    0.2813 C   0  0  0  0  0  0  0  0  0  0  0  0
   -2.8484    2.2388    0.8859 C   0  0  0  0  0  0  0  0  0  0  0  0
    0.9171   -2.9005   -0.9348 C   0  0  0  0  0  0  0  0  0  0  0  0
   -2.4933   -2.7263    0.5680 C   0  0  0  0  0  0  0  0  0  0  0  0
    3.3377   -1.7864   -1.8897 C   0  0  0  0  0  0  0  0  0  0  0  0
   -4.2671   -0.5935    0.0052 C   0  0  0  0  0  0  0  0  0  0  0  0
    4.2217    1.8024   -0.4026 C   0  0  1  0  0  0  0  0  0  0  0  0
   -2.5157    2.9562   -0.4427 C   0  0  1  0  0  0  0  0  0  0  0  0
    1.4654   -3.3103   -2.1535 C   0  0  0  0  0  0  0  0  0  0  0  0
   -3.7493   -2.9661    0.0032 C   0  0  0  0  0  0  0  0  0  0  0  0
    2.6569   -2.7632   -2.6255 C   0  0  0  0  0  0  0  0  0  0  0  0
   -4.6242   -1.9176   -0.2746 C   0  0  0  0  0  0  0  0  0  0  0  0
    3.2078    2.6428    0.3554 C   0  0  0  0  0  0  0  0  0  0  0  0
   -3.1514    2.2388   -1.6218 C   0  0  0  0  0  0  0  0  0  0  0  0
   -0.0708   -2.6866    1.6225 H   0  0  0  0  0  0  0  0  0  0  0  0
    2.2267    0.1548    2.2440 H   0  0  0  0  0  0  0  0  0  0  0  0
   -0.2987    1.0929    1.8811 H   0  0  0  0  0  0  0  0  0  0  0  0
    0.5835   -0.5621    3.6851 H   0  0  0  0  0  0  0  0  0  0  0  0
    1.2750   -2.1929    3.6032 H   0  0  0  0  0  0  0  0  0  0  0  0
   -0.4628   -1.9653    3.8729 H   0  0  0  0  0  0  0  0  0  0  0  0
    5.2291   -0.1132   -0.2319 H   0  0  0  0  0  0  0  0  0  0  0  0
    4.7821    0.5865    1.3094 H   0  0  0  0  0  0  0  0  0  0  0  0
   -2.4428    2.8281    1.7200 H   0  0  0  0  0  0  0  0  0  0  0  0
   -3.9370    2.2256    1.0345 H   0  0  0  0  0  0  0  0  0  0  0  0
   -0.0013   -3.3480   -0.5817 H   0  0  0  0  0  0  0  0  0  0  0  0
   -1.8400   -3.5605    0.7945 H   0  0  0  0  0  0  0  0  0  0  0  0
    4.2646   -1.3695   -2.2730 H   0  0  0  0  0  0  0  0  0  0  0  0
   -4.9654    0.2090   -0.2129 H   0  0  0  0  0  0  0  0  0  0  0  0
    3.8828    1.6769   -1.4376 H   0  0  0  0  0  0  0  0  0  0  0  0
   -1.4315    3.0102   -0.5969 H   0  0  0  0  0  0  0  0  0  0  0  0
    0.9549   -4.0698   -2.7401 H   0  0  0  0  0  0  0  0  0  0  0  0
   -4.0493   -3.9874   -0.2176 H   0  0  0  0  0  0  0  0  0  0  0  0
    3.0639   -3.0981   -3.5760 H   0  0  0  0  0  0  0  0  0  0  0  0
   -5.5966   -2.1290   -0.7116 H   0  0  0  0  0  0  0  0  0  0  0  0
    6.1921    2.0270   -0.9022 H   0  0  0  0  0  0  0  0  0  0  0  0
    5.3511    3.4226   -0.9375 H   0  0  0  0  0  0  0  0  0  0  0  0
   -2.6630    4.8365    0.3480 H   0  0  0  0  0  0  0  0  0  0  0  0
   -2.7573    4.8080   -1.2787 H   0  0  0  0  0  0  0  0  0  0  0  0
    1.3034    3.0646    0.3377 H   0  0  0  0  0  0  0  0  0  0  0  0
   -2.7132    0.9013   -2.9712 H   0  0  0  0  0  0  0  0  0  0  0  0
  1 31  1  0  0  0  0
  1 57  1  0  0  0  0
  2 32  1  0  0  0  0
  2 58  1  0  0  0  0
  3 31  2  0  0  0  0
  4 32  2  0  0  0  0
  5  9  1  0  0  0  0
  5 10  1  0  0  0  0
  5 16  1  0  0  0  0
  6  9  1  0  0  0  0
  6 11  1  0  0  0  0
  6 17  1  0  0  0  0
  7 25  1  0  0  0  0
  7 53  1  0  0  0  0
  7 54  1  0  0  0  0
  8 26  1  0  0  0  0
  8 55  1  0  0  0  0
  8 56  1  0  0  0  0
  9 18  1  0  0  0  0
  9 33  1  0  0  0  0
 10 14  1  0  0  0  0
 10 21  2  0  0  0  0
 11 15  1  0  0  0  0
 11 22  2  0  0  0  0
 12 14  1  0  0  0  0
 12 16  2  0  0  0  0
 12 19  1  0  0  0  0
 13 15  1  0  0  0  0
 13 17  2  0  0  0  0
 13 20  1  0  0  0  0
 14 23  2  0  0  0  0
 15 24  2  0  0  0  0
 16 34  1  0  0  0  0
 17 35  1  0  0  0  0
 18 36  1  0  0  0  0
 18 37  1  0  0  0  0
 18 38  1  0  0  0  0
 19 25  1  0  0  0  0
 19 39  1  0  0  0  0
 19 40  1  0  0  0  0
 20 26  1  0  0  0  0
 20 41  1  0  0  0  0
 20 42  1  0  0  0  0
 21 27  1  0  0  0  0
 21 43  1  0  0  0  0
 22 28  1  0  0  0  0
 22 44  1  0  0  0  0
 23 29  1  0  0  0  0
 23 45  1  0  0  0  0
 24 30  1  0  0  0  0
 24 46  1  0  0  0  0
 25 31  1  0  0  0  0
 25 47  1  0  0  0  0
 26 32  1  0  0  0  0
 26 48  1  0  0  0  0
 27 29  2  0  0  0  0
 27 49  1  0  0  0  0
 28 30  2  0  0  0  0
 28 50  1  0  0  0  0
 29 51  1  0  0  0  0
 30 52  1  0  0  0  0
M  END
> <PUBCHEM_COMPOUND_CID>
107700

> <PUBCHEM_CONFORMER_RMSD>
1

> <PUBCHEM_CONFORMER_DIVERSEORDER>
1
87
183
93
58
135
113
53
67
128
178
79
179
168
83
73
55
208
156
169
165
29
64
80
162
204
126
163
57
197
184
191
25
63
24
95
173
121
142
97
118
43
104
138
98
122
209
144
78
19
40
137
177
120
61
116
193
119
196
199
129
141
200
134
84
109
161
189
114
192
32
112
157
154
94
59
92
152
76
207
106
176
108
190
140
45
155
194
136
115
69
75
153
6
46
149
9
44
187
131
147
203
90
180
12
205
171
33
36
77
103
143
202
175
72
139
210
54
125
158
81
133
181
105
20
28
148
167
195
127
166
206
124
146
172
89
198
100
130
107
160
16
174
110
22
27
34
48
47
51
82
88
2
74
188
170
151
17
4
70
186
132
85
123
49
111
31
159
201
102
37
26
185
56
164
3
91
182
35
150
145
21
10
71
68
52
117
42
15
60
41
99
14
50
86
5
65
30
101
66
62
7
39
96
8
18
11
13
38
23

> <PUBCHEM_MMFF94_PARTIAL_CHARGES>
45
1 -0.65
10 -0.15
11 -0.15
12 -0.18
13 -0.18
16 -0.3
17 -0.3
19 0.18
2 -0.65
20 0.18
21 -0.15
22 -0.15
23 -0.15
24 -0.15
25 0.33
26 0.33
27 -0.15
28 -0.15
29 -0.15
3 -0.57
30 -0.15
31 0.66
32 0.66
34 0.15
35 0.15
4 -0.57
43 0.15
44 0.15
45 0.15
46 0.15
49 0.15
5 0.05
50 0.15
51 0.15
52 0.15
53 0.36
54 0.36
55 0.36
56 0.36
57 0.5
58 0.5
6 0.05
7 -0.99
8 -0.99
9 0.51

> <PUBCHEM_EFFECTIVE_ROTOR_COUNT>
8

> <PUBCHEM_PHARMACOPHORE_FEATURES>
16
1 1 acceptor
1 2 acceptor
1 3 acceptor
1 4 acceptor
1 5 cation
1 6 cation
1 7 cation
1 7 donor
1 8 cation
1 8 donor
3 1 3 31 anion
3 2 4 32 anion
5 5 10 12 14 16 rings
5 6 11 13 15 17 rings
6 10 14 21 23 27 29 rings
6 11 15 22 24 28 30 rings

> <PUBCHEM_HEAVY_ATOM_COUNT>
32

> <PUBCHEM_ATOM_DEF_STEREO_COUNT>
2

> <PUBCHEM_ATOM_UDEF_STEREO_COUNT>
0

> <PUBCHEM_BOND_DEF_STEREO_COUNT>
0

> <PUBCHEM_BOND_UDEF_STEREO_COUNT>
0

> <PUBCHEM_ISOTOPIC_ATOM_COUNT>
0

> <PUBCHEM_COMPONENT_COUNT>
1

> <PUBCHEM_CACTVS_TAUTO_COUNT>
1

> <PUBCHEM_CONFORMER_ID>
0001A4B400000001

> <PUBCHEM_MMFF94_ENERGY>
51.3729

> <PUBCHEM_FEATURE_SELFOVERLAP>
81.528

> <PUBCHEM_SHAPE_FINGERPRINT>
10670039 82 18044111244377791252
11285246 1 16326833098270209702
11640471 11 17241045380116296747
11759241 127 18341335594820153879
12107698 1 18261944254383283746
1361 2 17838334434339396257
13911987 19 17630341954738868872
14251757 17 18268720402315487104
14840074 17 18051138287066290287
14918310 93 17614818031691887025
15219462 58 17822589242946201523
15840311 113 17984454935000138043
15961568 22 18263649635256438388
19309040 13 17774173300673704569
19315092 285 12902988369273399361
19930381 70 18201165454432817545
20600515 1 17763438657224346578
20764821 26 16750988417166846228
20775438 99 18054478371716636365
21033648 144 18194968663271330176
21857420 4 15305025017875357421
22113638 7 17547010088075110645
22907989 373 18200865193986552753
23559900 14 18130228155464876218
238 59 18201429277542405796
4280585 95 17769112154947703038
46194498 28 18271818881965042975
469060 322 17772447226647702847
508706 21 18041008366270384160
5252454 2 17534070666040924141
57527585 21 18341879818932573141
6287921 2 18199210492746699062

> <PUBCHEM_SHAPE_MULTIPOLES>
615.14
9.29
5.03
2.31
1.47
2.55
0.1
4.25
-2.65
-0.44
-1.98
0.2
-1.05
2.93

> <PUBCHEM_SHAPE_SELFOVERLAP>
1344.314

> <PUBCHEM_SHAPE_VOLUME>
334.3

> <PUBCHEM_COORDINATE_TYPE>
2
5
10

$$$$
