REMARK  Name = 107795
REMARK  10 active torsions:
REMARK  status: ('A' for Active; 'I' for Inactive)
REMARK    1  A    between atoms: C_2  and  O_7
REMARK    2  A    between atoms: C_3  and  O_9
REMARK    3  A    between atoms: C_4  and  O_11
REMARK    4  A    between atoms: C_5  and  C_20
REMARK    5  A    between atoms: C_6  and  O_13
REMARK    6  A    between atoms: O_13  and  C_14
REMARK    7  A    between atoms: C_14  and  C_15
REMARK    8  A    between atoms: C_15  and  C_16
REMARK    9  A    between atoms: C_16  and  N_19
REMARK   10  A    between atoms: C_20  and  O_21
REMARK                            x       y       z     vdW  Elec       q    Type
REMARK                         _______ _______ _______ _____ _____    ______ ____
ROOT
ATOM      1  O   UNL     1       1.049   0.770  -0.165  0.00  0.00    -0.326 OA
ATOM      2  C   UNL     1       3.101  -1.222   0.101  0.00  0.00    +0.172 C 
ATOM      3  C   UNL     1       3.404   0.217  -0.315  0.00  0.00    +0.169 C 
ATOM      4  C   UNL     1       1.643  -1.585  -0.183  0.00  0.00    +0.196 C 
ATOM      5  C   UNL     1       2.354   1.178   0.248  0.00  0.00    +0.176 C 
ATOM      6  C   UNL     1       0.691  -0.513   0.345  0.00  0.00    +0.266 C 
ENDROOT
BRANCH   2   7
ATOM      7  O   UNL     1       3.960  -2.087  -0.643  0.00  0.00    -0.379 OA
ATOM      8  H   UNL     1       4.885  -1.858  -0.463  0.00  0.00    +0.211 HD
ENDBRANCH   2   7
BRANCH   3   9
ATOM      9  O   UNL     1       4.691   0.587   0.173  0.00  0.00    -0.379 OA
ATOM     10  H   UNL     1       5.359  -0.020  -0.182  0.00  0.00    +0.211 HD
ENDBRANCH   3   9
BRANCH   4  11
ATOM     11  O   UNL     1       1.328  -2.819   0.460  0.00  0.00    -0.378 OA
ATOM     12  H   UNL     1       1.924  -3.514   0.137  0.00  0.00    +0.211 HD
ENDBRANCH   4  11
BRANCH   6  13
ATOM     13  O   UNL     1      -0.629  -0.849  -0.082  0.00  0.00    -0.329 OA
BRANCH  13  14
ATOM     14  C   UNL     1      -1.577   0.105   0.372  0.00  0.00    +0.147 C 
BRANCH  14  15
ATOM     15  C   UNL     1      -2.966  -0.326  -0.089  0.00  0.00    +0.064 C 
BRANCH  15  16
ATOM     16  C   UNL     1      -4.061   0.639   0.328  0.00  0.00    +0.196 C 
BRANCH  16  19
ATOM     17  O   UNL     1      -5.970  -0.640   0.708  0.00  0.00    -0.131 OA
ATOM     18  O   UNL     1      -5.785   0.417  -1.217  0.00  0.00    -0.131 OA
ATOM     19  N   UNL     1      -5.363   0.094  -0.092  0.00  0.00    +0.035 N 
ENDBRANCH  16  19
ENDBRANCH  15  16
ENDBRANCH  14  15
ENDBRANCH  13  14
ENDBRANCH   6  13
BRANCH   5  20
ATOM     20  C   UNL     1       2.569   2.604  -0.249  0.00  0.00    +0.169 C 
BRANCH  20  21
ATOM     21  O   UNL     1       1.560   3.430   0.301  0.00  0.00    -0.379 OA
ATOM     22  H   UNL     1       1.684   4.341  -0.007  0.00  0.00    +0.211 HD
ENDBRANCH  20  21
ENDBRANCH   5  20
TORSDOF 10
