107783
  -OEChem-03292013323D

 52 54  0     1  0  0  0  0  0999 V2000
   -2.2781    1.4714    0.1229 S   0  3  1  0  0  0  0  0  0  0  0  0
    0.0222   -0.5900    0.1150 O   0  0  0  0  0  0  0  0  0  0  0  0
    1.2143    0.1599    2.7619 O   0  0  0  0  0  0  0  0  0  0  0  0
    0.3349   -3.2436    2.0095 O   0  0  0  0  0  0  0  0  0  0  0  0
   -5.4514   -1.9230   -0.6206 O   0  5  0  0  0  0  0  0  0  0  0  0
   -3.4814   -1.7493   -1.7636 O   0  0  0  0  0  0  0  0  0  0  0  0
    2.2416   -1.3115   -0.3038 N   0  0  0  0  0  0  0  0  0  0  0  0
    4.1988   -1.5391   -1.3464 N   0  0  0  0  0  0  0  0  0  0  0  0
    2.2973    1.0697    0.1726 N   0  0  0  0  0  0  0  0  0  0  0  0
   -5.9861    0.3286   -2.1710 N   0  0  0  0  0  0  0  0  0  0  0  0
    4.3529    2.0914   -0.6562 N   0  0  0  0  0  0  0  0  0  0  0  0
    6.0473    0.8347   -1.7863 N   0  0  0  0  0  0  0  0  0  0  0  0
   -0.6762   -0.4091    1.3577 C   0  0  1  0  0  0  0  0  0  0  0  0
    0.2893   -0.8719    2.4422 C   0  0  1  0  0  0  0  0  0  0  0  0
    1.0206   -2.0174    1.7675 C   0  0  2  0  0  0  0  0  0  0  0  0
    0.9482   -1.6798    0.2753 C   0  0  1  0  0  0  0  0  0  0  0  0
   -1.1392    1.0321    1.4679 C   0  0  0  0  0  0  0  0  0  0  0  0
   -3.7637    0.7858    0.8904 C   0  0  0  0  0  0  0  0  0  0  0  0
   -2.5466    3.1818    0.6418 C   0  0  0  0  0  0  0  0  0  0  0  0
    2.8048   -0.0674   -0.3265 C   0  0  0  0  0  0  0  0  0  0  0  0
   -4.9688    0.9498   -0.0320 C   0  0  0  0  0  0  0  0  0  0  0  0
    3.1165   -2.1610   -0.9275 C   0  0  0  0  0  0  0  0  0  0  0  0
    4.0173   -0.2299   -0.9774 C   0  0  0  0  0  0  0  0  0  0  0  0
   -4.7714    0.2150   -1.3608 C   0  0  1  0  0  0  0  0  0  0  0  0
   -1.2518    3.9678    0.6647 C   0  0  0  0  0  0  0  0  0  0  0  0
    4.8030    0.9072   -1.1364 C   0  0  0  0  0  0  0  0  0  0  0  0
   -4.5400   -1.3011   -1.2405 C   0  0  0  0  0  0  0  0  0  0  0  0
    3.1458    2.0990   -0.0406 C   0  0  0  0  0  0  0  0  0  0  0  0
   -1.5338   -1.0917    1.3306 H   0  0  0  0  0  0  0  0  0  0  0  0
   -0.2425   -1.1570    3.3554 H   0  0  0  0  0  0  0  0  0  0  0  0
    2.0473   -2.1441    2.1254 H   0  0  0  0  0  0  0  0  0  0  0  0
    0.5717   -2.5205   -0.3199 H   0  0  0  0  0  0  0  0  0  0  0  0
   -1.6022    1.2323    2.4389 H   0  0  0  0  0  0  0  0  0  0  0  0
   -0.2625    1.6732    1.3540 H   0  0  0  0  0  0  0  0  0  0  0  0
   -3.9575    1.2640    1.8555 H   0  0  0  0  0  0  0  0  0  0  0  0
   -3.5962   -0.2761    1.0905 H   0  0  0  0  0  0  0  0  0  0  0  0
   -3.2420    3.6296   -0.0750 H   0  0  0  0  0  0  0  0  0  0  0  0
   -3.0088    3.2240    1.6325 H   0  0  0  0  0  0  0  0  0  0  0  0
    1.8345   -0.1982    3.4195 H   0  0  0  0  0  0  0  0  0  0  0  0
   -0.5760   -3.1565    1.6815 H   0  0  0  0  0  0  0  0  0  0  0  0
   -5.8510    0.5592    0.4918 H   0  0  0  0  0  0  0  0  0  0  0  0
   -5.1624    2.0136   -0.2194 H   0  0  0  0  0  0  0  0  0  0  0  0
    2.9134   -3.2166   -1.0452 H   0  0  0  0  0  0  0  0  0  0  0  0
   -3.9563    0.6596   -1.9411 H   0  0  0  0  0  0  0  0  0  0  0  0
   -0.6425    3.7387    1.5436 H   0  0  0  0  0  0  0  0  0  0  0  0
   -0.6490    3.7979   -0.2336 H   0  0  0  0  0  0  0  0  0  0  0  0
   -1.4755    5.0390    0.7177 H   0  0  0  0  0  0  0  0  0  0  0  0
   -6.7857   -0.0308   -1.6497 H   0  0  0  0  0  0  0  0  0  0  0  0
   -6.1884    1.3132   -2.3424 H   0  0  0  0  0  0  0  0  0  0  0  0
    2.8161    3.0634    0.3308 H   0  0  0  0  0  0  0  0  0  0  0  0
    6.3849   -0.0476   -2.1463 H   0  0  0  0  0  0  0  0  0  0  0  0
    6.5994    1.6751   -1.8904 H   0  0  0  0  0  0  0  0  0  0  0  0
  1 17  1  0  0  0  0
  1 18  1  0  0  0  0
  1 19  1  0  0  0  0
  2 13  1  0  0  0  0
  2 16  1  0  0  0  0
  3 14  1  0  0  0  0
  3 39  1  0  0  0  0
  4 15  1  0  0  0  0
  4 40  1  0  0  0  0
  5 27  1  0  0  0  0
  6 27  2  0  0  0  0
  7 16  1  0  0  0  0
  7 20  1  0  0  0  0
  7 22  1  0  0  0  0
  8 22  2  0  0  0  0
  8 23  1  0  0  0  0
  9 20  2  0  0  0  0
  9 28  1  0  0  0  0
 10 24  1  0  0  0  0
 10 48  1  0  0  0  0
 10 49  1  0  0  0  0
 11 26  1  0  0  0  0
 11 28  2  0  0  0  0
 12 26  1  0  0  0  0
 12 51  1  0  0  0  0
 12 52  1  0  0  0  0
 13 14  1  0  0  0  0
 13 17  1  0  0  0  0
 13 29  1  0  0  0  0
 14 15  1  0  0  0  0
 14 30  1  0  0  0  0
 15 16  1  0  0  0  0
 15 31  1  0  0  0  0
 16 32  1  0  0  0  0
 17 33  1  0  0  0  0
 17 34  1  0  0  0  0
 18 21  1  0  0  0  0
 18 35  1  0  0  0  0
 18 36  1  0  0  0  0
 19 25  1  0  0  0  0
 19 37  1  0  0  0  0
 19 38  1  0  0  0  0
 20 23  1  0  0  0  0
 21 24  1  0  0  0  0
 21 41  1  0  0  0  0
 21 42  1  0  0  0  0
 22 43  1  0  0  0  0
 23 26  2  0  0  0  0
 24 27  1  0  0  0  0
 24 44  1  0  0  0  0
 25 45  1  0  0  0  0
 25 46  1  0  0  0  0
 25 47  1  0  0  0  0
 28 50  1  0  0  0  0
M  CHG  2   1   1   5  -1
M  END
> <PUBCHEM_COMPOUND_CID>
107783

> <PUBCHEM_CONFORMER_RMSD>
1

> <PUBCHEM_CONFORMER_DIVERSEORDER>
29
461
220
143
39
389
333
471
426
190
390
151
367
324
81
231
374
371
474
57
15
429
149
183
10
184
50
126
353
139
350
216
328
454
376
475
280
317
147
260
297
185
152
123
457
222
406
61
234
302
224
48
194
226
352
89
386
378
391
129
412
228
82
398
28
438
121
478
74
439
320
282
235
265
219
200
98
446
146
465
94
263
42
437
250
277
174
316
477
157
199
470
479
159
345
394
21
238
359
401
180
125
440
289
175
230
150
441
288
468
444
251
113
296
221
88
6
71
111
372
410
322
399
360
351
136
428
145
80
229
464
13
384
96
85
93
332
338
95
33
271
417
432
414
449
385
239
257
100
65
241
354
451
161
53
358
368
69
14
84
46
212
249
116
341
286
153
44
344
232
8
404
274
298
329
299
325
172
283
310
269
307
164
473
425
103
38
202
79
281
348
379
187
141
240
327
340
86
476
227
303
165
361
309
211
434
362
181
137
413
97
114
37
291
422
92
218
17
225
160
366
209
308
252
245
349
321
466
163
19
22
266
419
108
177
319
148
304
18
60
31
77
411
173
118
176
270
170
314
416
292
12
40
34
76
409
217
117
206
130
255
330
52
347
285
45
306
300
268
431
179
382
243
26
83
236
294
448
102
312
115
442
188
326
237
363
369
91
458
2
261
393
70
335
242
400
132
128
407
233
408
7
59
248
405
397
101
198
75
162
443
63
342
67
284
56
370
210
295
462
90
16
387
472
140
427
214
421
20
122
62
445
191
155
301
25
339
120
435
131
203
168
460
313
78
72
456
346
415
171
201
311
480
73
1
68
51
290
450
138
182
135
178
375
207
275
418
106
430
23
109
43
343
467
27
244
24
279
453
41
380
256
99
55
459
30
447
481
205
267
107
278
208
305
127
356
119
424
169
154
247
167
276
112
377
104
58
262
158
254
54
402
32
355
318
142
204
189
388
213
246
105
337
110
223
331
336
482
36
215
272
293
365
420
9
258
49
193
134
5
392
334
156
4
195
357
47
381
323
3
364
452
144
35
395
166
455
66
197
124
64
373
436
423
315
186
133
287
196
396
469
264
483
259
403
192
383
463
11
87
433
253
273

> <PUBCHEM_EFFECTIVE_ROTOR_COUNT>
9

> <PUBCHEM_PHARMACOPHORE_FEATURES>
18
1 10 cation
1 10 donor
1 12 cation
1 12 donor
1 2 acceptor
1 3 acceptor
1 3 donor
1 4 acceptor
1 4 donor
1 5 acceptor
1 6 acceptor
3 5 6 27 anion
3 7 8 22 cation
3 7 9 20 cation
3 9 11 28 cation
5 2 13 14 15 16 rings
5 7 8 20 22 23 rings
6 9 11 20 23 26 28 rings

> <PUBCHEM_HEAVY_ATOM_COUNT>
28

> <PUBCHEM_ATOM_DEF_STEREO_COUNT>
0

> <PUBCHEM_ATOM_UDEF_STEREO_COUNT>
5

> <PUBCHEM_BOND_DEF_STEREO_COUNT>
0

> <PUBCHEM_BOND_UDEF_STEREO_COUNT>
0

> <PUBCHEM_ISOTOPIC_ATOM_COUNT>
0

> <PUBCHEM_COMPONENT_COUNT>
1

> <PUBCHEM_CACTVS_TAUTO_COUNT>
3

> <PUBCHEM_CONFORMER_ID>
0001A5070000001D

> <PUBCHEM_MMFF94_ENERGY>
56.0652

> <PUBCHEM_FEATURE_SELFOVERLAP>
92.01

> <PUBCHEM_SHAPE_FINGERPRINT>
105312 117 16805327716541284875
10764073 3 10882769816106176498
10940486 97 17402601953323236795
12035759 4 18336539443843173219
12467345 10 18343866631995574397
12553582 1 18341881962848727297
12670546 177 18059580165313540933
12788726 201 18197488542396482721
12969540 114 17821452377944971211
14251757 5 17988077923891564807
14251764 3 16660360402516549709
14251764 30 14979960271969191525
15664445 248 18127388241779944161
17909252 39 17846780702433496514
1813 80 13398632749060062210
20693207 138 17131253685215814225
21033648 29 15068915126226861099
21591331 117 16630255791813331843
22393880 68 18262795164534912053
23559900 14 17059757989217916809
2838139 119 18260556627865287740
340366 18 17257930395431309075
3493558 16 16523286723223469455
508180 173 15074224462151412973
574716 61 18334853884043967671
6823239 73 17274805974941315723
7495541 125 16917060053637784050
7918774 8 14261359058631091565

> <PUBCHEM_SHAPE_MULTIPOLES>
520.84
11.98
3.38
2.16
3.95
1.61
-0.81
0.68
10.18
0.59
-0.76
0.3
-0.95
-1.68

> <PUBCHEM_SHAPE_SELFOVERLAP>
1080.77

> <PUBCHEM_SHAPE_VOLUME>
299.4

> <PUBCHEM_COORDINATE_TYPE>
2
5
10

$$$$
