REMARK  Name = 107702
REMARK  3 active torsions:
REMARK  status: ('A' for Active; 'I' for Inactive)
REMARK    1  A    between atoms: C_6  and  O_24
REMARK    2  A    between atoms: C_18  and  O_26
REMARK    3  A    between atoms: C_21  and  O_28
REMARK                            x       y       z     vdW  Elec       q    Type
REMARK                         _______ _______ _______ _____ _____    ______ ____
ROOT
ATOM      1  O   UNL     1      -2.117   2.559   0.626  0.00  0.00    -0.345 OA
ATOM      2  O   UNL     1      -4.850   0.879  -0.364  0.00  0.00    -0.289 OA
ATOM      3  O   UNL     1       4.894   1.237   0.153  0.00  0.00    -0.291 OA
ATOM      4  C   UNL     1      -0.633   1.007  -0.645  0.00  0.00    +0.081 C 
ATOM      5  C   UNL     1      -1.461   2.259  -0.611  0.00  0.00    +0.157 C 
ATOM      6  C   UNL     1       0.701   1.143   0.154  0.00  0.00    +0.114 C 
ATOM      7  C   UNL     1      -2.948   2.198  -0.493  0.00  0.00    +0.204 C 
ATOM      8  C   UNL     1      -1.392  -0.250  -0.230  0.00  0.00    -0.012 C 
ATOM      9  C   UNL     1       1.524  -0.131   0.002  0.00  0.00    +0.008 C 
ATOM     10  C   UNL     1       1.513   2.362  -0.321  0.00  0.00    +0.040 C 
ATOM     11  C   UNL     1      -2.797  -0.300  -0.126  0.00  0.00    +0.067 C 
ATOM     12  C   UNL     1      -3.628   0.907  -0.329  0.00  0.00    +0.205 C 
ATOM     13  C   UNL     1      -0.631  -1.425   0.002  0.00  0.00    -0.004 C 
ATOM     14  C   UNL     1       0.851  -1.376  -0.096  0.00  0.00    -0.002 C 
ATOM     15  C   UNL     1       2.866   2.441   0.368  0.00  0.00    +0.072 C 
ATOM     16  C   UNL     1       2.933  -0.093  -0.028  0.00  0.00    +0.067 C 
ATOM     17  C   UNL     1       3.667   1.187   0.140  0.00  0.00    +0.176 C 
ATOM     18  C   UNL     1      -3.447  -1.492   0.206  0.00  0.00    +0.136 C 
ATOM     19  C   UNL     1      -1.316  -2.605   0.352  0.00  0.00    +0.003 C 
ATOM     20  C   UNL     1       1.627  -2.535  -0.288  0.00  0.00    +0.003 C 
ATOM     21  C   UNL     1       3.674  -1.264  -0.203  0.00  0.00    +0.136 C 
ATOM     22  C   UNL     1      -2.706  -2.640   0.447  0.00  0.00    +0.037 C 
ATOM     23  C   UNL     1       3.019  -2.480  -0.343  0.00  0.00    +0.037 C 
ENDROOT
BRANCH   6  24
ATOM     24  O   UNL     1       0.422   1.288   1.550  0.00  0.00    -0.382 OA
ATOM     25  H   UNL     1      -0.090   0.525   1.859  0.00  0.00    +0.211 HD
ENDBRANCH   6  24
BRANCH  18  26
ATOM     26  O   UNL     1      -4.802  -1.592   0.330  0.00  0.00    -0.505 OA
ATOM     27  H   UNL     1      -5.343  -0.843   0.177  0.00  0.00    +0.292 HD
ENDBRANCH  18  26
BRANCH  21  28
ATOM     28  O   UNL     1       5.036  -1.285  -0.253  0.00  0.00    -0.505 OA
ATOM     29  H   UNL     1       5.521  -0.488  -0.163  0.00  0.00    +0.292 HD
ENDBRANCH  21  28
TORSDOF 3
