REMARK  Name = 107776
REMARK  14 active torsions:
REMARK  status: ('A' for Active; 'I' for Inactive)
REMARK    1  A    between atoms: CA_1  and  N_3
REMARK    2  A    between atoms: CA_1  and  C_19
REMARK    3  A    between atoms: CA_1  and  CB_26
REMARK    4  A    between atoms: C_4  and  C_6
REMARK    5  A    between atoms: C_6  and  C_7
REMARK    6  A    between atoms: C_7  and  CA_8
REMARK    7  A    between atoms: CA_8  and  N_9
REMARK    8  A    between atoms: CA_8  and  C_14
REMARK    9  A    between atoms: C_14  and  O_15
REMARK   10  A    between atoms: N_18  and  CA_21
REMARK   11  A    between atoms: CA_21  and  C_23
REMARK   12  A    between atoms: C_23  and  O_24
REMARK   13  A    between atoms: CB_26  and  SG_27
REMARK   14  A    between atoms: SG_27  and  C_30
REMARK                            x       y       z     vdW  Elec       q    Type
REMARK                         _______ _______ _______ _____ _____    ______ ____
ROOT
ATOM      1  CA  UNL     1       0.781  -0.735  -0.916  0.00  0.00    +0.160 C 
ENDROOT
BRANCH   1   3
ATOM      2  O   UNL     1      -1.780  -0.428  -2.209  0.00  0.00    -0.275 OA
ATOM      3  N   UNL     1      -0.521  -0.803  -0.294  0.00  0.00    -0.298 N 
ATOM      4  C   UNL     1      -1.703  -0.642  -1.003  0.00  0.00    +0.223 C 
ATOM      5  H   UNL     1      -0.572  -0.972   0.675  0.00  0.00    +0.150 HD
BRANCH   4   6
ATOM      6  C   UNL     1      -2.917  -0.753  -0.097  0.00  0.00    +0.083 C 
BRANCH   6   7
ATOM      7  C   UNL     1      -4.232  -0.578  -0.859  0.00  0.00    -0.001 C 
BRANCH   7   8
ATOM      8  CA  UNL     1      -5.466  -0.760   0.032  0.00  0.00    +0.036 C 
BRANCH   8   9
ATOM      9  N   UNL     1      -6.679  -0.577  -0.768  0.00  0.00    +0.389 N 
ATOM     10  H1  UNL     1      -6.693  -1.261  -1.525  0.00  0.00    -0.088 HD
ATOM     11  H2  UNL     1      -6.689   0.364  -1.160  0.00  0.00    -0.088 HD
ATOM     12  H3  UNL     1      -7.500  -0.708  -0.176  0.00  0.00    -0.088 HD
ENDBRANCH   8   9
BRANCH   8  14
ATOM     13  OXT UNL     1      -5.995   1.402   1.024  0.00  0.00    -0.253 OA
ATOM     14  C   UNL     1      -5.510   0.283   1.134  0.00  0.00    +0.293 C 
BRANCH  14  15
ATOM     15  O   UNL     1      -4.917  -0.149   2.277  0.00  0.00    -0.482 OA
ATOM     16  H   UNL     1      -4.557  -1.013   2.320  0.00  0.00    +0.295 HD
ENDBRANCH  14  15
ENDBRANCH   8  14
ENDBRANCH   7   8
ENDBRANCH   6   7
ENDBRANCH   4   6
ENDBRANCH   1   3
BRANCH   1  19
ATOM     17  O   UNL     1       1.391  -2.357   0.783  0.00  0.00    -0.273 OA
ATOM     18  N   UNL     1       2.957  -1.794  -0.833  0.00  0.00    -0.294 N 
ATOM     19  C   ACE A   1       1.714  -1.723  -0.219  0.00  0.00    +0.242 C 
ATOM     20  H   UNL     1       3.120  -1.245  -1.634  0.00  0.00    +0.150 HD
BRANCH  18  21
ATOM     21  CA  UNL     1       4.020  -2.640  -0.345  0.00  0.00    +0.200 C 
BRANCH  21  23
ATOM     22  OXT UNL     1       5.872  -2.487   1.185  0.00  0.00    -0.248 OA
ATOM     23  C   UNL     1       4.908  -1.948   0.657  0.00  0.00    +0.334 C 
BRANCH  23  24
ATOM     24  O   UNL     1       4.537  -0.673   0.918  0.00  0.00    -0.479 OA
ATOM     25  H   UNL     1       3.791  -0.304   0.488  0.00  0.00    +0.295 HD
ENDBRANCH  23  24
ENDBRANCH  21  23
ENDBRANCH  18  21
ENDBRANCH   1  19
BRANCH   1  26
ATOM     26  CB  UNL     1       1.331   0.693  -0.960  0.00  0.00    +0.092 C 
BRANCH  26  27
ATOM     27  SG  UNL     1       1.615   1.421   0.687  0.00  0.00    -0.099 S 
BRANCH  27  30
ATOM     28 CL   UNL     1       0.920   4.227   0.068  0.00  0.00    -0.075 Cl
ATOM     29 CL   UNL     1       4.100   4.768  -0.459  0.00  0.00    -0.080 Cl
ATOM     30  C   UNL     1       2.138   3.002   0.205  0.00  0.00    +0.094 C 
ATOM     31  C   UNL     1       3.435   3.252  -0.008  0.00  0.00    +0.086 C 
ENDBRANCH  27  30
ENDBRANCH  26  27
ENDBRANCH   1  26
TORSDOF 14
