REMARK  Name = 107783
REMARK  11 active torsions:
REMARK  status: ('A' for Active; 'I' for Inactive)
REMARK    1  A    between atoms: C_2  and  C_22
REMARK    2  A    between atoms: C_3  and  O_18
REMARK    3  A    between atoms: C_4  and  O_20
REMARK    4  A    between atoms: C_5  and  N_6
REMARK    5  A    between atoms: C_22  and  S_23
REMARK    6  A    between atoms: S_23  and  C_24
REMARK    7  A    between atoms: S_23  and  C_26
REMARK    8  A    between atoms: C_26  and  C_27
REMARK    9  A    between atoms: C_27  and  CA_28
REMARK   10  A    between atoms: CA_28  and  N_29
REMARK   11  A    between atoms: CA_28  and  C_35
REMARK                            x       y       z     vdW  Elec       q    Type
REMARK                         _______ _______ _______ _____ _____    ______ ____
ROOT
ATOM      1  O   UNL     1       0.022  -0.590   0.115  0.00  0.00    -0.335 OA
ATOM      2  C   UNL     1      -0.676  -0.409   1.358  0.00  0.00    +0.156 C 
ATOM      3  C   UNL     1       0.289  -0.872   2.442  0.00  0.00    +0.169 C 
ATOM      4  C   UNL     1       1.021  -2.017   1.768  0.00  0.00    +0.187 C 
ATOM      5  C   UNL     1       0.948  -1.680   0.275  0.00  0.00    +0.225 C 
ENDROOT
BRANCH   5   6
ATOM      6  N   UNL     1       2.242  -1.312  -0.304  0.00  0.00    -0.247 N 
ATOM      7  N   UNL     1       4.199  -1.539  -1.346  0.00  0.00    -0.242 NA
ATOM      8  N   UNL     1       2.297   1.070   0.173  0.00  0.00    -0.228 NA
ATOM      9  N   UNL     1       4.353   2.091  -0.656  0.00  0.00    -0.229 NA
ATOM     10  C   UNL     1       2.805  -0.067  -0.327  0.00  0.00    +0.152 C 
ATOM     11  C   UNL     1       3.116  -2.161  -0.927  0.00  0.00    +0.223 C 
ATOM     12  C   UNL     1       4.017  -0.230  -0.977  0.00  0.00    +0.140 C 
ATOM     13  C   UNL     1       4.803   0.907  -1.136  0.00  0.00    +0.143 C 
ATOM     14  C   UNL     1       3.146   2.099  -0.041  0.00  0.00    +0.253 C 
ATOM     15  N   UNL     1       6.047   0.835  -1.786  0.00  0.00    -0.342 N 
ATOM     16  H   UNL     1       6.595   1.646  -1.893  0.00  0.00    +0.144 HD
ATOM     17  H   UNL     1       6.371  -0.027  -2.135  0.00  0.00    +0.144 HD
ENDBRANCH   5   6
BRANCH   3  18
ATOM     18  O   UNL     1       1.214   0.160   2.762  0.00  0.00    -0.379 OA
ATOM     19  H   UNL     1       0.746   0.892   3.193  0.00  0.00    +0.211 HD
ENDBRANCH   3  18
BRANCH   4  20
ATOM     20  O   UNL     1       0.335  -3.244   2.010  0.00  0.00    -0.378 OA
ATOM     21  H   UNL     1       0.380  -3.458   2.954  0.00  0.00    +0.211 HD
ENDBRANCH   4  20
BRANCH   2  22
ATOM     22  C   UNL     1      -1.139   1.032   1.468  0.00  0.00    +0.080 C 
BRANCH  22  23
ATOM     23  S   UNL     1      -2.278   1.471   0.123  0.00  0.00    -0.177 S 
BRANCH  23  24
ATOM     24  C   UNL     1      -2.547   3.182   0.642  0.00  0.00    +0.048 C 
ATOM     25  C   UNL     1      -1.252   3.968   0.665  0.00  0.00    +0.012 C 
ENDBRANCH  23  24
BRANCH  23  26
ATOM     26  C   UNL     1      -3.764   0.786   0.890  0.00  0.00    +0.047 C 
BRANCH  26  27
ATOM     27  C   UNL     1      -4.969   0.950  -0.032  0.00  0.00    -0.000 C 
BRANCH  27  28
ATOM     28  CA  UNL     1      -4.771   0.215  -1.361  0.00  0.00    +0.041 C 
BRANCH  28  29
ATOM     29  N   UNL     1      -5.986   0.329  -2.171  0.00  0.00    +0.389 N 
ATOM     30  H1  UNL     1      -6.216   1.314  -2.303  0.00  0.00    -0.088 HD
ATOM     31  H2  UNL     1      -6.757  -0.140  -1.695  0.00  0.00    -0.088 HD
ATOM     32  H3  UNL     1      -5.831  -0.109  -3.079  0.00  0.00    -0.088 HD
ENDBRANCH  28  29
BRANCH  28  35
ATOM     33  O   UNL     1      -5.451  -1.923  -0.621  0.00  0.00    -0.248 OA
ATOM     34  OXT UNL     1      -3.481  -1.749  -1.764  0.00  0.00    -0.248 OA
ATOM     35  C   UNL     1      -4.540  -1.301  -1.240  0.00  0.00    +0.345 C 
ENDBRANCH  28  35
ENDBRANCH  27  28
ENDBRANCH  26  27
ENDBRANCH  23  26
ENDBRANCH  22  23
ENDBRANCH   2  22
TORSDOF 11
