107706
  -OEChem-03292013323D

 52 53  0     0  0  0  0  0  0999 V2000
    2.9856    1.8276    1.3190 S   0  0  0  0  0  0  0  0  0  0  0  0
   -2.8421    1.8830    0.2106 O   0  0  0  0  0  0  0  0  0  0  0  0
   -2.6048   -0.2558   -0.6892 O   0  0  0  0  0  0  0  0  0  0  0  0
    3.1628    1.8351    2.7663 O   0  0  0  0  0  0  0  0  0  0  0  0
    3.6210    2.8745    0.5282 O   0  0  0  0  0  0  0  0  0  0  0  0
    2.2755   -2.4648    1.0463 O   0  0  0  0  0  0  0  0  0  0  0  0
   -0.5489   -4.2365   -0.2268 O   0  0  0  0  0  0  0  0  0  0  0  0
   -1.6297   -4.5843    1.7377 O   0  0  0  0  0  0  0  0  0  0  0  0
    3.4719    0.2838    0.7285 N   0  0  0  0  0  0  0  0  0  0  0  0
    0.1768   -1.7890    0.3285 N   0  0  0  0  0  0  0  0  0  0  0  0
   -4.8057    0.8126   -0.6457 C   0  0  0  0  0  0  0  0  0  0  0  0
   -5.0952    2.0072   -1.5642 C   0  0  0  0  0  0  0  0  0  0  0  0
   -5.3075   -0.4895   -1.2837 C   0  0  0  0  0  0  0  0  0  0  0  0
   -5.5311    1.0244    0.6929 C   0  0  0  0  0  0  0  0  0  0  0  0
   -3.2961    0.7127   -0.3965 C   0  0  0  0  0  0  0  0  0  0  0  0
    1.2704    1.8441    0.9929 C   0  0  0  0  0  0  0  0  0  0  0  0
   -1.4701    1.8705    0.4718 C   0  0  0  0  0  0  0  0  0  0  0  0
    3.1018   -0.0748   -0.6141 C   0  0  0  0  0  0  0  0  0  0  0  0
    0.7967    2.3330   -0.2245 C   0  0  0  0  0  0  0  0  0  0  0  0
    0.3739    1.3685    1.9500 C   0  0  0  0  0  0  0  0  0  0  0  0
   -0.5735    2.3461   -0.4851 C   0  0  0  0  0  0  0  0  0  0  0  0
   -0.9964    1.3816    1.6894 C   0  0  0  0  0  0  0  0  0  0  0  0
    2.1867   -1.0991   -0.8577 C   0  0  0  0  0  0  0  0  0  0  0  0
    3.6736    0.6179   -1.6813 C   0  0  0  0  0  0  0  0  0  0  0  0
    1.8435   -1.4304   -2.1685 C   0  0  0  0  0  0  0  0  0  0  0  0
    1.5712   -1.8405    0.2354 C   0  0  0  0  0  0  0  0  0  0  0  0
    3.3302    0.2866   -2.9921 C   0  0  0  0  0  0  0  0  0  0  0  0
    2.4152   -0.7375   -3.2357 C   0  0  0  0  0  0  0  0  0  0  0  0
   -0.5773   -2.4511    1.3685 C   0  0  0  0  0  0  0  0  0  0  0  0
   -0.9784   -3.8559    0.9989 C   0  0  0  0  0  0  0  0  0  0  0  0
   -6.1623    2.0723   -1.8042 H   0  0  0  0  0  0  0  0  0  0  0  0
   -4.8001    2.9574   -1.1051 H   0  0  0  0  0  0  0  0  0  0  0  0
   -4.5430    1.9173   -2.5068 H   0  0  0  0  0  0  0  0  0  0  0  0
   -6.3870   -0.4517   -1.4681 H   0  0  0  0  0  0  0  0  0  0  0  0
   -5.1075   -1.3528   -0.6383 H   0  0  0  0  0  0  0  0  0  0  0  0
   -4.8118   -0.6763   -2.2434 H   0  0  0  0  0  0  0  0  0  0  0  0
   -5.2454    1.9705    1.1663 H   0  0  0  0  0  0  0  0  0  0  0  0
   -6.6184    1.0383    0.5571 H   0  0  0  0  0  0  0  0  0  0  0  0
   -5.2892    0.2230    1.4007 H   0  0  0  0  0  0  0  0  0  0  0  0
    3.4450   -0.4865    1.4090 H   0  0  0  0  0  0  0  0  0  0  0  0
    1.4745    2.7118   -0.9840 H   0  0  0  0  0  0  0  0  0  0  0  0
    0.7204    0.9744    2.9011 H   0  0  0  0  0  0  0  0  0  0  0  0
   -0.9370    2.7284   -1.4350 H   0  0  0  0  0  0  0  0  0  0  0  0
   -1.6900    1.0070    2.4372 H   0  0  0  0  0  0  0  0  0  0  0  0
    4.4024    1.4059   -1.5146 H   0  0  0  0  0  0  0  0  0  0  0  0
    1.1355   -2.2288   -2.3760 H   0  0  0  0  0  0  0  0  0  0  0  0
    3.7785    0.8231   -3.8232 H   0  0  0  0  0  0  0  0  0  0  0  0
    2.1492   -0.9966   -4.2563 H   0  0  0  0  0  0  0  0  0  0  0  0
   -0.3433   -1.2574   -0.3639 H   0  0  0  0  0  0  0  0  0  0  0  0
    0.0242   -2.4879    2.2813 H   0  0  0  0  0  0  0  0  0  0  0  0
   -1.4837   -1.8635    1.5371 H   0  0  0  0  0  0  0  0  0  0  0  0
   -0.8215   -5.1536   -0.4433 H   0  0  0  0  0  0  0  0  0  0  0  0
  1  4  2  0  0  0  0
  1  5  2  0  0  0  0
  1  9  1  0  0  0  0
  1 16  1  0  0  0  0
  2 15  1  0  0  0  0
  2 17  1  0  0  0  0
  3 15  2  0  0  0  0
  6 26  2  0  0  0  0
  7 30  1  0  0  0  0
  7 52  1  0  0  0  0
  8 30  2  0  0  0  0
  9 18  1  0  0  0  0
  9 40  1  0  0  0  0
 10 26  1  0  0  0  0
 10 29  1  0  0  0  0
 10 49  1  0  0  0  0
 11 12  1  0  0  0  0
 11 13  1  0  0  0  0
 11 14  1  0  0  0  0
 11 15  1  0  0  0  0
 12 31  1  0  0  0  0
 12 32  1  0  0  0  0
 12 33  1  0  0  0  0
 13 34  1  0  0  0  0
 13 35  1  0  0  0  0
 13 36  1  0  0  0  0
 14 37  1  0  0  0  0
 14 38  1  0  0  0  0
 14 39  1  0  0  0  0
 16 19  2  0  0  0  0
 16 20  1  0  0  0  0
 17 21  2  0  0  0  0
 17 22  1  0  0  0  0
 18 23  1  0  0  0  0
 18 24  2  0  0  0  0
 19 21  1  0  0  0  0
 19 41  1  0  0  0  0
 20 22  2  0  0  0  0
 20 42  1  0  0  0  0
 21 43  1  0  0  0  0
 22 44  1  0  0  0  0
 23 25  2  0  0  0  0
 23 26  1  0  0  0  0
 24 27  1  0  0  0  0
 24 45  1  0  0  0  0
 25 28  1  0  0  0  0
 25 46  1  0  0  0  0
 27 28  2  0  0  0  0
 27 47  1  0  0  0  0
 28 48  1  0  0  0  0
 29 30  1  0  0  0  0
 29 50  1  0  0  0  0
 29 51  1  0  0  0  0
M  END
> <PUBCHEM_COMPOUND_CID>
107706

> <PUBCHEM_CONFORMER_RMSD>
1

> <PUBCHEM_CONFORMER_DIVERSEORDER>
1
36
73
4
16
55
81
56
9
42
31
64
70
76
49
41
75
66
77
84
39
33
2
60
74
15
47
62
58
67
40
87
51
44
7
53
79
32
23
78
91
65
82
90
28
3
24
69
68
54
50
34
5
35
89
72
38
86
6
52
59
26
71
83
88
80
25
85
21
12
8
17
43
37
11
48
46
63
61
30
27
57
22
45
13
10
14
20
29
19
18

> <PUBCHEM_MMFF94_PARTIAL_CHARGES>
38
1 1.45
10 -0.73
11 0.06
15 0.66
16 -0.01
17 0.08
18 0.2
19 -0.15
2 -0.23
20 -0.15
21 -0.15
22 -0.15
23 0.09
24 -0.15
25 -0.15
26 0.54
27 -0.15
28 -0.15
29 0.36
3 -0.57
30 0.66
4 -0.65
40 0.42
41 0.15
42 0.15
43 0.15
44 0.15
45 0.15
46 0.15
47 0.15
48 0.15
49 0.37
5 -0.65
52 0.5
6 -0.57
7 -0.65
8 -0.57
9 -0.76

> <PUBCHEM_EFFECTIVE_ROTOR_COUNT>
10

> <PUBCHEM_PHARMACOPHORE_FEATURES>
12
1 10 donor
1 3 acceptor
1 4 acceptor
1 5 acceptor
1 6 acceptor
1 7 acceptor
1 8 acceptor
1 9 donor
3 7 8 30 anion
4 11 12 13 14 hydrophobe
6 16 17 19 20 21 22 rings
6 18 23 24 25 27 28 rings

> <PUBCHEM_HEAVY_ATOM_COUNT>
30

> <PUBCHEM_ATOM_DEF_STEREO_COUNT>
0

> <PUBCHEM_ATOM_UDEF_STEREO_COUNT>
0

> <PUBCHEM_BOND_DEF_STEREO_COUNT>
0

> <PUBCHEM_BOND_UDEF_STEREO_COUNT>
0

> <PUBCHEM_ISOTOPIC_ATOM_COUNT>
0

> <PUBCHEM_COMPONENT_COUNT>
1

> <PUBCHEM_CACTVS_TAUTO_COUNT>
3

> <PUBCHEM_CONFORMER_ID>
0001A4BA00000001

> <PUBCHEM_MMFF94_ENERGY>
75.9485

> <PUBCHEM_FEATURE_SELFOVERLAP>
60.975

> <PUBCHEM_SHAPE_FINGERPRINT>
10316853 100 18334861675531776867
108634 29 18269275823191634871
11285246 1 17263889838406193118
11796584 16 17988916739905475149
12156800 1 17899987319847324996
12293681 25 17915488071963184046
12596599 1 17344355449374430873
13617811 41 18040431102029898541
14068700 675 17761207722610321450
14114211 68 18045813133552978879
14251757 17 18202004335087626159
144659 39 16805896172753724929
15324115 91 18115309956282205327
15721738 202 17131550661157238095
17357779 13 17843433840572996262
17492 54 18336564749780243948
17909252 39 17131843044438056124
20645477 70 17918268762217678669
20691752 17 18335124406653801909
20764821 26 18263077889563623875
20775438 99 18201707496871207631
20905425 154 17836367421011962106
21452121 99 18335713787962400706
22182313 1 17912660278142365938
23419403 2 17699881654074383252
23559900 14 17752199484051921007
238 59 17970651604803309298
239999 70 18060415820126741484
3052486 1 17970062451149076019
463206 1 17689439278544496419
508706 21 18192996148017306899
57359948 33 17460852040329069189
57527358 35 15865509162026118450
6823239 73 17417533505901238900

> <PUBCHEM_SHAPE_MULTIPOLES>
570.19
8.87
4.42
2.6
12.31
5.48
-1.12
-4.21
-4.08
0.28
2.64
-2.38
0.14
1.86

> <PUBCHEM_SHAPE_SELFOVERLAP>
1190.061

> <PUBCHEM_SHAPE_VOLUME>
323.5

> <PUBCHEM_COORDINATE_TYPE>
2
5
10

$$$$
