REMARK  Name = 107794
REMARK  8 active torsions:
REMARK  status: ('A' for Active; 'I' for Inactive)
REMARK    1  A    between atoms: C_1  and  C_13
REMARK    2  A    between atoms: C_2  and  O_7
REMARK    3  A    between atoms: C_4  and  O_9
REMARK    4  A    between atoms: C_6  and  O_11
REMARK    5  A    between atoms: C_13  and  CA_14
REMARK    6  A    between atoms: CA_14  and  N_15
REMARK    7  A    between atoms: CA_14  and  C_20
REMARK    8  A    between atoms: C_20  and  O_21
REMARK                            x       y       z     vdW  Elec       q    Type
REMARK                         _______ _______ _______ _____ _____    ______ ____
ROOT
ATOM      1  C   UNL     1       0.072   0.191   0.741  0.00  0.00    +0.013 C 
ATOM      2  C   UNL     1       0.524   1.335   0.103  0.00  0.00    +0.133 C 
ATOM      3  C   UNL     1       0.874  -0.933   0.859  0.00  0.00    +0.038 C 
ATOM      4  C   UNL     1       2.162  -0.912   0.324  0.00  0.00    +0.167 C 
ATOM      5  C   UNL     1       1.812   1.355  -0.432  0.00  0.00    +0.076 C 
ATOM      6  C   UNL     1       2.631   0.232  -0.322  0.00  0.00    +0.171 C 
ENDROOT
BRANCH   2   7
ATOM      7  O   UNL     1      -0.263   2.441  -0.014  0.00  0.00    -0.506 OA
ATOM      8  H   UNL     1      -1.130   2.439   0.342  0.00  0.00    +0.292 HD
ENDBRANCH   2   7
BRANCH   4   9
ATOM      9  O   UNL     1       2.952  -2.017   0.437  0.00  0.00    -0.503 OA
ATOM     10  H   UNL     1       2.629  -2.781   0.872  0.00  0.00    +0.292 HD
ENDBRANCH   4   9
BRANCH   6  11
ATOM     11  O   UNL     1       3.886   0.264  -0.849  0.00  0.00    -0.503 OA
ATOM     12  H   UNL     1       4.443  -0.486  -0.779  0.00  0.00    +0.292 HD
ENDBRANCH   6  11
BRANCH   1  13
ATOM     13  C   UNL     1      -1.321   0.151   1.327  0.00  0.00    +0.019 C 
BRANCH  13  14
ATOM     14  CA  UNL     1      -2.413   0.378   0.273  0.00  0.00    +0.040 C 
BRANCH  14  15
ATOM     15  N   UNL     1      -3.729   0.333   0.912  0.00  0.00    +0.389 N 
ATOM     16  H1  UNL     1      -3.783   1.057   1.629  0.00  0.00    -0.088 HD
ATOM     17  H2  UNL     1      -3.868  -0.582   1.341  0.00  0.00    -0.088 HD
ATOM     18  H3  UNL     1      -4.453   0.494   0.212  0.00  0.00    -0.088 HD
ENDBRANCH  14  15
BRANCH  14  20
ATOM     19  OXT UNL     1      -2.499  -1.917  -0.563  0.00  0.00    -0.253 OA
ATOM     20  C   UNL     1      -2.400  -0.717  -0.776  0.00  0.00    +0.293 C 
BRANCH  20  21
ATOM     21  O   UNL     1      -2.288  -0.184  -2.020  0.00  0.00    -0.482 OA
ATOM     22  H   UNL     1      -2.215   0.744  -2.128  0.00  0.00    +0.295 HD
ENDBRANCH  20  21
ENDBRANCH  14  20
ENDBRANCH  13  14
ENDBRANCH   1  13
TORSDOF 8
