REMARK  Name = 107721
REMARK  10 active torsions:
REMARK  status: ('A' for Active; 'I' for Inactive)
REMARK    1  A    between atoms: C_2  and  O_7
REMARK    2  A    between atoms: C_3  and  O_9
REMARK    3  A    between atoms: C_4  and  O_11
REMARK    4  A    between atoms: C_5  and  C_25
REMARK    5  A    between atoms: C_6  and  O_13
REMARK    6  A    between atoms: O_13  and  C_14
REMARK    7  A    between atoms: C_14  and  C_15
REMARK    8  A    between atoms: C_14  and  C_24
REMARK    9  A    between atoms: C_20  and  O_21
REMARK   10  A    between atoms: C_25  and  O_26
REMARK                            x       y       z     vdW  Elec       q    Type
REMARK                         _______ _______ _______ _____ _____    ______ ____
ROOT
ATOM      1  O   UNL     1       1.756   0.729  -0.096  0.00  0.00    -0.326 OA
ATOM      2  C   UNL     1       3.279  -1.697   0.107  0.00  0.00    +0.172 C 
ATOM      3  C   UNL     1       3.936  -0.331  -0.092  0.00  0.00    +0.169 C 
ATOM      4  C   UNL     1       1.823  -1.684  -0.357  0.00  0.00    +0.196 C 
ATOM      5  C   UNL     1       3.059   0.782   0.487  0.00  0.00    +0.176 C 
ATOM      6  C   UNL     1       1.069  -0.482   0.211  0.00  0.00    +0.267 C 
ENDROOT
BRANCH   2   7
ATOM      7  O   UNL     1       4.014  -2.655  -0.656  0.00  0.00    -0.379 OA
ATOM      8  H   UNL     1       4.938  -2.664  -0.362  0.00  0.00    +0.211 HD
ENDBRANCH   2   7
BRANCH   3   9
ATOM      9  O   UNL     1       5.204  -0.318   0.558  0.00  0.00    -0.379 OA
ATOM     10  H   UNL     1       5.762  -1.022   0.193  0.00  0.00    +0.211 HD
ENDBRANCH   3   9
BRANCH   4  11
ATOM     11  O   UNL     1       1.172  -2.873   0.092  0.00  0.00    -0.378 OA
ATOM     12  H   UNL     1       1.638  -3.648  -0.259  0.00  0.00    +0.211 HD
ENDBRANCH   4  11
BRANCH   6  13
ATOM     13  O   UNL     1      -0.232  -0.461  -0.377  0.00  0.00    -0.312 OA
BRANCH  13  14
ATOM     14  C   UNL     1      -0.995   0.637   0.098  0.00  0.00    +0.230 C 
BRANCH  14  15
ATOM     15  C   UNL     1      -2.453   0.244   0.134  0.00  0.00    +0.019 C 
ATOM     16  C   UNL     1      -3.112   0.196   1.351  0.00  0.00    +0.002 C 
ATOM     17  C   UNL     1      -3.103  -0.060  -1.051  0.00  0.00    +0.002 C 
ATOM     18  C   UNL     1      -4.458  -0.168   1.385  0.00  0.00    +0.036 C 
ATOM     19  C   UNL     1      -4.449  -0.424  -1.018  0.00  0.00    +0.036 C 
ATOM     20  C   UNL     1      -5.127  -0.478   0.200  0.00  0.00    +0.134 C 
BRANCH  20  21
ATOM     21  O   UNL     1      -6.441  -0.831   0.234  0.00  0.00    -0.506 OA
ATOM     22  H   UNL     1      -6.895  -0.867   1.052  0.00  0.00    +0.292 HD
ENDBRANCH  20  21
ENDBRANCH  14  15
BRANCH  14  24
ATOM     23  N   UNL     1      -0.585   2.752  -1.411  0.00  0.00    -0.193 NA
ATOM     24  C   UNL     1      -0.765   1.818  -0.747  0.00  0.00    +0.107 C 
ENDBRANCH  14  24
ENDBRANCH  13  14
ENDBRANCH   6  13
BRANCH   5  25
ATOM     25  C   UNL     1       3.636   2.164   0.197  0.00  0.00    +0.169 C 
BRANCH  25  26
ATOM     26  O   UNL     1       2.771   3.139   0.750  0.00  0.00    -0.379 OA
ATOM     27  H   UNL     1       3.126   4.024   0.573  0.00  0.00    +0.211 HD
ENDBRANCH  25  26
ENDBRANCH   5  25
TORSDOF 10
