REMARK  Name = 107777
REMARK  7 active torsions:
REMARK  status: ('A' for Active; 'I' for Inactive)
REMARK    1  A    between atoms: C_10  and  N_14
REMARK    2  A    between atoms: C_11  and  C_18
REMARK    3  A    between atoms: C_18  and  C_19
REMARK    4  A    between atoms: C_19  and  CA_20
REMARK    5  A    between atoms: CA_20  and  N_21
REMARK    6  A    between atoms: CA_20  and  C_25
REMARK    7  A    between atoms: C_25  and  O_26
REMARK                            x       y       z     vdW  Elec       q    Type
REMARK                         _______ _______ _______ _____ _____    ______ ____
ROOT
ATOM      1  O   UNL     1      -3.153  -1.320   0.510  0.00  0.00    -0.482 OA
ATOM      2  O   UNL     1      -2.130   2.630   0.029  0.00  0.00    -0.291 OA
ATOM      3  C   UNL     1      -4.173  -0.347   0.224  0.00  0.00    +0.141 C 
ATOM      4  C   UNL     1      -3.787   1.047   0.733  0.00  0.00    +0.109 C 
ATOM      5  C   UNL     1      -1.461   0.369   0.020  0.00  0.00    +0.082 C 
ATOM      6  C   UNL     1      -2.434   1.458   0.217  0.00  0.00    +0.181 C 
ATOM      7  C   UNL     1      -1.873  -0.952   0.199  0.00  0.00    +0.142 C 
ATOM      8  C   UNL     1      -4.493  -0.354  -1.280  0.00  0.00    +0.044 C 
ATOM      9  C   UNL     1      -5.421  -0.820   0.985  0.00  0.00    +0.044 C 
ATOM     10  C   UNL     1      -0.134   0.659  -0.311  0.00  0.00    +0.050 C 
ATOM     11  C   UNL     1       0.785  -0.381  -0.450  0.00  0.00    +0.048 C 
ATOM     12  C   UNL     1      -0.944  -1.987   0.075  0.00  0.00    +0.037 C 
ATOM     13  C   UNL     1       0.382  -1.702  -0.252  0.00  0.00    +0.007 C 
ENDROOT
BRANCH  10  14
ATOM     14  N   UNL     1       0.317   1.983  -0.523  0.00  0.00    -0.357 N 
ATOM     15  H   UNL     1      -0.310   2.737  -0.433  0.00  0.00    +0.142 HD
ATOM     16  H   UNL     1       1.257   2.151  -0.762  0.00  0.00    +0.142 HD
ENDBRANCH  10  14
BRANCH  11  18
ATOM     17  O   UNL     1       2.476   0.840  -1.526  0.00  0.00    -0.291 OA
ATOM     18  C   UNL     1       2.176  -0.131  -0.808  0.00  0.00    +0.172 C 
BRANCH  18  19
ATOM     19  C   UNL     1       3.275  -1.089  -0.314  0.00  0.00    +0.050 C 
BRANCH  19  20
ATOM     20  CA  UNL     1       4.635  -0.415  -0.075  0.00  0.00    -0.028 C 
BRANCH  20  21
ATOM     21  N   UNL     1       5.597  -1.442   0.339  0.00  0.00    +0.384 N 
ATOM     22  H1  UNL     1       5.659  -2.161  -0.382  0.00  0.00    -0.089 HD
ATOM     23  H2  UNL     1       5.287  -1.865   1.214  0.00  0.00    -0.089 HD
ATOM     24  H3  UNL     1       6.514  -1.016   0.473  0.00  0.00    -0.089 HD
ENDBRANCH  20  21
BRANCH  20  25
ATOM     25  C   UNL     1       4.551   0.659   1.016  0.00  0.00    +0.116 C 
BRANCH  25  26
ATOM     26  O   UNL     1       5.812   1.295   1.192  0.00  0.00    -0.384 OA
ATOM     27  H   UNL     1       5.739   1.970   1.885  0.00  0.00    +0.210 HD
ENDBRANCH  25  26
ENDBRANCH  20  25
ENDBRANCH  19  20
ENDBRANCH  18  19
ENDBRANCH  11  18
TORSDOF 7
