107714
  -OEChem-03292013323D

 52 55  0     1  0  0  0  0  0999 V2000
    0.2967   -1.7750   -2.4962 O   0  0  0  0  0  0  0  0  0  0  0  0
    0.0264   -2.4699    0.4396 O   0  0  0  0  0  0  0  0  0  0  0  0
    3.0378    0.7456   -0.1432 O   0  0  0  0  0  0  0  0  0  0  0  0
    2.2835   -1.7703    1.9454 O   0  0  0  0  0  0  0  0  0  0  0  0
   -2.1511    0.7549   -1.8017 O   0  0  0  0  0  0  0  0  0  0  0  0
   -1.0770    2.2534   -0.0974 O   0  0  0  0  0  0  0  0  0  0  0  0
   -4.2989   -0.2021   -0.6092 O   0  0  0  0  0  0  0  0  0  0  0  0
    4.1833    0.1835    1.7825 O   0  0  0  0  0  0  0  0  0  0  0  0
   -1.5300    3.7486    1.6047 O   0  0  0  0  0  0  0  0  0  0  0  0
    0.7069    0.0362   -0.7417 C   0  0  1  0  0  0  0  0  0  0  0  0
    1.0227   -1.3068   -1.3698 C   0  0  1  0  0  0  0  0  0  0  0  0
   -0.7143   -0.1054    0.0116 C   0  0  2  0  0  0  0  0  0  0  0  0
    1.2649   -2.2338   -0.2356 C   0  0  1  0  0  0  0  0  0  0  0  0
    1.8779    0.0691    0.3397 C   0  0  1  0  0  0  0  0  0  0  0  0
    1.6951   -1.5175   -2.7091 C   0  0  0  0  0  0  0  0  0  0  0  0
    2.2789   -1.4136    0.5772 C   0  0  1  0  0  0  0  0  0  0  0  0
   -0.6321   -1.3215    0.9988 C   0  0  1  0  0  0  0  0  0  0  0  0
    0.7875    1.2101   -1.7242 C   0  0  0  0  0  0  0  0  0  0  0  0
   -1.9144   -0.3573   -0.9537 C   0  0  1  0  0  0  0  0  0  0  0  0
   -1.0231    1.1914    0.8214 C   0  0  0  0  0  0  0  0  0  0  0  0
   -1.9606   -1.8135    1.5042 C   0  0  0  0  0  0  0  0  0  0  0  0
   -3.2179   -0.6344   -0.2106 C   0  0  0  0  0  0  0  0  0  0  0  0
   -3.1612   -1.5033    0.9976 C   0  0  0  0  0  0  0  0  0  0  0  0
    4.1222    0.7225    0.6858 C   0  0  0  0  0  0  0  0  0  0  0  0
   -4.4531   -1.9834    1.5780 C   0  0  0  0  0  0  0  0  0  0  0  0
   -1.3410    3.4986    0.4219 C   0  0  0  0  0  0  0  0  0  0  0  0
    5.2583    1.4668    0.0519 C   0  0  0  0  0  0  0  0  0  0  0  0
   -1.3672    4.5271   -0.6678 C   0  0  0  0  0  0  0  0  0  0  0  0
    1.6758   -3.2041   -0.5308 H   0  0  0  0  0  0  0  0  0  0  0  0
    1.5772    0.5671    1.2642 H   0  0  0  0  0  0  0  0  0  0  0  0
    1.9453   -0.6844   -3.3489 H   0  0  0  0  0  0  0  0  0  0  0  0
    2.3430   -2.3766   -2.8333 H   0  0  0  0  0  0  0  0  0  0  0  0
    3.2764   -1.6242    0.1702 H   0  0  0  0  0  0  0  0  0  0  0  0
   -0.0766   -1.0176    1.8935 H   0  0  0  0  0  0  0  0  0  0  0  0
    0.8216    2.1820   -1.2292 H   0  0  0  0  0  0  0  0  0  0  0  0
    1.7287    1.1776   -2.2861 H   0  0  0  0  0  0  0  0  0  0  0  0
    0.0063    1.1978   -2.4847 H   0  0  0  0  0  0  0  0  0  0  0  0
   -1.7574   -1.2291   -1.5911 H   0  0  0  0  0  0  0  0  0  0  0  0
   -0.2594    1.3935    1.5776 H   0  0  0  0  0  0  0  0  0  0  0  0
   -1.9808    1.1184    1.3492 H   0  0  0  0  0  0  0  0  0  0  0  0
   -1.9161   -2.4660    2.3745 H   0  0  0  0  0  0  0  0  0  0  0  0
    2.4371   -2.7290    1.9970 H   0  0  0  0  0  0  0  0  0  0  0  0
   -2.4569    1.5007   -1.2598 H   0  0  0  0  0  0  0  0  0  0  0  0
   -5.0650   -1.1357    1.9034 H   0  0  0  0  0  0  0  0  0  0  0  0
   -4.2962   -2.6324    2.4459 H   0  0  0  0  0  0  0  0  0  0  0  0
   -5.0173   -2.5550    0.8339 H   0  0  0  0  0  0  0  0  0  0  0  0
    4.9718    2.5083   -0.1143 H   0  0  0  0  0  0  0  0  0  0  0  0
    5.5343    0.9876   -0.8908 H   0  0  0  0  0  0  0  0  0  0  0  0
    6.1237    1.4456    0.7203 H   0  0  0  0  0  0  0  0  0  0  0  0
   -2.1212    4.2580   -1.4119 H   0  0  0  0  0  0  0  0  0  0  0  0
   -0.3798    4.6007   -1.1299 H   0  0  0  0  0  0  0  0  0  0  0  0
   -1.6303    5.5000   -0.2431 H   0  0  0  0  0  0  0  0  0  0  0  0
  1 11  1  0  0  0  0
  1 15  1  0  0  0  0
  2 13  1  0  0  0  0
  2 17  1  0  0  0  0
  3 14  1  0  0  0  0
  3 24  1  0  0  0  0
  4 16  1  0  0  0  0
  4 42  1  0  0  0  0
  5 19  1  0  0  0  0
  5 43  1  0  0  0  0
  6 20  1  0  0  0  0
  6 26  1  0  0  0  0
  7 22  2  0  0  0  0
  8 24  2  0  0  0  0
  9 26  2  0  0  0  0
 10 11  1  0  0  0  0
 10 12  1  0  0  0  0
 10 14  1  0  0  0  0
 10 18  1  0  0  0  0
 11 13  1  0  0  0  0
 11 15  1  0  0  0  0
 12 17  1  0  0  0  0
 12 19  1  0  0  0  0
 12 20  1  0  0  0  0
 13 16  1  0  0  0  0
 13 29  1  0  0  0  0
 14 16  1  0  0  0  0
 14 30  1  0  0  0  0
 15 31  1  0  0  0  0
 15 32  1  0  0  0  0
 16 33  1  0  0  0  0
 17 21  1  0  0  0  0
 17 34  1  0  0  0  0
 18 35  1  0  0  0  0
 18 36  1  0  0  0  0
 18 37  1  0  0  0  0
 19 22  1  0  0  0  0
 19 38  1  0  0  0  0
 20 39  1  0  0  0  0
 20 40  1  0  0  0  0
 21 23  2  0  0  0  0
 21 41  1  0  0  0  0
 22 23  1  0  0  0  0
 23 25  1  0  0  0  0
 24 27  1  0  0  0  0
 25 44  1  0  0  0  0
 25 45  1  0  0  0  0
 25 46  1  0  0  0  0
 26 28  1  0  0  0  0
 27 47  1  0  0  0  0
 27 48  1  0  0  0  0
 27 49  1  0  0  0  0
 28 50  1  0  0  0  0
 28 51  1  0  0  0  0
 28 52  1  0  0  0  0
M  END
> <PUBCHEM_COMPOUND_CID>
107714

> <PUBCHEM_CONFORMER_RMSD>
0.8

> <PUBCHEM_CONFORMER_DIVERSEORDER>
2
7
4
3
8
6
9
5
1

> <PUBCHEM_MMFF94_PARTIAL_CHARGES>
31
1 -0.3
10 0.09
11 -0.04
13 0.38
14 0.28
15 -0.05
16 0.28
17 0.42
19 0.34
2 -0.56
20 0.28
21 -0.29
22 0.49
23 -0.12
24 0.66
25 0.14
26 0.66
27 0.06
28 0.06
3 -0.43
31 0.1
32 0.1
4 -0.68
41 0.15
42 0.4
43 0.4
5 -0.68
6 -0.43
7 -0.57
8 -0.57
9 -0.57

> <PUBCHEM_EFFECTIVE_ROTOR_COUNT>
6.2

> <PUBCHEM_PHARMACOPHORE_FEATURES>
11
1 1 acceptor
1 2 acceptor
1 4 acceptor
1 4 donor
1 5 acceptor
1 5 donor
1 7 acceptor
1 8 acceptor
1 9 acceptor
6 12 17 19 21 22 23 rings
8 2 10 11 12 13 14 16 17 rings

> <PUBCHEM_HEAVY_ATOM_COUNT>
28

> <PUBCHEM_ATOM_DEF_STEREO_COUNT>
6

> <PUBCHEM_ATOM_UDEF_STEREO_COUNT>
2

> <PUBCHEM_BOND_DEF_STEREO_COUNT>
0

> <PUBCHEM_BOND_UDEF_STEREO_COUNT>
0

> <PUBCHEM_ISOTOPIC_ATOM_COUNT>
0

> <PUBCHEM_COMPONENT_COUNT>
1

> <PUBCHEM_CACTVS_TAUTO_COUNT>
8

> <PUBCHEM_CONFORMER_ID>
0001A4C200000002

> <PUBCHEM_MMFF94_ENERGY>
105.3068

> <PUBCHEM_FEATURE_SELFOVERLAP>
55.853

> <PUBCHEM_SHAPE_FINGERPRINT>
10165383 225 17131569339610818498
10863032 1 17968641731918263054
10906281 52 18411992368537870181
10930396 42 17835760404995142088
1100329 8 17903363945694153458
11221954 11 18055629525857183280
11578080 2 17201666379387961121
12788726 201 18338787919358031065
13140716 1 18047758392696582578
13911987 19 18337385071074056756
14178342 30 18188500046832544776
14223421 5 18341337677905308810
14787075 74 17970910200658338290
14955137 171 17912383200869482923
16945 1 18199726112224042950
17492 54 17984953085779430029
17876694 64 17895201016682624268
20600515 1 17968953009825898191
21069387 34 14346077567754631555
23419403 2 17393860170331129423
23557571 272 18337406984129309439
23558518 356 18122903131785978069
23559900 14 17967820410150486206
3380486 145 18338520858333789491
3493558 16 17531232985359353853
392239 28 18336265763989635752
394222 165 15794012409033912390
57527585 21 18130493146246608252
70251023 43 17772765879120258119
81228 2 18195546817435677657
9981440 41 17485052264494941544

> <PUBCHEM_SHAPE_MULTIPOLES>
523.4
6.7
3.9
2.02
3.02
5.55
-0.86
-0.69
2.77
-2.18
0.53
0.45
-0.79
0.82

> <PUBCHEM_SHAPE_SELFOVERLAP>
1131.313

> <PUBCHEM_SHAPE_VOLUME>
279.6

> <PUBCHEM_COORDINATE_TYPE>
2
5
10

$$$$
