REMARK  Name = 107804
REMARK  11 active torsions:
REMARK  status: ('A' for Active; 'I' for Inactive)
REMARK    1  A    between atoms: C_1  and  N_2
REMARK    2  A    between atoms: C_1  and  C_14
REMARK    3  A    between atoms: N_2  and  C_5
REMARK    4  A    between atoms: C_5  and  C_6
REMARK    5  A    between atoms: C_6  and  C_9
REMARK    6  A    between atoms: C_14  and  C_15
REMARK    7  A    between atoms: C_15  and  C_16
REMARK    8  A    between atoms: C_16  and  C_17
REMARK    9  A    between atoms: C_17  and  N_18
REMARK   10  A    between atoms: C_17  and  C_23
REMARK   11  A    between atoms: C_23  and  O_24
REMARK                            x       y       z     vdW  Elec       q    Type
REMARK                         _______ _______ _______ _____ _____    ______ ____
ROOT
ATOM      1  C   UNK     1      -0.170   0.303  -0.083  0.00  0.00    -0.082 C 
ENDROOT
BRANCH   1   2
ATOM      2  N   UNK     1       1.033   0.930   0.452  0.00  0.00    +0.384 N 
ATOM      3  H   UNK     1       0.988   0.925   1.471  0.00  0.00    -0.085 HD
ATOM      4  H   UNK     1       1.084   1.887   0.103  0.00  0.00    -0.085 HD
BRANCH   2   5
ATOM      5  C   UNK     1       2.226   0.214   0.024  0.00  0.00    -0.076 C 
BRANCH   5   6
ATOM      6  C   UNK     1       3.491   0.875   0.576  0.00  0.00    +0.019 C 
BRANCH   6   9
ATOM      7  N   UNK     1       5.612  -0.362   1.000  0.00  0.00    -0.319 N 
ATOM      8  N   UNK     1       6.384  -0.807  -1.034  0.00  0.00    -0.315 N 
ATOM      9  C   UNK     1       4.734   0.152   0.118  0.00  0.00    +0.035 C 
ATOM     10  C   UNK     1       5.201  -0.117  -1.120  0.00  0.00    +0.069 C 
ATOM     11  C   UNK     1       6.603  -0.938   0.255  0.00  0.00    +0.182 C 
ATOM     12  H   UNK     1       5.551  -0.329   1.982  0.00  0.00    +0.148 HD
ATOM     13  H   UNK     1       6.944  -1.133  -1.775  0.00  0.00    +0.148 HD
ENDBRANCH   6   9
ENDBRANCH   5   6
ENDBRANCH   2   5
ENDBRANCH   1   2
BRANCH   1  14
ATOM     14  C   UNK     1      -1.413   1.071   0.366  0.00  0.00    -0.023 C 
BRANCH  14  15
ATOM     15  C   UNK     1      -2.687   0.421  -0.180  0.00  0.00    -0.004 C 
BRANCH  15  16
ATOM     16  C   UNK     1      -3.972   1.161   0.216  0.00  0.00    -0.011 C 
BRANCH  16  17
ATOM     17  C   UNK     1      -5.269   0.493  -0.258  0.00  0.00    +0.036 C 
BRANCH  17  18
ATOM     18  N   UNK     1      -5.343   0.444  -1.719  0.00  0.00    +0.389 N 
ATOM     19  H   UNK     1      -5.239   1.386  -2.096  0.00  0.00    -0.088 HD
ATOM     20  H   UNK     1      -6.246   0.062  -2.001  0.00  0.00    -0.088 HD
ATOM     21  H   UNK     1      -4.596  -0.150  -2.077  0.00  0.00    -0.088 HD
ENDBRANCH  17  18
BRANCH  17  23
ATOM     22  O   UNK     1      -5.497  -1.900  -0.479  0.00  0.00    -0.253 OA
ATOM     23  C   UNK     1      -5.428  -0.923   0.258  0.00  0.00    +0.293 C 
BRANCH  23  24
ATOM     24  O   UNK     1      -5.504  -1.017   1.608  0.00  0.00    -0.482 OA
ATOM     25  H   UNK     1      -5.447  -0.244   2.136  0.00  0.00    +0.295 HD
ENDBRANCH  23  24
ENDBRANCH  17  23
ENDBRANCH  16  17
ENDBRANCH  15  16
ENDBRANCH  14  15
ENDBRANCH   1  14
TORSDOF 11
