107870
  -OEChem-03292013323D

 39 42  0     1  0  0  0  0  0999 V2000
   -3.0313   -0.0196    0.8931 O   0  0  0  0  0  0  0  0  0  0  0  0
   -3.7444    2.8184   -0.0908 O   0  0  0  0  0  0  0  0  0  0  0  0
   -5.3271   -1.6016    0.6878 O   0  0  0  0  0  0  0  0  0  0  0  0
    3.0400   -2.6820   -0.2459 O   0  0  0  0  0  0  0  0  0  0  0  0
   -0.8485   -0.4390    0.0643 N   0  0  0  0  0  0  0  0  0  0  0  0
    3.1265   -0.3360    0.0152 N   0  0  0  0  0  0  0  0  0  0  0  0
    1.1042    0.9706    0.2408 N   0  0  0  0  0  0  0  0  0  0  0  0
    3.1574    2.0650    0.3553 N   0  0  0  0  0  0  0  0  0  0  0  0
    0.1125   -2.4364   -0.2182 N   0  0  0  0  0  0  0  0  0  0  0  0
   -1.9045    0.5562    0.2098 C   0  0  1  0  0  0  0  0  0  0  0  0
   -2.4276    1.1114   -1.1071 C   0  0  0  0  0  0  0  0  0  0  0  0
   -3.8244    1.5425   -0.7224 C   0  0  1  0  0  0  0  0  0  0  0  0
   -4.2438    0.4916    0.3002 C   0  0  1  0  0  0  0  0  0  0  0  0
    0.4977   -0.2215    0.0804 C   0  0  0  0  0  0  0  0  0  0  0  0
   -4.9892   -0.6763   -0.3305 C   0  0  0  0  0  0  0  0  0  0  0  0
    1.0577   -1.4597   -0.0963 C   0  0  0  0  0  0  0  0  0  0  0  0
    4.5914   -0.3266    0.0445 C   0  0  0  0  0  0  0  0  0  0  0  0
   -1.0308   -1.7876   -0.1184 C   0  0  0  0  0  0  0  0  0  0  0  0
    2.4208    0.9029    0.2098 C   0  0  0  0  0  0  0  0  0  0  0  0
    5.1756    0.9932   -0.4368 C   0  0  0  0  0  0  0  0  0  0  0  0
    2.4873   -1.5948   -0.1253 C   0  0  0  0  0  0  0  0  0  0  0  0
    4.6004    2.1293    0.3905 C   0  0  0  0  0  0  0  0  0  0  0  0
   -1.5171    1.3566    0.8515 H   0  0  0  0  0  0  0  0  0  0  0  0
   -2.4760    0.3249   -1.8697 H   0  0  0  0  0  0  0  0  0  0  0  0
   -1.7940    1.9201   -1.4841 H   0  0  0  0  0  0  0  0  0  0  0  0
   -4.5103    1.6288   -1.5700 H   0  0  0  0  0  0  0  0  0  0  0  0
   -4.8384    0.9215    1.1142 H   0  0  0  0  0  0  0  0  0  0  0  0
   -4.3768   -1.2027   -1.0697 H   0  0  0  0  0  0  0  0  0  0  0  0
   -5.9126   -0.3415   -0.8120 H   0  0  0  0  0  0  0  0  0  0  0  0
    4.9768   -1.1493   -0.5678 H   0  0  0  0  0  0  0  0  0  0  0  0
    4.8906   -0.5243    1.0810 H   0  0  0  0  0  0  0  0  0  0  0  0
   -2.0113   -2.2406   -0.1754 H   0  0  0  0  0  0  0  0  0  0  0  0
    4.9266    1.1410   -1.4952 H   0  0  0  0  0  0  0  0  0  0  0  0
    6.2674    0.9785   -0.3531 H   0  0  0  0  0  0  0  0  0  0  0  0
    4.9399    2.0566    1.4296 H   0  0  0  0  0  0  0  0  0  0  0  0
    4.9381    3.0935   -0.0026 H   0  0  0  0  0  0  0  0  0  0  0  0
   -3.4286    3.4536   -0.7561 H   0  0  0  0  0  0  0  0  0  0  0  0
    2.6583    2.9379    0.5023 H   0  0  0  0  0  0  0  0  0  0  0  0
   -4.4989   -1.8896    1.1087 H   0  0  0  0  0  0  0  0  0  0  0  0
  1 10  1  0  0  0  0
  1 13  1  0  0  0  0
  2 12  1  0  0  0  0
  2 37  1  0  0  0  0
  3 15  1  0  0  0  0
  3 39  1  0  0  0  0
  4 21  2  0  0  0  0
  5 10  1  0  0  0  0
  5 14  1  0  0  0  0
  5 18  1  0  0  0  0
  6 17  1  0  0  0  0
  6 19  1  0  0  0  0
  6 21  1  0  0  0  0
  7 14  1  0  0  0  0
  7 19  2  0  0  0  0
  8 19  1  0  0  0  0
  8 22  1  0  0  0  0
  8 38  1  0  0  0  0
  9 16  1  0  0  0  0
  9 18  2  0  0  0  0
 10 11  1  0  0  0  0
 10 23  1  0  0  0  0
 11 12  1  0  0  0  0
 11 24  1  0  0  0  0
 11 25  1  0  0  0  0
 12 13  1  0  0  0  0
 12 26  1  0  0  0  0
 13 15  1  0  0  0  0
 13 27  1  0  0  0  0
 14 16  2  0  0  0  0
 15 28  1  0  0  0  0
 15 29  1  0  0  0  0
 16 21  1  0  0  0  0
 17 20  1  0  0  0  0
 17 30  1  0  0  0  0
 17 31  1  0  0  0  0
 18 32  1  0  0  0  0
 20 22  1  0  0  0  0
 20 33  1  0  0  0  0
 20 34  1  0  0  0  0
 22 35  1  0  0  0  0
 22 36  1  0  0  0  0
M  END
> <PUBCHEM_COMPOUND_CID>
107870

> <PUBCHEM_CONFORMER_RMSD>
0.6

> <PUBCHEM_CONFORMER_DIVERSEORDER>
2
4
13
5
12
6
15
8
10
16
1
3
11
9
7
14

> <PUBCHEM_MMFF94_PARTIAL_CHARGES>
24
1 -0.56
10 0.54
12 0.28
13 0.28
14 -0.03
15 0.28
16 0.14
17 0.3
18 0.04
19 0.56
2 -0.68
21 0.72
22 0.37
3 -0.68
32 0.15
37 0.4
38 0.4
39 0.4
4 -0.57
5 0.05
6 -0.42
7 -0.58
8 -0.82
9 -0.57

> <PUBCHEM_EFFECTIVE_ROTOR_COUNT>
3.8

> <PUBCHEM_PHARMACOPHORE_FEATURES>
12
1 1 acceptor
1 2 acceptor
1 2 donor
1 3 acceptor
1 3 donor
1 4 acceptor
1 8 donor
3 5 9 18 cation
5 1 10 11 12 13 rings
5 5 9 14 16 18 rings
6 6 7 14 16 19 21 rings
6 6 8 17 19 20 22 rings

> <PUBCHEM_HEAVY_ATOM_COUNT>
22

> <PUBCHEM_ATOM_DEF_STEREO_COUNT>
3

> <PUBCHEM_ATOM_UDEF_STEREO_COUNT>
0

> <PUBCHEM_BOND_DEF_STEREO_COUNT>
0

> <PUBCHEM_BOND_UDEF_STEREO_COUNT>
0

> <PUBCHEM_ISOTOPIC_ATOM_COUNT>
0

> <PUBCHEM_COMPONENT_COUNT>
1

> <PUBCHEM_CACTVS_TAUTO_COUNT>
3

> <PUBCHEM_CONFORMER_ID>
0001A55E00000002

> <PUBCHEM_MMFF94_ENERGY>
43.7377

> <PUBCHEM_FEATURE_SELFOVERLAP>
61.073

> <PUBCHEM_SHAPE_FINGERPRINT>
10 15 18189892196833078928
10411042 1 17259060697248100718
10608611 8 18336263436296715141
10670039 82 18187658994190927460
11405975 8 18192430775596238169
11471102 20 18413107234815634510
12236239 1 17418095403698240697
12403259 226 18191301585464936790
12403259 415 18261676982758010349
12670546 56 17095795547173417064
12730499 353 18411989087024405714
13009979 54 17272297834247171866
13583140 156 17095787893483894041
14341114 176 18337962186373126945
14787075 74 18341610468806462627
15196674 1 18410292462940656277
15961568 22 17676211303217077436
17844677 252 18341620252514960029
17980427 23 17386011680554721965
18186145 218 18130231462473045214
200 152 18130498661843549367
20645477 56 18267581484779898040
20645477 70 18131359583521798838
21033648 29 18340475746620647640
21267235 1 18412553110524485086
21279426 13 18268714914080506228
221490 88 18338802212882448235
23227448 37 18341048630975186702
23402655 69 18201152161604072869
23557571 272 17603584093462429333
23559900 14 18122900937010405626
25 1 18411976953968258036
350125 39 18339364183319127259
3545911 37 18341053007916074064
4325135 7 18273213131992756327
474 4 18341047415378102848
474229 33 18410574032839527863
5104073 3 18335421210405475401
59755656 215 18409731785046293639
633830 44 18270114583265287807
77779 3 18338797819225466741
9709674 26 18408609141020261731

> <PUBCHEM_SHAPE_MULTIPOLES>
404.37
11.29
2.63
0.76
2.13
0.18
-0.05
-3.42
0.22
-0.56
-0.11
0.35
-0.1
0.79

> <PUBCHEM_SHAPE_SELFOVERLAP>
883.026

> <PUBCHEM_SHAPE_VOLUME>
215.4

> <PUBCHEM_COORDINATE_TYPE>
2
5
10

$$$$
