REMARK  Name = 10782062
REMARK  4 active torsions:
REMARK  status: ('A' for Active; 'I' for Inactive)
REMARK    1  A    between atoms: C_5  and  O_20
REMARK    2  A    between atoms: C_8  and  O_22
REMARK    3  A    between atoms: C_9  and  O_24
REMARK    4  A    between atoms: C_16  and  O_26
REMARK                            x       y       z     vdW  Elec       q    Type
REMARK                         _______ _______ _______ _____ _____    ______ ____
ROOT
ATOM      1  O   UNL     1       3.137  -0.957   0.556  0.00  0.00    -0.355 OA
ATOM      2  O   UNL     1       0.963   1.219  -0.915  0.00  0.00    -0.450 OA
ATOM      3  O   UNL     1       2.112   1.556  -2.818  0.00  0.00    -0.250 OA
ATOM      4  C   UNL     1       0.848   0.736   0.461  0.00  0.00    +0.193 C 
ATOM      5  C   UNL     1       0.676  -0.813   0.453  0.00  0.00    +0.177 C 
ATOM      6  C   UNL     1       2.108   1.123   1.233  0.00  0.00    +0.076 C 
ATOM      7  C   UNL     1       1.969  -1.490  -0.090  0.00  0.00    +0.146 C 
ATOM      8  C   UNL     1      -0.397   1.440   1.050  0.00  0.00    +0.172 C 
ATOM      9  C   UNL     1      -0.575  -1.207  -0.377  0.00  0.00    +0.166 C 
ATOM     10  C   UNL     1       3.272   0.466   0.524  0.00  0.00    +0.130 C 
ATOM     11  C   UNL     1      -1.696   0.936   0.457  0.00  0.00    +0.009 C 
ATOM     12  C   UNL     1      -1.786  -0.312  -0.187  0.00  0.00    +0.039 C 
ATOM     13  C   UNL     1       3.410   1.006  -0.892  0.00  0.00    +0.139 C 
ATOM     14  C   UNL     1       2.060  -3.002   0.123  0.00  0.00    +0.035 C 
ATOM     15  C   UNL     1       2.114   1.265  -1.624  0.00  0.00    +0.319 C 
ATOM     16  C   UNL     1      -3.022  -0.707  -0.731  0.00  0.00    +0.132 C 
ATOM     17  C   UNL     1      -2.845   1.739   0.570  0.00  0.00    -0.002 C 
ATOM     18  C   UNL     1      -4.153   0.100  -0.613  0.00  0.00    +0.036 C 
ATOM     19  C   UNL     1      -4.065   1.323   0.041  0.00  0.00    +0.003 C 
ENDROOT
BRANCH   5  20
ATOM     20  O   UNL     1       0.458  -1.264   1.799  0.00  0.00    -0.378 OA
ATOM     21  H   UNL     1       1.225  -1.033   2.346  0.00  0.00    +0.211 HD
ENDBRANCH   5  20
BRANCH   8  22
ATOM     22  O   UNL     1      -0.495   1.269   2.461  0.00  0.00    -0.377 OA
ATOM     23  H   UNL     1       0.322   1.581   2.882  0.00  0.00    +0.211 HD
ENDBRANCH   8  22
BRANCH   9  24
ATOM     24  O   UNL     1      -0.941  -2.550  -0.054  0.00  0.00    -0.377 OA
ATOM     25  H   UNL     1      -0.173  -3.131  -0.173  0.00  0.00    +0.211 HD
ENDBRANCH   9  24
BRANCH  16  26
ATOM     26  O   UNL     1      -3.154  -1.876  -1.427  0.00  0.00    -0.506 OA
ATOM     27  H   UNL     1      -2.417  -2.446  -1.528  0.00  0.00    +0.292 HD
ENDBRANCH  16  26
TORSDOF 4
