10782062
  -OEChem-03292013303D

 41 44  0     1  0  0  0  0  0999 V2000
    3.1372   -0.9570    0.5557 O   0  0  0  0  0  0  0  0  0  0  0  0
    0.9633    1.2192   -0.9147 O   0  0  0  0  0  0  0  0  0  0  0  0
    0.4578   -1.2644    1.7991 O   0  0  0  0  0  0  0  0  0  0  0  0
   -0.4947    1.2689    2.4612 O   0  0  0  0  0  0  0  0  0  0  0  0
   -0.9405   -2.5495   -0.0545 O   0  0  0  0  0  0  0  0  0  0  0  0
    2.1121    1.5556   -2.8183 O   0  0  0  0  0  0  0  0  0  0  0  0
   -3.1537   -1.8756   -1.4265 O   0  0  0  0  0  0  0  0  0  0  0  0
    0.8483    0.7359    0.4608 C   0  0  1  0  0  0  0  0  0  0  0  0
    0.6765   -0.8129    0.4526 C   0  0  1  0  0  0  0  0  0  0  0  0
    2.1081    1.1234    1.2332 C   0  0  0  0  0  0  0  0  0  0  0  0
    1.9693   -1.4903   -0.0898 C   0  0  2  0  0  0  0  0  0  0  0  0
   -0.3972    1.4396    1.0501 C   0  0  1  0  0  0  0  0  0  0  0  0
   -0.5750   -1.2066   -0.3774 C   0  0  2  0  0  0  0  0  0  0  0  0
    3.2719    0.4659    0.5236 C   0  0  2  0  0  0  0  0  0  0  0  0
   -1.6959    0.9360    0.4568 C   0  0  0  0  0  0  0  0  0  0  0  0
   -1.7856   -0.3119   -0.1866 C   0  0  0  0  0  0  0  0  0  0  0  0
    3.4097    1.0058   -0.8924 C   0  0  0  0  0  0  0  0  0  0  0  0
    2.0603   -3.0021    0.1231 C   0  0  0  0  0  0  0  0  0  0  0  0
    2.1137    1.2648   -1.6236 C   0  0  0  0  0  0  0  0  0  0  0  0
   -3.0220   -0.7070   -0.7311 C   0  0  0  0  0  0  0  0  0  0  0  0
   -2.8453    1.7390    0.5702 C   0  0  0  0  0  0  0  0  0  0  0  0
   -4.1530    0.1002   -0.6128 C   0  0  0  0  0  0  0  0  0  0  0  0
   -4.0653    1.3229    0.0413 C   0  0  0  0  0  0  0  0  0  0  0  0
    2.0572    0.7780    2.2720 H   0  0  0  0  0  0  0  0  0  0  0  0
    2.2434    2.2118    1.2426 H   0  0  0  0  0  0  0  0  0  0  0  0
    2.0672   -1.3169   -1.1672 H   0  0  0  0  0  0  0  0  0  0  0  0
   -0.3140    2.5156    0.8456 H   0  0  0  0  0  0  0  0  0  0  0  0
   -0.3202   -1.1759   -1.4446 H   0  0  0  0  0  0  0  0  0  0  0  0
    4.1965    0.6873    1.0686 H   0  0  0  0  0  0  0  0  0  0  0  0
    4.0035    0.3128   -1.4987 H   0  0  0  0  0  0  0  0  0  0  0  0
    3.9276    1.9718   -0.8516 H   0  0  0  0  0  0  0  0  0  0  0  0
    3.0390   -3.3710   -0.2053 H   0  0  0  0  0  0  0  0  0  0  0  0
    1.9732   -3.2643    1.1826 H   0  0  0  0  0  0  0  0  0  0  0  0
    1.2965   -3.5418   -0.4413 H   0  0  0  0  0  0  0  0  0  0  0  0
   -0.3701   -0.8791    2.1299 H   0  0  0  0  0  0  0  0  0  0  0  0
   -1.2475    1.7937    2.7823 H   0  0  0  0  0  0  0  0  0  0  0  0
   -2.7914    2.7022    1.0726 H   0  0  0  0  0  0  0  0  0  0  0  0
   -1.1495   -2.5825    0.8948 H   0  0  0  0  0  0  0  0  0  0  0  0
   -5.1021   -0.2156   -1.0375 H   0  0  0  0  0  0  0  0  0  0  0  0
   -4.9427    1.9559    0.1342 H   0  0  0  0  0  0  0  0  0  0  0  0
   -2.3045   -2.3419   -1.4731 H   0  0  0  0  0  0  0  0  0  0  0  0
  1 11  1  0  0  0  0
  1 14  1  0  0  0  0
  2  8  1  0  0  0  0
  2 19  1  0  0  0  0
  3  9  1  0  0  0  0
  3 35  1  0  0  0  0
  4 12  1  0  0  0  0
  4 36  1  0  0  0  0
  5 13  1  0  0  0  0
  5 38  1  0  0  0  0
  6 19  2  0  0  0  0
  7 20  1  0  0  0  0
  7 41  1  0  0  0  0
  8  9  1  0  0  0  0
  8 10  1  0  0  0  0
  8 12  1  0  0  0  0
  9 11  1  0  0  0  0
  9 13  1  0  0  0  0
 10 14  1  0  0  0  0
 10 24  1  0  0  0  0
 10 25  1  0  0  0  0
 11 18  1  0  0  0  0
 11 26  1  0  0  0  0
 12 15  1  0  0  0  0
 12 27  1  0  0  0  0
 13 16  1  0  0  0  0
 13 28  1  0  0  0  0
 14 17  1  0  0  0  0
 14 29  1  0  0  0  0
 15 16  2  0  0  0  0
 15 21  1  0  0  0  0
 16 20  1  0  0  0  0
 17 19  1  0  0  0  0
 17 30  1  0  0  0  0
 17 31  1  0  0  0  0
 18 32  1  0  0  0  0
 18 33  1  0  0  0  0
 18 34  1  0  0  0  0
 20 22  2  0  0  0  0
 21 23  2  0  0  0  0
 21 37  1  0  0  0  0
 22 23  1  0  0  0  0
 22 39  1  0  0  0  0
 23 40  1  0  0  0  0
M  END
> <PUBCHEM_COMPOUND_CID>
10782062

> <PUBCHEM_CONFORMER_RMSD>
0.6

> <PUBCHEM_CONFORMER_DIVERSEORDER>
1

> <PUBCHEM_MMFF94_PARTIAL_CHARGES>
28
1 -0.56
11 0.28
12 0.42
13 0.42
14 0.28
15 -0.14
16 -0.14
17 0.06
19 0.66
2 -0.43
20 0.08
21 -0.15
22 -0.15
23 -0.15
3 -0.68
35 0.4
36 0.4
37 0.15
38 0.4
39 0.15
4 -0.68
40 0.15
41 0.45
5 -0.68
6 -0.57
7 -0.53
8 0.28
9 0.28

> <PUBCHEM_EFFECTIVE_ROTOR_COUNT>
1.4

> <PUBCHEM_PHARMACOPHORE_FEATURES>
13
1 1 acceptor
1 3 acceptor
1 3 donor
1 4 acceptor
1 4 donor
1 5 acceptor
1 5 donor
1 6 acceptor
1 7 donor
6 1 8 9 10 11 14 rings
6 15 16 20 21 22 23 rings
6 2 8 10 14 17 19 rings
6 8 9 12 13 15 16 rings

> <PUBCHEM_HEAVY_ATOM_COUNT>
23

> <PUBCHEM_ATOM_DEF_STEREO_COUNT>
6

> <PUBCHEM_ATOM_UDEF_STEREO_COUNT>
0

> <PUBCHEM_BOND_DEF_STEREO_COUNT>
0

> <PUBCHEM_BOND_UDEF_STEREO_COUNT>
0

> <PUBCHEM_ISOTOPIC_ATOM_COUNT>
0

> <PUBCHEM_COMPONENT_COUNT>
1

> <PUBCHEM_CACTVS_TAUTO_COUNT>
3

> <PUBCHEM_CONFORMER_ID>
00A4856E00000001

> <PUBCHEM_MMFF94_ENERGY>
84.0492

> <PUBCHEM_FEATURE_SELFOVERLAP>
67.719

> <PUBCHEM_SHAPE_FINGERPRINT>
10062212 137 18340476803403732355
10863032 1 18130780135997353283
10948715 1 17241340207750327804
10967382 1 18272080548773870587
11578080 2 17977343266930569496
11640471 11 18042133209393849772
12035759 4 18268731423613084142
12236239 1 18407755928322992640
12788726 201 16988290759398218073
13140716 1 17766266962066689339
13224815 77 18410017645637995241
14115302 16 18411702084081633869
14142880 1 16014959386436060620
14181834 199 18265341612100657494
14787075 74 17485630861114682808
16945 1 18267586981968343067
17980427 23 18262503923092973644
1813 80 17825665548132644722
18186145 218 16588022415907723721
18981168 100 17534379800643768694
19862831 5 18272941513354040597
20645476 183 18334867159439765495
20691752 17 17822013056082330135
21267235 1 18272089357730968291
2334 1 18343295955601838747
23419403 2 16395409904392213034
23557571 272 17346600802304859599
23559900 14 17846212246680109648
2748010 2 17405413885723399523
335352 9 17767963139077564175
474 4 17894352197889756236
633830 44 17241048708641863957
6992083 37 17478057055475902674
77492 1 18335417967452120881
81228 2 16414652449042742209
9981440 41 17541376182358535648

> <PUBCHEM_SHAPE_MULTIPOLES>
432.24
6.16
2.45
1.68
3.61
1.55
-0.39
-0.83
-1.5
-0.42
-0.02
-0.84
-0.8
-1.3

> <PUBCHEM_SHAPE_SELFOVERLAP>
960.9

> <PUBCHEM_SHAPE_VOLUME>
223.8

> <PUBCHEM_COORDINATE_TYPE>
2
5
10

$$$$
