REMARK  Name = 107823
REMARK  6 active torsions:
REMARK  status: ('A' for Active; 'I' for Inactive)
REMARK    1  A    between atoms: C_1  and  C_10
REMARK    2  A    between atoms: C_1  and  N_17
REMARK    3  A    between atoms: C_1  and  C_27
REMARK    4  A    between atoms: C_5  and  C_13
REMARK    5  A    between atoms: C_18  and  C_22
REMARK    6  A    between atoms: C_27  and  C_30
REMARK                            x       y       z     vdW  Elec       q    Type
REMARK                         _______ _______ _______ _____ _____    ______ ____
ROOT
ATOM      1  C   UNL     1       0.271   0.992  -0.284  0.00  0.00    +0.155 C 
ENDROOT
BRANCH   1  10
ATOM      2  O   UNL     1      -0.364  -0.800  -1.717  0.00  0.00    -0.273 OA
ATOM      3  N   UNL     1      -1.784  -0.301   0.042  0.00  0.00    -0.272 N 
ATOM      4  C   UNL     1      -3.473  -1.542   1.169  0.00  0.00    +0.027 C 
ATOM      5  C   UNL     1      -2.701  -1.421  -0.162  0.00  0.00    +0.151 C 
ATOM      6  C   UNL     1      -3.494  -0.084   1.668  0.00  0.00    +0.024 C 
ATOM      7  C   UNL     1      -2.151   0.481   1.221  0.00  0.00    +0.094 C 
ATOM      8  C   UNL     1      -2.683  -2.434   2.149  0.00  0.00    +0.002 C 
ATOM      9  C   UNL     1      -4.888  -2.111   1.031  0.00  0.00    +0.002 C 
ATOM     10  C   UNL     1      -0.644  -0.122  -0.727  0.00  0.00    +0.244 C 
BRANCH   5  13
ATOM     11  O   UNL     1      -3.430   0.080  -1.877  0.00  0.00    -0.274 OA
ATOM     12  N   UNL     1      -4.463  -1.970  -1.715  0.00  0.00    -0.327 N 
ATOM     13  C   UNL     1      -3.549  -1.016  -1.334  0.00  0.00    +0.237 C 
ATOM     14  H   UNL     1      -5.065  -1.799  -2.474  0.00  0.00    +0.145 HD
ATOM     15  H   UNL     1      -4.514  -2.824  -1.228  0.00  0.00    +0.145 HD
ENDBRANCH   5  13
ENDBRANCH   1  10
BRANCH   1  17
ATOM     16  O   UNL     1       1.910  -0.745   1.366  0.00  0.00    -0.273 OA
ATOM     17  N   UNL     1       1.580   0.488  -0.582  0.00  0.00    -0.297 N 
ATOM     18  C   UNL     1       2.296  -0.343   0.272  0.00  0.00    +0.241 C 
ATOM     19  H   UNL     1       1.994   0.745  -1.438  0.00  0.00    +0.150 HD
BRANCH  18  22
ATOM     20  O   UNL     1       4.557  -3.893   1.009  0.00  0.00    -0.275 OA
ATOM     21  N   UNL     1       4.245  -1.595   0.679  0.00  0.00    -0.298 N 
ATOM     22  C   UNL     1       3.622  -0.741  -0.292  0.00  0.00    +0.149 C 
ATOM     23  C   UNL     1       3.498  -1.622  -1.521  0.00  0.00    +0.039 C 
ATOM     24  C   UNL     1       3.418  -3.042  -0.962  0.00  0.00    +0.087 C 
ATOM     25  C   UNL     1       4.155  -2.944   0.352  0.00  0.00    +0.223 C 
ATOM     26  H   UNL     1       4.688  -1.261   1.492  0.00  0.00    +0.150 HD
ENDBRANCH  18  22
ENDBRANCH   1  17
BRANCH   1  27
ATOM     27  C   UNL     1      -0.067   2.279  -1.027  0.00  0.00    +0.071 C 
BRANCH  27  30
ATOM     28  N   UNL     1      -0.322   4.520   0.110  0.00  0.00    -0.319 N 
ATOM     29  N   UNL     1       1.748   5.080   0.689  0.00  0.00    -0.315 N 
ATOM     30  C   UNL     1       0.476   3.495  -0.315  0.00  0.00    +0.040 C 
ATOM     31  C   UNL     1       1.749   3.864   0.053  0.00  0.00    +0.069 C 
ATOM     32  C   UNL     1       0.486   5.447   0.707  0.00  0.00    +0.182 C 
ATOM     33  H   UNL     1      -1.299   4.579   0.006  0.00  0.00    +0.148 HD
ATOM     34  H   UNL     1       2.522   5.568   1.052  0.00  0.00    +0.148 HD
ENDBRANCH  27  30
ENDBRANCH   1  27
TORSDOF 6
