REMARK  Name = 10780542
REMARK  12 active torsions:
REMARK  status: ('A' for Active; 'I' for Inactive)
REMARK    1  A    between atoms: C_1  and  O_2
REMARK    2  A    between atoms: C_1  and  C_5
REMARK    3  A    between atoms: C_1  and  C_8
REMARK    4  A    between atoms: C_1  and  C_20
REMARK    5  A    between atoms: C_5  and  O_6
REMARK    6  A    between atoms: C_8  and  C_10
REMARK    7  A    between atoms: C_10  and  O_11
REMARK    8  A    between atoms: O_11  and  C_12
REMARK    9  A    between atoms: C_12  and  C_14
REMARK   10  A    between atoms: C_17  and  C_19
REMARK   11  A    between atoms: C_20  and  C_22
REMARK   12  A    between atoms: C_22  and  O_23
REMARK                            x       y       z     vdW  Elec       q    Type
REMARK                         _______ _______ _______ _____ _____    ______ ____
ROOT
ATOM      1  C   UNL     1       2.130  -0.385   0.215  0.00  0.00    +0.198 C 
ENDROOT
BRANCH   1   2
ATOM      2  O   UNL     1       1.234  -1.051  -0.680  0.00  0.00    -0.376 OA
ATOM      3  H   UNL     1       1.466  -0.827  -1.595  0.00  0.00    +0.211 HD
ENDBRANCH   1   2
BRANCH   1   5
ATOM      4  O   UNL     1       0.687  -1.478   1.854  0.00  0.00    -0.248 OA
ATOM      5  C   UNL     1       1.681  -0.802   1.617  0.00  0.00    +0.339 C 
BRANCH   5   6
ATOM      6  O   UNL     1       2.497  -0.341   2.600  0.00  0.00    -0.479 OA
ATOM      7  H   UNL     1       3.248   0.174   2.382  0.00  0.00    +0.295 HD
ENDBRANCH   5   6
ENDBRANCH   1   5
BRANCH   1   8
ATOM      8  C   UNL     1       2.043   1.132  -0.014  0.00  0.00    +0.148 C 
BRANCH   8  10
ATOM      9  O   UNL     1       0.844   2.621   1.468  0.00  0.00    -0.250 OA
ATOM     10  C   UNL     1       0.809   1.768   0.590  0.00  0.00    +0.320 C 
BRANCH  10  11
ATOM     11  O   UNL     1      -0.313   1.252   0.013  0.00  0.00    -0.440 OA
BRANCH  11  12
ATOM     12  C   UNL     1      -1.552   1.775   0.500  0.00  0.00    +0.272 C 
BRANCH  12  14
ATOM     13  O   UNL     1      -3.119  -0.066   0.290  0.00  0.00    -0.451 OA
ATOM     14  C   UNL     1      -2.646   1.085  -0.255  0.00  0.00    +0.167 C 
ATOM     15  C   UNL     1      -3.305   1.371  -1.428  0.00  0.00    +0.040 C 
ATOM     16  C   UNL     1      -4.243   0.328  -1.616  0.00  0.00    +0.044 C 
ATOM     17  C   UNL     1      -4.090  -0.521  -0.544  0.00  0.00    +0.187 C 
BRANCH  17  19
ATOM     18  O   UNL     1      -4.542  -2.436   0.810  0.00  0.00    -0.280 OA
ATOM     19  C   UNL     1      -4.755  -1.730  -0.195  0.00  0.00    +0.271 C 
ENDBRANCH  17  19
ENDBRANCH  12  14
ENDBRANCH  11  12
ENDBRANCH  10  11
ENDBRANCH   8  10
ENDBRANCH   1   8
BRANCH   1  20
ATOM     20  C   UNL     1       3.541  -0.949  -0.043  0.00  0.00    +0.148 C 
BRANCH  20  22
ATOM     21  O   UNL     1       3.491  -0.419  -2.429  0.00  0.00    -0.250 OA
ATOM     22  C   UNL     1       4.126  -0.617  -1.403  0.00  0.00    +0.317 C 
BRANCH  22  23
ATOM     23  O   UNL     1       5.482  -0.538  -1.350  0.00  0.00    -0.480 OA
ATOM     24  H   UNL     1       5.929  -0.697  -0.542  0.00  0.00    +0.295 HD
ENDBRANCH  22  23
ENDBRANCH  20  22
ENDBRANCH   1  20
TORSDOF 12
