REMARK  Name = 10789299
REMARK  7 active torsions:
REMARK  status: ('A' for Active; 'I' for Inactive)
REMARK    1  A    between atoms: N_5  and  C_18
REMARK    2  A    between atoms: C_14  and  O_33
REMARK    3  A    between atoms: C_19  and  O_24
REMARK    4  A    between atoms: C_20  and  O_26
REMARK    5  A    between atoms: C_21  and  O_28
REMARK    6  A    between atoms: C_23  and  C_30
REMARK    7  A    between atoms: C_30  and  O_31
REMARK                            x       y       z     vdW  Elec       q    Type
REMARK                         _______ _______ _______ _____ _____    ______ ____
ROOT
ATOM      1 CL   UNL     1      -2.013   4.253   0.575  0.00  0.00    -0.066 Cl
ATOM      2 CL   UNL     1       5.768  -2.470  -0.372  0.00  0.00    -0.079 Cl
ATOM      3  O   UNL     1       0.358  -0.140  -0.053  0.00  0.00    -0.440 OA
ATOM      4  O   UNL     1       3.565   2.439   0.336  0.00  0.00    -0.286 OA
ATOM      5  N   UNL     1      -0.947   1.821   0.225  0.00  0.00    -0.245 N 
ATOM      6  C   UNL     1       0.246   1.172   0.137  0.00  0.00    +0.207 A 
ATOM      7  C   UNL     1      -0.721   3.158   0.420  0.00  0.00    +0.113 C 
ATOM      8  C   UNL     1       1.253   2.099   0.275  0.00  0.00    +0.091 A 
ATOM      9  C   UNL     1       0.645   3.361   0.456  0.00  0.00    +0.034 C 
ATOM     10  C   UNL     1       2.628   1.665   0.219  0.00  0.00    +0.206 A 
ATOM     11  C   UNL     1       1.651  -0.632  -0.120  0.00  0.00    +0.149 A 
ATOM     12  C   UNL     1       2.790   0.195   0.005  0.00  0.00    +0.108 A 
ATOM     13  C   UNL     1       1.798  -2.004  -0.319  0.00  0.00    +0.014 C 
ATOM     14  C   UNL     1       4.067  -0.363  -0.072  0.00  0.00    +0.150 C 
ATOM     15  C   UNL     1       3.078  -2.554  -0.394  0.00  0.00    +0.013 C 
ATOM     16  C   UNL     1       4.206  -1.738  -0.271  0.00  0.00    +0.091 C 
ATOM     17  C   UNL     1       0.611  -2.899  -0.453  0.00  0.00    +0.034 C 
ENDROOT
BRANCH   5  18
ATOM     18  C   UNL     1      -2.268   1.164   0.124  0.00  0.00    +0.132 C 
ATOM     19  C   UNL     1      -2.458   0.523  -1.264  0.00  0.00    +0.162 C 
ATOM     20  C   UNL     1      -3.644  -0.442  -1.278  0.00  0.00    +0.170 C 
ATOM     21  C   UNL     1      -3.523  -1.526  -0.197  0.00  0.00    +0.160 C 
ATOM     22  C   UNL     1      -2.489   0.210   1.270  0.00  0.00    -0.008 C 
ATOM     23  C   UNL     1      -3.031  -1.013   1.135  0.00  0.00    +0.011 C 
BRANCH  19  24
ATOM     24  O   UNL     1      -2.711   1.571  -2.206  0.00  0.00    -0.380 OA
ATOM     25  H   UNL     1      -1.965   2.191  -2.208  0.00  0.00    +0.211 HD
ENDBRANCH  19  24
BRANCH  20  26
ATOM     26  O   UNL     1      -3.676  -1.073  -2.562  0.00  0.00    -0.379 OA
ATOM     27  H   UNL     1      -3.752  -0.396  -3.253  0.00  0.00    +0.211 HD
ENDBRANCH  20  26
BRANCH  21  28
ATOM     28  O   UNL     1      -4.815  -2.113  -0.018  0.00  0.00    -0.378 OA
ATOM     29  H   UNL     1      -5.139  -2.445  -0.870  0.00  0.00    +0.211 HD
ENDBRANCH  21  28
BRANCH  23  30
ATOM     30  C   UNL     1      -3.144  -1.943   2.310  0.00  0.00    +0.161 C 
BRANCH  30  31
ATOM     31  O   UNL     1      -2.415  -3.127   2.050  0.00  0.00    -0.377 OA
ATOM     32  H   UNL     1      -2.489  -3.726   2.810  0.00  0.00    +0.211 HD
ENDBRANCH  30  31
ENDBRANCH  23  30
ENDBRANCH   5  18
BRANCH  14  33
ATOM     33  O   UNL     1       5.188   0.406   0.044  0.00  0.00    -0.504 OA
ATOM     34  H   UNL     1       5.109   1.330   0.178  0.00  0.00    +0.292 HD
ENDBRANCH  14  33
TORSDOF 7
