REMARK  Name = 107870
REMARK  4 active torsions:
REMARK  status: ('A' for Active; 'I' for Inactive)
REMARK    1  A    between atoms: N_2  and  C1*_17
REMARK    2  A    between atoms: C3*_19  and  O3*_21
REMARK    3  A    between atoms: C4*_20  and  C5*_23
REMARK    4  A    between atoms: C5*_23  and  O5*_24
REMARK                            x       y       z     vdW  Elec       q    Type
REMARK                         _______ _______ _______ _____ _____    ______ ____
ROOT
ATOM      1  O   UNL     1       3.040  -2.682  -0.246  0.00  0.00    -0.268 OA
ATOM      2  N   UNL     1      -0.849  -0.439   0.064  0.00  0.00    -0.239 N 
ATOM      3  N   UNL     1       3.127  -0.336   0.015  0.00  0.00    -0.217 N 
ATOM      4  N   UNL     1       1.104   0.971   0.241  0.00  0.00    -0.356 NA
ATOM      5  N   UNL     1       3.157   2.065   0.355  0.00  0.00    -0.296 N 
ATOM      6  N   UNL     1       0.113  -2.436  -0.218  0.00  0.00    -0.240 NA
ATOM      7  C   UNL     1       0.498  -0.222   0.080  0.00  0.00    +0.211 C 
ATOM      8  C   UNL     1       1.058  -1.460  -0.096  0.00  0.00    +0.176 C 
ATOM      9  C   UNL     1       4.591  -0.327   0.044  0.00  0.00    +0.104 C 
ATOM     10  C   UNL     1      -1.031  -1.788  -0.118  0.00  0.00    +0.224 C 
ATOM     11  C   UNL     1       2.421   0.903   0.210  0.00  0.00    +0.246 C 
ATOM     12  C   UNL     1       5.176   0.993  -0.437  0.00  0.00    +0.043 C 
ATOM     13  C   UNL     1       2.487  -1.595  -0.125  0.00  0.00    +0.277 C 
ATOM     14  C   UNL     1       4.600   2.129   0.391  0.00  0.00    +0.092 C 
ATOM     15  H   UNL     1       2.661   2.911   0.441  0.00  0.00    +0.150 HD
ENDROOT
BRANCH   2  17
ATOM     16  O4* UNL     1      -3.031  -0.020   0.893  0.00  0.00    -0.335 OA
ATOM     17  C1* UNL     1      -1.905   0.556   0.210  0.00  0.00    +0.198 C 
ATOM     18  C2* UNL     1      -2.428   1.111  -1.107  0.00  0.00    +0.083 C 
ATOM     19  C3* UNL     1      -3.824   1.542  -0.722  0.00  0.00    +0.144 C 
ATOM     20  C4* UNL     1      -4.244   0.492   0.300  0.00  0.00    +0.173 C 
BRANCH  19  21
ATOM     21  O3* UNL     1      -3.744   2.818  -0.091  0.00  0.00    -0.382 OA
ATOM     22  H3* UNL     1      -3.478   3.486  -0.742  0.00  0.00    +0.210 HD
ENDBRANCH  19  21
BRANCH  20  23
ATOM     23  C5* UNL     1      -4.989  -0.676  -0.331  0.00  0.00    +0.169 C 
BRANCH  23  24
ATOM     24  O5* UNL     1      -5.327  -1.602   0.688  0.00  0.00    -0.379 OA
ATOM     25  H5* UNL     1      -5.803  -2.352   0.298  0.00  0.00    +0.211 HD
ENDBRANCH  23  24
ENDBRANCH  20  23
ENDBRANCH   2  17
TORSDOF 4
