REMARK  Name = 10783458
REMARK  2 active torsions:
REMARK  status: ('A' for Active; 'I' for Inactive)
REMARK    1  A    between atoms: C_8  and  O_23
REMARK    2  A    between atoms: C_12  and  O_25
REMARK                            x       y       z     vdW  Elec       q    Type
REMARK                         _______ _______ _______ _____ _____    ______ ____
ROOT
ATOM      1  O   UNL     1      -2.805  -0.312  -0.536  0.00  0.00    -0.449 OA
ATOM      2  O   UNL     1       2.606  -1.558  -0.483  0.00  0.00    -0.446 OA
ATOM      3  O   UNL     1      -0.539   2.196  -0.525  0.00  0.00    -0.449 OA
ATOM      4  O   UNL     1      -3.836   0.828   1.188  0.00  0.00    -0.250 OA
ATOM      5  O   UNL     1       1.692  -1.659   1.640  0.00  0.00    -0.245 OA
ATOM      6  O   UNL     1       0.660   2.867   1.337  0.00  0.00    -0.245 OA
ATOM      7  C   UNL     1      -3.156  -1.595   0.036  0.00  0.00    +0.200 C 
ATOM      8  C   UNL     1      -2.066  -2.614  -0.343  0.00  0.00    +0.173 C 
ATOM      9  C   UNL     1      -1.760   2.811  -0.057  0.00  0.00    +0.180 C 
ATOM     10  C   UNL     1       3.849  -0.986  -0.010  0.00  0.00    +0.200 C 
ATOM     11  C   UNL     1      -2.925   2.045  -0.683  0.00  0.00    +0.153 C 
ATOM     12  C   UNL     1       3.893   0.494  -0.438  0.00  0.00    +0.173 C 
ATOM     13  C   UNL     1      -4.523  -1.998  -0.520  0.00  0.00    +0.050 C 
ATOM     14  C   UNL     1      -3.248   0.803   0.114  0.00  0.00    +0.321 C 
ATOM     15  C   UNL     1      -0.761  -2.293   0.335  0.00  0.00    +0.013 C 
ATOM     16  C   UNL     1      -1.767   4.267  -0.509  0.00  0.00    +0.048 C 
ATOM     17  C   UNL     1       4.980  -1.792  -0.643  0.00  0.00    +0.050 C 
ATOM     18  C   UNL     1       2.781   1.280   0.207  0.00  0.00    +0.013 C 
ATOM     19  C   UNL     1       0.391  -2.114  -0.324  0.00  0.00    +0.080 C 
ATOM     20  C   UNL     1       1.669   1.628  -0.454  0.00  0.00    +0.080 C 
ATOM     21  C   UNL     1       1.617  -1.771   0.427  0.00  0.00    +0.341 C 
ATOM     22  C   UNL     1       0.569   2.315   0.252  0.00  0.00    +0.341 C 
ENDROOT
BRANCH   8  23
ATOM     23  O   UNL     1      -2.458  -3.925   0.061  0.00  0.00    -0.377 OA
ATOM     24  H   UNL     1      -3.298  -4.157  -0.363  0.00  0.00    +0.211 HD
ENDBRANCH   8  23
BRANCH  12  25
ATOM     25  O   UNL     1       5.138   1.083  -0.072  0.00  0.00    -0.377 OA
ATOM     26  H   UNL     1       5.863   0.586  -0.481  0.00  0.00    +0.211 HD
ENDBRANCH  12  25
TORSDOF 2
