10785785
  -OEChem-03292013303D

 63 62  0     1  0  0  0  0  0999 V2000
    0.8369   -0.2572    1.0343 O   0  0  0  0  0  0  0  0  0  0  0  0
    2.8146    1.5896    0.3817 N   0  0  0  0  0  0  0  0  0  0  0  0
    0.5401    2.0091    0.4930 N   0  0  0  0  0  0  0  0  0  0  0  0
    7.3235   -0.8321   -0.6431 N   0  0  0  0  0  0  0  0  0  0  0  0
    1.9430    3.7705   -0.0857 N   0  0  0  0  0  0  0  0  0  0  0  0
    8.2488   -3.0065   -0.2123 N   0  0  0  0  0  0  0  0  0  0  0  0
    9.5941   -1.2664   -0.8099 N   0  0  0  0  0  0  0  0  0  0  0  0
   -6.0013    1.1827   -0.6964 C   0  0  2  0  0  0  0  0  0  0  0  0
   -6.6248    0.2082   -1.7176 C   0  0  0  0  0  0  0  0  0  0  0  0
   -6.1521   -1.2483   -1.6106 C   0  0  0  0  0  0  0  0  0  0  0  0
   -6.5501    2.5945   -0.9224 C   0  0  0  0  0  0  0  0  0  0  0  0
   -4.4946    1.2099   -0.7955 C   0  0  0  0  0  0  0  0  0  0  0  0
   -6.5043   -1.8968   -0.3014 C   0  0  0  0  0  0  0  0  0  0  0  0
   -5.7999   -2.8317    0.3636 C   0  0  0  0  0  0  0  0  0  0  0  0
   -3.6798    0.8995    0.2249 C   0  0  0  0  0  0  0  0  0  0  0  0
    5.1696    0.9467    0.3753 C   0  0  0  0  0  0  0  0  0  0  0  0
    4.9486   -0.2491   -0.5590 C   0  0  0  0  0  0  0  0  0  0  0  0
    4.1670    2.0694    0.1305 C   0  0  0  0  0  0  0  0  0  0  0  0
    5.9852   -1.3485   -0.3519 C   0  0  0  0  0  0  0  0  0  0  0  0
   -2.2359    0.9388    0.1221 C   0  0  0  0  0  0  0  0  0  0  0  0
   -6.2064   -3.4439    1.6742 C   0  0  0  0  0  0  0  0  0  0  0  0
   -4.5070   -3.3582   -0.1987 C   0  0  0  0  0  0  0  0  0  0  0  0
   -1.3471    0.6455    1.0882 C   0  0  0  0  0  0  0  0  0  0  0  0
    0.1247    0.7252    0.8553 C   0  0  0  0  0  0  0  0  0  0  0  0
    1.8503    2.4428    0.2591 C   0  0  0  0  0  0  0  0  0  0  0  0
   -1.7492    0.1793    2.4543 C   0  0  0  0  0  0  0  0  0  0  0  0
    8.3062   -1.6732   -0.5522 C   0  0  0  0  0  0  0  0  0  0  0  0
   -6.3024    0.8722    0.3123 H   0  0  0  0  0  0  0  0  0  0  0  0
   -7.7180    0.2367   -1.6148 H   0  0  0  0  0  0  0  0  0  0  0  0
   -6.4075    0.5597   -2.7355 H   0  0  0  0  0  0  0  0  0  0  0  0
   -6.6439   -1.8186   -2.4084 H   0  0  0  0  0  0  0  0  0  0  0  0
   -5.0777   -1.2832   -1.8121 H   0  0  0  0  0  0  0  0  0  0  0  0
   -6.1397    3.2972   -0.1885 H   0  0  0  0  0  0  0  0  0  0  0  0
   -7.6406    2.6065   -0.8196 H   0  0  0  0  0  0  0  0  0  0  0  0
   -6.3021    2.9690   -1.9221 H   0  0  0  0  0  0  0  0  0  0  0  0
   -4.0730    1.5076   -1.7537 H   0  0  0  0  0  0  0  0  0  0  0  0
   -7.4510   -1.5815    0.1353 H   0  0  0  0  0  0  0  0  0  0  0  0
    5.0951    0.6092    1.4165 H   0  0  0  0  0  0  0  0  0  0  0  0
    6.1790    1.3517    0.2391 H   0  0  0  0  0  0  0  0  0  0  0  0
   -4.1162    0.6005    1.1729 H   0  0  0  0  0  0  0  0  0  0  0  0
    4.9869    0.0941   -1.6003 H   0  0  0  0  0  0  0  0  0  0  0  0
    3.9517   -0.6747   -0.3954 H   0  0  0  0  0  0  0  0  0  0  0  0
    4.2657    2.4227   -0.9032 H   0  0  0  0  0  0  0  0  0  0  0  0
    4.4106    2.8994    0.8048 H   0  0  0  0  0  0  0  0  0  0  0  0
    5.9292   -1.7081    0.6827 H   0  0  0  0  0  0  0  0  0  0  0  0
    5.7429   -2.1806   -1.0240 H   0  0  0  0  0  0  0  0  0  0  0  0
   -1.8498    1.2454   -0.8497 H   0  0  0  0  0  0  0  0  0  0  0  0
   -6.3538   -4.5229    1.5641 H   0  0  0  0  0  0  0  0  0  0  0  0
   -7.1420   -3.0145    2.0470 H   0  0  0  0  0  0  0  0  0  0  0  0
   -5.4342   -3.2702    2.4306 H   0  0  0  0  0  0  0  0  0  0  0  0
   -4.3857   -3.1915   -1.2715 H   0  0  0  0  0  0  0  0  0  0  0  0
   -4.4512   -4.4436   -0.0567 H   0  0  0  0  0  0  0  0  0  0  0  0
   -3.6584   -2.9047    0.3239 H   0  0  0  0  0  0  0  0  0  0  0  0
   -2.0375   -0.8765    2.4293 H   0  0  0  0  0  0  0  0  0  0  0  0
   -2.5785    0.7679    2.8594 H   0  0  0  0  0  0  0  0  0  0  0  0
   -0.9225    0.2829    3.1662 H   0  0  0  0  0  0  0  0  0  0  0  0
   -0.1764    2.7247    0.3976 H   0  0  0  0  0  0  0  0  0  0  0  0
    1.1149    4.3524   -0.1539 H   0  0  0  0  0  0  0  0  0  0  0  0
    2.8308    4.2167   -0.2864 H   0  0  0  0  0  0  0  0  0  0  0  0
    7.3760   -3.4706    0.0121 H   0  0  0  0  0  0  0  0  0  0  0  0
    9.0898   -3.5723   -0.1733 H   0  0  0  0  0  0  0  0  0  0  0  0
    9.7978   -0.3085   -1.0737 H   0  0  0  0  0  0  0  0  0  0  0  0
   10.3764   -1.9084   -0.7442 H   0  0  0  0  0  0  0  0  0  0  0  0
  1 24  2  0  0  0  0
  2 18  1  0  0  0  0
  2 25  2  0  0  0  0
  3 24  1  0  0  0  0
  3 25  1  0  0  0  0
  3 57  1  0  0  0  0
  4 19  1  0  0  0  0
  4 27  2  0  0  0  0
  5 25  1  0  0  0  0
  5 58  1  0  0  0  0
  5 59  1  0  0  0  0
  6 27  1  0  0  0  0
  6 60  1  0  0  0  0
  6 61  1  0  0  0  0
  7 27  1  0  0  0  0
  7 62  1  0  0  0  0
  7 63  1  0  0  0  0
  8  9  1  0  0  0  0
  8 11  1  0  0  0  0
  8 12  1  0  0  0  0
  8 28  1  0  0  0  0
  9 10  1  0  0  0  0
  9 29  1  0  0  0  0
  9 30  1  0  0  0  0
 10 13  1  0  0  0  0
 10 31  1  0  0  0  0
 10 32  1  0  0  0  0
 11 33  1  0  0  0  0
 11 34  1  0  0  0  0
 11 35  1  0  0  0  0
 12 15  2  0  0  0  0
 12 36  1  0  0  0  0
 13 14  2  0  0  0  0
 13 37  1  0  0  0  0
 14 21  1  0  0  0  0
 14 22  1  0  0  0  0
 15 20  1  0  0  0  0
 15 40  1  0  0  0  0
 16 17  1  0  0  0  0
 16 18  1  0  0  0  0
 16 38  1  0  0  0  0
 16 39  1  0  0  0  0
 17 19  1  0  0  0  0
 17 41  1  0  0  0  0
 17 42  1  0  0  0  0
 18 43  1  0  0  0  0
 18 44  1  0  0  0  0
 19 45  1  0  0  0  0
 19 46  1  0  0  0  0
 20 23  2  0  0  0  0
 20 47  1  0  0  0  0
 21 48  1  0  0  0  0
 21 49  1  0  0  0  0
 21 50  1  0  0  0  0
 22 51  1  0  0  0  0
 22 52  1  0  0  0  0
 22 53  1  0  0  0  0
 23 24  1  0  0  0  0
 23 26  1  0  0  0  0
 26 54  1  0  0  0  0
 26 55  1  0  0  0  0
 26 56  1  0  0  0  0
M  END
> <PUBCHEM_COMPOUND_CID>
10785785

> <PUBCHEM_CONFORMER_RMSD>
1.4

> <PUBCHEM_CONFORMER_DIVERSEORDER>
1
85
67
69
22
103
17
70
101
20
28
102
72
64
71
92
68
95
78
16
42
76
7
29
100
56
19
84
90
62
27
33
24
40
49
55
51
6
43
91
81
32
58
80
18
73
5
98
86
12
45
79
4
59
46
61
82
35
50
52
26
75
83
54
11
36
96
47
38
60
88
13
89
87
63
66
99
41
53
25
21
94
15
97
9
34
77
93
39
23
74
10
31
14
37
30
57
3
48
8
65
2
44

> <PUBCHEM_MMFF94_PARTIAL_CHARGES>
34
1 -0.57
10 0.14
12 -0.29
13 -0.29
14 -0.28
15 -0.15
18 0.25
19 0.25
2 -0.7
20 -0.15
21 0.14
22 0.14
23 -0.12
24 0.62
25 0.56
26 0.14
27 0.55
3 -0.49
36 0.15
37 0.15
4 -0.7
40 0.15
47 0.15
5 -0.85
57 0.37
58 0.4
59 0.4
6 -0.85
60 0.4
61 0.4
62 0.4
63 0.4
7 -0.85
8 0.14

> <PUBCHEM_EFFECTIVE_ROTOR_COUNT>
13

> <PUBCHEM_PHARMACOPHORE_FEATURES>
10
1 1 acceptor
1 11 hydrophobe
1 26 hydrophobe
1 3 donor
1 5 donor
1 6 donor
1 7 donor
3 14 21 22 hydrophobe
4 4 6 7 27 cation
5 8 9 10 12 13 hydrophobe

> <PUBCHEM_HEAVY_ATOM_COUNT>
27

> <PUBCHEM_ATOM_DEF_STEREO_COUNT>
1

> <PUBCHEM_ATOM_UDEF_STEREO_COUNT>
0

> <PUBCHEM_BOND_DEF_STEREO_COUNT>
2

> <PUBCHEM_BOND_UDEF_STEREO_COUNT>
0

> <PUBCHEM_ISOTOPIC_ATOM_COUNT>
0

> <PUBCHEM_COMPONENT_COUNT>
1

> <PUBCHEM_CACTVS_TAUTO_COUNT>
10

> <PUBCHEM_CONFORMER_ID>
00A493F900000001

> <PUBCHEM_MMFF94_ENERGY>
48.9372

> <PUBCHEM_FEATURE_SELFOVERLAP>
50.853

> <PUBCHEM_SHAPE_FINGERPRINT>
10670039 82 16805883983378635397
11135609 99 18202563999670667222
11273773 46 18412545396779117359
12120059 9 18187643580170480394
12645989 146 18410013217232249484
12895837 130 12757963830201781343
13782708 43 18340770463455544665
15183329 4 18334851697621049993
15230672 131 18337102389702613403
15510800 12 17845948359589507230
15629462 23 18343025480543347737
2026 5 18272367594598218239
4169191 19 10809337841361125423
437795 150 18113903797086251115
484989 97 18336833082120267802
5718773 13 18342739594608121998
5758199 1 8718537329414608124
59682541 35 11455591198260594532
9689198 14 11747223429049882008

> <PUBCHEM_SHAPE_MULTIPOLES>
519.89
27.72
4.11
1.44
45.43
1.42
-0.44
22.52
11.58
-2.58
-0.27
-2.2
0.31
3.32

> <PUBCHEM_SHAPE_SELFOVERLAP>
1003.25

> <PUBCHEM_SHAPE_VOLUME>
313.5

> <PUBCHEM_COORDINATE_TYPE>
2
5
10

$$$$
