REMARK  Name = 107848
REMARK  11 active torsions:
REMARK  status: ('A' for Active; 'I' for Inactive)
REMARK    1  A    between atoms: O_1  and  C_5
REMARK    2  A    between atoms: O_1  and  C_19
REMARK    3  A    between atoms: C_7  and  C_15
REMARK    4  A    between atoms: C_9  and  C_12
REMARK    5  A    between atoms: C_12  and  O_13
REMARK    6  A    between atoms: C_15  and  O_16
REMARK    7  A    between atoms: C_20  and  O_24
REMARK    8  A    between atoms: C_21  and  O_26
REMARK    9  A    between atoms: C_22  and  O_28
REMARK   10  A    between atoms: C_23  and  C_30
REMARK   11  A    between atoms: C_30  and  O_31
REMARK                            x       y       z     vdW  Elec       q    Type
REMARK                         _______ _______ _______ _____ _____    ______ ____
ROOT
ATOM      1  O   UNL     1      -0.686   0.378  -0.999  0.00  0.00    -0.293 OA
ENDROOT
BRANCH   1   5
ATOM      2  O   UNL     1       1.002   1.715  -0.116  0.00  0.00    -0.449 OA
ATOM      3  C   UNL     1       1.521  -0.572  -0.935  0.00  0.00    +0.077 C 
ATOM      4  C   UNL     1       2.934  -0.486  -0.313  0.00  0.00    +0.038 C 
ATOM      5  C   UNL     1       0.522   0.369  -0.237  0.00  0.00    +0.290 C 
ATOM      6  C   UNL     1       3.001  -1.629   0.711  0.00  0.00    +0.005 C 
ATOM      7  C   UNL     1       1.192  -2.031  -0.730  0.00  0.00    +0.036 C 
ATOM      8  C   UNL     1       2.002  -2.599   0.172  0.00  0.00    +0.003 C 
ATOM      9  C   UNL     1       3.218   0.862   0.259  0.00  0.00    +0.090 C 
ATOM     10  C   UNL     1       2.302   1.834   0.294  0.00  0.00    +0.177 C 
BRANCH   9  12
ATOM     11  O   UNL     1       4.809   2.016   1.583  0.00  0.00    -0.245 OA
ATOM     12  C   UNL     1       4.568   1.182   0.723  0.00  0.00    +0.340 C 
BRANCH  12  13
ATOM     13  O   UNL     1       5.456   0.409   0.048  0.00  0.00    -0.441 OA
ATOM     14  C   UNL     1       6.831   0.607   0.394  0.00  0.00    +0.256 C 
ENDBRANCH  12  13
ENDBRANCH   9  12
BRANCH   7  15
ATOM     15  C   UNL     1       0.093  -2.705  -1.470  0.00  0.00    +0.137 C 
BRANCH  15  16
ATOM     16  O   UNL     1       0.333  -2.645  -2.868  0.00  0.00    -0.382 OA
ATOM     17  H   UNL     1      -0.390  -3.088  -3.340  0.00  0.00    +0.210 HD
ENDBRANCH  15  16
ENDBRANCH   7  15
ENDBRANCH   1   5
BRANCH   1  19
ATOM     18  O   UNL     1      -2.327  -0.623   0.323  0.00  0.00    -0.326 OA
ATOM     19  C   UNL     1      -1.821   0.616  -0.168  0.00  0.00    +0.268 C 
ATOM     20  C   UNL     1      -2.879   1.331  -1.009  0.00  0.00    +0.197 C 
ATOM     21  C   UNL     1      -4.188   1.491  -0.237  0.00  0.00    +0.172 C 
ATOM     22  C   UNL     1      -4.615   0.172   0.409  0.00  0.00    +0.169 C 
ATOM     23  C   UNL     1      -3.453  -0.453   1.185  0.00  0.00    +0.176 C 
BRANCH  20  24
ATOM     24  O   UNL     1      -2.375   2.619  -1.360  0.00  0.00    -0.378 OA
ATOM     25  H   UNL     1      -1.544   2.519  -1.850  0.00  0.00    +0.211 HD
ENDBRANCH  20  24
BRANCH  21  26
ATOM     26  O   UNL     1      -5.223   1.898  -1.134  0.00  0.00    -0.379 OA
ATOM     27  H   UNL     1      -4.973   2.734  -1.557  0.00  0.00    +0.211 HD
ENDBRANCH  21  26
BRANCH  22  28
ATOM     28  O   UNL     1      -5.701   0.414   1.300  0.00  0.00    -0.379 OA
ATOM     29  H   UNL     1      -6.438   0.810   0.810  0.00  0.00    +0.211 HD
ENDBRANCH  22  28
BRANCH  23  30
ATOM     30  C   UNL     1      -3.819  -1.825   1.741  0.00  0.00    +0.169 C 
BRANCH  30  31
ATOM     31  O   UNL     1      -2.698  -2.344   2.434  0.00  0.00    -0.379 OA
ATOM     32  H   UNL     1      -2.917  -3.218   2.794  0.00  0.00    +0.211 HD
ENDBRANCH  30  31
ENDBRANCH  23  30
ENDBRANCH   1  19
TORSDOF 11
