10787520
  -OEChem-03292013303D

 49 50  0     1  0  0  0  0  0999 V2000
   -3.3393   -2.6468   -0.4346 S   0  0  0  0  0  0  0  0  0  0  0  0
   -4.9486    2.3337    0.3129 S   0  0  0  0  0  0  0  0  0  0  0  0
    3.3437   -2.1403   -0.8107 O   0  0  0  0  0  0  0  0  0  0  0  0
    5.5928   -1.3757    1.2090 O   0  0  0  0  0  0  0  0  0  0  0  0
    5.8784    3.0555   -0.1857 O   0  0  0  0  0  0  0  0  0  0  0  0
    3.9259    2.0523   -0.9019 O   0  0  0  0  0  0  0  0  0  0  0  0
   -1.5936   -0.7462   -0.2824 N   0  0  0  0  0  0  0  0  0  0  0  0
   -5.2353   -0.2155   -0.0059 N   0  0  0  0  0  0  0  0  0  0  0  0
    3.4735   -0.2583    0.7411 C   0  0  1  0  0  0  0  0  0  0  0  0
    2.8187   -0.8432   -0.5376 C   0  0  2  0  0  0  0  0  0  0  0  0
    2.9912   -1.0040    1.9925 C   0  0  0  0  0  0  0  0  0  0  0  0
    4.9950   -0.2443    0.6898 C   0  0  0  0  0  0  0  0  0  0  0  0
    1.3073   -0.8343   -0.4603 C   0  0  0  0  0  0  0  0  0  0  0  0
    0.5016   -1.9069   -0.5559 C   0  0  0  0  0  0  0  0  0  0  0  0
    5.6729    0.7992    0.1782 C   0  0  0  0  0  0  0  0  0  0  0  0
   -0.9387   -1.9296   -0.4762 C   0  0  0  0  0  0  0  0  0  0  0  0
   -2.8821   -1.0039   -0.2431 C   0  0  0  0  0  0  0  0  0  0  0  0
   -1.6829   -3.0648   -0.5843 C   0  0  0  0  0  0  0  0  0  0  0  0
    5.0254    2.0121   -0.3741 C   0  0  0  0  0  0  0  0  0  0  0  0
    6.3779   -2.0227    0.2271 C   0  0  0  0  0  0  0  0  0  0  0  0
   -3.8860    0.0648   -0.0456 C   0  0  0  0  0  0  0  0  0  0  0  0
   -5.8933    0.9073    0.1789 C   0  0  0  0  0  0  0  0  0  0  0  0
   -3.5337    1.3864    0.1082 C   0  0  0  0  0  0  0  0  0  0  0  0
   -7.2977    1.0321    0.2751 C   0  0  0  0  0  0  0  0  0  0  0  0
   -8.0262    2.3578    0.4790 C   0  0  0  0  0  0  0  0  0  0  0  0
    5.4161    4.3226   -0.6650 C   0  0  0  0  0  0  0  0  0  0  0  0
   -8.0631   -0.0874    0.1715 C   0  0  0  0  0  0  0  0  0  0  0  0
    3.1033    0.7642    0.8872 H   0  0  0  0  0  0  0  0  0  0  0  0
    3.0993   -0.2241   -1.3967 H   0  0  0  0  0  0  0  0  0  0  0  0
    1.9206   -0.8486    2.1638 H   0  0  0  0  0  0  0  0  0  0  0  0
    3.5067   -0.6401    2.8894 H   0  0  0  0  0  0  0  0  0  0  0  0
    3.1631   -2.0839    1.9211 H   0  0  0  0  0  0  0  0  0  0  0  0
    0.8621    0.1492   -0.3201 H   0  0  0  0  0  0  0  0  0  0  0  0
    0.9699   -2.8790   -0.6972 H   0  0  0  0  0  0  0  0  0  0  0  0
    6.7592    0.7998    0.1945 H   0  0  0  0  0  0  0  0  0  0  0  0
    3.0477   -2.3980   -1.7006 H   0  0  0  0  0  0  0  0  0  0  0  0
   -1.3703   -4.0885   -0.7377 H   0  0  0  0  0  0  0  0  0  0  0  0
    6.5678   -3.0454    0.5676 H   0  0  0  0  0  0  0  0  0  0  0  0
    5.8838   -2.0830   -0.7483 H   0  0  0  0  0  0  0  0  0  0  0  0
    7.3488   -1.5269    0.1210 H   0  0  0  0  0  0  0  0  0  0  0  0
   -2.5526    1.8412    0.1123 H   0  0  0  0  0  0  0  0  0  0  0  0
   -7.7224    2.8234    1.4226 H   0  0  0  0  0  0  0  0  0  0  0  0
   -7.8147    3.0453   -0.3470 H   0  0  0  0  0  0  0  0  0  0  0  0
   -9.1137    2.2287    0.5195 H   0  0  0  0  0  0  0  0  0  0  0  0
    4.4964    4.6107   -0.1468 H   0  0  0  0  0  0  0  0  0  0  0  0
    6.1869    5.0682   -0.4530 H   0  0  0  0  0  0  0  0  0  0  0  0
    5.2543    4.2821   -1.7464 H   0  0  0  0  0  0  0  0  0  0  0  0
   -9.1457   -0.0364    0.2359 H   0  0  0  0  0  0  0  0  0  0  0  0
   -7.6384   -1.0753    0.0218 H   0  0  0  0  0  0  0  0  0  0  0  0
  1 17  1  0  0  0  0
  1 18  1  0  0  0  0
  2 22  1  0  0  0  0
  2 23  1  0  0  0  0
  3 10  1  0  0  0  0
  3 36  1  0  0  0  0
  4 12  1  0  0  0  0
  4 20  1  0  0  0  0
  5 19  1  0  0  0  0
  5 26  1  0  0  0  0
  6 19  2  0  0  0  0
  7 16  1  0  0  0  0
  7 17  2  0  0  0  0
  8 21  1  0  0  0  0
  8 22  2  0  0  0  0
  9 10  1  0  0  0  0
  9 11  1  0  0  0  0
  9 12  1  0  0  0  0
  9 28  1  0  0  0  0
 10 13  1  0  0  0  0
 10 29  1  0  0  0  0
 11 30  1  0  0  0  0
 11 31  1  0  0  0  0
 11 32  1  0  0  0  0
 12 15  2  0  0  0  0
 13 14  2  0  0  0  0
 13 33  1  0  0  0  0
 14 16  1  0  0  0  0
 14 34  1  0  0  0  0
 15 19  1  0  0  0  0
 15 35  1  0  0  0  0
 16 18  2  0  0  0  0
 17 21  1  0  0  0  0
 18 37  1  0  0  0  0
 20 38  1  0  0  0  0
 20 39  1  0  0  0  0
 20 40  1  0  0  0  0
 21 23  2  0  0  0  0
 22 24  1  0  0  0  0
 23 41  1  0  0  0  0
 24 25  1  0  0  0  0
 24 27  2  0  0  0  0
 25 42  1  0  0  0  0
 25 43  1  0  0  0  0
 25 44  1  0  0  0  0
 26 45  1  0  0  0  0
 26 46  1  0  0  0  0
 26 47  1  0  0  0  0
 27 48  1  0  0  0  0
 27 49  1  0  0  0  0
M  END
> <PUBCHEM_COMPOUND_CID>
10787520

> <PUBCHEM_CONFORMER_RMSD>
1

> <PUBCHEM_CONFORMER_DIVERSEORDER>
5
118
90
93
136
83
131
43
135
60
113
69
8
56
41
16
142
149
99
70
114
84
63
34
13
133
52
146
130
159
59
147
28
157
78
32
140
73
33
88
36
81
86
120
11
25
30
9
12
85
154
48
143
58
61
109
104
138
51
44
77
145
38
22
107
150
64
74
112
46
102
35
53
156
100
27
17
15
79
20
132
92
50
126
80
23
21
39
137
49
26
29
87
72
139
151
152
116
91
75
155
108
3
123
134
65
1
19
141
68
62
71
31
2
122
129
103
125
57
14
6
10
117
18
153
95
67
110
158
148
55
144
40
121
66
37
24
119
124
106
47
7
94
45
160
76
128
98
4
97
115
54
101
127
96
42
111
82
89
105

> <PUBCHEM_MMFF94_PARTIAL_CHARGES>
34
1 -0.08
10 0.42
12 -0.06
13 -0.29
14 -0.1
15 -0.14
16 0.18
17 0.38
18 -0.11
19 0.71
2 -0.08
20 0.28
21 0.23
22 0.33
23 -0.11
24 -0.09
25 0.14
26 0.28
27 -0.3
3 -0.68
33 0.15
34 0.15
35 0.15
36 0.4
37 0.15
4 -0.36
41 0.15
48 0.15
49 0.15
5 -0.43
6 -0.57
7 -0.57
8 -0.57
9 0.14

> <PUBCHEM_EFFECTIVE_ROTOR_COUNT>
9

> <PUBCHEM_PHARMACOPHORE_FEATURES>
9
1 11 hydrophobe
1 3 acceptor
1 3 donor
1 4 acceptor
1 6 acceptor
1 7 acceptor
1 8 acceptor
5 1 7 16 17 18 rings
5 2 8 21 22 23 rings

> <PUBCHEM_HEAVY_ATOM_COUNT>
27

> <PUBCHEM_ATOM_DEF_STEREO_COUNT>
2

> <PUBCHEM_ATOM_UDEF_STEREO_COUNT>
0

> <PUBCHEM_BOND_DEF_STEREO_COUNT>
2

> <PUBCHEM_BOND_UDEF_STEREO_COUNT>
0

> <PUBCHEM_ISOTOPIC_ATOM_COUNT>
0

> <PUBCHEM_COMPONENT_COUNT>
1

> <PUBCHEM_CACTVS_TAUTO_COUNT>
1

> <PUBCHEM_CONFORMER_ID>
00A49AC000000005

> <PUBCHEM_MMFF94_ENERGY>
56.8079

> <PUBCHEM_FEATURE_SELFOVERLAP>
45.673

> <PUBCHEM_SHAPE_FINGERPRINT>
10 15 18334018294035812203
10595046 47 18193833971624909478
10883706 163 18335701594825457141
11273773 38 18340769333726814488
12107183 9 18337664218796288234
12596602 18 18040997366838034203
12925494 130 18268145538207676545
13685833 64 11458717088533181979
13782708 43 12684808931315102759
14216079 64 7853851685975003681
14294032 229 17845375621311146935
14394314 77 18337957895564583861
15419008 145 18117549640088555592
15510800 12 12180108865949460864
15519825 34 16443920512877449761
155225 6 18337677545726652636
1577012 14 18411978100297375278
15840311 113 18260550025967557125
16760501 71 18408888459870583885
17844677 252 18337113462191683874
17980427 23 18336545018911574191
18393751 57 18334582322337384499
19611394 137 18189066429530791131
20281389 69 18333730200050047341
20691028 202 18341609339193491393
21033648 29 17631431484467718130
21315764 268 18261670372471227476
21585481 104 13470419859364700531
21585482 57 18340759421632807717
23559900 14 18060136497313949870
268830 7 18188756358229280390
2748736 6 18342454816669958157
2838139 119 18336539431047974951
3472631 163 18413109476176887039
3918712 181 18342457019930737129
397830 11 17822586009325723259
4073 2 17969225701805634818
4258327 124 18340774844533130969
5104073 3 18040991903845563314
57724786 102 18409162238656024030
59682541 52 16056607508417038926
7808743 9 18341047505667491427

> <PUBCHEM_SHAPE_MULTIPOLES>
529.91
22.76
3.97
0.99
17.43
2.61
-0.31
15.66
-3.25
-3.99
1.06
-1.06
-0.18
-2.43

> <PUBCHEM_SHAPE_SELFOVERLAP>
1078.193

> <PUBCHEM_SHAPE_VOLUME>
311.8

> <PUBCHEM_COORDINATE_TYPE>
2
5
10

$$$$
