REMARK  Name = 10787520
REMARK  10 active torsions:
REMARK  status: ('A' for Active; 'I' for Inactive)
REMARK    1  A    between atoms: C_1  and  C_16
REMARK    2  A    between atoms: C_2  and  C_5
REMARK    3  A    between atoms: C_6  and  C_10
REMARK    4  A    between atoms: C_11  and  C_13
REMARK    5  A    between atoms: C_16  and  O_17
REMARK    6  A    between atoms: C_16  and  C_19
REMARK    7  A    between atoms: C_19  and  C_21
REMARK    8  A    between atoms: C_21  and  O_23
REMARK    9  A    between atoms: C_22  and  C_26
REMARK   10  A    between atoms: C_26  and  O_27
REMARK                            x       y       z     vdW  Elec       q    Type
REMARK                         _______ _______ _______ _____ _____    ______ ____
ROOT
ATOM      1  C   UNL     1       1.307  -0.834  -0.460  0.00  0.00    +0.005 C 
ATOM      2  C   UNL     1       0.502  -1.907  -0.556  0.00  0.00    +0.026 C 
ENDROOT
BRANCH   2   5
ATOM      3  S   UNL     1      -3.339  -2.647  -0.435  0.00  0.00    -0.073 S 
ATOM      4  N   UNL     1      -1.594  -0.746  -0.282  0.00  0.00    -0.397 NA
ATOM      5  C   UNL     1      -0.939  -1.930  -0.476  0.00  0.00    +0.121 C 
ATOM      6  C   UNL     1      -2.882  -1.004  -0.243  0.00  0.00    +0.183 C 
ATOM      7  C   UNL     1      -1.683  -3.065  -0.584  0.00  0.00    +0.123 C 
BRANCH   6  10
ATOM      8  S   UNL     1      -4.949   2.334   0.313  0.00  0.00    -0.075 S 
ATOM      9  N   UNL     1      -5.235  -0.215  -0.006  0.00  0.00    -0.396 NA
ATOM     10  C   UNL     1      -3.886   0.065  -0.046  0.00  0.00    +0.156 C 
ATOM     11  C   UNL     1      -5.893   0.907   0.179  0.00  0.00    +0.153 C 
ATOM     12  C   UNL     1      -3.534   1.386   0.108  0.00  0.00    +0.127 C 
BRANCH  11  13
ATOM     13  C   UNL     1      -7.298   1.032   0.275  0.00  0.00    +0.014 C 
ATOM     14  C   UNL     1      -8.026   2.358   0.479  0.00  0.00    +0.034 C 
ATOM     15  C   UNL     1      -8.063  -0.087   0.172  0.00  0.00    -0.001 C 
ENDBRANCH  11  13
ENDBRANCH   6  10
ENDBRANCH   2   5
BRANCH   1  16
ATOM     16  C   UNL     1       2.819  -0.843  -0.538  0.00  0.00    +0.140 C 
BRANCH  16  17
ATOM     17  O   UNL     1       3.344  -2.140  -0.811  0.00  0.00    -0.380 OA
ATOM     18  H   UNL     1       4.312  -2.095  -0.851  0.00  0.00    +0.211 HD
ENDBRANCH  16  17
BRANCH  16  19
ATOM     19  C   UNL     1       3.474  -0.258   0.741  0.00  0.00    +0.088 C 
ATOM     20  C   UNL     1       2.991  -1.004   1.992  0.00  0.00    +0.011 C 
BRANCH  19  21
ATOM     21  C   UNL     1       4.995  -0.244   0.690  0.00  0.00    +0.125 C 
ATOM     22  C   UNL     1       5.673   0.799   0.178  0.00  0.00    +0.114 C 
BRANCH  21  23
ATOM     23  O   UNL     1       5.593  -1.376   1.209  0.00  0.00    -0.475 OA
ATOM     24  C   UNL     1       6.378  -2.023   0.227  0.00  0.00    +0.252 C 
ENDBRANCH  21  23
BRANCH  22  26
ATOM     25  O   UNL     1       3.926   2.052  -0.902  0.00  0.00    -0.245 OA
ATOM     26  C   UNL     1       5.025   2.012  -0.374  0.00  0.00    +0.344 C 
BRANCH  26  27
ATOM     27  O   UNL     1       5.878   3.055  -0.186  0.00  0.00    -0.441 OA
ATOM     28  C   UNL     1       5.416   4.323  -0.665  0.00  0.00    +0.256 C 
ENDBRANCH  26  27
ENDBRANCH  22  26
ENDBRANCH  19  21
ENDBRANCH  16  19
ENDBRANCH   1  16
TORSDOF 10
