REMARK  Name = 107855
REMARK  7 active torsions:
REMARK  status: ('A' for Active; 'I' for Inactive)
REMARK    1  A    between atoms: C_3  and  O_25
REMARK    2  A    between atoms: C_6  and  O_21
REMARK    3  A    between atoms: C_13  and  O_23
REMARK    4  A    between atoms: C_15  and  C_31
REMARK    5  A    between atoms: O_25  and  C_27
REMARK    6  A    between atoms: C_27  and  C_28
REMARK    7  A    between atoms: C_31  and  O_32
REMARK                            x       y       z     vdW  Elec       q    Type
REMARK                         _______ _______ _______ _____ _____    ______ ____
ROOT
ATOM      1  O   UNL     1      -4.940   1.291   1.270  0.00  0.00    -0.294 OA
ATOM      2  C   UNL     1       1.103  -1.439  -0.388  0.00  0.00    +0.046 C 
ATOM      3  C   UNL     1       2.072  -0.513   0.291  0.00  0.00    +0.136 C 
ATOM      4  C   UNL     1       1.938  -1.938   0.760  0.00  0.00    +0.037 C 
ATOM      5  C   UNL     1      -0.358  -1.056  -0.219  0.00  0.00    +0.050 C 
ATOM      6  C   UNL     1      -0.513   0.451  -0.648  0.00  0.00    +0.095 C 
ATOM      7  C   UNL     1       1.465   0.612   1.075  0.00  0.00    +0.042 C 
ATOM      8  C   UNL     1       0.399   1.384   0.252  0.00  0.00    +0.029 C 
ATOM      9  C   UNL     1       1.223  -2.183   2.049  0.00  0.00    +0.004 C 
ATOM     10  C   UNL     1       3.029  -2.926   0.522  0.00  0.00    +0.004 C 
ATOM     11  C   UNL     1      -2.015   0.867  -0.704  0.00  0.00    +0.057 C 
ATOM     12  C   UNL     1      -1.317  -2.024  -0.872  0.00  0.00    -0.030 C 
ATOM     13  C   UNL     1      -2.893   0.287   0.422  0.00  0.00    +0.145 C 
ATOM     14  C   UNL     1       1.109   2.503  -0.529  0.00  0.00    +0.003 C 
ATOM     15  C   UNL     1      -2.657  -2.061  -0.715  0.00  0.00    -0.017 C 
ATOM     16  C   UNL     1      -3.517  -1.065   0.054  0.00  0.00    +0.058 C 
ATOM     17  C   UNL     1      -2.356   2.335  -0.689  0.00  0.00    +0.013 C 
ATOM     18  C   UNL     1      -3.901   1.393   0.634  0.00  0.00    +0.174 C 
ATOM     19  C   UNL     1      -3.438   2.655   0.028  0.00  0.00    +0.060 C 
ATOM     20  C   UNL     1      -4.114   3.957   0.203  0.00  0.00    +0.008 C 
ENDROOT
BRANCH   6  21
ATOM     21  O   UNL     1      -0.036   0.512  -2.011  0.00  0.00    -0.386 OA
ATOM     22  H   UNL     1       0.901   0.261  -2.038  0.00  0.00    +0.210 HD
ENDBRANCH   6  21
BRANCH  13  23
ATOM     23  O   UNL     1      -2.232   0.236   1.681  0.00  0.00    -0.379 OA
ATOM     24  H   UNL     1      -1.550  -0.453   1.660  0.00  0.00    +0.211 HD
ENDBRANCH  13  23
BRANCH   3  25
ATOM     25  O   UNL     1       3.243  -0.160  -0.460  0.00  0.00    -0.456 OA
BRANCH  25  27
ATOM     26  O   UNL     1       4.366   0.469   1.451  0.00  0.00    -0.250 OA
ATOM     27  C   UNL     1       4.327   0.321   0.237  0.00  0.00    +0.316 C 
BRANCH  27  28
ATOM     28  C   UNL     1       5.460   0.651  -0.718  0.00  0.00    +0.099 C 
ATOM     29  C   UNL     1       5.327   2.092  -1.196  0.00  0.00    +0.012 C 
ATOM     30  C   UNL     1       6.814   0.418  -0.051  0.00  0.00    +0.012 C 
ENDBRANCH  27  28
ENDBRANCH  25  27
ENDBRANCH   3  25
BRANCH  15  31
ATOM     31  C   UNL     1      -3.450  -3.169  -1.363  0.00  0.00    +0.159 C 
BRANCH  31  32
ATOM     32  O   UNL     1      -4.135  -3.900  -0.367  0.00  0.00    -0.378 OA
ATOM     33  H   UNL     1      -4.645  -4.612  -0.782  0.00  0.00    +0.211 HD
ENDBRANCH  31  32
ENDBRANCH  15  31
TORSDOF 7
