REMARK  Name = 10785785
REMARK  13 active torsions:
REMARK  status: ('A' for Active; 'I' for Inactive)
REMARK    1  A    between atoms: N_2  and  C_6
REMARK    2  A    between atoms: N_2  and  C_23
REMARK    3  A    between atoms: C_5  and  C_11
REMARK    4  A    between atoms: C_10  and  C_14
REMARK    5  A    between atoms: C_13  and  C_15
REMARK    6  A    between atoms: C_15  and  C_17
REMARK    7  A    between atoms: C_17  and  C_18
REMARK    8  A    between atoms: C_18  and  C_19
REMARK    9  A    between atoms: C_23  and  C_24
REMARK   10  A    between atoms: C_24  and  C_25
REMARK   11  A    between atoms: C_25  and  C_26
REMARK   12  A    between atoms: C_26  and  N_27
REMARK   13  A    between atoms: N_27  and  C_30
REMARK                            x       y       z     vdW  Elec       q    Type
REMARK                         _______ _______ _______ _____ _____    ______ ____
ROOT
ATOM      1  O   UNL     1       0.837  -0.257   1.034  0.00  0.00    -0.270 OA
ATOM      2  N   UNL     1       0.540   2.009   0.493  0.00  0.00    -0.253 N 
ATOM      3  N   UNL     1       1.943   3.771  -0.086  0.00  0.00    -0.371 N 
ATOM      4  C   UNL     1       0.125   0.725   0.855  0.00  0.00    +0.248 C 
ATOM      5  C   UNL     1       1.850   2.443   0.259  0.00  0.00    +0.189 C 
ATOM      6  H   UNL     1      -0.169   2.685   0.391  0.00  0.00    +0.158 HD
ATOM      7  H   UNL     1       2.823   4.171  -0.270  0.00  0.00    +0.159 HD
ATOM      8  H   UNL     1       1.129   4.321  -0.148  0.00  0.00    +0.159 HD
ENDROOT
BRANCH   4  10
ATOM      9  C   UNL     1      -2.236   0.939   0.122  0.00  0.00    -0.000 C 
ATOM     10  C   UNL     1      -1.347   0.645   1.088  0.00  0.00    +0.032 C 
ATOM     11  C   UNL     1      -1.749   0.179   2.454  0.00  0.00    +0.036 C 
BRANCH   9  13
ATOM     12  C   UNL     1      -4.495   1.210  -0.795  0.00  0.00    -0.026 C 
ATOM     13  C   UNL     1      -3.680   0.899   0.225  0.00  0.00    -0.005 C 
BRANCH  12  14
ATOM     14  C   UNL     1      -6.001   1.183  -0.696  0.00  0.00    +0.022 C 
ATOM     15  C   UNL     1      -6.550   2.595  -0.922  0.00  0.00    +0.005 C 
BRANCH  14  16
ATOM     16  C   UNL     1      -6.625   0.208  -1.718  0.00  0.00    +0.009 C 
BRANCH  16  17
ATOM     17  C   UNL     1      -6.152  -1.248  -1.611  0.00  0.00    +0.026 C 
BRANCH  17  18
ATOM     18  C   UNL     1      -6.504  -1.897  -0.301  0.00  0.00    -0.035 C 
ATOM     19  C   UNL     1      -5.800  -2.832   0.364  0.00  0.00    -0.048 C 
ATOM     20  C   UNL     1      -6.206  -3.444   1.674  0.00  0.00    +0.026 C 
ATOM     21  C   UNL     1      -4.507  -3.358  -0.199  0.00  0.00    +0.026 C 
ENDBRANCH  17  18
ENDBRANCH  16  17
ENDBRANCH  14  16
ENDBRANCH  12  14
ENDBRANCH   9  13
ENDBRANCH   4  10
BRANCH   5  22
ATOM     22  N   UNL     1       2.815   1.590   0.382  0.00  0.00    -0.242 NA
BRANCH  22  23
ATOM     23  C   UNL     1       4.167   2.069   0.131  0.00  0.00    +0.128 C 
BRANCH  23  24
ATOM     24  C   UNL     1       5.170   0.947   0.375  0.00  0.00    +0.028 C 
BRANCH  24  25
ATOM     25  C   UNL     1       4.949  -0.249  -0.559  0.00  0.00    +0.028 C 
BRANCH  25  26
ATOM     26  C   UNL     1       5.985  -1.349  -0.352  0.00  0.00    +0.129 C 
BRANCH  26  27
ATOM     27  N   UNL     1       7.324  -0.832  -0.643  0.00  0.00    -0.240 NA
BRANCH  27  30
ATOM     28  N   UNL     1       8.249  -3.006  -0.212  0.00  0.00    -0.370 N 
ATOM     29  N   UNL     1       9.594  -1.266  -0.810  0.00  0.00    -0.370 N 
ATOM     30  C   UNL     1       8.306  -1.673  -0.552  0.00  0.00    +0.189 C 
ATOM     31  H   UNL     1       7.382  -3.424  -0.003  0.00  0.00    +0.159 HD
ATOM     32  H   UNL     1       9.074  -3.542  -0.179  0.00  0.00    +0.159 HD
ATOM     33  H   UNL     1       9.774  -0.333  -1.065  0.00  0.00    +0.159 HD
ATOM     34  H   UNL     1      10.337  -1.909  -0.739  0.00  0.00    +0.159 HD
ENDBRANCH  27  30
ENDBRANCH  26  27
ENDBRANCH  25  26
ENDBRANCH  24  25
ENDBRANCH  23  24
ENDBRANCH  22  23
ENDBRANCH   5  22
TORSDOF 13
