REMARK  Name = 107849
REMARK  3 active torsions:
REMARK  status: ('A' for Active; 'I' for Inactive)
REMARK    1  A    between atoms: C_11  and  O_23
REMARK    2  A    between atoms: C_19  and  O_25
REMARK    3  A    between atoms: C_21  and  O_27
REMARK                            x       y       z     vdW  Elec       q    Type
REMARK                         _______ _______ _______ _____ _____    ______ ____
ROOT
ATOM      1  O   UNL     1      -5.243   0.699  -0.917  0.00  0.00    -0.320 OA
ATOM      2  O   UNL     1      -3.629   1.790   0.467  0.00  0.00    -0.452 OA
ATOM      3  O   UNL     1       0.994  -2.460   0.179  0.00  0.00    -0.286 OA
ATOM      4  O   UNL     1       1.349   2.872   0.003  0.00  0.00    -0.287 OA
ATOM      5  C   UNL     1      -3.945  -0.626   0.609  0.00  0.00    +0.101 C 
ATOM      6  C   UNL     1      -4.615   0.735   0.379  0.00  0.00    +0.292 C 
ATOM      7  C   UNL     1      -4.543  -1.503  -0.464  0.00  0.00    +0.043 C 
ATOM      8  C   UNL     1      -2.524  -0.236   0.428  0.00  0.00    +0.051 C 
ATOM      9  C   UNL     1      -4.874  -0.522  -1.568  0.00  0.00    +0.146 C 
ATOM     10  C   UNL     1      -2.423   1.144   0.381  0.00  0.00    +0.140 C 
ATOM     11  C   UNL     1      -1.394  -1.032   0.355  0.00  0.00    +0.136 C 
ATOM     12  C   UNL     1      -0.146  -0.406   0.224  0.00  0.00    +0.076 C 
ATOM     13  C   UNL     1      -1.206   1.787   0.262  0.00  0.00    +0.040 C 
ATOM     14  C   UNL     1      -0.052   0.996   0.178  0.00  0.00    +0.048 C 
ATOM     15  C   UNL     1       1.073  -1.238   0.140  0.00  0.00    +0.202 C 
ATOM     16  C   UNL     1       1.265   1.651   0.044  0.00  0.00    +0.196 C 
ATOM     17  C   UNL     1       2.387  -0.578   0.006  0.00  0.00    +0.076 C 
ATOM     18  C   UNL     1       2.479   0.815  -0.041  0.00  0.00    +0.048 C 
ATOM     19  C   UNL     1       3.547  -1.357  -0.075  0.00  0.00    +0.140 C 
ATOM     20  C   UNL     1       3.732   1.427  -0.168  0.00  0.00    +0.040 C 
ATOM     21  C   UNL     1       4.886   0.646  -0.248  0.00  0.00    +0.137 C 
ATOM     22  C   UNL     1       4.793  -0.744  -0.202  0.00  0.00    +0.073 C 
ENDROOT
BRANCH  11  23
ATOM     23  O   UNL     1      -1.543  -2.381   0.439  0.00  0.00    -0.506 OA
ATOM     24  H   UNL     1      -2.399  -2.754   0.525  0.00  0.00    +0.292 HD
ENDBRANCH  11  23
BRANCH  19  25
ATOM     25  O   UNL     1       3.531  -2.720  -0.035  0.00  0.00    -0.505 OA
ATOM     26  H   UNL     1       2.717  -3.177   0.049  0.00  0.00    +0.292 HD
ENDBRANCH  19  25
BRANCH  21  27
ATOM     27  O   UNL     1       6.103   1.243  -0.373  0.00  0.00    -0.505 OA
ATOM     28  H   UNL     1       6.166   2.177  -0.405  0.00  0.00    +0.292 HD
ENDBRANCH  21  27
TORSDOF 3
