REMARK  Name = 107919
REMARK  8 active torsions:
REMARK  status: ('A' for Active; 'I' for Inactive)
REMARK    1  A    between atoms: C_1  and  C_2
REMARK    2  A    between atoms: C_1  and  CA_12
REMARK    3  A    between atoms: C_2  and  C_3
REMARK    4  A    between atoms: C_3  and  N_5
REMARK    5  A    between atoms: N_6  and  N_11
REMARK    6  A    between atoms: CA_12  and  N_13
REMARK    7  A    between atoms: CA_12  and  C_18
REMARK    8  A    between atoms: C_18  and  O_19
REMARK                            x       y       z     vdW  Elec       q    Type
REMARK                         _______ _______ _______ _____ _____    ______ ____
ROOT
ATOM      1  C   UNL     1      -1.545  -0.610   0.487  0.00  0.00    -0.009 C 
ENDROOT
BRANCH   1   2
ATOM      2  C   UNL     1      -1.130   0.859   0.304  0.00  0.00    +0.020 C 
BRANCH   2   3
ATOM      3  C   UNL     1       0.056   1.240   1.188  0.00  0.00    +0.091 C 
BRANCH   3   5
ATOM      4  O   UNL     1       2.046   1.918  -0.687  0.00  0.00    -0.251 OA
ATOM      5  N   UNL     1       1.232   0.466   0.899  0.00  0.00    -0.288 N 
ATOM      6  N   UNL     1       3.273   0.009  -0.217  0.00  0.00    -0.162 N 
ATOM      7  C   UNL     1       2.177   0.869  -0.048  0.00  0.00    +0.320 C 
ATOM      8  C   UNL     1       4.334   0.310  -1.171  0.00  0.00    +0.140 C 
ATOM      9  H   UNL     1       1.377  -0.378   1.385  0.00  0.00    +0.151 HD
BRANCH   6  11
ATOM     10  O   UNL     1       4.387  -1.907   0.342  0.00  0.00    -0.078 OA
ATOM     11  N   UNL     1       3.376  -1.242   0.589  0.00  0.00    +0.054 NA
ENDBRANCH   6  11
ENDBRANCH   3   5
ENDBRANCH   2   3
ENDBRANCH   1   2
BRANCH   1  12
ATOM     12  CA  UNL     1      -2.771  -1.033  -0.337  0.00  0.00    +0.036 C 
BRANCH  12  13
ATOM     13  N   UNL     1      -2.508  -0.948  -1.773  0.00  0.00    +0.389 N 
ATOM     14  H1  UNL     1      -1.693  -1.516  -2.004  0.00  0.00    -0.088 HD
ATOM     15  H2  UNL     1      -2.329   0.023  -2.029  0.00  0.00    -0.088 HD
ATOM     16  H3  UNL     1      -3.319  -1.292  -2.287  0.00  0.00    -0.088 HD
ENDBRANCH  12  13
BRANCH  12  18
ATOM     17  OXT UNL     1      -4.589   0.520  -0.831  0.00  0.00    -0.253 OA
ATOM     18  C   UNL     1      -3.986  -0.179  -0.026  0.00  0.00    +0.293 C 
BRANCH  18  19
ATOM     19  O   UNL     1      -4.352  -0.272   1.280  0.00  0.00    -0.482 OA
ATOM     20  H   UNL     1      -3.865  -0.819   1.865  0.00  0.00    +0.295 HD
ENDBRANCH  18  19
ENDBRANCH  12  18
ENDBRANCH   1  12
TORSDOF 8
