REMARK  Name = 107924
REMARK  6 active torsions:
REMARK  status: ('A' for Active; 'I' for Inactive)
REMARK    1  A    between atoms: C_2  and  N_21
REMARK    2  A    between atoms: C_8  and  C_18
REMARK    3  A    between atoms: N_21  and  C_23
REMARK    4  A    between atoms: C_24  and  O_29
REMARK    5  A    between atoms: C_26  and  N_31
REMARK    6  A    between atoms: N_31  and  S_33
REMARK                            x       y       z     vdW  Elec       q    Type
REMARK                         _______ _______ _______ _____ _____    ______ ____
ROOT
ATOM      1  N   UNL     1       3.306  -0.478   0.391  0.00  0.00    -0.406 NA
ATOM      2  C   UNL     1       0.768  -0.669  -0.702  0.00  0.00    +0.038 C 
ATOM      3  C   UNL     1       1.392  -1.813  -0.194  0.00  0.00    +0.039 C 
ATOM      4  C   UNL     1       1.415   0.571  -0.663  0.00  0.00    +0.110 C 
ATOM      5  C   UNL     1       2.679  -1.669   0.351  0.00  0.00    +0.128 C 
ATOM      6  C   UNL     1       2.701   0.621  -0.100  0.00  0.00    +0.122 C 
ATOM      7  C   UNL     1       3.305  -2.804   0.859  0.00  0.00    +0.008 C 
ATOM      8  C   UNL     1       3.350   1.852  -0.058  0.00  0.00    +0.079 C 
ATOM      9  C   UNL     1       0.765  -3.071  -0.220  0.00  0.00    +0.003 C 
ATOM     10  C   UNL     1       0.812   1.737  -1.166  0.00  0.00    -0.014 C 
ATOM     11  C   UNL     1       2.686  -4.056   0.834  0.00  0.00    -0.002 C 
ATOM     12  C   UNL     1       1.413  -4.190   0.294  0.00  0.00    -0.000 C 
ATOM     13  C   UNL     1       2.753   3.013  -0.557  0.00  0.00    +0.006 C 
ATOM     14  C   UNL     1       1.482   2.955  -1.112  0.00  0.00    -0.004 C 
ATOM     15  C   UNL     1       4.677  -2.711   1.452  0.00  0.00    +0.034 C 
ENDROOT
BRANCH   8  18
ATOM     16  O   UNL     1       5.052   1.190   1.413  0.00  0.00    -0.270 OA
ATOM     17  N   UNL     1       5.514   2.963  -0.007  0.00  0.00    -0.299 N 
ATOM     18  C   UNL     1       4.686   1.967   0.517  0.00  0.00    +0.248 C 
ATOM     19  C   UNL     1       6.870   3.187   0.440  0.00  0.00    +0.111 C 
ATOM     20  H   UNL     1       5.155   3.543  -0.717  0.00  0.00    +0.150 HD
ENDBRANCH   8  18
BRANCH   2  21
ATOM     21  N   UNL     1      -0.534  -0.766  -1.264  0.00  0.00    -0.313 N 
ATOM     22  H   UNL     1      -0.537  -0.957  -2.230  0.00  0.00    +0.152 HD
BRANCH  21  23
ATOM     23  C   UNL     1      -1.813  -0.643  -0.706  0.00  0.00    +0.083 C 
ATOM     24  C   UNL     1      -2.961  -0.787  -1.496  0.00  0.00    +0.153 C 
ATOM     25  C   UNL     1      -1.952  -0.373   0.661  0.00  0.00    +0.019 C 
ATOM     26  C   UNL     1      -4.358  -0.392   0.436  0.00  0.00    +0.068 C 
ATOM     27  C   UNL     1      -4.228  -0.662  -0.927  0.00  0.00    +0.054 C 
ATOM     28  C   UNL     1      -3.220  -0.248   1.229  0.00  0.00    +0.017 C 
BRANCH  24  29
ATOM     29  O   UNL     1      -2.855  -1.050  -2.829  0.00  0.00    -0.470 OA
ATOM     30  C   UNL     1      -2.793   0.071  -3.707  0.00  0.00    +0.253 C 
ENDBRANCH  24  29
BRANCH  26  31
ATOM     31  N   UNL     1      -5.655  -0.264   1.018  0.00  0.00    -0.219 N 
ATOM     32  H   UNL     1      -6.239  -1.049   1.129  0.00  0.00    +0.173 HD
BRANCH  31  33
ATOM     33  S   UNL     1      -6.170   1.300   1.522  0.00  0.00    +0.056 S 
ATOM     34  O   UNL     1      -7.381   1.153   2.308  0.00  0.00    -0.154 OA
ATOM     35  O   UNL     1      -5.054   2.075   2.027  0.00  0.00    -0.154 OA
ATOM     36  C   UNL     1      -6.651   1.993  -0.044  0.00  0.00    +0.200 C 
ENDBRANCH  31  33
ENDBRANCH  26  31
ENDBRANCH  21  23
ENDBRANCH   2  21
TORSDOF 6
