REMARK  Name = 107959
REMARK  5 active torsions:
REMARK  status: ('A' for Active; 'I' for Inactive)
REMARK    1  A    between atoms: N_2  and  N_13
REMARK    2  A    between atoms: N_2  and  C_14
REMARK    3  A    between atoms: C_3  and  C_6
REMARK    4  A    between atoms: C_14  and  C_16
REMARK    5  A    between atoms: C_16  and  O_17
REMARK                            x       y       z     vdW  Elec       q    Type
REMARK                         _______ _______ _______ _____ _____    ______ ____
ROOT
ATOM      1  O   UNL     1      -0.121   0.015  -1.593  0.00  0.00    -0.272 OA
ATOM      2  N   UNL     1       1.332  -0.769   0.037  0.00  0.00    -0.167 N 
ATOM      3  C   UNL     1       0.072  -0.465  -0.473  0.00  0.00    +0.260 C 
ENDROOT
BRANCH   3   6
ATOM      4  O   UNL     1      -1.177   2.021   1.160  0.00  0.00    -0.275 OA
ATOM      5  N   UNL     1      -2.139   0.210   0.087  0.00  0.00    -0.273 N 
ATOM      6  C   UNL     1      -1.097  -0.753   0.419  0.00  0.00    +0.153 C 
ATOM      7  C   UNL     1      -1.717  -2.113   0.118  0.00  0.00    +0.031 C 
ATOM      8  C   UNL     1      -2.713  -1.810  -0.999  0.00  0.00    +0.024 C 
ATOM      9  C   UNL     1      -3.236  -0.429  -0.635  0.00  0.00    +0.094 C 
ATOM     10  C   UNL     1      -2.123   1.515   0.553  0.00  0.00    +0.226 C 
ATOM     11  C   UNL     1      -3.361   2.324   0.263  0.00  0.00    +0.095 C 
ENDBRANCH   3   6
BRANCH   2  13
ATOM     12  O   UNL     1       2.650  -1.567   1.723  0.00  0.00    -0.079 OA
ATOM     13  N   UNL     1       1.477  -1.347   1.401  0.00  0.00    +0.053 NA
ENDBRANCH   2  13
BRANCH   2  14
ATOM     14  C   UNL     1       2.530  -0.527  -0.754  0.00  0.00    +0.224 C 
BRANCH  14  16
ATOM     15  O   UNL     1       4.107   1.254  -1.119  0.00  0.00    -0.248 OA
ATOM     16  C   UNL     1       3.106   0.849  -0.541  0.00  0.00    +0.336 C 
BRANCH  16  17
ATOM     17  O   UNL     1       2.412   1.594   0.351  0.00  0.00    -0.479 OA
ATOM     18  H   UNL     1       1.651   1.239   0.767  0.00  0.00    +0.295 HD
ENDBRANCH  16  17
ENDBRANCH  14  16
ENDBRANCH   2  14
TORSDOF 5
