REMARK  Name = 107991
REMARK  8 active torsions:
REMARK  status: ('A' for Active; 'I' for Inactive)
REMARK    1  A    between atoms: C_4  and  C_28
REMARK    2  A    between atoms: C_6  and  O_20
REMARK    3  A    between atoms: C_8  and  O_22
REMARK    4  A    between atoms: C_16  and  O_24
REMARK    5  A    between atoms: C_18  and  O_26
REMARK    6  A    between atoms: C_28  and  C_29
REMARK    7  A    between atoms: C_29  and  O_30
REMARK    8  A    between atoms: O_30  and  C_32
REMARK                            x       y       z     vdW  Elec       q    Type
REMARK                         _______ _______ _______ _____ _____    ______ ____
ROOT
ATOM      1  O   UNL     1      -2.127  -2.994  -0.122  0.00  0.00    -0.453 OA
ATOM      2  O   UNL     1       1.275   2.262   0.420  0.00  0.00    -0.286 OA
ATOM      3  O   UNL     1       2.977  -2.735  -0.432  0.00  0.00    -0.287 OA
ATOM      4  C   UNL     1      -3.055  -0.769   0.216  0.00  0.00    +0.102 C 
ATOM      5  C   UNL     1      -1.568  -0.777   0.166  0.00  0.00    +0.052 C 
ATOM      6  C   UNL     1      -3.294  -2.286   0.364  0.00  0.00    +0.289 C 
ATOM      7  C   UNL     1      -1.118  -2.070  -0.047  0.00  0.00    +0.140 C 
ATOM      8  C   UNL     1      -0.677   0.278   0.259  0.00  0.00    +0.136 C 
ATOM      9  C   UNL     1       0.693   0.005   0.130  0.00  0.00    +0.076 C 
ATOM     10  C   UNL     1       1.141  -1.309  -0.094  0.00  0.00    +0.048 C 
ATOM     11  C   UNL     1       0.224  -2.366  -0.189  0.00  0.00    +0.040 C 
ATOM     12  C   UNL     1       1.662   1.116   0.226  0.00  0.00    +0.202 C 
ATOM     13  C   UNL     1       2.584  -1.592  -0.235  0.00  0.00    +0.196 C 
ATOM     14  C   UNL     1       3.104   0.828   0.086  0.00  0.00    +0.076 C 
ATOM     15  C   UNL     1       3.548  -0.477  -0.136  0.00  0.00    +0.048 C 
ATOM     16  C   UNL     1       4.030   1.874   0.177  0.00  0.00    +0.140 C 
ATOM     17  C   UNL     1       4.918  -0.735  -0.266  0.00  0.00    +0.040 C 
ATOM     18  C   UNL     1       5.837   0.310  -0.175  0.00  0.00    +0.137 C 
ATOM     19  C   UNL     1       5.394   1.613   0.046  0.00  0.00    +0.073 C 
ENDROOT
BRANCH   6  20
ATOM     20  O   UNL     1      -3.523  -2.587   1.741  0.00  0.00    -0.350 OA
ATOM     21  H   UNL     1      -3.674  -3.540   1.843  0.00  0.00    +0.214 HD
ENDBRANCH   6  20
BRANCH   8  22
ATOM     22  O   UNL     1      -1.173   1.527   0.467  0.00  0.00    -0.506 OA
ATOM     23  H   UNL     1      -2.097   1.657   0.546  0.00  0.00    +0.292 HD
ENDBRANCH   8  22
BRANCH  16  24
ATOM     24  O   UNL     1       3.667   3.171   0.391  0.00  0.00    -0.505 OA
ATOM     25  H   UNL     1       2.762   3.395   0.485  0.00  0.00    +0.292 HD
ENDBRANCH  16  24
BRANCH  18  26
ATOM     26  O   UNL     1       7.169   0.058  -0.302  0.00  0.00    -0.505 OA
ATOM     27  H   UNL     1       7.468  -0.817  -0.451  0.00  0.00    +0.292 HD
ENDBRANCH  18  26
BRANCH   4  28
ATOM     28  C   UNL     1      -3.648  -0.212  -1.074  0.00  0.00    +0.058 C 
BRANCH  28  29
ATOM     29  C   UNL     1      -5.164  -0.157  -1.013  0.00  0.00    +0.209 C 
BRANCH  29  30
ATOM     30  O   UNL     1      -5.543   0.697   0.058  0.00  0.00    -0.448 OA
BRANCH  30  32
ATOM     31  O   UNL     1      -5.540   2.516  -1.366  0.00  0.00    -0.250 OA
ATOM     32  C   UNL     1      -5.698   2.018  -0.259  0.00  0.00    +0.318 C 
ATOM     33  C   UNL     1      -6.097   2.793   0.960  0.00  0.00    +0.121 C 
ENDBRANCH  30  32
ENDBRANCH  29  30
ENDBRANCH  28  29
ENDBRANCH   4  28
TORSDOF 8
