107994
  -OEChem-03292013323D

 56 58  0     1  0  0  0  0  0999 V2000
    0.2154    1.9080   -1.1982 O   0  0  0  0  0  0  0  0  0  0  0  0
    4.3467    3.3513   -0.2659 O   0  0  0  0  0  0  0  0  0  0  0  0
    4.0029    1.7619   -1.8632 O   0  0  0  0  0  0  0  0  0  0  0  0
   -1.5153   -2.8759    0.2094 O   0  0  0  0  0  0  0  0  0  0  0  0
   -1.9323   -2.8341   -2.0185 O   0  0  0  0  0  0  0  0  0  0  0  0
    2.0256    0.6171   -0.4968 N   0  0  0  0  0  0  0  0  0  0  0  0
   -1.1179   -0.2005   -2.0589 N   0  0  0  0  0  0  0  0  0  0  0  0
    2.6806    1.7474    0.1645 C   0  0  1  0  0  0  0  0  0  0  0  0
    3.2461    1.3818    1.5334 C   0  0  0  0  0  0  0  0  0  0  0  0
    2.7485   -0.6647   -0.5424 C   0  0  0  0  0  0  0  0  0  0  0  0
    4.0168    0.0901    1.5265 C   0  0  0  0  0  0  0  0  0  0  0  0
    3.7648   -0.8818    0.5478 C   0  0  0  0  0  0  0  0  0  0  0  0
    0.3309   -0.3039   -2.0470 C   0  0  2  0  0  0  0  0  0  0  0  0
    0.8438    0.8468   -1.2153 C   0  0  0  0  0  0  0  0  0  0  0  0
   -1.6921   -0.7251   -0.8255 C   0  0  1  0  0  0  0  0  0  0  0  0
    3.7316    2.2583   -0.7800 C   0  0  0  0  0  0  0  0  0  0  0  0
   -3.0997   -0.1429   -0.6351 C   0  0  0  0  0  0  0  0  0  0  0  0
    4.9589   -0.1656    2.5332 C   0  0  0  0  0  0  0  0  0  0  0  0
    4.4819   -2.0876    0.5774 C   0  0  0  0  0  0  0  0  0  0  0  0
    0.8960   -0.2190   -3.4499 C   0  0  0  0  0  0  0  0  0  0  0  0
   -3.8108   -0.6025    0.6474 C   0  0  0  0  0  0  0  0  0  0  0  0
    5.6637   -1.3682    2.5536 C   0  0  0  0  0  0  0  0  0  0  0  0
    5.4270   -2.3284    1.5741 C   0  0  0  0  0  0  0  0  0  0  0  0
   -1.7390   -2.2364   -0.9669 C   0  0  0  0  0  0  0  0  0  0  0  0
   -5.1627    0.0286    0.8737 C   0  0  0  0  0  0  0  0  0  0  0  0
   -5.2646    1.2210    1.5904 C   0  0  0  0  0  0  0  0  0  0  0  0
   -6.3106   -0.5801    0.3659 C   0  0  0  0  0  0  0  0  0  0  0  0
   -6.5142    1.8046    1.7995 C   0  0  0  0  0  0  0  0  0  0  0  0
   -7.5601    0.0036    0.5749 C   0  0  0  0  0  0  0  0  0  0  0  0
   -7.6618    1.1960    1.2918 C   0  0  0  0  0  0  0  0  0  0  0  0
    1.9563    2.5620    0.2861 H   0  0  0  0  0  0  0  0  0  0  0  0
    3.8765    2.1908    1.9209 H   0  0  0  0  0  0  0  0  0  0  0  0
    2.4129    1.2553    2.2372 H   0  0  0  0  0  0  0  0  0  0  0  0
    3.2325   -0.7457   -1.5211 H   0  0  0  0  0  0  0  0  0  0  0  0
    2.0286   -1.4789   -0.4333 H   0  0  0  0  0  0  0  0  0  0  0  0
    0.6033   -1.2835   -1.6606 H   0  0  0  0  0  0  0  0  0  0  0  0
   -1.0816   -0.4611    0.0469 H   0  0  0  0  0  0  0  0  0  0  0  0
   -1.5182   -0.6762   -2.8668 H   0  0  0  0  0  0  0  0  0  0  0  0
   -3.7312   -0.4068   -1.4951 H   0  0  0  0  0  0  0  0  0  0  0  0
   -3.0341    0.9538   -0.6282 H   0  0  0  0  0  0  0  0  0  0  0  0
    5.1493    0.5740    3.3069 H   0  0  0  0  0  0  0  0  0  0  0  0
    4.3032   -2.8485   -0.1787 H   0  0  0  0  0  0  0  0  0  0  0  0
    0.6285    0.7273   -3.9351 H   0  0  0  0  0  0  0  0  0  0  0  0
    1.9890   -0.2776   -3.4466 H   0  0  0  0  0  0  0  0  0  0  0  0
    0.5215   -1.0354   -4.0775 H   0  0  0  0  0  0  0  0  0  0  0  0
   -3.9363   -1.6923    0.6365 H   0  0  0  0  0  0  0  0  0  0  0  0
   -3.1704   -0.3916    1.5140 H   0  0  0  0  0  0  0  0  0  0  0  0
    6.3953   -1.5561    3.3339 H   0  0  0  0  0  0  0  0  0  0  0  0
    5.9748   -3.2660    1.5880 H   0  0  0  0  0  0  0  0  0  0  0  0
    5.0390    3.6990   -0.8676 H   0  0  0  0  0  0  0  0  0  0  0  0
   -4.3774    1.7058    1.9890 H   0  0  0  0  0  0  0  0  0  0  0  0
   -6.2437   -1.5079   -0.1960 H   0  0  0  0  0  0  0  0  0  0  0  0
   -1.5371   -3.8510    0.1054 H   0  0  0  0  0  0  0  0  0  0  0  0
   -6.5935    2.7333    2.3570 H   0  0  0  0  0  0  0  0  0  0  0  0
   -8.4538   -0.4699    0.1791 H   0  0  0  0  0  0  0  0  0  0  0  0
   -8.6347    1.6506    1.4542 H   0  0  0  0  0  0  0  0  0  0  0  0
  1 14  2  0  0  0  0
  2 16  1  0  0  0  0
  2 50  1  0  0  0  0
  3 16  2  0  0  0  0
  4 24  1  0  0  0  0
  4 53  1  0  0  0  0
  5 24  2  0  0  0  0
  6  8  1  0  0  0  0
  6 10  1  0  0  0  0
  6 14  1  0  0  0  0
  7 13  1  0  0  0  0
  7 15  1  0  0  0  0
  7 38  1  0  0  0  0
  8  9  1  0  0  0  0
  8 16  1  0  0  0  0
  8 31  1  0  0  0  0
  9 11  1  0  0  0  0
  9 32  1  0  0  0  0
  9 33  1  0  0  0  0
 10 12  1  0  0  0  0
 10 34  1  0  0  0  0
 10 35  1  0  0  0  0
 11 12  1  0  0  0  0
 11 18  2  0  0  0  0
 12 19  2  0  0  0  0
 13 14  1  0  0  0  0
 13 20  1  0  0  0  0
 13 36  1  0  0  0  0
 15 17  1  0  0  0  0
 15 24  1  0  0  0  0
 15 37  1  0  0  0  0
 17 21  1  0  0  0  0
 17 39  1  0  0  0  0
 17 40  1  0  0  0  0
 18 22  1  0  0  0  0
 18 41  1  0  0  0  0
 19 23  1  0  0  0  0
 19 42  1  0  0  0  0
 20 43  1  0  0  0  0
 20 44  1  0  0  0  0
 20 45  1  0  0  0  0
 21 25  1  0  0  0  0
 21 46  1  0  0  0  0
 21 47  1  0  0  0  0
 22 23  2  0  0  0  0
 22 48  1  0  0  0  0
 23 49  1  0  0  0  0
 25 26  2  0  0  0  0
 25 27  1  0  0  0  0
 26 28  1  0  0  0  0
 26 51  1  0  0  0  0
 27 29  2  0  0  0  0
 27 52  1  0  0  0  0
 28 30  2  0  0  0  0
 28 54  1  0  0  0  0
 29 30  1  0  0  0  0
 29 55  1  0  0  0  0
 30 56  1  0  0  0  0
M  END
> <PUBCHEM_COMPOUND_CID>
107994

> <PUBCHEM_CONFORMER_RMSD>
1

> <PUBCHEM_CONFORMER_DIVERSEORDER>
1
38
46
13
32
54
4
16
47
12
62
37
26
48
58
51
19
53
14
49
15
42
36
30
24
56
40
52
3
7
60
29
34
44
50
25
20
39
18
35
45
57
23
27
33
2
55
31
59
11
10
5
9
8
17
6
21
28
41
61
43
22

> <PUBCHEM_MMFF94_PARTIAL_CHARGES>
40
1 -0.57
10 0.44
11 -0.14
12 -0.14
13 0.33
14 0.57
15 0.33
16 0.66
18 -0.15
19 -0.15
2 -0.65
21 0.14
22 -0.15
23 -0.15
24 0.66
25 -0.14
26 -0.15
27 -0.15
28 -0.15
29 -0.15
3 -0.57
30 -0.15
38 0.36
4 -0.65
41 0.15
42 0.15
48 0.15
49 0.15
5 -0.57
50 0.5
51 0.15
52 0.15
53 0.5
54 0.15
55 0.15
56 0.15
6 -0.66
7 -0.9
8 0.36
9 0.14

> <PUBCHEM_EFFECTIVE_ROTOR_COUNT>
9.8

> <PUBCHEM_PHARMACOPHORE_FEATURES>
12
1 1 acceptor
1 2 acceptor
1 3 acceptor
1 4 acceptor
1 5 acceptor
1 7 cation
1 7 donor
3 2 3 16 anion
3 4 5 24 anion
6 11 12 18 19 22 23 rings
6 25 26 27 28 29 30 rings
6 6 8 9 10 11 12 rings

> <PUBCHEM_HEAVY_ATOM_COUNT>
30

> <PUBCHEM_ATOM_DEF_STEREO_COUNT>
3

> <PUBCHEM_ATOM_UDEF_STEREO_COUNT>
0

> <PUBCHEM_BOND_DEF_STEREO_COUNT>
0

> <PUBCHEM_BOND_UDEF_STEREO_COUNT>
0

> <PUBCHEM_ISOTOPIC_ATOM_COUNT>
0

> <PUBCHEM_COMPONENT_COUNT>
1

> <PUBCHEM_CACTVS_TAUTO_COUNT>
1

> <PUBCHEM_CONFORMER_ID>
0001A5DA00000001

> <PUBCHEM_MMFF94_ENERGY>
71.9889

> <PUBCHEM_FEATURE_SELFOVERLAP>
61.033

> <PUBCHEM_SHAPE_FINGERPRINT>
10692045 39 18343023242448491955
10928967 22 15719379651130848027
11374522 58 17702107963268606910
117089 54 16083603722904074498
12107183 9 18412261709894288331
12422481 6 18187646869497685119
12596602 18 18187369874235213481
12633257 1 18411693301169198702
12778500 126 18409738356900241860
13135754 10 16734095739824408885
13533116 47 17967536774198239353
13673619 4 17240480252661545570
13690498 29 13623527931669863599
13782708 43 15936407858340382227
14251764 30 15213024830040982643
14347424 109 18187081754348340769
15238133 3 17918273173238223344
173720 79 18131913763099013635
17909252 39 14851868228417608824
20157964 124 13326856625756689748
20642791 268 18195231438087417604
20715895 44 16200428057183147251
21033648 29 16271364235318026972
21304303 282 14404027298290570396
21421861 104 18334010610349927580
23559900 14 17131010727073213342
2838139 119 16343695500762158729
439807 62 14129335139965210019
44317340 157 12823032897724708483
5104073 3 18261956357506561763
513202 73 17531519889670084805
54039377 194 17458904804989046114
58260988 587 17168721842199065084
7918774 8 15140680276395246227
8509985 295 18410580599934207253
86090 222 16733552593807687971

> <PUBCHEM_SHAPE_MULTIPOLES>
578.08
18.16
2.77
2.73
28.52
0.42
-0.65
-8.31
13.32
0.06
-0.46
-4.89
0.21
-2.69

> <PUBCHEM_SHAPE_SELFOVERLAP>
1227.068

> <PUBCHEM_SHAPE_VOLUME>
319.3

> <PUBCHEM_COORDINATE_TYPE>
2
5
10

$$$$
