REMARK  Name = 107994
REMARK  10 active torsions:
REMARK  status: ('A' for Active; 'I' for Inactive)
REMARK    1  A    between atoms: CA_1  and  C_10
REMARK    2  A    between atoms: CA_1  and  N_19
REMARK    3  A    between atoms: CA_5  and  C_16
REMARK    4  A    between atoms: C_16  and  O_17
REMARK    5  A    between atoms: N_19  and  CA_22
REMARK    6  A    between atoms: CA_22  and  C_24
REMARK    7  A    between atoms: CA_22  and  C_27
REMARK    8  A    between atoms: C_24  and  O_25
REMARK    9  A    between atoms: C_27  and  C_28
REMARK   10  A    between atoms: C_28  and  C_29
REMARK                            x       y       z     vdW  Elec       q    Type
REMARK                         _______ _______ _______ _____ _____    ______ ____
ROOT
ATOM      1  CA  UNL     1       0.331  -0.304  -2.047  0.00  0.00    +0.018 C 
ATOM      2  CB  UNL     1       0.896  -0.219  -3.450  0.00  0.00    -0.014 C 
ENDROOT
BRANCH   1  10
ATOM      3  O   UNL     1       0.215   1.908  -1.198  0.00  0.00    -0.277 OA
ATOM      4  N   UNL     1       2.026   0.617  -0.497  0.00  0.00    -0.269 N 
ATOM      5  CA  UNL     1       2.681   1.747   0.165  0.00  0.00    +0.179 C 
ATOM      6  C   UNL     1       3.246   1.382   1.533  0.00  0.00    +0.057 C 
ATOM      7  C   UNL     1       2.748  -0.665  -0.542  0.00  0.00    +0.120 C 
ATOM      8  C   UNL     1       4.017   0.090   1.526  0.00  0.00    -0.022 C 
ATOM      9  C   UNL     1       3.765  -0.882   0.548  0.00  0.00    -0.006 C 
ATOM     10  C   UNL     1       0.844   0.847  -1.215  0.00  0.00    +0.206 C 
ATOM     11  C   UNL     1       4.959  -0.166   2.533  0.00  0.00    -0.004 C 
ATOM     12  C   UNL     1       4.482  -2.088   0.577  0.00  0.00    -0.003 C 
ATOM     13  C   UNL     1       5.664  -1.368   2.554  0.00  0.00    -0.000 C 
ATOM     14  C   UNL     1       5.427  -2.328   1.574  0.00  0.00    -0.000 C 
BRANCH   5  16
ATOM     15  OXT UNL     1       4.003   1.762  -1.863  0.00  0.00    -0.248 OA
ATOM     16  C   UNL     1       3.732   2.258  -0.780  0.00  0.00    +0.332 C 
BRANCH  16  17
ATOM     17  O   UNL     1       4.347   3.351  -0.266  0.00  0.00    -0.479 OA
ATOM     18  H   UNL     1       4.090   3.682   0.572  0.00  0.00    +0.295 HD
ENDBRANCH  16  17
ENDBRANCH   5  16
ENDBRANCH   1  10
BRANCH   1  19
ATOM     19  N   UNL     1      -1.118  -0.201  -2.059  0.00  0.00    +0.399 N 
ATOM     20  H1  UNL     1      -1.483  -0.732  -2.849  0.00  0.00    -0.083 HD
ATOM     21  H2  UNL     1      -1.372   0.784  -2.141  0.00  0.00    -0.083 HD
BRANCH  19  22
ATOM     22  CA  UNL     1      -1.692  -0.725  -0.826  0.00  0.00    +0.041 C 
BRANCH  22  24
ATOM     23  OXT UNL     1      -1.932  -2.834  -2.018  0.00  0.00    -0.253 OA
ATOM     24  C   UNL     1      -1.739  -2.236  -0.967  0.00  0.00    +0.293 C 
BRANCH  24  25
ATOM     25  O   UNL     1      -1.515  -2.876   0.209  0.00  0.00    -0.482 OA
ATOM     26  H   UNL     1      -1.372  -2.381   0.992  0.00  0.00    +0.295 HD
ENDBRANCH  24  25
ENDBRANCH  22  24
BRANCH  22  27
ATOM     27  C   UNL     1      -3.100  -0.143  -0.635  0.00  0.00    -0.006 C 
BRANCH  27  28
ATOM     28  C   UNL     1      -3.811  -0.603   0.647  0.00  0.00    +0.025 C 
BRANCH  28  29
ATOM     29  C   UNL     1      -5.163   0.029   0.874  0.00  0.00    -0.022 C 
ATOM     30  C   UNL     1      -5.265   1.221   1.590  0.00  0.00    -0.004 C 
ATOM     31  C   UNL     1      -6.311  -0.580   0.366  0.00  0.00    -0.004 C 
ATOM     32  C   UNL     1      -6.514   1.805   1.800  0.00  0.00    -0.000 C 
ATOM     33  C   UNL     1      -7.560   0.004   0.575  0.00  0.00    -0.000 C 
ATOM     34  C   UNL     1      -7.662   1.196   1.292  0.00  0.00    -0.000 C 
ENDBRANCH  28  29
ENDBRANCH  27  28
ENDBRANCH  22  27
ENDBRANCH  19  22
ENDBRANCH   1  19
TORSDOF 10
