REMARK  Name = 107971
REMARK  9 active torsions:
REMARK  status: ('A' for Active; 'I' for Inactive)
REMARK    1  A    between atoms: C_3  and  O_20
REMARK    2  A    between atoms: C_10  and  C_12
REMARK    3  A    between atoms: C_17  and  O_18
REMARK    4  A    between atoms: O_20  and  C_26
REMARK    5  A    between atoms: C_22  and  O_27
REMARK    6  A    between atoms: C_23  and  O_29
REMARK    7  A    between atoms: C_24  and  O_31
REMARK    8  A    between atoms: C_25  and  C_33
REMARK    9  A    between atoms: C_33  and  O_34
REMARK                            x       y       z     vdW  Elec       q    Type
REMARK                         _______ _______ _______ _____ _____    ______ ____
ROOT
ATOM      1  O   UNL     1      -1.310  -0.581   1.576  0.00  0.00    -0.450 OA
ATOM      2  O   UNL     1      -3.135  -0.326  -2.064  0.00  0.00    -0.286 OA
ATOM      3  C   UNL     1       1.537  -1.358  -0.560  0.00  0.00    +0.144 C 
ATOM      4  C   UNL     1       0.759  -1.115   0.571  0.00  0.00    +0.075 C 
ATOM      5  C   UNL     1       0.964  -1.296  -1.831  0.00  0.00    +0.037 C 
ATOM      6  C   UNL     1      -0.595  -0.810   0.429  0.00  0.00    +0.151 C 
ATOM      7  C   UNL     1      -1.168  -0.748  -0.841  0.00  0.00    +0.074 C 
ATOM      8  C   UNL     1      -0.390  -0.991  -1.976  0.00  0.00    +0.009 C 
ATOM      9  C   UNL     1      -2.600  -0.420  -0.967  0.00  0.00    +0.202 C 
ATOM     10  C   UNL     1      -3.343  -0.198   0.304  0.00  0.00    +0.077 C 
ATOM     11  C   UNL     1      -2.648  -0.296   1.447  0.00  0.00    +0.183 C 
ENDROOT
BRANCH  10  12
ATOM     12  C   UNL     1      -4.785   0.099   0.322  0.00  0.00    +0.006 C 
ATOM     13  C   UNL     1      -5.229   1.423   0.285  0.00  0.00    +0.003 C 
ATOM     14  C   UNL     1      -5.714  -0.943   0.376  0.00  0.00    +0.003 C 
ATOM     15  C   UNL     1      -6.595   1.703   0.302  0.00  0.00    +0.037 C 
ATOM     16  C   UNL     1      -7.080  -0.662   0.394  0.00  0.00    +0.037 C 
ATOM     17  C   UNL     1      -7.521   0.661   0.357  0.00  0.00    +0.134 C 
BRANCH  17  18
ATOM     18  O   UNL     1      -8.854   0.935   0.374  0.00  0.00    -0.506 OA
ATOM     19  H   UNL     1      -9.149   1.824   0.349  0.00  0.00    +0.292 HD
ENDBRANCH  17  18
ENDBRANCH  10  12
BRANCH   3  20
ATOM     20  O   UNL     1       2.860  -1.658  -0.425  0.00  0.00    -0.450 OA
BRANCH  20  26
ATOM     21  O   UNL     1       3.616   0.547  -0.518  0.00  0.00    -0.316 OA
ATOM     22  C   UNL     1       6.078  -0.151   0.786  0.00  0.00    +0.173 C 
ATOM     23  C   UNL     1       5.874   1.192   0.085  0.00  0.00    +0.169 C 
ATOM     24  C   UNL     1       5.109  -1.206   0.253  0.00  0.00    +0.210 C 
ATOM     25  C   UNL     1       4.394   1.584   0.083  0.00  0.00    +0.177 C 
ATOM     26  C   UNL     1       3.676  -0.675   0.213  0.00  0.00    +0.318 C 
BRANCH  22  27
ATOM     27  O   UNL     1       7.421  -0.575   0.546  0.00  0.00    -0.379 OA
ATOM     28  H   UNL     1       8.037   0.094   0.884  0.00  0.00    +0.211 HD
ENDBRANCH  22  27
BRANCH  23  29
ATOM     29  O   UNL     1       6.626   2.196   0.762  0.00  0.00    -0.379 OA
ATOM     30  H   UNL     1       7.564   1.950   0.765  0.00  0.00    +0.211 HD
ENDBRANCH  23  29
BRANCH  24  31
ATOM     31  O   UNL     1       5.138  -2.350   1.106  0.00  0.00    -0.377 OA
ATOM     32  H   UNL     1       6.041  -2.702   1.144  0.00  0.00    +0.211 HD
ENDBRANCH  24  31
BRANCH  25  33
ATOM     33  C   UNL     1       4.150   2.863  -0.712  0.00  0.00    +0.169 C 
BRANCH  33  34
ATOM     34  O   UNL     1       2.765   3.156  -0.679  0.00  0.00    -0.379 OA
ATOM     35  H   UNL     1       2.595   3.968  -1.181  0.00  0.00    +0.211 HD
ENDBRANCH  33  34
ENDBRANCH  25  33
ENDBRANCH  20  26
ENDBRANCH   3  20
TORSDOF 9
