REMARK  Name = 108011
REMARK  11 active torsions:
REMARK  status: ('A' for Active; 'I' for Inactive)
REMARK    1  A    between atoms: C_2  and  O_7
REMARK    2  A    between atoms: C_3  and  O_9
REMARK    3  A    between atoms: C_4  and  C_22
REMARK    4  A    between atoms: C_5  and  O_11
REMARK    5  A    between atoms: C_6  and  O_13
REMARK    6  A    between atoms: O_13  and  C_15
REMARK    7  A    between atoms: C_15  and  C_16
REMARK    8  A    between atoms: C_16  and  C_18
REMARK    9  A    between atoms: C_18  and  C_19
REMARK   10  A    between atoms: C_19  and  O_20
REMARK   11  A    between atoms: C_22  and  O_23
REMARK                            x       y       z     vdW  Elec       q    Type
REMARK                         _______ _______ _______ _____ _____    ______ ____
ROOT
ATOM      1  O   UNL     1       1.004   0.816  -0.307  0.00  0.00    -0.316 OA
ATOM      2  C   UNL     1       3.254  -0.065  -0.123  0.00  0.00    +0.169 C 
ATOM      3  C   UNL     1       2.695  -1.429   0.283  0.00  0.00    +0.173 C 
ATOM      4  C   UNL     1       2.289   1.056   0.268  0.00  0.00    +0.177 C 
ATOM      5  C   UNL     1       1.250  -1.597  -0.187  0.00  0.00    +0.211 C 
ATOM      6  C   UNL     1       0.401  -0.380   0.181  0.00  0.00    +0.320 C 
ENDROOT
BRANCH   2   7
ATOM      7  O   UNL     1       4.506   0.143   0.525  0.00  0.00    -0.379 OA
ATOM      8  H   UNL     1       5.120  -0.567   0.278  0.00  0.00    +0.211 HD
ENDBRANCH   2   7
BRANCH   3   9
ATOM      9  O   UNL     1       3.510  -2.437  -0.316  0.00  0.00    -0.379 OA
ATOM     10  H   UNL     1       4.427  -2.331  -0.018  0.00  0.00    +0.211 HD
ENDBRANCH   3   9
BRANCH   5  11
ATOM     11  O   UNL     1       0.679  -2.746   0.438  0.00  0.00    -0.377 OA
ATOM     12  H   UNL     1       1.205  -3.530   0.216  0.00  0.00    +0.211 HD
ENDBRANCH   5  11
BRANCH   6  13
ATOM     13  O   UNL     1      -0.887  -0.547  -0.412  0.00  0.00    -0.419 OA
BRANCH  13  15
ATOM     14  O   UNL     1      -1.563   1.469   0.465  0.00  0.00    -0.245 OA
ATOM     15  C   UNL     1      -1.779   0.458  -0.190  0.00  0.00    +0.339 C 
BRANCH  15  16
ATOM     16  C   UNL     1      -3.099   0.172  -0.824  0.00  0.00    +0.056 C 
ATOM     17  C   UNL     1      -3.186  -0.544  -1.956  0.00  0.00    +0.002 C 
BRANCH  16  18
ATOM     18  C   UNL     1      -4.321   0.774  -0.169  0.00  0.00    +0.065 C 
BRANCH  18  19
ATOM     19  C   UNL     1      -4.568   0.224   1.233  0.00  0.00    +0.142 C 
BRANCH  19  20
ATOM     20  O   UNL     1      -4.784  -1.180   1.165  0.00  0.00    -0.382 OA
ATOM     21  H   UNL     1      -4.940  -1.527   2.057  0.00  0.00    +0.210 HD
ENDBRANCH  19  20
ENDBRANCH  18  19
ENDBRANCH  16  18
ENDBRANCH  15  16
ENDBRANCH  13  15
ENDBRANCH   6  13
BRANCH   4  22
ATOM     22  C   UNL     1       2.770   2.415  -0.231  0.00  0.00    +0.169 C 
BRANCH  22  23
ATOM     23  O   UNL     1       1.827   3.397   0.157  0.00  0.00    -0.379 OA
ATOM     24  H   UNL     1       2.121   4.268  -0.154  0.00  0.00    +0.211 HD
ENDBRANCH  22  23
ENDBRANCH   4  22
TORSDOF 11
