108073
  -OEChem-03292013323D

 28 27  0     1  0  0  0  0  0999 V2000
    0.6549   -0.3746    0.5782 S   0  0  0  0  0  0  0  0  0  0  0  0
   -2.6865   -2.0067    1.1625 O   0  0  0  0  0  0  0  0  0  0  0  0
   -1.8043   -2.9003   -0.7253 O   0  0  0  0  0  0  0  0  0  0  0  0
   -3.2282    2.0267   -1.1838 O   0  0  0  0  0  0  0  0  0  0  0  0
    5.7660    0.2611    0.8327 O   0  0  0  0  0  0  0  0  0  0  0  0
    4.7700    0.6640   -1.1679 O   0  0  0  0  0  0  0  0  0  0  0  0
   -2.5030    0.4643    0.3830 N   0  0  0  0  0  0  0  0  0  0  0  0
   -1.9270   -0.4860   -0.5353 C   0  0  1  0  0  0  0  0  0  0  0  0
   -0.4629   -0.1658   -0.8474 C   0  0  0  0  0  0  0  0  0  0  0  0
    2.2045    0.0440   -0.2501 C   0  0  0  0  0  0  0  0  0  0  0  0
   -2.1178   -1.9181   -0.0636 C   0  0  0  0  0  0  0  0  0  0  0  0
    3.3966   -0.0330    0.6935 C   0  0  0  0  0  0  0  0  0  0  0  0
   -3.1068    1.6443   -0.0229 C   0  0  0  0  0  0  0  0  0  0  0  0
    4.6909    0.3405    0.0106 C   0  0  0  0  0  0  0  0  0  0  0  0
   -3.6464    2.4396    1.1357 C   0  0  0  0  0  0  0  0  0  0  0  0
   -2.5000   -0.4066   -1.4684 H   0  0  0  0  0  0  0  0  0  0  0  0
   -0.3747    0.8660   -1.2052 H   0  0  0  0  0  0  0  0  0  0  0  0
   -0.1110   -0.8311   -1.6437 H   0  0  0  0  0  0  0  0  0  0  0  0
    2.3536   -0.6429   -1.0906 H   0  0  0  0  0  0  0  0  0  0  0  0
    2.1214    1.0568   -0.6601 H   0  0  0  0  0  0  0  0  0  0  0  0
   -2.4490    0.2575    1.3764 H   0  0  0  0  0  0  0  0  0  0  0  0
    3.2582    0.6553    1.5354 H   0  0  0  0  0  0  0  0  0  0  0  0
    3.5072   -1.0531    1.0794 H   0  0  0  0  0  0  0  0  0  0  0  0
   -3.9444    3.4343    0.7931 H   0  0  0  0  0  0  0  0  0  0  0  0
   -4.5165    1.9279    1.5560 H   0  0  0  0  0  0  0  0  0  0  0  0
   -2.8797    2.5502    1.9080 H   0  0  0  0  0  0  0  0  0  0  0  0
   -2.8065   -2.9385    1.4448 H   0  0  0  0  0  0  0  0  0  0  0  0
    6.5985    0.4975    0.3709 H   0  0  0  0  0  0  0  0  0  0  0  0
  1  9  1  0  0  0  0
  1 10  1  0  0  0  0
  2 11  1  0  0  0  0
  2 27  1  0  0  0  0
  3 11  2  0  0  0  0
  4 13  2  0  0  0  0
  5 14  1  0  0  0  0
  5 28  1  0  0  0  0
  6 14  2  0  0  0  0
  7  8  1  0  0  0  0
  7 13  1  0  0  0  0
  7 21  1  0  0  0  0
  8  9  1  0  0  0  0
  8 11  1  0  0  0  0
  8 16  1  0  0  0  0
  9 17  1  0  0  0  0
  9 18  1  0  0  0  0
 10 12  1  0  0  0  0
 10 19  1  0  0  0  0
 10 20  1  0  0  0  0
 12 14  1  0  0  0  0
 12 22  1  0  0  0  0
 12 23  1  0  0  0  0
 13 15  1  0  0  0  0
 15 24  1  0  0  0  0
 15 25  1  0  0  0  0
 15 26  1  0  0  0  0
M  END
> <PUBCHEM_COMPOUND_CID>
108073

> <PUBCHEM_CONFORMER_RMSD>
0.8

> <PUBCHEM_CONFORMER_DIVERSEORDER>
1
11
103
72
25
49
12
100
94
63
46
92
91
34
90
40
47
104
32
65
78
26
84
21
41
86
99
50
27
73
44
19
69
85
38
57
55
62
17
81
43
7
101
3
52
22
9
79
58
82
8
95
83
30
16
35
60
42
64
53
4
74
102
96
77
23
2
37
68
93
39
89
70
59
18
31
14
87
88
97
45
24
67
6
36
28
80
48
66
29
33
76
54
75
51
5
10
61
15
13
56
20
98
71

> <PUBCHEM_MMFF94_PARTIAL_CHARGES>
18
1 -0.46
10 0.23
11 0.66
12 0.06
13 0.57
14 0.66
15 0.06
2 -0.65
21 0.37
27 0.5
28 0.5
3 -0.57
4 -0.57
5 -0.65
6 -0.57
7 -0.73
8 0.36
9 0.23

> <PUBCHEM_EFFECTIVE_ROTOR_COUNT>
8

> <PUBCHEM_PHARMACOPHORE_FEATURES>
9
1 2 acceptor
1 3 acceptor
1 4 acceptor
1 5 acceptor
1 6 acceptor
1 7 donor
3 2 3 11 anion
3 5 6 14 anion
4 1 9 10 12 hydrophobe

> <PUBCHEM_HEAVY_ATOM_COUNT>
15

> <PUBCHEM_ATOM_DEF_STEREO_COUNT>
1

> <PUBCHEM_ATOM_UDEF_STEREO_COUNT>
0

> <PUBCHEM_BOND_DEF_STEREO_COUNT>
0

> <PUBCHEM_BOND_UDEF_STEREO_COUNT>
0

> <PUBCHEM_ISOTOPIC_ATOM_COUNT>
0

> <PUBCHEM_COMPONENT_COUNT>
1

> <PUBCHEM_CACTVS_TAUTO_COUNT>
2

> <PUBCHEM_CONFORMER_ID>
0001A62900000001

> <PUBCHEM_MMFF94_ENERGY>
21.6964

> <PUBCHEM_FEATURE_SELFOVERLAP>
45.79

> <PUBCHEM_SHAPE_FINGERPRINT>
10680689 15 18271247222234455578
10912923 1 17894627098189369488
11405975 8 18337953398970415706
12500047 106 18342451530650510154
12616971 3 17095522890619198124
14445660 50 18186522094508172830
17093844 174 18412254048468639312
1741750 31 18341333292780577499
17844677 252 18342461499834171696
20645477 56 18413393124496570513
20645477 70 15841551886458169124
21426921 1 18341610472737595327
21618674 53 18040156206045876888
2306618 200 17917435371121470155
23402539 116 18342729759127941199
23500284 214 18271812268021128265
23557571 272 18201736066903333260
5104073 3 18261385672823235104
573450 72 18334845135348735522
6049 1 17916578898707631808
633830 44 17771064887255085533
90127 26 17989207075378150560

> <PUBCHEM_SHAPE_MULTIPOLES>
278.21
10.2
2.45
1.11
16.05
0.8
0.02
-4.94
-0.9
-4.56
-0.12
-0.18
-0.17
-0.21

> <PUBCHEM_SHAPE_SELFOVERLAP>
520.675

> <PUBCHEM_SHAPE_VOLUME>
173.3

> <PUBCHEM_COORDINATE_TYPE>
2
5
10

$$$$
