REMARK  Name = 10807167
REMARK  8 active torsions:
REMARK  status: ('A' for Active; 'I' for Inactive)
REMARK    1  A    between atoms: N_1  and  C1*_12
REMARK    2  A    between atoms: C_9  and  S_25
REMARK    3  A    between atoms: C2*_11  and  O2*_15
REMARK    4  A    between atoms: C3*_13  and  O3*_17
REMARK    5  A    between atoms: C4*_14  and  C5*_19
REMARK    6  A    between atoms: C5*_19  and  O5*_20
REMARK    7  A    between atoms: S_25  and  C_26
REMARK    8  A    between atoms: C_26  and  C_27
REMARK                            x       y       z     vdW  Elec       q    Type
REMARK                         _______ _______ _______ _____ _____    ______ ____
ROOT
ATOM      1  N   UNL     1       0.882  -0.803  -0.104  0.00  0.00    -0.236 N 
ATOM      2  N   UNL     1       0.514  -2.906   0.544  0.00  0.00    -0.240 NA
ATOM      3  N   UNL     1      -1.395  -0.121  -0.607  0.00  0.00    -0.318 NA
ATOM      4  N   UNL     1      -2.976  -1.935  -0.201  0.00  0.00    -0.318 NA
ATOM      5  C   UNL     1      -0.467  -1.002  -0.203  0.00  0.00    +0.221 C 
ATOM      6  C   UNL     1       1.427  -1.977   0.349  0.00  0.00    +0.224 C 
ATOM      7  C   UNL     1      -0.674  -2.310   0.203  0.00  0.00    +0.167 C 
ATOM      8  C   UNL     1      -1.986  -2.771   0.195  0.00  0.00    +0.211 C 
ATOM      9  C   UNL     1      -2.624  -0.680  -0.572  0.00  0.00    +0.171 C 
ATOM     10  N   UNL     1      -2.288  -4.085   0.591  0.00  0.00    -0.331 N 
ATOM     11  H   UNL     1      -3.221  -4.400   0.582  0.00  0.00    +0.145 HD
ATOM     12  H   UNL     1      -1.567  -4.691   0.879  0.00  0.00    +0.145 HD
ENDROOT
BRANCH   1  15
ATOM     13  O4* UNL     1       2.919   0.088  -0.933  0.00  0.00    -0.333 OA
ATOM     14  C2* UNL     1       1.851   1.328   0.779  0.00  0.00    +0.187 C 
ATOM     15  C1* UNL     1       1.615   0.421  -0.419  0.00  0.00    +0.226 C 
ATOM     16  C3* UNL     1       3.084   2.093   0.340  0.00  0.00    +0.171 C 
ATOM     17  C4* UNL     1       3.884   1.024  -0.399  0.00  0.00    +0.175 C 
BRANCH  14  18
ATOM     18  O2* UNL     1       0.742   2.165   1.033  0.00  0.00    -0.378 OA
ATOM     19  H2* UNL     1      -0.015   1.625   1.309  0.00  0.00    +0.211 HD
ENDBRANCH  14  18
BRANCH  16  20
ATOM     20  O3* UNL     1       2.707   3.110  -0.588  0.00  0.00    -0.379 OA
ATOM     21  H3* UNL     1       2.198   3.795  -0.128  0.00  0.00    +0.211 HD
ENDBRANCH  16  20
BRANCH  17  22
ATOM     22  C5* UNL     1       4.839   0.264   0.509  0.00  0.00    +0.169 C 
BRANCH  22  23
ATOM     23  O5* UNL     1       5.523  -0.707  -0.263  0.00  0.00    -0.379 OA
ATOM     24  H5* UNL     1       6.136  -1.199   0.305  0.00  0.00    +0.211 HD
ENDBRANCH  22  23
ENDBRANCH  17  22
ENDBRANCH   1  15
BRANCH   9  25
ATOM     25  S   UNL     1      -3.969   0.378  -1.085  0.00  0.00    -0.018 S 
BRANCH  25  26
ATOM     26  C   UNL     1      -3.845   1.733   0.115  0.00  0.00    +0.074 C 
BRANCH  26  27
ATOM     27  C   UNL     1      -4.926   2.776  -0.144  0.00  0.00    +0.013 C 
ATOM     28  C   UNL     1      -4.837   3.918   0.858  0.00  0.00    +0.001 C 
ENDBRANCH  26  27
ENDBRANCH  25  26
ENDBRANCH   9  25
TORSDOF 8
