REMARK  Name = 10804002
REMARK  6 active torsions:
REMARK  status: ('A' for Active; 'I' for Inactive)
REMARK    1  A    between atoms: C_2  and  O_14
REMARK    2  A    between atoms: C_4  and  O_16
REMARK    3  A    between atoms: C_8  and  C_19
REMARK    4  A    between atoms: C_9  and  C_23
REMARK    5  A    between atoms: C_19  and  O_20
REMARK    6  A    between atoms: C_23  and  O_24
REMARK                            x       y       z     vdW  Elec       q    Type
REMARK                         _______ _______ _______ _____ _____    ______ ____
ROOT
ATOM      1  O   UNL     1      -1.180  -2.401   0.878  0.00  0.00    -0.296 OA
ATOM      2  C   UNL     1       0.270  -0.098  -0.811  0.00  0.00    +0.118 C 
ATOM      3  C   UNL     1      -0.992  -0.089   0.081  0.00  0.00    +0.086 C 
ATOM      4  C   UNL     1       1.424  -0.483   0.126  0.00  0.00    +0.121 C 
ATOM      5  C   UNL     1      -0.471   0.409   1.440  0.00  0.00    +0.012 C 
ATOM      6  C   UNL     1       1.058   0.209   1.449  0.00  0.00    +0.030 C 
ATOM      7  C   UNL     1       0.720   1.280  -1.327  0.00  0.00    +0.030 C 
ATOM      8  C   UNL     1       2.685  -0.001  -0.602  0.00  0.00    +0.126 C 
ATOM      9  C   UNL     1      -2.190   0.693  -0.506  0.00  0.00    +0.108 C 
ATOM     10  C   UNL     1       2.238   1.163  -1.493  0.00  0.00    +0.016 C 
ATOM     11  C   UNL     1      -1.618  -1.487   0.189  0.00  0.00    +0.153 C 
ATOM     12  C   UNL     1      -2.936  -0.306  -1.388  0.00  0.00    +0.019 C 
ATOM     13  C   UNL     1      -2.870  -1.629  -0.639  0.00  0.00    +0.065 C 
ENDROOT
BRANCH   2  14
ATOM     14  O   UNL     1       0.173  -0.964  -1.933  0.00  0.00    -0.384 OA
ATOM     15  H   UNL     1      -0.109  -1.844  -1.638  0.00  0.00    +0.210 HD
ENDBRANCH   2  14
BRANCH   4  16
ATOM     16  O   UNL     1       1.489  -1.887   0.330  0.00  0.00    -0.384 OA
ATOM     17  H   UNL     1       0.689  -2.185   0.790  0.00  0.00    +0.210 HD
ENDBRANCH   4  16
BRANCH   8  19
ATOM     18  O   UNL     1       4.284   1.500   0.412  0.00  0.00    -0.250 OA
ATOM     19  C   UNL     1       3.788   0.386   0.334  0.00  0.00    +0.316 C 
BRANCH  19  20
ATOM     20  O   UNL     1       4.170  -0.674   1.089  0.00  0.00    -0.480 OA
ATOM     21  H   UNL     1       3.747  -1.503   0.980  0.00  0.00    +0.295 HD
ENDBRANCH  19  20
ENDBRANCH   8  19
BRANCH   9  23
ATOM     22  O   UNL     1      -3.672   0.566   1.406  0.00  0.00    -0.250 OA
ATOM     23  C   UNL     1      -3.115   1.236   0.548  0.00  0.00    +0.314 C 
BRANCH  23  24
ATOM     24  O   UNL     1      -3.255   2.578   0.418  0.00  0.00    -0.480 OA
ATOM     25  H   UNL     1      -2.799   3.032  -0.263  0.00  0.00    +0.295 HD
ENDBRANCH  23  24
ENDBRANCH   9  23
TORSDOF 6
