REMARK  Name = 108037
REMARK  9 active torsions:
REMARK  status: ('A' for Active; 'I' for Inactive)
REMARK    1  A    between atoms: C_1  and  C_4
REMARK    2  A    between atoms: C_1  and  O_12
REMARK    3  A    between atoms: C_1  and  C_14
REMARK    4  A    between atoms: C_6  and  C_10
REMARK    5  A    between atoms: C_14  and  O_15
REMARK    6  A    between atoms: C_14  and  C_17
REMARK    7  A    between atoms: C_17  and  O_18
REMARK    8  A    between atoms: C_17  and  C_20
REMARK    9  A    between atoms: C_20  and  O_21
REMARK                            x       y       z     vdW  Elec       q    Type
REMARK                         _______ _______ _______ _____ _____    ______ ____
ROOT
ATOM      1  C   UNL     1       1.111  -1.176   0.702  0.00  0.00    +0.176 C 
ENDROOT
BRANCH   1   4
ATOM      2  N   UNL     1      -1.149  -0.129   0.731  0.00  0.00    -0.314 N 
ATOM      3  N   UNL     1      -2.084  -0.826  -1.159  0.00  0.00    -0.311 N 
ATOM      4  C   UNL     1      -0.256  -0.909   0.102  0.00  0.00    +0.067 C 
ATOM      5  C   UNL     1      -0.815  -1.336  -1.044  0.00  0.00    +0.072 C 
ATOM      6  C   UNL     1      -2.254  -0.104  -0.073  0.00  0.00    +0.203 C 
ATOM      7  H   UNL     1      -1.032   0.330   1.594  0.00  0.00    +0.148 HD
ATOM      8  H   UNL     1      -2.725  -0.969  -1.892  0.00  0.00    +0.149 HD
BRANCH   6  10
ATOM      9  O   UNL     1      -3.656   1.306   1.227  0.00  0.00    -0.292 OA
ATOM     10  C   UNL     1      -3.458   0.607   0.201  0.00  0.00    +0.188 C 
ATOM     11  C   UNL     1      -4.625   0.550  -0.792  0.00  0.00    +0.076 C 
ENDBRANCH   6  10
ENDBRANCH   1   4
BRANCH   1  12
ATOM     12  O   UNL     1       1.197  -2.574   0.972  0.00  0.00    -0.376 OA
ATOM     13  H   UNL     1       2.064  -2.776   1.358  0.00  0.00    +0.211 HD
ENDBRANCH   1  12
BRANCH   1  14
ATOM     14  C   UNL     1       2.254  -0.749  -0.239  0.00  0.00    +0.172 C 
BRANCH  14  15
ATOM     15  O   UNL     1       3.503  -1.090   0.367  0.00  0.00    -0.379 OA
ATOM     16  H   UNL     1       3.512  -2.037   0.578  0.00  0.00    +0.211 HD
ENDBRANCH  14  15
BRANCH  14  17
ATOM     17  C   UNL     1       2.247   0.755  -0.570  0.00  0.00    +0.169 C 
BRANCH  17  18
ATOM     18  O   UNL     1       3.367   1.055  -1.404  0.00  0.00    -0.379 OA
ATOM     19  H   UNL     1       3.329   0.510  -2.205  0.00  0.00    +0.211 HD
ENDBRANCH  17  18
BRANCH  17  20
ATOM     20  C   UNL     1       2.329   1.625   0.684  0.00  0.00    +0.169 C 
BRANCH  20  21
ATOM     21  O   UNL     1       2.289   2.994   0.295  0.00  0.00    -0.379 OA
ATOM     22  H   UNL     1       2.341   3.556   1.084  0.00  0.00    +0.211 HD
ENDBRANCH  20  21
ENDBRANCH  17  20
ENDBRANCH  14  17
ENDBRANCH   1  14
TORSDOF 9
