REMARK  Name = 108021
REMARK  6 active torsions:
REMARK  status: ('A' for Active; 'I' for Inactive)
REMARK    1  A    between atoms: C_1  and  C_8
REMARK    2  A    between atoms: C_1  and  N_15
REMARK    3  A    between atoms: C_1  and  C_27
REMARK    4  A    between atoms: C_4  and  C_11
REMARK    5  A    between atoms: C_16  and  C_21
REMARK    6  A    between atoms: C_27  and  C_30
REMARK                            x       y       z     vdW  Elec       q    Type
REMARK                         _______ _______ _______ _____ _____    ______ ____
ROOT
ATOM      1  C   UNL     1       0.560   0.388   0.318  0.00  0.00    +0.155 C 
ENDROOT
BRANCH   1   8
ATOM      2  O   UNL     1       1.844  -1.151   1.603  0.00  0.00    -0.273 OA
ATOM      3  N   UNL     1       2.789  -0.368  -0.359  0.00  0.00    -0.272 N 
ATOM      4  C   UNL     1       3.962  -1.232  -0.335  0.00  0.00    +0.152 C 
ATOM      5  C   UNL     1       4.540  -1.138  -1.742  0.00  0.00    +0.031 C 
ATOM      6  C   UNL     1       2.757   0.444  -1.572  0.00  0.00    +0.094 C 
ATOM      7  C   UNL     1       4.129   0.259  -2.202  0.00  0.00    +0.024 C 
ATOM      8  C   UNL     1       1.781  -0.454   0.590  0.00  0.00    +0.244 C 
BRANCH   4  11
ATOM      9  O   UNL     1       4.641   0.342   1.331  0.00  0.00    -0.274 OA
ATOM     10  N   UNL     1       6.066  -1.392   0.825  0.00  0.00    -0.327 N 
ATOM     11  C   UNL     1       4.901  -0.674   0.691  0.00  0.00    +0.237 C 
ATOM     12  H   UNL     1       6.749  -1.107   1.474  0.00  0.00    +0.145 HD
ATOM     13  H   UNL     1       6.218  -2.192   0.271  0.00  0.00    +0.145 HD
ENDBRANCH   4  11
ENDBRANCH   1   8
BRANCH   1  15
ATOM     14  O   UNL     1      -0.847  -1.744  -1.060  0.00  0.00    -0.273 OA
ATOM     15  N   UNL     1      -0.517  -0.413   0.822  0.00  0.00    -0.297 N 
ATOM     16  C   UNL     1      -1.135  -1.419   0.088  0.00  0.00    +0.242 C 
ATOM     17  H   UNL     1      -0.837  -0.241   1.738  0.00  0.00    +0.150 HD
BRANCH  16  21
ATOM     18  S   UNL     1      -4.121  -2.720  -1.147  0.00  0.00    -0.130 S 
ATOM     19  O   UNL     1      -4.992   0.205   1.039  0.00  0.00    -0.274 OA
ATOM     20  N   UNL     1      -3.158  -1.127   1.338  0.00  0.00    -0.297 N 
ATOM     21  C   UNL     1      -2.215  -2.117   0.861  0.00  0.00    +0.159 C 
ATOM     22  C   UNL     1      -2.890  -3.244   0.095  0.00  0.00    +0.087 C 
ATOM     23  C   UNL     1      -4.105  -0.913  -0.913  0.00  0.00    +0.124 C 
ATOM     24  C   UNL     1      -4.158  -0.568   0.567  0.00  0.00    +0.232 C 
ATOM     25  C   UNL     1      -5.284  -0.314  -1.675  0.00  0.00    +0.021 C 
ATOM     26  H   UNL     1      -3.081  -0.833   2.275  0.00  0.00    +0.150 HD
ENDBRANCH  16  21
ENDBRANCH   1  15
BRANCH   1  27
ATOM     27  C   UNL     1       0.686   1.739   1.012  0.00  0.00    +0.071 C 
BRANCH  27  30
ATOM     28  N   UNL     1      -1.604   2.591   0.371  0.00  0.00    -0.319 N 
ATOM     29  N   UNL     1      -1.211   4.566  -0.566  0.00  0.00    -0.315 N 
ATOM     30  C   UNL     1      -0.249   2.764   0.416  0.00  0.00    +0.040 C 
ATOM     31  C   UNL     1      -0.031   3.990  -0.168  0.00  0.00    +0.069 C 
ATOM     32  C   UNL     1      -2.139   3.698  -0.227  0.00  0.00    +0.182 C 
ATOM     33  H   UNL     1      -2.103   1.812   0.707  0.00  0.00    +0.148 HD
ATOM     34  H   UNL     1      -1.336   5.437  -1.007  0.00  0.00    +0.148 HD
ENDBRANCH  27  30
ENDBRANCH   1  27
TORSDOF 6
