REMARK  Name = 108072
REMARK  11 active torsions:
REMARK  status: ('A' for Active; 'I' for Inactive)
REMARK    1  A    between atoms: O_1  and  C_2
REMARK    2  A    between atoms: O_1  and  C_18
REMARK    3  A    between atoms: C_4  and  O_9
REMARK    4  A    between atoms: C_5  and  O_11
REMARK    5  A    between atoms: C_6  and  O_13
REMARK    6  A    between atoms: C_8  and  C_16
REMARK    7  A    between atoms: C_19  and  O_23
REMARK    8  A    between atoms: C_20  and  O_25
REMARK    9  A    between atoms: C_21  and  O_27
REMARK   10  A    between atoms: C_22  and  C_29
REMARK   11  A    between atoms: C_29  and  O_30
REMARK                            x       y       z     vdW  Elec       q    Type
REMARK                         _______ _______ _______ _____ _____    ______ ____
ROOT
ATOM      1  O   UNL     1      -0.453  -0.796   0.903  0.00  0.00    -0.327 OA
ENDROOT
BRANCH   1   2
ATOM      2  C   UNL     1       0.620  -0.556  -0.004  0.00  0.00    +0.142 C 
ATOM      3  C   UNL     1       1.571  -1.757   0.030  0.00  0.00    +0.066 C 
ATOM      4  C   UNL     1       2.793  -1.533  -0.862  0.00  0.00    +0.148 C 
ATOM      5  C   UNL     1       3.538  -0.242  -0.490  0.00  0.00    +0.173 C 
ATOM      6  C   UNL     1       2.606   0.978  -0.507  0.00  0.00    +0.161 C 
ATOM      7  C   UNL     1       1.362   0.724   0.325  0.00  0.00    +0.022 C 
ATOM      8  C   UNL     1       0.999   1.581   1.293  0.00  0.00    +0.074 C 
BRANCH   4   9
ATOM      9  O   UNL     1       3.683  -2.638  -0.749  0.00  0.00    -0.351 OA
ATOM     10  C   UNL     1       4.832  -2.465  -1.565  0.00  0.00    +0.174 C 
ENDBRANCH   4   9
BRANCH   5  11
ATOM     11  O   UNL     1       4.109  -0.381   0.812  0.00  0.00    -0.348 OA
ATOM     12  C   UNL     1       4.859   0.768   1.171  0.00  0.00    +0.174 C 
ENDBRANCH   5  11
BRANCH   6  13
ATOM     13  O   UNL     1       2.228   1.245  -1.857  0.00  0.00    -0.378 OA
ATOM     14  H   UNL     1       3.023   1.408  -2.389  0.00  0.00    +0.211 HD
ENDBRANCH   6  13
BRANCH   8  16
ATOM     15  N   UNL     1       2.336   3.730   1.777  0.00  0.00    -0.191 NA
ATOM     16  C   UNL     1       1.737   2.761   1.556  0.00  0.00    +0.101 C 
ENDBRANCH   8  16
ENDBRANCH   1   2
BRANCH   1  18
ATOM     17  O   UNL     1      -1.933   0.404  -0.443  0.00  0.00    -0.326 OA
ATOM     18  C   UNL     1      -1.708  -0.835   0.225  0.00  0.00    +0.266 C 
ATOM     19  C   UNL     1      -2.798  -1.088   1.267  0.00  0.00    +0.196 C 
ATOM     20  C   UNL     1      -4.192  -0.996   0.647  0.00  0.00    +0.172 C 
ATOM     21  C   UNL     1      -4.341   0.272  -0.194  0.00  0.00    +0.169 C 
ATOM     22  C   UNL     1      -3.167   0.421  -1.165  0.00  0.00    +0.176 C 
BRANCH  19  23
ATOM     23  O   UNL     1      -2.605  -2.395   1.808  0.00  0.00    -0.378 OA
ATOM     24  H   UNL     1      -1.720  -2.455   2.201  0.00  0.00    +0.211 HD
ENDBRANCH  19  23
BRANCH  20  25
ATOM     25  O   UNL     1      -5.172  -0.955   1.685  0.00  0.00    -0.379 OA
ATOM     26  H   UNL     1      -5.096  -1.752   2.233  0.00  0.00    +0.211 HD
ENDBRANCH  20  25
BRANCH  21  27
ATOM     27  O   UNL     1      -5.558   0.206  -0.934  0.00  0.00    -0.379 OA
ATOM     28  H   UNL     1      -6.304   0.112  -0.321  0.00  0.00    +0.211 HD
ENDBRANCH  21  27
BRANCH  22  29
ATOM     29  C   UNL     1      -3.232   1.737  -1.933  0.00  0.00    +0.169 C 
BRANCH  29  30
ATOM     30  O   UNL     1      -2.114   1.810  -2.798  0.00  0.00    -0.379 OA
ATOM     31  H   UNL     1      -2.143   2.643  -3.294  0.00  0.00    +0.211 HD
ENDBRANCH  29  30
ENDBRANCH  22  29
ENDBRANCH   1  18
TORSDOF 11
