REMARK  Name = 108061
REMARK  9 active torsions:
REMARK  status: ('A' for Active; 'I' for Inactive)
REMARK    1  A    between atoms: C_1  and  N_18
REMARK    2  A    between atoms: C_5  and  N_8
REMARK    3  A    between atoms: N_8  and  N_9
REMARK    4  A    between atoms: N_9  and  C_12
REMARK    5  A    between atoms: C_13  and  N_17
REMARK    6  A    between atoms: N_18  and  C_19
REMARK    7  A    between atoms: N_18  and  C_21
REMARK    8  A    between atoms: C_21  and  C_22
REMARK    9  A    between atoms: C_22  and  O_23
REMARK                            x       y       z     vdW  Elec       q    Type
REMARK                         _______ _______ _______ _____ _____    ______ ____
ROOT
ATOM      1  C   UNL     1       3.159  -0.149  -0.294  0.00  0.00    +0.048 C 
ATOM      2  C   UNL     1       2.448  -1.340  -0.146  0.00  0.00    +0.012 C 
ATOM      3  C   UNL     1       1.111  -1.310   0.247  0.00  0.00    -0.004 C 
ATOM      4  C   UNL     1       2.533   1.072  -0.050  0.00  0.00    +0.016 C 
ATOM      5  C   UNL     1       0.484  -0.088   0.492  0.00  0.00    +0.085 C 
ATOM      6  C   UNL     1       1.195   1.103   0.344  0.00  0.00    +0.019 C 
ATOM      7  C   UNL     1       0.369  -2.597   0.401  0.00  0.00    +0.032 C 
ENDROOT
BRANCH   5   8
ATOM      8  N   UNL     1      -0.859  -0.037   0.888  0.00  0.00    -0.126 NA
BRANCH   8   9
ATOM      9  N   UNL     1      -1.600   0.035  -0.119  0.00  0.00    -0.102 NA
BRANCH   9  12
ATOM     10  S   UNL     1      -4.018   0.192  -1.162  0.00  0.00    -0.024 S 
ATOM     11  N   UNL     1      -3.462   0.075   1.360  0.00  0.00    -0.218 NA
ATOM     12  C   UNL     1      -2.932   0.091   0.161  0.00  0.00    +0.202 C 
ATOM     13  C   UNL     1      -5.323   0.216  -0.050  0.00  0.00    +0.194 C 
ATOM     14  C   UNL     1      -4.836   0.147   1.238  0.00  0.00    +0.132 C 
BRANCH  13  17
ATOM     15  O   UNL     1      -7.593   0.317   0.322  0.00  0.00    -0.126 OA
ATOM     16  O   UNL     1      -6.866   0.353  -1.754  0.00  0.00    -0.126 OA
ATOM     17  N   UNL     1      -6.642   0.298  -0.511  0.00  0.00    +0.066 N 
ENDBRANCH  13  17
ENDBRANCH   9  12
ENDBRANCH   8   9
ENDBRANCH   5   8
BRANCH   1  18
ATOM     18  N   UNL     1       4.513  -0.181  -0.691  0.00  0.00    -0.305 N 
BRANCH  18  19
ATOM     19  C   UNL     1       5.173  -1.445  -0.948  0.00  0.00    +0.091 C 
ATOM     20  C   UNL     1       5.642  -2.097   0.336  0.00  0.00    +0.023 C 
ENDBRANCH  18  19
BRANCH  18  21
ATOM     21  C   UNL     1       5.256   1.052  -0.860  0.00  0.00    +0.123 C 
BRANCH  21  22
ATOM     22  C   UNL     1       5.745   1.553   0.489  0.00  0.00    +0.158 C 
BRANCH  22  23
ATOM     23  O   UNL     1       6.503   2.742   0.306  0.00  0.00    -0.380 OA
ATOM     24  H   UNL     1       6.815   3.062   1.167  0.00  0.00    +0.211 HD
ENDBRANCH  22  23
ENDBRANCH  21  22
ENDBRANCH  18  21
ENDBRANCH   1  18
TORSDOF 9
