REMARK  Name = 10809528
REMARK  5 active torsions:
REMARK  status: ('A' for Active; 'I' for Inactive)
REMARK    1  A    between atoms: C_6  and  C_18
REMARK    2  A    between atoms: C_7  and  C_25
REMARK    3  A    between atoms: C_18  and  C_19
REMARK    4  A    between atoms: C_19  and  C_22
REMARK    5  A    between atoms: C_25  and  C_26
REMARK                            x       y       z     vdW  Elec       q    Type
REMARK                         _______ _______ _______ _____ _____    ______ ____
ROOT
ATOM      1  O   UNL     1      -1.423  -1.936  -2.478  0.00  0.00    -0.273 OA
ATOM      2  O   UNL     1       3.131  -1.847  -0.490  0.00  0.00    -0.269 OA
ATOM      3  N   UNL     1       1.263  -0.442  -0.583  0.00  0.00    -0.226 N 
ATOM      4  N   UNL     1      -1.153   0.202  -1.701  0.00  0.00    -0.297 N 
ATOM      5  N   UNL     1       1.491   1.864  -0.049  0.00  0.00    -0.393 NA
ATOM      6  C   UNL     1       0.362  -1.555  -0.909  0.00  0.00    +0.159 C 
ATOM      7  C   UNL     1      -0.712   1.063  -0.629  0.00  0.00    +0.144 C 
ATOM      8  C   UNL     1       0.770   0.845  -0.401  0.00  0.00    +0.184 C 
ATOM      9  C   UNL     1      -0.803  -1.126  -1.789  0.00  0.00    +0.241 C 
ATOM     10  C   UNL     1       2.621  -0.736  -0.384  0.00  0.00    +0.257 C 
ATOM     11  C   UNL     1       3.466   0.416  -0.004  0.00  0.00    +0.080 C 
ATOM     12  C   UNL     1       2.864   1.667   0.151  0.00  0.00    +0.119 C 
ATOM     13  C   UNL     1       4.841   0.253   0.201  0.00  0.00    +0.006 C 
ATOM     14  C   UNL     1       3.659   2.759   0.517  0.00  0.00    +0.085 C 
ATOM     15  C   UNL     1       5.620   1.350   0.564  0.00  0.00    -0.004 C 
ATOM     16  C   UNL     1       5.030   2.602   0.722  0.00  0.00    -0.019 C 
ATOM     17  H   UNL     1      -1.731   0.583  -2.401  0.00  0.00    +0.150 HD
ENDROOT
BRANCH   6  18
ATOM     18  C   UNL     1      -0.076  -2.339   0.323  0.00  0.00    +0.039 C 
BRANCH  18  19
ATOM     19  C   UNL     1      -0.784  -3.632  -0.064  0.00  0.00    +0.087 C 
BRANCH  19  22
ATOM     20  O   UNL     1      -1.000  -4.094   2.307  0.00  0.00    -0.275 OA
ATOM     21  N   UNL     1      -1.845  -5.610   0.800  0.00  0.00    -0.329 N 
ATOM     22  C   UNL     1      -1.205  -4.440   1.148  0.00  0.00    +0.219 C 
ATOM     23  H   UNL     1      -2.167  -6.222   1.500  0.00  0.00    +0.145 HD
ATOM     24  H   UNL     1      -1.980  -5.834  -0.150  0.00  0.00    +0.145 HD
ENDBRANCH  19  22
ENDBRANCH  18  19
ENDBRANCH   6  18
BRANCH   7  25
ATOM     25  C   UNL     1      -1.556   0.944   0.628  0.00  0.00    +0.055 C 
BRANCH  25  26
ATOM     26  C   UNL     1      -2.880   1.650   0.485  0.00  0.00    -0.020 C 
ATOM     27  C   UNL     1      -2.984   2.985   0.849  0.00  0.00    -0.004 C 
ATOM     28  C   UNL     1      -3.974   0.955  -0.009  0.00  0.00    -0.004 C 
ATOM     29  C   UNL     1      -4.209   3.639   0.716  0.00  0.00    -0.000 C 
ATOM     30  C   UNL     1      -5.199   1.609  -0.142  0.00  0.00    -0.000 C 
ATOM     31  C   UNL     1      -5.317   2.951   0.221  0.00  0.00    -0.000 C 
ENDBRANCH  25  26
ENDBRANCH   7  25
TORSDOF 5
