108099
  -OEChem-03292013323D

 40 40  0     1  0  0  0  0  0999 V2000
   -3.3053    1.5000   -0.1123 P   0  0  0  0  0  0  0  0  0  0  0  0
   -2.3759    2.7745   -0.4345 O   0  0  0  0  0  0  0  0  0  0  0  0
   -4.2741    2.0128    1.0668 O   0  0  0  0  0  0  0  0  0  0  0  0
   -3.9721    0.8608   -1.2795 O   0  0  0  0  0  0  0  0  0  0  0  0
    2.4603    2.5585   -1.0765 O   0  0  0  0  0  0  0  0  0  0  0  0
    4.2830    2.0980    0.1932 O   0  0  0  0  0  0  0  0  0  0  0  0
    3.1707    0.0194    1.4329 N   0  0  0  0  0  0  0  0  0  0  0  0
   -0.1032   -1.0548    0.6849 C   0  0  2  0  0  0  0  0  0  0  0  0
    1.1499   -1.4990   -0.1091 C   0  0  1  0  0  0  0  0  0  0  0  0
   -0.8694   -2.2883    1.1949 C   0  0  0  0  0  0  0  0  0  0  0  0
    0.8028   -2.4915   -1.2297 C   0  0  0  0  0  0  0  0  0  0  0  0
   -1.2131   -3.2767    0.0826 C   0  0  0  0  0  0  0  0  0  0  0  0
    0.0269   -3.6946   -0.6998 C   0  0  0  0  0  0  0  0  0  0  0  0
   -1.0343   -0.1196   -0.0962 C   0  0  0  0  0  0  0  0  0  0  0  0
    1.9508   -0.3213   -0.6665 C   0  0  0  0  0  0  0  0  0  0  0  0
   -2.1705    0.4021    0.7654 C   0  0  0  0  0  0  0  0  0  0  0  0
    2.3426    0.6767    0.4221 C   0  0  2  0  0  0  0  0  0  0  0  0
    3.1311    1.8431   -0.1387 C   0  0  0  0  0  0  0  0  0  0  0  0
    0.2266   -0.5209    1.5851 H   0  0  0  0  0  0  0  0  0  0  0  0
    1.7959   -2.0481    0.5910 H   0  0  0  0  0  0  0  0  0  0  0  0
   -1.7679   -2.0316    1.7604 H   0  0  0  0  0  0  0  0  0  0  0  0
   -0.2247   -2.8085    1.9175 H   0  0  0  0  0  0  0  0  0  0  0  0
    1.7221   -2.8458   -1.7117 H   0  0  0  0  0  0  0  0  0  0  0  0
    0.2136   -1.9932   -2.0092 H   0  0  0  0  0  0  0  0  0  0  0  0
   -1.9514   -2.8375   -0.5979 H   0  0  0  0  0  0  0  0  0  0  0  0
   -1.6816   -4.1664    0.5192 H   0  0  0  0  0  0  0  0  0  0  0  0
    0.6814   -4.2903   -0.0514 H   0  0  0  0  0  0  0  0  0  0  0  0
   -0.2649   -4.3416   -1.5348 H   0  0  0  0  0  0  0  0  0  0  0  0
   -1.4481   -0.6143   -0.9812 H   0  0  0  0  0  0  0  0  0  0  0  0
   -0.4864    0.7502   -0.4711 H   0  0  0  0  0  0  0  0  0  0  0  0
    1.3922    0.1830   -1.4642 H   0  0  0  0  0  0  0  0  0  0  0  0
    2.8584   -0.7017   -1.1566 H   0  0  0  0  0  0  0  0  0  0  0  0
   -2.8026   -0.4080    1.1361 H   0  0  0  0  0  0  0  0  0  0  0  0
   -1.7712    0.9370    1.6343 H   0  0  0  0  0  0  0  0  0  0  0  0
    1.4712    1.1156    0.9168 H   0  0  0  0  0  0  0  0  0  0  0  0
    3.4604    0.6951    2.1386 H   0  0  0  0  0  0  0  0  0  0  0  0
    4.0233   -0.3418    1.0069 H   0  0  0  0  0  0  0  0  0  0  0  0
   -2.7528    3.5252   -0.9410 H   0  0  0  0  0  0  0  0  0  0  0  0
   -5.0144    2.6178    0.8480 H   0  0  0  0  0  0  0  0  0  0  0  0
    3.0032    3.2931   -1.4340 H   0  0  0  0  0  0  0  0  0  0  0  0
  1  2  1  0  0  0  0
  1  3  1  0  0  0  0
  1  4  2  0  0  0  0
  1 16  1  0  0  0  0
  2 38  1  0  0  0  0
  3 39  1  0  0  0  0
  5 18  1  0  0  0  0
  5 40  1  0  0  0  0
  6 18  2  0  0  0  0
  7 17  1  0  0  0  0
  7 36  1  0  0  0  0
  7 37  1  0  0  0  0
  8  9  1  0  0  0  0
  8 10  1  0  0  0  0
  8 14  1  0  0  0  0
  8 19  1  0  0  0  0
  9 11  1  0  0  0  0
  9 15  1  0  0  0  0
  9 20  1  0  0  0  0
 10 12  1  0  0  0  0
 10 21  1  0  0  0  0
 10 22  1  0  0  0  0
 11 13  1  0  0  0  0
 11 23  1  0  0  0  0
 11 24  1  0  0  0  0
 12 13  1  0  0  0  0
 12 25  1  0  0  0  0
 12 26  1  0  0  0  0
 13 27  1  0  0  0  0
 13 28  1  0  0  0  0
 14 16  1  0  0  0  0
 14 29  1  0  0  0  0
 14 30  1  0  0  0  0
 15 17  1  0  0  0  0
 15 31  1  0  0  0  0
 15 32  1  0  0  0  0
 16 33  1  0  0  0  0
 16 34  1  0  0  0  0
 17 18  1  0  0  0  0
 17 35  1  0  0  0  0
M  END
> <PUBCHEM_COMPOUND_CID>
108099

> <PUBCHEM_CONFORMER_RMSD>
0.8

> <PUBCHEM_CONFORMER_DIVERSEORDER>
1
79
14
36
71
64
8
69
5
49
21
35
66
2
80
15
84
42
43
17
18
60
63
58
67
76
82
25
78
55
75
59
9
32
81
62
24
83
13
31
4
52
22
61
33
65
72
34
40
74
23
44
3
29
39
28
41
27
11
16
77
57
30
37
50
10
45
68
51
73
20
19
26
54
12
53
6
47
38
7
70
48
46
56

> <PUBCHEM_MMFF94_PARTIAL_CHARGES>
14
1 1.24
17 0.33
18 0.66
2 -0.77
3 -0.77
36 0.36
37 0.36
38 0.5
39 0.5
4 -0.7
40 0.5
5 -0.65
6 -0.57
7 -0.99

> <PUBCHEM_EFFECTIVE_ROTOR_COUNT>
7.2

> <PUBCHEM_PHARMACOPHORE_FEATURES>
10
1 2 acceptor
1 3 acceptor
1 4 acceptor
1 5 acceptor
1 6 acceptor
1 7 cation
1 7 donor
3 5 6 18 anion
4 1 2 3 4 anion
6 8 9 10 11 12 13 rings

> <PUBCHEM_HEAVY_ATOM_COUNT>
18

> <PUBCHEM_ATOM_DEF_STEREO_COUNT>
0

> <PUBCHEM_ATOM_UDEF_STEREO_COUNT>
3

> <PUBCHEM_BOND_DEF_STEREO_COUNT>
0

> <PUBCHEM_BOND_UDEF_STEREO_COUNT>
0

> <PUBCHEM_ISOTOPIC_ATOM_COUNT>
0

> <PUBCHEM_COMPONENT_COUNT>
1

> <PUBCHEM_CACTVS_TAUTO_COUNT>
1

> <PUBCHEM_CONFORMER_ID>
0001A64300000001

> <PUBCHEM_MMFF94_ENERGY>
-6.9098

> <PUBCHEM_FEATURE_SELFOVERLAP>
50.841

> <PUBCHEM_SHAPE_FINGERPRINT>
10871710 139 17397000418236737420
12788726 201 17976245056698801570
13134695 92 17687746043232862519
13583140 156 17312816100149902385
14250199 8 18051975823180284549
14614273 12 17841730787203513542
17134986 127 18411143502284110406
1741750 31 18340487871602883200
18186145 218 18269841921619399371
21339142 126 17836651090759418702
21524375 3 18410001143914779611
2255824 54 18054510205887756455
22907989 373 17979073017848016613
23558518 356 18262800808307009810
23598291 2 18114729547555881362
238 59 18266743485152287943
2748010 2 18267608907766378694
3060560 45 18197778795521611550
474 4 18339923701931458273
58051976 378 18339632344567354367
6333272 397 18334857212453769857
633830 44 18201163135572691669
7164475 11 18123740113817510494
7364860 26 17981039709274676547
81228 2 17907308988977754339
84936 182 18129941157101921609
90316 7 17692252258679705218

> <PUBCHEM_SHAPE_MULTIPOLES>
339.95
6.37
4.36
1.18
1.17
2.41
0.04
-8
0.29
0.49
-0.86
0.08
0.17
0.14

> <PUBCHEM_SHAPE_SELFOVERLAP>
655.327

> <PUBCHEM_SHAPE_VOLUME>
206.7

> <PUBCHEM_COORDINATE_TYPE>
2
5
10

$$$$
