REMARK  Name = 108073
REMARK  9 active torsions:
REMARK  status: ('A' for Active; 'I' for Inactive)
REMARK    1  A    between atoms: C_1  and  N_3
REMARK    2  A    between atoms: C_1  and  C_8
REMARK    3  A    between atoms: C_1  and  C_11
REMARK    4  A    between atoms: C_8  and  O_9
REMARK    5  A    between atoms: C_11  and  S_12
REMARK    6  A    between atoms: S_12  and  C_13
REMARK    7  A    between atoms: C_13  and  C_14
REMARK    8  A    between atoms: C_14  and  C_16
REMARK    9  A    between atoms: C_16  and  O_17
REMARK                            x       y       z     vdW  Elec       q    Type
REMARK                         _______ _______ _______ _____ _____    ______ ____
ROOT
ATOM      1  C   UNK A   1      -1.927  -0.486  -0.535  0.00  0.00    +0.182 C 
ENDROOT
BRANCH   1   3
ATOM      2  O   UNK A   0      -3.228   2.027  -1.184  0.00  0.00    -0.275 OA
ATOM      3  N   UNK A   1      -2.503   0.464   0.383  0.00  0.00    -0.296 N 
ATOM      4  C   UNK A   0      -3.107   1.644  -0.023  0.00  0.00    +0.223 C 
ATOM      5  C   UNK A   0      -3.646   2.440   1.136  0.00  0.00    +0.095 C 
ATOM      6  H   UNK A   1      -2.466   0.265   1.346  0.00  0.00    +0.150 HD
ENDBRANCH   1   3
BRANCH   1   8
ATOM      7  O   UNK A   1      -1.804  -2.900  -0.725  0.00  0.00    -0.248 OA
ATOM      8  C   UNK A   1      -2.118  -1.918  -0.064  0.00  0.00    +0.333 C 
BRANCH   8   9
ATOM      9  O   UNK A   1      -2.687  -2.007   1.163  0.00  0.00    -0.479 OA
ATOM     10  H   UNK A   1      -2.910  -1.228   1.633  0.00  0.00    +0.295 HD
ENDBRANCH   8   9
ENDBRANCH   1   8
BRANCH   1  11
ATOM     11  C   UNK A   1      -0.463  -0.166  -0.847  0.00  0.00    +0.089 C 
BRANCH  11  12
ATOM     12  S   UNK A   1       0.655  -0.375   0.578  0.00  0.00    -0.137 S 
BRANCH  12  13
ATOM     13  C   UNK A   1       2.204   0.044  -0.250  0.00  0.00    +0.069 C 
BRANCH  13  14
ATOM     14  C   UNK A   1       3.397  -0.033   0.694  0.00  0.00    +0.121 C 
BRANCH  14  16
ATOM     15  O   UNK A   1       4.770   0.664  -1.168  0.00  0.00    -0.250 OA
ATOM     16  C   UNK A   1       4.691   0.341   0.011  0.00  0.00    +0.315 C 
BRANCH  16  17
ATOM     17  O   UNK A   1       5.766   0.261   0.833  0.00  0.00    -0.480 OA
ATOM     18  H   UNK A   1       5.654   0.009   1.728  0.00  0.00    +0.295 HD
ENDBRANCH  16  17
ENDBRANCH  14  16
ENDBRANCH  13  14
ENDBRANCH  12  13
ENDBRANCH  11  12
ENDBRANCH   1  11
TORSDOF 9
