REMARK  Name = 108086
REMARK  8 active torsions:
REMARK  status: ('A' for Active; 'I' for Inactive)
REMARK    1  A    between atoms: C_2  and  C_24
REMARK    2  A    between atoms: C_3  and  C_10
REMARK    3  A    between atoms: CA_4  and  C_21
REMARK    4  A    between atoms: CA_14  and  C_17
REMARK    5  A    between atoms: C_17  and  O_18
REMARK    6  A    between atoms: C_21  and  O_22
REMARK    7  A    between atoms: C_24  and  C_26
REMARK    8  A    between atoms: C_26  and  O_27
REMARK                            x       y       z     vdW  Elec       q    Type
REMARK                         _______ _______ _______ _____ _____    ______ ____
ROOT
ATOM      1  N   UNL     1       2.518  -2.020  -0.813  0.00  0.00    +0.392 N 
ATOM      2  C   UNL     1       1.591  -0.031   0.183  0.00  0.00    +0.004 C 
ATOM      3  C   UNL     1       0.574  -1.191   0.154  0.00  0.00    +0.005 C 
ATOM      4  CA  UNL     1       2.858  -0.646  -0.439  0.00  0.00    +0.040 C 
ATOM      5  C   UNL     1       1.070  -2.048  -1.004  0.00  0.00    -0.076 C 
ATOM      6  H1  UNL     1       2.788  -2.665  -0.070  0.00  0.00    -0.084 HD
ATOM      7  H2  UNL     1       3.008  -2.306  -1.660  0.00  0.00    -0.084 HD
ENDROOT
BRANCH   3  10
ATOM      8  O   UNL     1      -0.781   0.377   2.104  0.00  0.00    -0.270 OA
ATOM      9  N   UNL     1      -2.807   0.323   1.010  0.00  0.00    -0.276 N 
ATOM     10  C   UNL     1      -0.869  -0.826   0.049  0.00  0.00    +0.029 C 
ATOM     11  C   UNL     1      -1.463   0.009   1.151  0.00  0.00    +0.246 C 
ATOM     12  C   UNL     1      -1.659  -1.201  -0.972  0.00  0.00    +0.002 C 
ATOM     13  C   UNL     1      -3.051  -0.827  -1.036  0.00  0.00    +0.021 C 
ATOM     14  CA  UNL     1      -3.572  -0.085  -0.052  0.00  0.00    +0.127 C 
ATOM     15  H   UNL     1      -3.233   0.868   1.710  0.00  0.00    +0.155 HD
BRANCH  14  17
ATOM     16  OXT UNL     1      -5.753   0.000  -0.994  0.00  0.00    -0.244 OA
ATOM     17  C   UNL     1      -4.980   0.304  -0.101  0.00  0.00    +0.352 C 
BRANCH  17  18
ATOM     18  O   UNL     1      -5.287   1.045   0.986  0.00  0.00    -0.476 OA
ATOM     19  H   UNL     1      -4.628   1.232   1.626  0.00  0.00    +0.295 HD
ENDBRANCH  17  18
ENDBRANCH  14  17
ENDBRANCH   3  10
BRANCH   4  21
ATOM     20  OXT UNL     1       4.144  -1.661   1.332  0.00  0.00    -0.253 OA
ATOM     21  C   UNL     1       3.978  -0.742   0.544  0.00  0.00    +0.293 C 
BRANCH  21  22
ATOM     22  O   UNL     1       4.793   0.337   0.448  0.00  0.00    -0.482 OA
ATOM     23  H   UNL     1       4.609   1.009  -0.179  0.00  0.00    +0.295 HD
ENDBRANCH  21  22
ENDBRANCH   4  21
BRANCH   2  24
ATOM     24  C   UNL     1       1.168   1.212  -0.606  0.00  0.00    +0.108 C 
BRANCH  24  26
ATOM     25  O   UNL     1       2.664   2.830   0.437  0.00  0.00    -0.250 OA
ATOM     26  C   UNL     1       2.224   2.280  -0.561  0.00  0.00    +0.314 C 
BRANCH  26  27
ATOM     27  O   UNL     1       2.640   2.561  -1.823  0.00  0.00    -0.480 OA
ATOM     28  H   UNL     1       2.266   2.106  -2.552  0.00  0.00    +0.295 HD
ENDBRANCH  26  27
ENDBRANCH  24  26
ENDBRANCH   2  24
TORSDOF 8
