REMARK  Name = 108041
REMARK  5 active torsions:
REMARK  status: ('A' for Active; 'I' for Inactive)
REMARK    1  A    between atoms: O_1  and  C_6
REMARK    2  A    between atoms: O_1  and  C_19
REMARK    3  A    between atoms: C_9  and  C_14
REMARK    4  A    between atoms: C_19  and  C_21
REMARK    5  A    between atoms: C_20  and  N_27
REMARK                            x       y       z     vdW  Elec       q    Type
REMARK                         _______ _______ _______ _____ _____    ______ ____
ROOT
ATOM      1  O   UNL     1      -0.272   0.782   0.505  0.00  0.00    -0.421 OA
ENDROOT
BRANCH   1   6
ATOM      2  C   UNL     1      -3.770  -0.336   0.545  0.00  0.00    +0.003 C 
ATOM      3  C   UNL     1      -4.372   0.669  -0.249  0.00  0.00    +0.000 C 
ATOM      4  C   UNL     1      -2.388  -0.284   0.789  0.00  0.00    +0.038 C 
ATOM      5  C   UNL     1      -5.754   0.617  -0.493  0.00  0.00    +0.003 C 
ATOM      6  C   UNL     1      -1.610   0.745   0.257  0.00  0.00    +0.149 C 
ATOM      7  C   UNL     1      -3.573   1.697  -0.776  0.00  0.00    +0.003 C 
ATOM      8  C   UNL     1      -4.569  -1.364   1.071  0.00  0.00    +0.000 C 
ATOM      9  C   UNL     1      -6.532  -0.412   0.038  0.00  0.00    +0.031 C 
ATOM     10  C   UNL     1      -2.201   1.734  -0.524  0.00  0.00    +0.038 C 
ATOM     11  C   UNL     1      -5.940  -1.400   0.819  0.00  0.00    +0.003 C 
BRANCH   9  14
ATOM     12  N   UNL     1      -8.766  -1.466   0.293  0.00  0.00    -0.343 N 
ATOM     13  N   UNL     1      -8.521   0.486  -0.969  0.00  0.00    -0.285 NA
ATOM     14  C   UNL     1      -7.962  -0.452  -0.224  0.00  0.00    +0.117 C 
ATOM     15  H   UNL     1      -9.732  -1.474   0.103  0.00  0.00    +0.144 HD
ATOM     16  H   UNL     1      -8.368  -2.175   0.848  0.00  0.00    +0.144 HD
ATOM     17  H   UNL     1      -9.488   0.461  -1.148  0.00  0.00    +0.188 HD
ENDBRANCH   9  14
ENDBRANCH   1   6
BRANCH   1  19
ATOM     18  O   UNL     1       0.080  -0.507  -1.406  0.00  0.00    -0.244 OA
ATOM     19  C   UNL     1       0.505   0.100  -0.434  0.00  0.00    +0.346 C 
BRANCH  19  21
ATOM     20  C   UNL     1       4.631   0.340   0.531  0.00  0.00    +0.050 C 
ATOM     21  C   UNL     1       1.949   0.184  -0.097  0.00  0.00    +0.076 C 
ATOM     22  C   UNL     1       4.135  -0.781  -0.133  0.00  0.00    +0.015 C 
ATOM     23  C   UNL     1       3.772   1.383   0.877  0.00  0.00    +0.015 C 
ATOM     24  C   UNL     1       2.779  -0.860  -0.451  0.00  0.00    +0.008 C 
ATOM     25  C   UNL     1       2.416   1.304   0.560  0.00  0.00    +0.008 C 
BRANCH  20  27
ATOM     26  N   UNL     1       8.284   0.093   0.687  0.00  0.00    -0.284 N 
ATOM     27  N   UNL     1       6.002   0.420   0.852  0.00  0.00    -0.286 N 
ATOM     28  N   UNL     1       6.972  -0.845  -0.909  0.00  0.00    -0.214 NA
ATOM     29  C   UNL     1       9.272  -0.542  -0.130  0.00  0.00    +0.085 C 
ATOM     30  C   UNL     1       8.396  -1.184  -1.213  0.00  0.00    +0.117 C 
ATOM     31  C   UNL     1       7.036  -0.123   0.184  0.00  0.00    +0.189 C 
ATOM     32  H   UNL     1       8.478   0.614   1.500  0.00  0.00    +0.155 HD
ATOM     33  H   UNL     1       6.230   0.935   1.660  0.00  0.00    +0.155 HD
ENDBRANCH  20  27
ENDBRANCH  19  21
ENDBRANCH   1  19
TORSDOF 5
