REMARK  Name = 108074
REMARK  4 active torsions:
REMARK  status: ('A' for Active; 'I' for Inactive)
REMARK    1  A    between atoms: C_2  and  N_16
REMARK    2  A    between atoms: C_4  and  C_20
REMARK    3  A    between atoms: C_5  and  N_8
REMARK    4  A    between atoms: C_20  and  O_21
REMARK                            x       y       z     vdW  Elec       q    Type
REMARK                         _______ _______ _______ _____ _____    ______ ____
ROOT
ATOM      1  O   UNL     1      -1.602  -0.179   1.002  0.00  0.00    -0.339 OA
ATOM      2  C   UNL     1      -3.054   0.573  -0.729  0.00  0.00    -0.031 C 
ATOM      3  C   UNL     1      -1.655   1.087  -1.009  0.00  0.00    +0.032 C 
ATOM      4  C   UNL     1      -2.785  -0.553   0.270  0.00  0.00    +0.127 C 
ATOM      5  C   UNL     1      -0.950   0.905   0.325  0.00  0.00    +0.197 C 
ENDROOT
BRANCH   5   8
ATOM      6  O   UNL     1       1.153   2.825   0.364  0.00  0.00    -0.252 OA
ATOM      7  O   UNL     1       4.356  -0.422  -0.228  0.00  0.00    -0.270 OA
ATOM      8  N   UNL     1       0.446   0.607   0.184  0.00  0.00    -0.219 N 
ATOM      9  N   UNL     1       2.740   1.195   0.068  0.00  0.00    -0.236 N 
ATOM     10  C   UNL     1       0.827  -0.718   0.014  0.00  0.00    +0.071 C 
ATOM     11  C   UNL     1       1.418   1.630   0.216  0.00  0.00    +0.315 C 
ATOM     12  C   UNL     1       2.093  -1.130  -0.128  0.00  0.00    +0.047 C 
ATOM     13  C   UNL     1       3.175  -0.110  -0.104  0.00  0.00    +0.250 C 
ATOM     14  C   UNL     1       2.481  -2.562  -0.310  0.00  0.00    +0.037 C 
ATOM     15  H   UNL     1       3.436   1.891   0.087  0.00  0.00    +0.159 HD
ENDBRANCH   5   8
BRANCH   2  16
ATOM     16  N   UNL     1      -3.879   1.611  -0.105  0.00  0.00    +0.384 N 
ATOM     17  H   UNL     1      -4.053   2.357  -0.778  0.00  0.00    -0.089 HD
ATOM     18  H   UNL     1      -3.391   1.991   0.706  0.00  0.00    -0.089 HD
ATOM     19  H   UNL     1      -4.767   1.206   0.192  0.00  0.00    -0.089 HD
ENDBRANCH   2  16
BRANCH   4  20
ATOM     20  C   UNL     1      -2.507  -1.889  -0.413  0.00  0.00    +0.164 C 
BRANCH  20  21
ATOM     21  O   UNL     1      -2.259  -2.869   0.582  0.00  0.00    -0.380 OA
ATOM     22  H   UNL     1      -2.081  -3.723   0.158  0.00  0.00    +0.211 HD
ENDBRANCH  20  21
ENDBRANCH   4  20
TORSDOF 4
