REMARK  Name = 10808623
REMARK  10 active torsions:
REMARK  status: ('A' for Active; 'I' for Inactive)
REMARK    1  A    between atoms: C_2  and  O_13
REMARK    2  A    between atoms: C_3  and  O_7
REMARK    3  A    between atoms: C_4  and  C_20
REMARK    4  A    between atoms: C_5  and  O_9
REMARK    5  A    between atoms: C_6  and  O_11
REMARK    6  A    between atoms: O_13  and  C_15
REMARK    7  A    between atoms: C_15  and  C_16
REMARK    8  A    between atoms: C_20  and  O_21
REMARK    9  A    between atoms: O_21  and  C_23
REMARK   10  A    between atoms: C_23  and  C_24
REMARK                            x       y       z     vdW  Elec       q    Type
REMARK                         _______ _______ _______ _____ _____    ______ ____
ROOT
ATOM      1  O   UNL     1      -0.843   0.855   0.660  0.00  0.00    -0.325 OA
ATOM      2  C   UNL     1       1.709   0.019  -0.365  0.00  0.00    +0.229 C 
ATOM      3  C   UNL     1       0.544  -0.962  -0.212  0.00  0.00    +0.184 C 
ATOM      4  C   UNL     1      -0.791  -0.210  -0.293  0.00  0.00    +0.192 C 
ATOM      5  C   UNL     1       1.568   1.186   0.613  0.00  0.00    +0.210 C 
ATOM      6  C   UNL     1       0.189   1.834   0.500  0.00  0.00    +0.267 C 
ENDROOT
BRANCH   3   7
ATOM      7  O   UNL     1       0.594  -1.929  -1.257  0.00  0.00    -0.378 OA
ATOM      8  H   UNL     1       1.435  -2.409  -1.214  0.00  0.00    +0.211 HD
ENDBRANCH   3   7
BRANCH   5   9
ATOM      9  O   UNL     1       1.718   0.719   1.955  0.00  0.00    -0.377 OA
ATOM     10  H   UNL     1       2.588   0.301   2.057  0.00  0.00    +0.211 HD
ENDBRANCH   5   9
BRANCH   6  11
ATOM     11  O   UNL     1       0.087   2.534  -0.736  0.00  0.00    -0.326 OA
ATOM     12  C   UNL     1      -1.184   3.152  -0.879  0.00  0.00    +0.177 C 
ENDBRANCH   6  11
BRANCH   2  13
ATOM     13  O   UNL     1       2.948  -0.640  -0.118  0.00  0.00    -0.447 OA
BRANCH  13  15
ATOM     14  O   UNL     1       4.075   1.321  -0.543  0.00  0.00    -0.250 OA
ATOM     15  C   UNL     1       4.072   0.133  -0.242  0.00  0.00    +0.316 C 
BRANCH  15  16
ATOM     16  C   UNL     1       5.331  -0.691   0.047  0.00  0.00    +0.090 C 
ATOM     17  C   UNL     1       5.280  -1.219   1.487  0.00  0.00    +0.011 C 
ATOM     18  C   UNL     1       6.574   0.199  -0.115  0.00  0.00    +0.011 C 
ATOM     19  C   UNL     1       5.420  -1.856  -0.948  0.00  0.00    +0.011 C 
ENDBRANCH  15  16
ENDBRANCH  13  15
ENDBRANCH   2  13
BRANCH   4  20
ATOM     20  C   UNL     1      -1.971  -1.134  -0.008  0.00  0.00    +0.240 C 
BRANCH  20  21
ATOM     21  O   UNL     1      -3.165  -0.378  -0.088  0.00  0.00    -0.446 OA
BRANCH  21  23
ATOM     22  O   UNL     1      -4.399  -2.255   0.409  0.00  0.00    -0.250 OA
ATOM     23  C   UNL     1      -4.334  -1.060   0.143  0.00  0.00    +0.316 C 
BRANCH  23  24
ATOM     24  C   UNL     1      -5.547  -0.132   0.026  0.00  0.00    +0.090 C 
ATOM     25  C   UNL     1      -5.443   0.983   1.075  0.00  0.00    +0.011 C 
ATOM     26  C   UNL     1      -5.599   0.466  -1.387  0.00  0.00    +0.011 C 
ATOM     27  C   UNL     1      -6.834  -0.934   0.277  0.00  0.00    +0.011 C 
ENDBRANCH  23  24
ENDBRANCH  21  23
ENDBRANCH  20  21
ENDBRANCH   4  20
TORSDOF 10
