REMARK  Name = 10807972
REMARK  8 active torsions:
REMARK  status: ('A' for Active; 'I' for Inactive)
REMARK    1  A    between atoms: C_1  and  N_2
REMARK    2  A    between atoms: C_1  and  C_6
REMARK    3  A    between atoms: C_1  and  C_14
REMARK    4  A    between atoms: C_1  and  C_17
REMARK    5  A    between atoms: C_7  and  C_10
REMARK    6  A    between atoms: C_10  and  O_11
REMARK    7  A    between atoms: C_14  and  O_15
REMARK    8  A    between atoms: C_17  and  C_19
REMARK                            x       y       z     vdW  Elec       q    Type
REMARK                         _______ _______ _______ _____ _____    ______ ____
ROOT
ATOM      1  C   UNL     1       1.029  -0.620   0.379  0.00  0.00    +0.047 C 
ENDROOT
BRANCH   1   2
ATOM      2  N   UNL     1       0.235  -1.633   1.081  0.00  0.00    +0.390 N 
ATOM      3  H   UNL     1       0.370  -2.540   0.635  0.00  0.00    -0.088 HD
ATOM      4  H   UNL     1      -0.752  -1.378   1.041  0.00  0.00    -0.088 HD
ATOM      5  H   UNL     1       0.534  -1.685   2.055  0.00  0.00    -0.088 HD
ENDBRANCH   1   2
BRANCH   1   6
ATOM      6  C   UNL     1       2.486  -1.033   0.494  0.00  0.00    +0.003 C 
ATOM      7  C   UNL     1       3.438  -0.523  -0.524  0.00  0.00    +0.097 C 
ATOM      8  C   UNL     1       3.027  -1.966  -0.525  0.00  0.00    +0.010 C 
BRANCH   7  10
ATOM      9  O   UNL     1       5.799  -0.665  -0.572  0.00  0.00    -0.250 OA
ATOM     10  C   UNL     1       4.796  -0.166  -0.084  0.00  0.00    +0.313 C 
BRANCH  10  11
ATOM     11  O   UNL     1       4.792   0.761   0.903  0.00  0.00    -0.480 OA
ATOM     12  H   UNL     1       3.979   1.098   1.227  0.00  0.00    +0.295 HD
ENDBRANCH  10  11
ENDBRANCH   7  10
ENDBRANCH   1   6
BRANCH   1  14
ATOM     13  O   UNL     1       0.025   0.890   2.016  0.00  0.00    -0.253 OA
ATOM     14  C   UNL     1       0.798   0.726   1.079  0.00  0.00    +0.295 C 
BRANCH  14  15
ATOM     15  O   UNL     1       1.553   1.742   0.586  0.00  0.00    -0.482 OA
ATOM     16  H   UNL     1       2.136   1.588  -0.131  0.00  0.00    +0.295 HD
ENDBRANCH  14  15
ENDBRANCH   1  14
BRANCH   1  17
ATOM     17  C   UNL     1       0.603  -0.479  -1.099  0.00  0.00    +0.017 C 
BRANCH  17  19
ATOM     18  O   UNL     1      -3.270   0.539   0.214  0.00  0.00    -0.454 OA
ATOM     19  C   UNL     1      -0.876  -0.138  -1.320  0.00  0.00    -0.021 C 
ATOM     20  C   UNL     1      -1.760  -1.169  -0.658  0.00  0.00    +0.030 C 
ATOM     21  C   UNL     1      -1.178   1.255  -0.819  0.00  0.00    +0.013 C 
ATOM     22  C   UNL     1      -2.903  -0.775   0.047  0.00  0.00    +0.145 C 
ATOM     23  C   UNL     1      -2.353   1.512  -0.105  0.00  0.00    +0.141 C 
ATOM     24  C   UNL     1      -1.459  -2.536  -0.752  0.00  0.00    +0.003 C 
ATOM     25  C   UNL     1      -0.295   2.315  -1.075  0.00  0.00    +0.055 C 
ATOM     26  C   UNL     1      -3.743  -1.730   0.627  0.00  0.00    +0.037 C 
ATOM     27  C   UNL     1      -2.653   2.808   0.327  0.00  0.00    +0.037 C 
ATOM     28  C   UNL     1      -2.294  -3.488  -0.165  0.00  0.00    +0.000 C 
ATOM     29  C   UNL     1      -0.590   3.606  -0.637  0.00  0.00    -0.021 C 
ATOM     30  C   UNL     1      -3.437  -3.085   0.521  0.00  0.00    +0.003 C 
ATOM     31  C   UNL     1      -1.770   3.853   0.060  0.00  0.00    -0.001 C 
ENDBRANCH  17  19
ENDBRANCH   1  17
TORSDOF 8
