REMARK  Name = 10808610
REMARK  4 active torsions:
REMARK  status: ('A' for Active; 'I' for Inactive)
REMARK    1  A    between atoms: C_7  and  O_22
REMARK    2  A    between atoms: C_9  and  C_27
REMARK    3  A    between atoms: C_17  and  O_24
REMARK    4  A    between atoms: C_27  and  O_28
REMARK                            x       y       z     vdW  Elec       q    Type
REMARK                         _______ _______ _______ _____ _____    ______ ____
ROOT
ATOM      1  O   UNL     1       2.679  -2.357   0.149  0.00  0.00    -0.286 OA
ATOM      2  O   UNL     1       1.073   2.726  -0.199  0.00  0.00    -0.287 OA
ATOM      3  C   UNL     1       0.867  -0.863   0.013  0.00  0.00    +0.076 C 
ATOM      4  C   UNL     1       0.449   0.463  -0.078  0.00  0.00    +0.045 C 
ATOM      5  C   UNL     1      -1.880  -0.261  -0.088  0.00  0.00    +0.009 C 
ATOM      6  C   UNL     1      -1.456  -1.606   0.003  0.00  0.00    +0.034 C 
ATOM      7  C   UNL     1      -0.081  -1.894   0.052  0.00  0.00    +0.137 C 
ATOM      8  C   UNL     1      -0.918   0.763  -0.127  0.00  0.00    +0.004 C 
ATOM      9  C   UNL     1      -3.254   0.024  -0.138  0.00  0.00    +0.072 C 
ATOM     10  C   UNL     1       3.296  -0.099   0.022  0.00  0.00    +0.076 C 
ATOM     11  C   UNL     1       2.877   1.230  -0.070  0.00  0.00    +0.045 C 
ATOM     12  C   UNL     1       2.306  -1.194   0.067  0.00  0.00    +0.202 C 
ATOM     13  C   UNL     1       1.438   1.560  -0.122  0.00  0.00    +0.196 C 
ATOM     14  C   UNL     1      -4.197  -1.004  -0.099  0.00  0.00    -0.016 C 
ATOM     15  C   UNL     1      -2.418  -2.628   0.041  0.00  0.00    +0.003 C 
ATOM     16  C   UNL     1      -3.780  -2.328  -0.009  0.00  0.00    -0.004 C 
ATOM     17  C   UNL     1       4.662  -0.399   0.070  0.00  0.00    +0.137 C 
ATOM     18  C   UNL     1       3.825   2.259  -0.113  0.00  0.00    +0.003 C 
ATOM     19  C   UNL     1      -5.664  -0.719  -0.152  0.00  0.00    +0.031 C 
ATOM     20  C   UNL     1       5.604   0.630   0.028  0.00  0.00    +0.037 C 
ATOM     21  C   UNL     1       5.186   1.956  -0.064  0.00  0.00    +0.003 C 
ENDROOT
BRANCH   7  22
ATOM     22  O   UNL     1       0.306  -3.204   0.139  0.00  0.00    -0.505 OA
ATOM     23  H   UNL     1       1.216  -3.422   0.174  0.00  0.00    +0.292 HD
ENDBRANCH   7  22
BRANCH  17  24
ATOM     24  O   UNL     1       5.142  -1.672   0.162  0.00  0.00    -0.505 OA
ATOM     25  H   UNL     1       4.547  -2.395   0.194  0.00  0.00    +0.292 HD
ENDBRANCH  17  24
BRANCH   9  27
ATOM     26  O   UNL     1      -3.952   1.986  -1.299  0.00  0.00    -0.245 OA
ATOM     27  C   UNL     1      -3.744   1.399  -0.234  0.00  0.00    +0.341 C 
BRANCH  27  28
ATOM     28  O   UNL     1      -3.941   1.942   1.003  0.00  0.00    -0.441 OA
ATOM     29  C   UNL     1      -4.423   3.289   1.041  0.00  0.00    +0.256 C 
ENDBRANCH  27  28
ENDBRANCH   9  27
TORSDOF 4
