REMARK  Name = 108014
REMARK  5 active torsions:
REMARK  status: ('A' for Active; 'I' for Inactive)
REMARK    1  A    between atoms: C_5  and  O_23
REMARK    2  A    between atoms: C_9  and  O_25
REMARK    3  A    between atoms: C_11  and  O_27
REMARK    4  A    between atoms: C_19  and  O_29
REMARK    5  A    between atoms: C_20  and  O_31
REMARK                            x       y       z     vdW  Elec       q    Type
REMARK                         _______ _______ _______ _____ _____    ______ ____
ROOT
ATOM      1  O   UNL     1       4.843  -0.937  -0.805  0.00  0.00    -0.294 OA
ATOM      2  O   UNL     1       3.159  -1.903   0.579  0.00  0.00    -0.451 OA
ATOM      3  O   UNL     1      -1.281   2.521   0.106  0.00  0.00    -0.286 OA
ATOM      4  O   UNL     1      -1.854  -2.795   0.084  0.00  0.00    -0.286 OA
ATOM      5  C   UNL     1       3.574   0.500   0.643  0.00  0.00    +0.182 C 
ATOM      6  C   UNL     1       4.193  -0.894   0.478  0.00  0.00    +0.319 C 
ATOM      7  C   UNL     1       4.248   1.326  -0.433  0.00  0.00    +0.099 C 
ATOM      8  C   UNL     1       2.140   0.164   0.469  0.00  0.00    +0.076 C 
ATOM      9  C   UNL     1       4.617   0.300  -1.492  0.00  0.00    +0.238 C 
ATOM     10  C   UNL     1       1.982  -1.212   0.459  0.00  0.00    +0.143 C 
ATOM     11  C   UNL     1       1.044   1.002   0.355  0.00  0.00    +0.138 C 
ATOM     12  C   UNL     1      -0.228   0.425   0.227  0.00  0.00    +0.076 C 
ATOM     13  C   UNL     1       0.740  -1.808   0.342  0.00  0.00    +0.040 C 
ATOM     14  C   UNL     1      -0.378  -0.973   0.222  0.00  0.00    +0.048 C 
ATOM     15  C   UNL     1      -1.409   1.303   0.101  0.00  0.00    +0.202 C 
ATOM     16  C   UNL     1      -1.720  -1.578   0.089  0.00  0.00    +0.199 C 
ATOM     17  C   UNL     1      -2.748   0.693  -0.032  0.00  0.00    +0.079 C 
ATOM     18  C   UNL     1      -2.897  -0.696  -0.038  0.00  0.00    +0.079 C 
ATOM     19  C   UNL     1      -3.874   1.516  -0.153  0.00  0.00    +0.137 C 
ATOM     20  C   UNL     1      -4.173  -1.260  -0.164  0.00  0.00    +0.137 C 
ATOM     21  C   UNL     1      -5.142   0.950  -0.279  0.00  0.00    +0.040 C 
ATOM     22  C   UNL     1      -5.292  -0.435  -0.284  0.00  0.00    +0.040 C 
ENDROOT
BRANCH   5  23
ATOM     23  O   UNL     1       3.789   1.003   1.948  0.00  0.00    -0.376 OA
ATOM     24  H   UNL     1       4.728   1.222   2.059  0.00  0.00    +0.211 HD
ENDBRANCH   5  23
BRANCH   9  25
ATOM     25  O   UNL     1       3.608   0.167  -2.486  0.00  0.00    -0.360 OA
ATOM     26  H   UNL     1       3.884  -0.496  -3.140  0.00  0.00    +0.213 HD
ENDBRANCH   9  25
BRANCH  11  27
ATOM     27  O   UNL     1       1.248   2.347   0.394  0.00  0.00    -0.506 OA
ATOM     28  H   UNL     1       2.117   2.686   0.481  0.00  0.00    +0.292 HD
ENDBRANCH  11  27
BRANCH  19  29
ATOM     29  O   UNL     1      -3.802   2.878  -0.156  0.00  0.00    -0.505 OA
ATOM     30  H   UNL     1      -2.971   3.304  -0.074  0.00  0.00    +0.292 HD
ENDBRANCH  19  29
BRANCH  20  31
ATOM     31  O   UNL     1      -4.388  -2.606  -0.176  0.00  0.00    -0.505 OA
ATOM     32  H   UNL     1      -3.665  -3.197  -0.098  0.00  0.00    +0.292 HD
ENDBRANCH  20  31
TORSDOF 5
