REMARK  Name = 108099
REMARK  10 active torsions:
REMARK  status: ('A' for Active; 'I' for Inactive)
REMARK    1  A    between atoms: C_1  and  C_7
REMARK    2  A    between atoms: C_2  and  C_15
REMARK    3  A    between atoms: C_7  and  C_8
REMARK    4  A    between atoms: C_8  and  P_9
REMARK    5  A    between atoms: P_9  and  O_11
REMARK    6  A    between atoms: P_9  and  O_13
REMARK    7  A    between atoms: C_15  and  CA_16
REMARK    8  A    between atoms: CA_16  and  N_17
REMARK    9  A    between atoms: CA_16  and  C_22
REMARK   10  A    between atoms: C_22  and  O_23
REMARK                            x       y       z     vdW  Elec       q    Type
REMARK                         _______ _______ _______ _____ _____    ______ ____
ROOT
ATOM      1  C   UNL     1      -0.103  -1.055   0.685  0.00  0.00    +0.001 C 
ATOM      2  C   UNL     1       1.150  -1.499  -0.109  0.00  0.00    -0.002 C 
ATOM      3  C   UNL     1      -0.869  -2.288   1.195  0.00  0.00    +0.000 C 
ATOM      4  C   UNL     1       0.803  -2.491  -1.230  0.00  0.00    -0.000 C 
ATOM      5  C   UNL     1      -1.213  -3.277   0.083  0.00  0.00    +0.000 C 
ATOM      6  C   UNL     1       0.027  -3.695  -0.700  0.00  0.00    -0.000 C 
ENDROOT
BRANCH   1   7
ATOM      7  C   UNL     1      -1.034  -0.120  -0.096  0.00  0.00    +0.013 C 
BRANCH   7   8
ATOM      8  C   UNL     1      -2.171   0.402   0.765  0.00  0.00    +0.116 C 
BRANCH   8   9
ATOM      9  P   UNL     1      -3.305   1.500  -0.112  0.00  0.00    +0.337 P 
ATOM     10  O   UNL     1      -3.972   0.861  -1.280  0.00  0.00    -0.258 OA
BRANCH   9  11
ATOM     11  O   UNL     1      -2.376   2.775  -0.434  0.00  0.00    -0.324 OA
ATOM     12  H   UNL     1      -2.894   3.440  -0.914  0.00  0.00    +0.220 HD
ENDBRANCH   9  11
BRANCH   9  13
ATOM     13  O   UNL     1      -4.274   2.013   1.067  0.00  0.00    -0.324 OA
ATOM     14  H   UNL     1      -4.935   2.621   0.701  0.00  0.00    +0.220 HD
ENDBRANCH   9  13
ENDBRANCH   8   9
ENDBRANCH   7   8
ENDBRANCH   1   7
BRANCH   2  15
ATOM     15  C   UNL     1       1.951  -0.321  -0.666  0.00  0.00    -0.011 C 
BRANCH  15  16
ATOM     16  CA  UNL     1       2.343   0.677   0.422  0.00  0.00    +0.036 C 
BRANCH  16  17
ATOM     17  N   UNL     1       3.171   0.019   1.433  0.00  0.00    +0.389 N 
ATOM     18  H1  UNL     1       2.662  -0.772   1.827  0.00  0.00    -0.088 HD
ATOM     19  H2  UNL     1       3.394   0.684   2.174  0.00  0.00    -0.088 HD
ATOM     20  H3  UNL     1       4.034  -0.312   1.002  0.00  0.00    -0.088 HD
ENDBRANCH  16  17
BRANCH  16  22
ATOM     21  OXT UNL     1       4.283   2.098   0.193  0.00  0.00    -0.253 OA
ATOM     22  C   UNL     1       3.131   1.843  -0.139  0.00  0.00    +0.293 C 
BRANCH  22  23
ATOM     23  O   UNL     1       2.460   2.558  -1.077  0.00  0.00    -0.482 OA
ATOM     24  H   UNL     1       1.580   2.329  -1.300  0.00  0.00    +0.295 HD
ENDBRANCH  22  23
ENDBRANCH  16  22
ENDBRANCH  15  16
ENDBRANCH   2  15
TORSDOF 10
