REMARK  Name = 108015
REMARK  3 active torsions:
REMARK  status: ('A' for Active; 'I' for Inactive)
REMARK    1  A    between atoms: S_1  and  N_5
REMARK    2  A    between atoms: S_1  and  C_16
REMARK    3  A    between atoms: C_21  and  N_22
REMARK                            x       y       z     vdW  Elec       q    Type
REMARK                         _______ _______ _______ _____ _____    ______ ____
ROOT
ATOM      1  S   UNL     1      -0.299   1.810  -0.963  0.00  0.00    +0.092 S 
ATOM      2  O   UNL     1       0.114   1.494  -2.327  0.00  0.00    -0.149 OA
ATOM      3  O   UNL     1      -0.715   3.175  -0.660  0.00  0.00    -0.149 OA
ENDROOT
BRANCH   1   5
ATOM      4  O   UNL     1       1.288   3.383   1.213  0.00  0.00    -0.272 OA
ATOM      5  N   UNL     1       0.957   1.328   0.131  0.00  0.00    -0.057 N 
ATOM      6  N   UNL     1       0.753  -0.905   0.866  0.00  0.00    -0.335 NA
ATOM      7  N   UNL     1       2.414  -0.295  -0.769  0.00  0.00    -0.335 NA
ATOM      8  C   UNL     1       1.403  -0.044   0.072  0.00  0.00    +0.228 C 
ATOM      9  C   UNL     1       1.591   2.196   1.099  0.00  0.00    +0.259 C 
ATOM     10  C   UNL     1       1.195  -2.177   0.786  0.00  0.00    +0.107 C 
ATOM     11  C   UNL     1       2.805  -1.586  -0.799  0.00  0.00    +0.107 C 
ATOM     12  C   UNL     1       2.227  -2.580  -0.037  0.00  0.00    +0.111 C 
ATOM     13  C   UNL     1       2.670   1.613   1.977  0.00  0.00    +0.098 C 
ATOM     14  C   UNL     1       0.508  -3.181   1.649  0.00  0.00    +0.063 C 
ATOM     15  C   UNL     1       3.929  -1.925  -1.720  0.00  0.00    +0.063 C 
ENDBRANCH   1   5
BRANCH   1  16
ATOM     16  C   UNL     1      -1.619   0.755  -0.525  0.00  0.00    +0.127 C 
ATOM     17  C   UNL     1      -2.157  -0.118  -1.470  0.00  0.00    +0.021 C 
ATOM     18  C   UNL     1      -2.135   0.786   0.771  0.00  0.00    +0.021 C 
ATOM     19  C   UNL     1      -3.212  -0.961  -1.120  0.00  0.00    +0.015 C 
ATOM     20  C   UNL     1      -3.190  -0.057   1.121  0.00  0.00    +0.015 C 
ATOM     21  C   UNL     1      -3.729  -0.930   0.175  0.00  0.00    +0.042 C 
BRANCH  21  22
ATOM     22  N   UNL     1      -4.795  -1.783   0.530  0.00  0.00    -0.357 N 
ATOM     23  H   UNL     1      -5.175  -2.400  -0.137  0.00  0.00    +0.142 HD
ATOM     24  H   UNL     1      -5.158  -1.762   1.445  0.00  0.00    +0.142 HD
ENDBRANCH  21  22
ENDBRANCH   1  16
TORSDOF 3
