REMARK  Name = 108107
REMARK  4 active torsions:
REMARK  status: ('A' for Active; 'I' for Inactive)
REMARK    1  A    between atoms: N_3  and  C_5
REMARK    2  A    between atoms: N_3  and  C_23
REMARK    3  A    between atoms: C_6  and  C_14
REMARK    4  A    between atoms: C_23  and  C_24
REMARK                            x       y       z     vdW  Elec       q    Type
REMARK                         _______ _______ _______ _____ _____    ______ ____
ROOT
ATOM      1  O   UNL     1       0.155   1.011  -0.171  0.00  0.00    -0.267 OA
ATOM      2  N   UNL     1       0.507  -1.231   0.390  0.00  0.00    -0.250 N 
ATOM      3  N   UNL     1      -0.876  -3.056   0.799  0.00  0.00    -0.371 N 
ATOM      4  C   UNL     1      -0.803  -1.720   0.481  0.00  0.00    +0.189 C 
ATOM      5  C   UNL     1       0.907   0.073   0.077  0.00  0.00    +0.285 C 
ATOM      6  H   UNL     1       1.227  -1.879   0.566  0.00  0.00    +0.158 HD
ATOM      7  H   UNL     1      -0.052  -3.575   0.939  0.00  0.00    +0.159 HD
ATOM      8  H   UNL     1      -1.754  -3.493   0.888  0.00  0.00    +0.159 HD
ENDROOT
BRANCH   5  13
ATOM      9 CL   UNL     1       5.279  -2.000  -0.905  0.00  0.00    -0.044 Cl
ATOM     10  N   UNL     1       3.070  -0.784  -0.359  0.00  0.00    -0.378 NA
ATOM     11  N   UNL     1       4.267   1.676   0.259  0.00  0.00    -0.367 NA
ATOM     12  N   UNL     1       6.396   0.738  -0.199  0.00  0.00    -0.330 N 
ATOM     13  C   UNL     1       2.375   0.292   0.016  0.00  0.00    +0.229 C 
ATOM     14  C   UNL     1       2.933   1.496   0.321  0.00  0.00    +0.213 C 
ATOM     15  C   UNL     1       4.992   0.604  -0.117  0.00  0.00    +0.220 C 
ATOM     16  C   UNL     1       4.404  -0.604  -0.420  0.00  0.00    +0.232 C 
ATOM     17  H   UNL     1       6.822   1.599   0.017  0.00  0.00    +0.145 HD
ATOM     18  H   UNL     1       6.949  -0.030  -0.472  0.00  0.00    +0.145 HD
ATOM     19  N   UNL     1       2.118   2.584   0.709  0.00  0.00    -0.331 N 
ATOM     20  H   UNL     1       2.528   3.452   0.928  0.00  0.00    +0.145 HD
ATOM     21  H   UNL     1       1.141   2.473   0.760  0.00  0.00    +0.145 HD
ENDBRANCH   5  13
BRANCH   4  22
ATOM     22  N   UNL     1      -1.784  -0.905   0.268  0.00  0.00    -0.237 NA
BRANCH  22  23
ATOM     23  C   UNL     1      -3.134  -1.443   0.370  0.00  0.00    +0.155 C 
BRANCH  23  24
ATOM     24  C   UNL     1      -4.175  -0.408   0.046  0.00  0.00    +0.002 C 
ATOM     25  C   UNL     1      -4.691   0.387   1.061  0.00  0.00    -0.002 C 
ATOM     26  C   UNL     1      -4.609  -0.260  -1.265  0.00  0.00    -0.002 C 
ATOM     27  C   UNL     1      -5.657   1.347   0.760  0.00  0.00    -0.000 C 
ATOM     28  C   UNL     1      -5.575   0.700  -1.567  0.00  0.00    -0.000 C 
ATOM     29  C   UNL     1      -6.099   1.504  -0.554  0.00  0.00    -0.000 C 
ENDBRANCH  23  24
ENDBRANCH  22  23
ENDBRANCH   4  22
TORSDOF 4
