10811352
  -OEChem-03292013303D

 50 50  0     1  0  0  0  0  0999 V2000
   -5.9322    2.0638    1.5813 Cl  0  0  0  0  0  0  0  0  0  0  0  0
   -9.8303   -1.5572    0.7662 Cl  0  0  0  0  0  0  0  0  0  0  0  0
    3.1957    0.2934   -1.6553 O   0  0  0  0  0  0  0  0  0  0  0  0
    5.7570    0.1037   -1.4048 O   0  0  0  0  0  0  0  0  0  0  0  0
    6.1782    1.9953    1.5886 O   0  0  0  0  0  0  0  0  0  0  0  0
    6.2114    2.5321   -0.6064 O   0  0  0  0  0  0  0  0  0  0  0  0
    6.4117   -2.8161    1.5996 O   0  0  0  0  0  0  0  0  0  0  0  0
    6.5298   -2.7147   -0.6642 O   0  0  0  0  0  0  0  0  0  0  0  0
    3.1105    0.5348   -0.2545 C   0  0  1  0  0  0  0  0  0  0  0  0
    1.7389    0.0338    0.2279 C   0  0  0  0  0  0  0  0  0  0  0  0
    4.2817   -0.1508    0.4740 C   0  0  0  0  0  0  0  0  0  0  0  0
    0.5596    0.6592   -0.5191 C   0  0  0  0  0  0  0  0  0  0  0  0
    5.7184    0.2156    0.0269 C   0  0  1  0  0  0  0  0  0  0  0  0
   -0.7993    0.1038   -0.0796 C   0  0  0  0  0  0  0  0  0  0  0  0
   -2.0249    0.7060   -0.7757 C   0  0  0  0  0  0  0  0  0  0  0  0
   -3.3551    0.1540   -0.2527 C   0  0  0  0  0  0  0  0  0  0  0  0
    6.8230   -0.6769    0.6118 C   0  0  0  0  0  0  0  0  0  0  0  0
   -4.5749    0.8268   -0.8942 C   0  0  0  0  0  0  0  0  0  0  0  0
    6.0561    1.6903    0.2681 C   0  0  0  0  0  0  0  0  0  0  0  0
   -5.8962    0.2497   -0.4522 C   0  0  0  0  0  0  0  0  0  0  0  0
    6.5847   -2.1600    0.4256 C   0  0  0  0  0  0  0  0  0  0  0  0
   -6.5670    0.7540    0.6533 C   0  0  0  0  0  0  0  0  0  0  0  0
   -6.4222   -0.8044   -1.1873 C   0  0  0  0  0  0  0  0  0  0  0  0
   -7.7872    0.1938    1.0316 C   0  0  0  0  0  0  0  0  0  0  0  0
   -7.6423   -1.3644   -0.8092 C   0  0  0  0  0  0  0  0  0  0  0  0
   -8.3249   -0.8654    0.3003 C   0  0  0  0  0  0  0  0  0  0  0  0
    3.1723    1.6185   -0.1062 H   0  0  0  0  0  0  0  0  0  0  0  0
    1.6378    0.2290    1.3023 H   0  0  0  0  0  0  0  0  0  0  0  0
    1.6886   -1.0544    0.0924 H   0  0  0  0  0  0  0  0  0  0  0  0
    4.1845    0.0277    1.5522 H   0  0  0  0  0  0  0  0  0  0  0  0
    4.1483   -1.2293    0.3189 H   0  0  0  0  0  0  0  0  0  0  0  0
    0.6663    0.4912   -1.5973 H   0  0  0  0  0  0  0  0  0  0  0  0
    0.5714    1.7451   -0.3654 H   0  0  0  0  0  0  0  0  0  0  0  0
   -0.8052   -0.9819   -0.2394 H   0  0  0  0  0  0  0  0  0  0  0  0
   -0.9026    0.2567    1.0024 H   0  0  0  0  0  0  0  0  0  0  0  0
   -2.0095    1.7942   -0.6383 H   0  0  0  0  0  0  0  0  0  0  0  0
   -1.9533    0.5216   -1.8545 H   0  0  0  0  0  0  0  0  0  0  0  0
   -3.3975    0.2832    0.8358 H   0  0  0  0  0  0  0  0  0  0  0  0
   -3.3901   -0.9273   -0.4373 H   0  0  0  0  0  0  0  0  0  0  0  0
    7.7973   -0.4535    0.1589 H   0  0  0  0  0  0  0  0  0  0  0  0
    6.9350   -0.4833    1.6860 H   0  0  0  0  0  0  0  0  0  0  0  0
   -4.4978    0.7242   -1.9859 H   0  0  0  0  0  0  0  0  0  0  0  0
   -4.5428    1.9101   -0.7288 H   0  0  0  0  0  0  0  0  0  0  0  0
    3.1690   -0.6687   -1.7948 H   0  0  0  0  0  0  0  0  0  0  0  0
    6.6747    0.2385   -1.6970 H   0  0  0  0  0  0  0  0  0  0  0  0
   -5.8996   -1.2045   -2.0517 H   0  0  0  0  0  0  0  0  0  0  0  0
    6.3961    2.9418    1.7257 H   0  0  0  0  0  0  0  0  0  0  0  0
   -8.3210    0.5819    1.8967 H   0  0  0  0  0  0  0  0  0  0  0  0
   -8.0490   -2.1899   -1.3879 H   0  0  0  0  0  0  0  0  0  0  0  0
    6.2461   -3.7733    1.4632 H   0  0  0  0  0  0  0  0  0  0  0  0
  1 22  1  0  0  0  0
  2 26  1  0  0  0  0
  3  9  1  0  0  0  0
  3 44  1  0  0  0  0
  4 13  1  0  0  0  0
  4 45  1  0  0  0  0
  5 19  1  0  0  0  0
  5 47  1  0  0  0  0
  6 19  2  0  0  0  0
  7 21  1  0  0  0  0
  7 50  1  0  0  0  0
  8 21  2  0  0  0  0
  9 10  1  0  0  0  0
  9 11  1  0  0  0  0
  9 27  1  0  0  0  0
 10 12  1  0  0  0  0
 10 28  1  0  0  0  0
 10 29  1  0  0  0  0
 11 13  1  0  0  0  0
 11 30  1  0  0  0  0
 11 31  1  0  0  0  0
 12 14  1  0  0  0  0
 12 32  1  0  0  0  0
 12 33  1  0  0  0  0
 13 17  1  0  0  0  0
 13 19  1  0  0  0  0
 14 15  1  0  0  0  0
 14 34  1  0  0  0  0
 14 35  1  0  0  0  0
 15 16  1  0  0  0  0
 15 36  1  0  0  0  0
 15 37  1  0  0  0  0
 16 18  1  0  0  0  0
 16 38  1  0  0  0  0
 16 39  1  0  0  0  0
 17 21  1  0  0  0  0
 17 40  1  0  0  0  0
 17 41  1  0  0  0  0
 18 20  1  0  0  0  0
 18 42  1  0  0  0  0
 18 43  1  0  0  0  0
 20 22  2  0  0  0  0
 20 23  1  0  0  0  0
 22 24  1  0  0  0  0
 23 25  2  0  0  0  0
 23 46  1  0  0  0  0
 24 26  2  0  0  0  0
 24 48  1  0  0  0  0
 25 26  1  0  0  0  0
 25 49  1  0  0  0  0
M  END
> <PUBCHEM_COMPOUND_CID>
10811352

> <PUBCHEM_CONFORMER_RMSD>
1.2

> <PUBCHEM_CONFORMER_DIVERSEORDER>
1
479
413
91
316
567
468
213
157
65
425
158
25
519
202
525
662
41
55
242
458
34
142
412
118
141
44
123
253
129
170
182
428
220
78
10
13
317
347
19
380
295
100
178
21
229
67
24
501
186
542
415
346
399
23
240
484
523
72
427
488
7
148
81
15
45
42
313
457
499
219
279
264
194
669
650
216
132
374
359
28
617
576
131
84
103
257
164
56
12
535
180
30
143
211
622
113
70
353
210
173
87
272
162
8
624
430
372
579
261
305
161
171
256
401
126
61
230
160
573
16
53
360
134
98
144
47
68
249
120
14
251
117
320
435
661
32
672
218
403
38
6
265
379
36
585
152
192
275
20
54
466
128
163
362
486
215
5
483
648
135
469
252
99
93
110
188
467
668
231
393
2
292
48
426
363
575
94
80
390
139
639
111
465
214
39
459
460
29
297
262
434
491
564
277
217
174
665
456
647
433
332
338
40
200
495
82
63
62
11
625
302
618
331
592
235
221
165
543
509
60
254
400
539
555
105
307
59
343
145
475
446
206
550
247
620
666
255
571
657
50
496
586
515
371
455
503
472
431
303
569
58
69
154
151
344
485
146
635
121
3
197
440
529
547
531
283
350
673
304

> <PUBCHEM_MMFF94_PARTIAL_CHARGES>
27
1 -0.18
13 0.34
17 0.06
18 0.14
19 0.66
2 -0.18
20 -0.14
21 0.66
22 0.18
23 -0.15
24 -0.15
25 -0.15
26 0.18
3 -0.68
4 -0.68
44 0.4
45 0.4
46 0.15
47 0.5
48 0.15
49 0.15
5 -0.65
50 0.5
6 -0.57
7 -0.65
8 -0.57
9 0.28

> <PUBCHEM_EFFECTIVE_ROTOR_COUNT>
12

> <PUBCHEM_PHARMACOPHORE_FEATURES>
13
1 3 acceptor
1 3 donor
1 4 acceptor
1 4 donor
1 5 acceptor
1 6 acceptor
1 7 acceptor
1 8 acceptor
3 10 12 14 hydrophobe
3 15 16 18 hydrophobe
3 5 6 19 anion
3 7 8 21 anion
6 20 22 23 24 25 26 rings

> <PUBCHEM_HEAVY_ATOM_COUNT>
26

> <PUBCHEM_ATOM_DEF_STEREO_COUNT>
2

> <PUBCHEM_ATOM_UDEF_STEREO_COUNT>
0

> <PUBCHEM_BOND_DEF_STEREO_COUNT>
0

> <PUBCHEM_BOND_UDEF_STEREO_COUNT>
0

> <PUBCHEM_ISOTOPIC_ATOM_COUNT>
0

> <PUBCHEM_COMPONENT_COUNT>
1

> <PUBCHEM_CACTVS_TAUTO_COUNT>
1

> <PUBCHEM_CONFORMER_ID>
00A4F7D800000001

> <PUBCHEM_MMFF94_ENERGY>
44.9377

> <PUBCHEM_FEATURE_SELFOVERLAP>
66.13

> <PUBCHEM_SHAPE_FINGERPRINT>
10 15 17632297900162557541
10066227 49 17968372351575246179
10299344 5 18343301474845654679
11135609 127 11098152080553774390
11315181 36 18413389861534845869
11719270 70 14562522981618617360
12082328 90 18186515498140091677
12089408 11 18272933830749220197
13533116 47 18336543833885260138
13668630 136 17385721400947762263
13835254 42 18187641359150623236
14251764 18 18343584070872393109
14849402 71 18129662044774695689
14933364 13 17275388720430801801
15183329 4 14345793825230400085
15716309 27 18412824690497562373
17093844 174 13614517473014376095
1754908 1 18202845474473622763
1754911 235 7853565834057749866
195137 175 8430313554743343663
21315759 40 18335425664529309725
22224240 67 18187082875635108571
23081809 10 17917422138147850596
23576562 1 11819864915344198611
33532 11 18187362099542937194
3663271 9 18343866593784025425
5758199 1 18343303691112121871
68570916 9 17917140727722178541
9831232 110 17986398789394822830

> <PUBCHEM_SHAPE_MULTIPOLES>
503.59
34.08
2.22
1.31
21.56
0.62
0.1
11.07
7.25
-3.94
0.69
0.06
-0.07
-1.53

> <PUBCHEM_SHAPE_SELFOVERLAP>
997.046

> <PUBCHEM_SHAPE_VOLUME>
298.9

> <PUBCHEM_COORDINATE_TYPE>
2
5
10

$$$$
