REMARK  Name = 108175
REMARK  5 active torsions:
REMARK  status: ('A' for Active; 'I' for Inactive)
REMARK    1  A    between atoms: N_1  and  C1*_14
REMARK    2  A    between atoms: C2*_15  and  O2*_18
REMARK    3  A    between atoms: C3*_16  and  O3*_20
REMARK    4  A    between atoms: C4*_17  and  C5*_22
REMARK    5  A    between atoms: C5*_22  and  O5*_23
REMARK                            x       y       z     vdW  Elec       q    Type
REMARK                         _______ _______ _______ _____ _____    ______ ____
ROOT
ATOM      1  N   UNL     1       0.314  -0.291  -0.139  0.00  0.00    -0.247 N 
ATOM      2  N   UNL     1      -1.077  -1.975   0.384  0.00  0.00    -0.242 NA
ATOM      3  N   UNL     1      -1.281   1.504  -0.542  0.00  0.00    -0.232 NA
ATOM      4  N   UNL     1      -3.498   0.722  -0.220  0.00  0.00    -0.247 N 
ATOM      5  N   UNL     1      -4.146  -1.338   0.367  0.00  0.00    -0.226 NA
ATOM      6  C   UNL     1      -0.949   0.225  -0.214  0.00  0.00    +0.152 C 
ATOM      7  C   UNL     1       0.183  -1.614   0.224  0.00  0.00    +0.223 C 
ATOM      8  C   UNL     1      -1.766  -0.838   0.113  0.00  0.00    +0.141 C 
ATOM      9  C   UNL     1      -3.121  -0.564   0.107  0.00  0.00    +0.157 C 
ATOM     10  C   UNL     1      -2.572   1.730  -0.538  0.00  0.00    +0.227 C 
ATOM     11  C   UNL     1      -4.862   0.766  -0.164  0.00  0.00    +0.089 C 
ATOM     12  C   UNL     1      -5.237  -0.512   0.199  0.00  0.00    +0.117 C 
ENDROOT
BRANCH   1  14
ATOM     13  O4* UNL     1       2.533  -0.501  -0.954  0.00  0.00    -0.333 OA
ATOM     14  C1* UNL     1       1.571   0.411  -0.389  0.00  0.00    +0.225 C 
ATOM     15  C2* UNL     1       2.218   0.988   0.861  0.00  0.00    +0.187 C 
ATOM     16  C3* UNL     1       3.675   1.050   0.445  0.00  0.00    +0.171 C 
ATOM     17  C4* UNL     1       3.832  -0.222  -0.382  0.00  0.00    +0.175 C 
BRANCH  15  18
ATOM     18  O2* UNL     1       1.684   2.252   1.195  0.00  0.00    -0.378 OA
ATOM     19  H2* UNL     1       0.754   2.152   1.452  0.00  0.00    +0.211 HD
ENDBRANCH  15  18
BRANCH  16  20
ATOM     20  O3* UNL     1       3.879   2.179  -0.405  0.00  0.00    -0.379 OA
ATOM     21  H3* UNL     1       3.781   2.994   0.112  0.00  0.00    +0.211 HD
ENDBRANCH  16  20
BRANCH  17  22
ATOM     22  C5* UNL     1       4.257  -1.423   0.451  0.00  0.00    +0.169 C 
BRANCH  22  23
ATOM     23  O5* UNL     1       4.364  -2.550  -0.400  0.00  0.00    -0.379 OA
ATOM     24  H5* UNL     1       4.635  -3.323   0.120  0.00  0.00    +0.211 HD
ENDBRANCH  22  23
ENDBRANCH  17  22
ENDBRANCH   1  14
TORSDOF 5
