REMARK  Name = 108179
REMARK  4 active torsions:
REMARK  status: ('A' for Active; 'I' for Inactive)
REMARK    1  A    between atoms: C_11  and  O_27
REMARK    2  A    between atoms: C_16  and  C_22
REMARK    3  A    between atoms: C_21  and  C_26
REMARK    4  A    between atoms: O_27  and  C_29
REMARK                            x       y       z     vdW  Elec       q    Type
REMARK                         _______ _______ _______ _____ _____    ______ ____
ROOT
ATOM      1  O   UNL     1       1.049  -3.176  -0.280  0.00  0.00    -0.338 OA
ATOM      2  O   UNL     1      -1.154  -1.507  -1.069  0.00  0.00    -0.448 OA
ATOM      3  O   UNL     1      -4.337  -0.618   1.329  0.00  0.00    -0.348 OA
ATOM      4  O   UNL     1       0.621  -0.307  -1.920  0.00  0.00    -0.247 OA
ATOM      5  O   UNL     1      -1.758   1.156   0.977  0.00  0.00    -0.459 OA
ATOM      6  C   UNL     1       0.913  -1.766  -0.050  0.00  0.00    +0.246 C 
ATOM      7  C   UNL     1      -0.016  -2.752   0.577  0.00  0.00    +0.194 C 
ATOM      8  C   UNL     1      -1.355  -2.508  -0.040  0.00  0.00    +0.201 C 
ATOM      9  C   UNL     1      -3.614  -1.466   0.424  0.00  0.00    +0.129 C 
ATOM     10  C   UNL     1      -2.337  -1.981   1.012  0.00  0.00    +0.076 C 
ATOM     11  C   UNL     1       1.970  -1.132   0.808  0.00  0.00    +0.207 C 
ATOM     12  C   UNL     1      -3.895  -0.007   0.107  0.00  0.00    +0.196 C 
ATOM     13  C   UNL     1       0.148  -1.089  -1.111  0.00  0.00    +0.348 C 
ATOM     14  C   UNL     1       1.416   0.063   1.615  0.00  0.00    +0.051 C 
ATOM     15  C   UNL     1      -4.492  -2.488  -0.215  0.00  0.00    +0.033 C 
ATOM     16  C   UNL     1       1.488   1.443   0.914  0.00  0.00    +0.030 C 
ATOM     17  C   UNL     1      -2.742   1.023   0.043  0.00  0.00    +0.152 C 
ATOM     18  C   UNL     1       0.322   2.365   1.334  0.00  0.00    +0.069 C 
ATOM     19  C   UNL     1      -0.897   2.106   0.518  0.00  0.00    +0.126 C 
ATOM     20  C   UNL     1      -2.544   1.921  -0.984  0.00  0.00    +0.041 C 
ATOM     21  C   UNL     1      -1.354   2.623  -0.675  0.00  0.00    +0.075 C 
ENDROOT
BRANCH  16  22
ATOM     22  C   UNL     1       2.796   2.121   1.214  0.00  0.00    -0.044 C 
ATOM     23  C   UNL     1       3.667   2.430   0.033  0.00  0.00    +0.026 C 
ATOM     24  C   UNL     1       3.162   2.431   2.467  0.00  0.00    -0.009 C 
ENDBRANCH  16  22
BRANCH  21  26
ATOM     25  O   UNL     1      -1.108   4.079  -2.534  0.00  0.00    -0.283 OA
ATOM     26  C   UNL     1      -0.707   3.644  -1.444  0.00  0.00    +0.237 C 
ENDBRANCH  21  26
BRANCH  11  27
ATOM     27  O   UNL     1       3.080  -0.744   0.007  0.00  0.00    -0.449 OA
BRANCH  27  29
ATOM     28  O   UNL     1       3.736  -2.925  -0.382  0.00  0.00    -0.250 OA
ATOM     29  C   UNL     1       3.678  -1.746  -0.706  0.00  0.00    +0.318 C 
ATOM     30  C   UNL     1       4.266  -1.193  -1.968  0.00  0.00    +0.121 C 
ENDBRANCH  27  29
ENDBRANCH  11  27
TORSDOF 4
