REMARK  Name = 108158
REMARK  14 active torsions:
REMARK  status: ('A' for Active; 'I' for Inactive)
REMARK    1  A    between atoms: N_2  and  CA_5
REMARK    2  A    between atoms: C_3  and  C_19
REMARK    3  A    between atoms: CA_5  and  C_8
REMARK    4  A    between atoms: CA_5  and  CB_15
REMARK    5  A    between atoms: N_7  and  CA_10
REMARK    6  A    between atoms: CA_10  and  C_12
REMARK    7  A    between atoms: C_12  and  O_13
REMARK    8  A    between atoms: CB_15  and  SG_16
REMARK    9  A    between atoms: SG_16  and  C_18
REMARK   10  A    between atoms: C_19  and  C_20
REMARK   11  A    between atoms: C_20  and  CA_21
REMARK   12  A    between atoms: CA_21  and  N_22
REMARK   13  A    between atoms: CA_21  and  C_27
REMARK   14  A    between atoms: C_27  and  O_28
REMARK                            x       y       z     vdW  Elec       q    Type
REMARK                         _______ _______ _______ _____ _____    ______ ____
ROOT
ATOM      1  O   UNL     1      -1.540  -0.763  -2.147  0.00  0.00    -0.275 OA
ATOM      2  N   UNL     1      -0.216  -0.536  -0.251  0.00  0.00    -0.298 N 
ATOM      3  C   UNL     1      -1.421  -0.664  -0.929  0.00  0.00    +0.223 C 
ATOM      4  H   UNL     1      -0.234  -0.463   0.730  0.00  0.00    +0.150 HD
ENDROOT
BRANCH   2   5
ATOM      5  CA  UNL     1       1.061  -0.506  -0.925  0.00  0.00    +0.159 C 
BRANCH   5   8
ATOM      6  O   UNL     1       1.857  -1.594   1.093  0.00  0.00    -0.273 OA
ATOM      7  N   UNL     1       3.332  -1.309  -0.675  0.00  0.00    -0.294 N 
ATOM      8  C   ACE A   1       2.099  -1.202  -0.046  0.00  0.00    +0.242 C 
ATOM      9  H   UNL     1       3.426  -0.964  -1.592  0.00  0.00    +0.150 HD
BRANCH   7  10
ATOM     10  CA  UNL     1       4.482  -1.907  -0.039  0.00  0.00    +0.200 C 
BRANCH  10  12
ATOM     11  OXT UNL     1       6.337  -1.213   1.328  0.00  0.00    -0.248 OA
ATOM     12  C   UNL     1       5.315  -0.910   0.725  0.00  0.00    +0.334 C 
BRANCH  12  13
ATOM     13  O   UNL     1       4.825   0.350   0.681  0.00  0.00    -0.479 OA
ATOM     14  H   UNL     1       4.038   0.531   0.205  0.00  0.00    +0.295 HD
ENDBRANCH  12  13
ENDBRANCH  10  12
ENDBRANCH   7  10
ENDBRANCH   5   8
BRANCH   5  15
ATOM     15  CB  UNL     1       1.468   0.910  -1.340  0.00  0.00    +0.088 C 
BRANCH  15  16
ATOM     16  SG  UNL     1       1.708   2.047   0.065  0.00  0.00    -0.120 S 
BRANCH  16  18
ATOM     17 CL   UNL     1       2.397   4.900   0.219  0.00  0.00    -0.101 Cl
ATOM     18  C   UNL     1       2.076   3.543  -0.879  0.00  0.00    +0.152 C 
ENDBRANCH  16  18
ENDBRANCH  15  16
ENDBRANCH   5  15
ENDBRANCH   2   5
BRANCH   3  19
ATOM     19  C   UNL     1      -2.602  -0.656   0.027  0.00  0.00    +0.083 C 
BRANCH  19  20
ATOM     20  C   UNL     1      -3.941  -0.796  -0.700  0.00  0.00    -0.001 C 
BRANCH  20  21
ATOM     21  CA  UNL     1      -5.135  -0.863   0.259  0.00  0.00    +0.036 C 
BRANCH  21  22
ATOM     22  N   UNL     1      -6.374  -0.996  -0.511  0.00  0.00    +0.389 N 
ATOM     23  H1  UNL     1      -6.335  -1.844  -1.076  0.00  0.00    -0.088 HD
ATOM     24  H2  UNL     1      -6.484  -0.186  -1.121  0.00  0.00    -0.088 HD
ATOM     25  H3  UNL     1      -7.167  -1.049   0.128  0.00  0.00    -0.088 HD
ENDBRANCH  21  22
BRANCH  21  27
ATOM     26  OXT UNL     1      -5.857   1.420   0.711  0.00  0.00    -0.253 OA
ATOM     27  C   UNL     1      -5.261   0.413   1.072  0.00  0.00    +0.293 C 
BRANCH  27  28
ATOM     28  O   UNL     1      -4.609   0.333   2.261  0.00  0.00    -0.482 OA
ATOM     29  H   UNL     1      -4.165  -0.458   2.499  0.00  0.00    +0.295 HD
ENDBRANCH  27  28
ENDBRANCH  21  27
ENDBRANCH  20  21
ENDBRANCH  19  20
ENDBRANCH   3  19
TORSDOF 14
