108144
  -OEChem-03292013323D

 39 41  0     0  0  0  0  0  0999 V2000
    1.4687   -1.1390    2.8253 Cl  0  0  0  0  0  0  0  0  0  0  0  0
    1.9184   -1.8704   -2.5668 Cl  0  0  0  0  0  0  0  0  0  0  0  0
    5.4876    4.0947   -0.3207 Cl  0  0  0  0  0  0  0  0  0  0  0  0
    3.7292   -2.3053    0.4064 O   0  0  0  0  0  0  0  0  0  0  0  0
   -5.2638    2.3973    1.4510 O   0  0  0  0  0  0  0  0  0  0  0  0
   -3.3778   -0.8939   -0.3757 N   0  0  0  0  0  0  0  0  0  0  0  0
   -3.5978   -0.4953   -1.6264 N   0  0  0  0  0  0  0  0  0  0  0  0
   -4.2611    0.6527   -1.5423 N   0  0  0  0  0  0  0  0  0  0  0  0
   -3.7621   -0.2552    1.8749 N   0  0  0  0  0  0  0  0  0  0  0  0
   -5.6180    2.9941   -0.7202 N   0  0  0  0  0  0  0  0  0  0  0  0
   -2.6525   -2.1479   -0.1458 C   0  0  0  0  0  0  0  0  0  0  0  0
   -1.1803   -1.9298   -0.0527 C   0  0  0  0  0  0  0  0  0  0  0  0
    1.5424   -1.5267    0.1196 C   0  0  0  0  0  0  0  0  0  0  0  0
   -0.5912   -1.6665    1.1840 C   0  0  0  0  0  0  0  0  0  0  0  0
   -0.3924   -1.9893   -1.2022 C   0  0  0  0  0  0  0  0  0  0  0  0
   -3.8722   -0.0488    0.5480 C   0  0  0  0  0  0  0  0  0  0  0  0
    0.7860   -1.4625    1.2710 C   0  0  0  0  0  0  0  0  0  0  0  0
    0.9848   -1.7854   -1.1150 C   0  0  0  0  0  0  0  0  0  0  0  0
    3.0175   -1.3085    0.2125 C   0  0  0  0  0  0  0  0  0  0  0  0
   -4.4373    0.9401   -0.2173 C   0  0  0  0  0  0  0  0  0  0  0  0
    3.6204    0.0087    0.0839 C   0  0  0  0  0  0  0  0  0  0  0  0
    2.8140    1.1257   -0.1346 C   0  0  0  0  0  0  0  0  0  0  0  0
    5.0044    0.1553    0.1770 C   0  0  0  0  0  0  0  0  0  0  0  0
   -5.1159    2.1125    0.2417 C   0  0  0  0  0  0  0  0  0  0  0  0
    3.3916    2.3892   -0.2601 C   0  0  0  0  0  0  0  0  0  0  0  0
    5.5820    1.4186    0.0515 C   0  0  0  0  0  0  0  0  0  0  0  0
    4.7757    2.5356   -0.1670 C   0  0  0  0  0  0  0  0  0  0  0  0
   -2.9029   -2.8233   -0.9739 H   0  0  0  0  0  0  0  0  0  0  0  0
   -3.0547   -2.6178    0.7586 H   0  0  0  0  0  0  0  0  0  0  0  0
   -1.2001   -1.6315    2.0831 H   0  0  0  0  0  0  0  0  0  0  0  0
   -0.8552   -2.1944   -2.1651 H   0  0  0  0  0  0  0  0  0  0  0  0
   -4.1399    0.4047    2.5478 H   0  0  0  0  0  0  0  0  0  0  0  0
   -3.3285   -1.0781    2.2783 H   0  0  0  0  0  0  0  0  0  0  0  0
    1.7333    1.0575   -0.2138 H   0  0  0  0  0  0  0  0  0  0  0  0
    5.6546   -0.6988    0.3466 H   0  0  0  0  0  0  0  0  0  0  0  0
    2.7512    3.2509   -0.4301 H   0  0  0  0  0  0  0  0  0  0  0  0
    6.6619    1.5180    0.1263 H   0  0  0  0  0  0  0  0  0  0  0  0
   -5.5190    2.8192   -1.7152 H   0  0  0  0  0  0  0  0  0  0  0  0
   -6.1006    3.8438   -0.4471 H   0  0  0  0  0  0  0  0  0  0  0  0
  1 17  1  0  0  0  0
  2 18  1  0  0  0  0
  3 27  1  0  0  0  0
  4 19  2  0  0  0  0
  5 24  2  0  0  0  0
  6  7  1  0  0  0  0
  6 11  1  0  0  0  0
  6 16  1  0  0  0  0
  7  8  2  0  0  0  0
  8 20  1  0  0  0  0
  9 16  1  0  0  0  0
  9 32  1  0  0  0  0
  9 33  1  0  0  0  0
 10 24  1  0  0  0  0
 10 38  1  0  0  0  0
 10 39  1  0  0  0  0
 11 12  1  0  0  0  0
 11 28  1  0  0  0  0
 11 29  1  0  0  0  0
 12 14  2  0  0  0  0
 12 15  1  0  0  0  0
 13 17  2  0  0  0  0
 13 18  1  0  0  0  0
 13 19  1  0  0  0  0
 14 17  1  0  0  0  0
 14 30  1  0  0  0  0
 15 18  2  0  0  0  0
 15 31  1  0  0  0  0
 16 20  2  0  0  0  0
 19 21  1  0  0  0  0
 20 24  1  0  0  0  0
 21 22  2  0  0  0  0
 21 23  1  0  0  0  0
 22 25  1  0  0  0  0
 22 34  1  0  0  0  0
 23 26  2  0  0  0  0
 23 35  1  0  0  0  0
 25 27  2  0  0  0  0
 25 36  1  0  0  0  0
 26 27  1  0  0  0  0
 26 37  1  0  0  0  0
M  END
> <PUBCHEM_COMPOUND_CID>
108144

> <PUBCHEM_CONFORMER_RMSD>
0.8

> <PUBCHEM_CONFORMER_DIVERSEORDER>
2
16
50
37
43
22
14
44
47
49
32
29
35
42
25
27
24
9
18
15
11
36
17
39
48
30
3
23
28
33
40
19
7
8
34
45
26
46
38
31
21
13
4
51
1
5
20
12
6
10
41

> <PUBCHEM_MMFF94_PARTIAL_CHARGES>
37
1 -0.18
10 -0.8
11 0.4
12 -0.14
13 0.09
14 -0.15
15 -0.15
16 -0.07
17 0.18
18 0.18
19 0.4
2 -0.18
20 0.14
21 0.09
22 -0.15
23 -0.15
24 0.72
25 -0.15
26 -0.15
27 0.18
3 -0.18
30 0.15
31 0.15
32 0.4
33 0.4
34 0.15
35 0.15
36 0.15
37 0.15
38 0.37
39 0.37
4 -0.57
5 -0.57
6 0.31
7 -0.42
8 -0.23
9 -0.88

> <PUBCHEM_EFFECTIVE_ROTOR_COUNT>
5

> <PUBCHEM_PHARMACOPHORE_FEATURES>
8
1 10 donor
1 4 acceptor
1 5 acceptor
1 9 cation
1 9 donor
5 6 7 8 16 20 rings
6 12 13 14 15 17 18 rings
6 21 22 23 25 26 27 rings

> <PUBCHEM_HEAVY_ATOM_COUNT>
27

> <PUBCHEM_ATOM_DEF_STEREO_COUNT>
0

> <PUBCHEM_ATOM_UDEF_STEREO_COUNT>
0

> <PUBCHEM_BOND_DEF_STEREO_COUNT>
0

> <PUBCHEM_BOND_UDEF_STEREO_COUNT>
0

> <PUBCHEM_ISOTOPIC_ATOM_COUNT>
0

> <PUBCHEM_COMPONENT_COUNT>
1

> <PUBCHEM_CACTVS_TAUTO_COUNT>
7

> <PUBCHEM_CONFORMER_ID>
0001A67000000002

> <PUBCHEM_MMFF94_ENERGY>
68.1052

> <PUBCHEM_FEATURE_SELFOVERLAP>
40.596

> <PUBCHEM_SHAPE_FINGERPRINT>
10042902 136 10087653631989561264
11135609 201 18341618156982422411
11796584 16 8430052974228711594
12107183 9 18264759983398380330
12422481 6 18189033388036100480
12633257 1 16227442092216570612
13103583 49 12396574092613132919
13544653 18 9295020076039403806
13965767 371 17822851966417203943
14178342 30 16298668398991847130
14251751 18 9367354738296095548
14251764 38 18264494068681760668
14251764 75 18411426115522684705
14848178 5 9655582880985750620
14848178 96 18409158926645485784
15163728 17 18200045043794950918
15475509 84 17028230398991235272
17980427 26 18188191196547523638
20715895 44 18271243798691612808
21033648 29 16878209897007997239
21033650 10 15625681447818530042
21304253 335 18334298695017413732
21315764 268 18117273662506375501
21475661 188 18186519925570936808
21864079 5 18411419475776940919
22122407 14 18335423443498650041
22393880 68 15913030037346233863
23559900 14 17702666532023109102
2838139 119 18340485672853960060
3472631 163 18339074896435189559
392239 28 17531237362094044368
474 4 18270398279162297519
474113 269 11746937629542382089
5081480 168 17485404142327551357
5104073 3 17967809457529934834
57724786 102 18340771433733323779
633830 44 18336820901508801879
636775 72 17763180646462361408
7808743 9 18413103966261282235

> <PUBCHEM_SHAPE_MULTIPOLES>
524.61
13.51
3.9
1.81
4.11
3.27
-0.29
15.84
0.38
-1.64
0.5
0.56
-1.08
-0.52

> <PUBCHEM_SHAPE_SELFOVERLAP>
1122.095

> <PUBCHEM_SHAPE_VOLUME>
293.8

> <PUBCHEM_COORDINATE_TYPE>
2
5
10

$$$$
