REMARK  Name = 108144
REMARK  6 active torsions:
REMARK  status: ('A' for Active; 'I' for Inactive)
REMARK    1  A    between atoms: C_3  and  C_18
REMARK    2  A    between atoms: C_4  and  C_10
REMARK    3  A    between atoms: C_10  and  C_12
REMARK    4  A    between atoms: C_18  and  N_19
REMARK    5  A    between atoms: C_22  and  N_29
REMARK    6  A    between atoms: C_23  and  C_26
REMARK                            x       y       z     vdW  Elec       q    Type
REMARK                         _______ _______ _______ _____ _____    ______ ____
ROOT
ATOM      1 CL   UNL     1       1.469  -1.139   2.825  0.00  0.00    -0.082 Cl
ATOM      2 CL   UNL     1       1.918  -1.870  -2.567  0.00  0.00    -0.082 Cl
ATOM      3  C   UNL     1      -1.180  -1.930  -0.053  0.00  0.00    -0.003 C 
ATOM      4  C   UNL     1       1.542  -1.527   0.120  0.00  0.00    +0.060 C 
ATOM      5  C   UNL     1      -0.591  -1.667   1.184  0.00  0.00    +0.009 C 
ATOM      6  C   UNL     1      -0.392  -1.989  -1.202  0.00  0.00    +0.009 C 
ATOM      7  C   UNL     1       0.786  -1.462   1.271  0.00  0.00    +0.061 C 
ATOM      8  C   UNL     1       0.985  -1.785  -1.115  0.00  0.00    +0.061 C 
ENDROOT
BRANCH   4  10
ATOM      9  O   UNL     1       3.729  -2.305   0.406  0.00  0.00    -0.287 OA
ATOM     10  C   UNL     1       3.018  -1.308   0.212  0.00  0.00    +0.197 C 
BRANCH  10  12
ATOM     11 CL   UNL     1       5.488   4.095  -0.321  0.00  0.00    -0.082 Cl
ATOM     12  C   UNL     1       3.620   0.009   0.084  0.00  0.00    +0.039 C 
ATOM     13  C   UNL     1       2.814   1.126  -0.135  0.00  0.00    +0.004 C 
ATOM     14  C   UNL     1       5.004   0.155   0.177  0.00  0.00    +0.004 C 
ATOM     15  C   UNL     1       3.392   2.389  -0.260  0.00  0.00    +0.011 C 
ATOM     16  C   UNL     1       5.582   1.419   0.051  0.00  0.00    +0.011 C 
ATOM     17  C   UNL     1       4.776   2.536  -0.167  0.00  0.00    +0.058 C 
ENDBRANCH  10  12
ENDBRANCH   4  10
BRANCH   3  18
ATOM     18  C   UNL     1      -2.652  -2.148  -0.146  0.00  0.00    +0.124 C 
BRANCH  18  19
ATOM     19  N   UNL     1      -3.378  -0.894  -0.376  0.00  0.00    -0.146 NA
ATOM     20  N   UNL     1      -3.598  -0.495  -1.626  0.00  0.00    -0.061 NA
ATOM     21  N   UNL     1      -4.261   0.653  -1.542  0.00  0.00    -0.144 NA
ATOM     22  C   UNL     1      -3.872  -0.049   0.548  0.00  0.00    +0.179 C 
ATOM     23  C   UNL     1      -4.437   0.940  -0.217  0.00  0.00    +0.163 C 
BRANCH  23  26
ATOM     24  O   UNL     1      -5.264   2.397   1.451  0.00  0.00    -0.269 OA
ATOM     25  N   UNL     1      -5.618   2.994  -0.720  0.00  0.00    -0.324 N 
ATOM     26  C   UNL     1      -5.116   2.112   0.242  0.00  0.00    +0.261 C 
ATOM     27  H   UNL     1      -6.091   3.811  -0.440  0.00  0.00    +0.145 HD
ATOM     28  H   UNL     1      -5.499   2.798  -1.678  0.00  0.00    +0.145 HD
ENDBRANCH  23  26
BRANCH  22  29
ATOM     29  N   UNL     1      -3.762  -0.255   1.875  0.00  0.00    -0.303 NA
ATOM     30  H   UNL     1      -3.302  -1.058   2.212  0.00  0.00    +0.120 HD
ATOM     31  H   UNL     1      -4.142   0.396   2.508  0.00  0.00    +0.120 HD
ENDBRANCH  22  29
ENDBRANCH  18  19
ENDBRANCH   3  18
TORSDOF 6
