108108
  -OEChem-03292013323D

 28 27  0     1  0  0  0  0  0999 V2000
   -4.0263    0.0619    0.1364 P   0  0  0  0  0  0  0  0  0  0  0  0
    1.1334    1.5690   -0.0386 O   0  0  0  0  0  0  0  0  0  0  0  0
   -0.2491   -1.8124   -0.4538 O   0  0  0  0  0  0  0  0  0  0  0  0
    2.5628   -0.4454    1.2573 O   0  0  0  0  0  0  0  0  0  0  0  0
   -2.5269   -0.5075    0.3289 O   0  0  0  0  0  0  0  0  0  0  0  0
   -4.1505    0.2900   -1.4599 O   0  0  0  0  0  0  0  0  0  0  0  0
   -3.9120    1.5659    0.7191 O   0  0  0  0  0  0  0  0  0  0  0  0
    5.7366    0.3647    0.5069 O   0  0  0  0  0  0  0  0  0  0  0  0
   -5.1094   -0.7755    0.7510 O   0  0  0  0  0  0  0  0  0  0  0  0
    1.0899    0.2195   -0.5201 C   0  0  2  0  0  0  0  0  0  0  0  0
   -0.1375   -0.4911    0.0779 C   0  0  1  0  0  0  0  0  0  0  0  0
    2.4506   -0.4130   -0.1730 C   0  0  1  0  0  0  0  0  0  0  0  0
   -1.4467    0.2356   -0.2287 C   0  0  0  0  0  0  0  0  0  0  0  0
    3.6489    0.3739   -0.7002 C   0  0  0  0  0  0  0  0  0  0  0  0
    4.9362   -0.2358   -0.2031 C   0  0  0  0  0  0  0  0  0  0  0  0
    0.9965    0.2593   -1.6119 H   0  0  0  0  0  0  0  0  0  0  0  0
   -0.0373   -0.5854    1.1657 H   0  0  0  0  0  0  0  0  0  0  0  0
    2.4897   -1.4499   -0.5240 H   0  0  0  0  0  0  0  0  0  0  0  0
   -1.5938    0.3008   -1.3119 H   0  0  0  0  0  0  0  0  0  0  0  0
   -1.4409    1.2436    0.1959 H   0  0  0  0  0  0  0  0  0  0  0  0
    3.6654    0.3758   -1.7945 H   0  0  0  0  0  0  0  0  0  0  0  0
    3.6326    1.4137   -0.3548 H   0  0  0  0  0  0  0  0  0  0  0  0
    1.0458    1.5467    0.9293 H   0  0  0  0  0  0  0  0  0  0  0  0
   -1.0302   -2.2260   -0.0482 H   0  0  0  0  0  0  0  0  0  0  0  0
    2.6413    0.4693    1.5770 H   0  0  0  0  0  0  0  0  0  0  0  0
    5.1324   -1.2722   -0.5276 H   0  0  0  0  0  0  0  0  0  0  0  0
   -5.0101    0.5810   -1.8321 H   0  0  0  0  0  0  0  0  0  0  0  0
   -4.7266    2.1064    0.8010 H   0  0  0  0  0  0  0  0  0  0  0  0
  1  5  1  0  0  0  0
  1  6  1  0  0  0  0
  1  7  1  0  0  0  0
  1  9  2  0  0  0  0
  2 10  1  0  0  0  0
  2 23  1  0  0  0  0
  3 11  1  0  0  0  0
  3 24  1  0  0  0  0
  4 12  1  0  0  0  0
  4 25  1  0  0  0  0
  5 13  1  0  0  0  0
  6 27  1  0  0  0  0
  7 28  1  0  0  0  0
  8 15  2  0  0  0  0
 10 11  1  0  0  0  0
 10 12  1  0  0  0  0
 10 16  1  0  0  0  0
 11 13  1  0  0  0  0
 11 17  1  0  0  0  0
 12 14  1  0  0  0  0
 12 18  1  0  0  0  0
 13 19  1  0  0  0  0
 13 20  1  0  0  0  0
 14 15  1  0  0  0  0
 14 21  1  0  0  0  0
 14 22  1  0  0  0  0
 15 26  1  0  0  0  0
M  END
> <PUBCHEM_COMPOUND_CID>
108108

> <PUBCHEM_CONFORMER_RMSD>
0.8

> <PUBCHEM_CONFORMER_DIVERSEORDER>
1
91
63
14
49
78
4
70
87
11
60
17
71
79
102
3
12
94
43
76
56
5
99
66
32
62
85
26
97
75
34
45
38
47
68
42
37
57
33
35
27
13
69
101
2
15
20
67
103
8
98
50
89
74
61
36
77
58
18
31
80
25
22
9
6
65
95
82
41
19
30
29
53
83
54
28
40
52
46
92
55
7
84
100
90
48
16
21
10
59
81
24
23
86
39
96
88
73
64
51
93
44
72

> <PUBCHEM_MMFF94_PARTIAL_CHARGES>
21
1 1.51
10 0.28
11 0.28
12 0.28
13 0.28
14 0.06
15 0.45
2 -0.68
23 0.4
24 0.4
25 0.4
26 0.06
27 0.5
28 0.5
3 -0.68
4 -0.68
5 -0.55
6 -0.77
7 -0.77
8 -0.57
9 -0.7

> <PUBCHEM_EFFECTIVE_ROTOR_COUNT>
7

> <PUBCHEM_PHARMACOPHORE_FEATURES>
11
1 2 acceptor
1 2 donor
1 3 acceptor
1 3 donor
1 4 acceptor
1 4 donor
1 6 acceptor
1 7 acceptor
1 8 acceptor
1 9 acceptor
4 1 6 7 9 anion

> <PUBCHEM_HEAVY_ATOM_COUNT>
15

> <PUBCHEM_ATOM_DEF_STEREO_COUNT>
3

> <PUBCHEM_ATOM_UDEF_STEREO_COUNT>
0

> <PUBCHEM_BOND_DEF_STEREO_COUNT>
0

> <PUBCHEM_BOND_UDEF_STEREO_COUNT>
0

> <PUBCHEM_ISOTOPIC_ATOM_COUNT>
0

> <PUBCHEM_COMPONENT_COUNT>
1

> <PUBCHEM_CACTVS_TAUTO_COUNT>
2

> <PUBCHEM_CONFORMER_ID>
0001A64C00000001

> <PUBCHEM_MMFF94_ENERGY>
-5.2414

> <PUBCHEM_FEATURE_SELFOVERLAP>
55.87

> <PUBCHEM_SHAPE_FINGERPRINT>
10680689 15 17418373593362469503
11287383 113 15195279854671709646
11401426 45 18201999928018598708
114248 4 15697998539643256742
124424 183 17821730541876378037
12507557 5 18260550030774304965
13533116 47 17346320346264663686
14123238 8 15068623790242589638
14251718 22 17749111118692203507
14993402 34 18411981364577937174
15048467 5 17560801065723981368
17834072 33 17676210212031015470
17834076 25 13830134983405255398
18186145 218 16200426957882476595
18342897 14 18409450271446434616
187816 3 17060342924412639274
20645477 70 18262238811678111578
20671657 1 18118131491755495597
20828058 44 13118005495782792033
22485316 2 16370721521867884395
23402539 116 17775563126277947781
23402655 69 16773801346570826473
23557571 272 15267349504914959481
2916195 48 17917987291630419896
366044 4 18343022198502290254
42788 4 18343303665236712576

> <PUBCHEM_SHAPE_MULTIPOLES>
265.59
11.56
1.15
0.93
1.2
0.05
-0.06
0.83
1.16
-0.51
0.04
-0.3
0.02
-0.04

> <PUBCHEM_SHAPE_SELFOVERLAP>
494.088

> <PUBCHEM_SHAPE_VOLUME>
166.5

> <PUBCHEM_COORDINATE_TYPE>
2
5
10

$$$$
