REMARK  Name = 108185
REMARK  9 active torsions:
REMARK  status: ('A' for Active; 'I' for Inactive)
REMARK    1  A    between atoms: C_1  and  C_19
REMARK    2  A    between atoms: C_4  and  C_7
REMARK    3  A    between atoms: C_8  and  C_17
REMARK    4  A    between atoms: C_19  and  N_21
REMARK    5  A    between atoms: C_23  and  C_30
REMARK    6  A    between atoms: C_24  and  C_27
REMARK    7  A    between atoms: C_27  and  O_28
REMARK    8  A    between atoms: C_30  and  C_31
REMARK    9  A    between atoms: C_31  and  C_32
REMARK                            x       y       z     vdW  Elec       q    Type
REMARK                         _______ _______ _______ _____ _____    ______ ____
ROOT
ATOM      1  C   UNL     1       0.531  -0.070  -1.585  0.00  0.00    -0.002 C 
ATOM      2  C   UNL     1      -0.304   1.030  -1.727  0.00  0.00    -0.003 C 
ATOM      3  C   UNL     1       0.027  -1.302  -1.193  0.00  0.00    -0.003 C 
ATOM      4  C   UNL     1      -2.185  -0.339  -1.077  0.00  0.00    +0.001 C 
ATOM      5  C   UNL     1      -1.669   0.895  -1.471  0.00  0.00    -0.000 C 
ATOM      6  C   UNL     1      -1.337  -1.438  -0.938  0.00  0.00    -0.000 C 
ENDROOT
BRANCH   4   7
ATOM      7  C   UNL     1      -3.601  -0.479  -0.812  0.00  0.00    +0.009 C 
ATOM      8  C   UNL     1      -4.138  -0.264   0.460  0.00  0.00    +0.065 C 
ATOM      9  C   UNL     1      -4.443  -0.841  -1.866  0.00  0.00    +0.001 C 
ATOM     10  C   UNL     1      -5.508  -0.409   0.676  0.00  0.00    +0.010 C 
ATOM     11  C   UNL     1      -5.814  -0.986  -1.650  0.00  0.00    +0.000 C 
ATOM     12  C   UNL     1      -6.346  -0.770  -0.379  0.00  0.00    +0.001 C 
BRANCH   8  17
ATOM     13  N   UNL     1      -3.035   1.373   1.894  0.00  0.00    -0.110 NA
ATOM     14  N   UNL     1      -2.731  -0.816   2.389  0.00  0.00    -0.087 NA
ATOM     15  N   UNL     1      -2.253   1.158   2.961  0.00  0.00    -0.140 N 
ATOM     16  N   UNL     1      -2.045  -0.125   3.291  0.00  0.00    -0.022 NA
ATOM     17  C   UNL     1      -3.306   0.109   1.575  0.00  0.00    +0.073 C 
ATOM     18  H   UNL     1      -1.854   1.898   3.473  0.00  0.00    +0.197 HD
ENDBRANCH   8  17
ENDBRANCH   4   7
BRANCH   1  19
ATOM     19  C   UNL     1       2.003   0.077  -1.861  0.00  0.00    +0.120 C 
BRANCH  19  21
ATOM     20 CL   UNL     1       4.300   2.816   1.920  0.00  0.00    -0.050 Cl
ATOM     21  N   UNL     1       2.728   0.452  -0.669  0.00  0.00    -0.269 N 
ATOM     22  N   UNL     1       3.882   0.248   1.217  0.00  0.00    -0.382 NA
ATOM     23  C   UNL     1       3.289  -0.370   0.244  0.00  0.00    +0.162 C 
ATOM     24  C   UNL     1       2.982   1.726  -0.246  0.00  0.00    +0.238 C 
ATOM     25  C   UNL     1       3.695   1.575   0.920  0.00  0.00    +0.196 C 
BRANCH  24  27
ATOM     26  O   UNL     1       2.867   3.277  -2.070  0.00  0.00    -0.248 OA
ATOM     27  C   UNL     1       2.569   2.919  -0.916  0.00  0.00    +0.340 C 
BRANCH  27  28
ATOM     28  O   UNL     1       1.755   3.711  -0.146  0.00  0.00    -0.479 OA
ATOM     29  H   UNL     1       1.529   3.445   0.723  0.00  0.00    +0.295 HD
ENDBRANCH  27  28
ENDBRANCH  24  27
BRANCH  23  30
ATOM     30  C   UNL     1       3.209  -1.869   0.097  0.00  0.00    +0.075 C 
BRANCH  30  31
ATOM     31  C   UNL     1       4.562  -2.533   0.368  0.00  0.00    +0.009 C 
BRANCH  31  32
ATOM     32  C   UNL     1       4.483  -4.049   0.183  0.00  0.00    +0.000 C 
ATOM     33  C   UNL     1       5.832  -4.710   0.412  0.00  0.00    +0.000 C 
ENDBRANCH  31  32
ENDBRANCH  30  31
ENDBRANCH  23  30
ENDBRANCH  19  21
ENDBRANCH   1  19
TORSDOF 9
