REMARK  Name = 108168
REMARK  3 active torsions:
REMARK  status: ('A' for Active; 'I' for Inactive)
REMARK    1  A    between atoms: C_8  and  C_22
REMARK    2  A    between atoms: C_9  and  N_20
REMARK    3  A    between atoms: C_22  and  O_23
REMARK                            x       y       z     vdW  Elec       q    Type
REMARK                         _______ _______ _______ _____ _____    ______ ____
ROOT
ATOM      1  O   UNL     1      -1.609   2.841  -0.001  0.00  0.00    -0.435 OA
ATOM      2  O   UNL     1       0.501   3.976  -0.014  0.00  0.00    -0.435 OA
ATOM      3  C   UNL     1      -0.676   0.543  -0.007  0.00  0.00    +0.039 C 
ATOM      4  C   UNL     1       0.574  -0.140  -0.015  0.00  0.00    +0.032 C 
ATOM      5  C   UNL     1      -1.902  -0.234   0.000  0.00  0.00    +0.003 C 
ATOM      6  C   UNL     1      -0.571   1.951  -0.008  0.00  0.00    +0.176 C 
ATOM      7  C   UNL     1      -1.816  -1.652   0.001  0.00  0.00    +0.002 C 
ATOM      8  C   UNL     1       1.799   0.567  -0.022  0.00  0.00    +0.080 C 
ATOM      9  C   UNL     1       0.606  -1.535  -0.014  0.00  0.00    +0.143 C 
ATOM     10  C   UNL     1       0.638   2.621  -0.016  0.00  0.00    +0.177 C 
ATOM     11  C   UNL     1      -0.569  -2.279  -0.006  0.00  0.00    +0.024 C 
ATOM     12  C   UNL     1       1.839   1.958  -0.023  0.00  0.00    +0.047 C 
ATOM     13  C   UNL     1      -3.212   0.310   0.007  0.00  0.00    +0.000 C 
ATOM     14  C   UNL     1      -0.929   4.106  -0.005  0.00  0.00    +0.429 C 
ATOM     15  C   UNL     1      -2.976  -2.447   0.009  0.00  0.00    +0.000 C 
ATOM     16  C   UNL     1      -4.359  -0.491   0.014  0.00  0.00    +0.000 C 
ATOM     17  C   UNL     1      -4.241  -1.870   0.015  0.00  0.00    +0.000 C 
ENDROOT
BRANCH   9  20
ATOM     18  O   UNL     1       2.287  -2.660  -1.121  0.00  0.00    -0.126 OA
ATOM     19  O   UNL     1       2.300  -2.659   1.074  0.00  0.00    -0.126 OA
ATOM     20  N   UNL     1       1.794  -2.327  -0.021  0.00  0.00    +0.058 N 
ENDBRANCH   9  20
BRANCH   8  22
ATOM     21  O   UNL     1       3.776  -0.317  -1.040  0.00  0.00    -0.245 OA
ATOM     22  C   UNL     1       3.135  -0.029  -0.030  0.00  0.00    +0.338 C 
BRANCH  22  23
ATOM     23  O   UNL     1       3.611  -0.235   1.225  0.00  0.00    -0.477 OA
ATOM     24  H   UNL     1       3.089  -0.001   1.968  0.00  0.00    +0.295 HD
ENDBRANCH  22  23
ENDBRANCH   8  22
TORSDOF 3
