REMARK  Name = 10811352
REMARK  16 active torsions:
REMARK  status: ('A' for Active; 'I' for Inactive)
REMARK    1  A    between atoms: C_1  and  O_2
REMARK    2  A    between atoms: C_1  and  C_4
REMARK    3  A    between atoms: C_1  and  C_18
REMARK    4  A    between atoms: C_4  and  C_5
REMARK    5  A    between atoms: C_5  and  C_6
REMARK    6  A    between atoms: C_6  and  C_7
REMARK    7  A    between atoms: C_7  and  C_8
REMARK    8  A    between atoms: C_8  and  C_9
REMARK    9  A    between atoms: C_9  and  C_12
REMARK   10  A    between atoms: C_18  and  C_19
REMARK   11  A    between atoms: C_19  and  O_20
REMARK   12  A    between atoms: C_19  and  C_23
REMARK   13  A    between atoms: C_19  and  C_26
REMARK   14  A    between atoms: C_23  and  O_24
REMARK   15  A    between atoms: C_26  and  C_28
REMARK   16  A    between atoms: C_28  and  O_29
REMARK                            x       y       z     vdW  Elec       q    Type
REMARK                         _______ _______ _______ _____ _____    ______ ____
ROOT
ATOM      1  C   UNL     1       3.111   0.535  -0.255  0.00  0.00    +0.113 C 
ENDROOT
BRANCH   1   2
ATOM      2  O   UNL     1       3.196   0.293  -1.655  0.00  0.00    -0.384 OA
ATOM      3  H   UNL     1       2.454   0.729  -2.104  0.00  0.00    +0.210 HD
ENDBRANCH   1   2
BRANCH   1   4
ATOM      4  C   UNL     1       1.739   0.034   0.228  0.00  0.00    +0.029 C 
BRANCH   4   5
ATOM      5  C   UNL     1       0.560   0.659  -0.519  0.00  0.00    +0.002 C 
BRANCH   5   6
ATOM      6  C   UNL     1      -0.799   0.104  -0.080  0.00  0.00    +0.000 C 
BRANCH   6   7
ATOM      7  C   UNL     1      -2.025   0.706  -0.776  0.00  0.00    +0.000 C 
BRANCH   7   8
ATOM      8  C   UNL     1      -3.355   0.154  -0.253  0.00  0.00    +0.005 C 
BRANCH   8   9
ATOM      9  C   UNL     1      -4.575   0.827  -0.894  0.00  0.00    +0.027 C 
BRANCH   9  12
ATOM     10 CL   UNL     1      -5.932   2.064   1.581  0.00  0.00    -0.083 Cl
ATOM     11 CL   UNL     1      -9.830  -1.557   0.766  0.00  0.00    -0.082 Cl
ATOM     12  C   UNL     1      -5.896   0.250  -0.452  0.00  0.00    -0.012 C 
ATOM     13  C   UNL     1      -6.567   0.754   0.653  0.00  0.00    +0.055 C 
ATOM     14  C   UNL     1      -6.422  -0.804  -1.187  0.00  0.00    -0.003 C 
ATOM     15  C   UNL     1      -7.787   0.194   1.032  0.00  0.00    +0.022 C 
ATOM     16  C   UNL     1      -7.642  -1.364  -0.809  0.00  0.00    +0.011 C 
ATOM     17  C   UNL     1      -8.325  -0.865   0.300  0.00  0.00    +0.058 C 
ENDBRANCH   9  12
ENDBRANCH   8   9
ENDBRANCH   7   8
ENDBRANCH   6   7
ENDBRANCH   5   6
ENDBRANCH   4   5
ENDBRANCH   1   4
BRANCH   1  18
ATOM     18  C   UNL     1       4.282  -0.151   0.474  0.00  0.00    +0.068 C 
BRANCH  18  19
ATOM     19  C   UNL     1       5.718   0.216   0.027  0.00  0.00    +0.190 C 
BRANCH  19  20
ATOM     20  O   UNL     1       5.757   0.104  -1.405  0.00  0.00    -0.376 OA
ATOM     21  H   UNL     1       5.553  -0.809  -1.663  0.00  0.00    +0.211 HD
ENDBRANCH  19  20
BRANCH  19  23
ATOM     22  O   UNL     1       6.211   2.532  -0.606  0.00  0.00    -0.248 OA
ATOM     23  C   UNL     1       6.056   1.690   0.268  0.00  0.00    +0.339 C 
BRANCH  23  24
ATOM     24  O   UNL     1       6.178   1.995   1.589  0.00  0.00    -0.479 OA
ATOM     25  H   UNL     1       6.054   1.330   2.237  0.00  0.00    +0.295 HD
ENDBRANCH  23  24
ENDBRANCH  19  23
BRANCH  19  26
ATOM     26  C   UNL     1       6.823  -0.677   0.612  0.00  0.00    +0.147 C 
BRANCH  26  28
ATOM     27  O   UNL     1       6.530  -2.715  -0.664  0.00  0.00    -0.250 OA
ATOM     28  C   UNL     1       6.585  -2.160   0.426  0.00  0.00    +0.317 C 
BRANCH  28  29
ATOM     29  O   UNL     1       6.412  -2.816   1.600  0.00  0.00    -0.480 OA
ATOM     30  H   UNL     1       6.463  -2.348   2.410  0.00  0.00    +0.295 HD
ENDBRANCH  28  29
ENDBRANCH  26  28
ENDBRANCH  19  26
ENDBRANCH  18  19
ENDBRANCH   1  18
TORSDOF 16
