REMARK  Name = 108192
REMARK  7 active torsions:
REMARK  status: ('A' for Active; 'I' for Inactive)
REMARK    1  A    between atoms: C_8  and  O_21
REMARK    2  A    between atoms: O_21  and  C_23
REMARK    3  A    between atoms: C_24  and  O_28
REMARK    4  A    between atoms: C_25  and  O_30
REMARK    5  A    between atoms: C_26  and  C_35
REMARK    6  A    between atoms: C_27  and  O_32
REMARK    7  A    between atoms: C_35  and  O_36
REMARK                            x       y       z     vdW  Elec       q    Type
REMARK                         _______ _______ _______ _____ _____    ______ ____
ROOT
ATOM      1  O   UNL     1       8.271  -0.428   1.860  0.00  0.00    -0.291 OA
ATOM      2  C   UNL     1       1.018  -0.824  -0.504  0.00  0.00    +0.002 C 
ATOM      3  C   UNL     1       0.239   0.501  -0.611  0.00  0.00    +0.025 C 
ATOM      4  C   UNL     1       2.503  -0.666  -0.846  0.00  0.00    +0.001 C 
ATOM      5  C   UNL     1       3.141   0.359   0.144  0.00  0.00    +0.003 C 
ATOM      6  C   UNL     1       4.687   0.562  -0.095  0.00  0.00    +0.016 C 
ATOM      7  C   UNL     1       0.823   1.479   0.417  0.00  0.00    +0.002 C 
ATOM      8  C   UNL     1      -1.175  -0.013  -0.281  0.00  0.00    +0.118 C 
ATOM      9  C   UNL     1       2.333   1.686   0.205  0.00  0.00    +0.000 C 
ATOM     10  C   UNL     1       0.169  -1.802  -1.312  0.00  0.00    +0.003 C 
ATOM     11  C   UNL     1       3.242  -2.007  -0.764  0.00  0.00    +0.004 C 
ATOM     12  C   UNL     1      -1.277  -1.345  -1.050  0.00  0.00    +0.030 C 
ATOM     13  C   UNL     1       5.376  -0.806  -0.182  0.00  0.00    -0.042 C 
ATOM     14  C   UNL     1       0.262   1.153  -2.017  0.00  0.00    +0.002 C 
ATOM     15  C   UNL     1       4.724  -1.839  -1.071  0.00  0.00    +0.022 C 
ATOM     16  C   UNL     1       5.264   1.374   1.100  0.00  0.00    +0.012 C 
ATOM     17  C   UNL     1       4.973   1.329  -1.406  0.00  0.00    +0.004 C 
ATOM     18  C   UNL     1       6.781   1.324   1.196  0.00  0.00    +0.069 C 
ATOM     19  C   UNL     1       6.514  -1.116   0.461  0.00  0.00    +0.029 C 
ATOM     20  C   UNL     1       7.256  -0.104   1.247  0.00  0.00    +0.173 C 
ENDROOT
BRANCH   8  21
ATOM     21  O   UNL     1      -2.194   0.892  -0.662  0.00  0.00    -0.331 OA
BRANCH  21  23
ATOM     22  O   UNL     1      -3.863  -0.583   0.034  0.00  0.00    -0.317 OA
ATOM     23  C   UNL     1      -3.361   0.746   0.147  0.00  0.00    +0.266 C 
ATOM     24  C   UNL     1      -4.403   1.752  -0.343  0.00  0.00    +0.196 C 
ATOM     25  C   UNL     1      -5.735   1.568   0.385  0.00  0.00    +0.172 C 
ATOM     26  C   UNL     1      -5.017  -0.796   0.837  0.00  0.00    +0.245 C 
ATOM     27  C   UNL     1      -6.167   0.101   0.396  0.00  0.00    +0.178 C 
BRANCH  24  28
ATOM     28  O   UNL     1      -3.906   3.067  -0.096  0.00  0.00    -0.378 OA
ATOM     29  H   UNL     1      -3.061   3.186  -0.557  0.00  0.00    +0.211 HD
ENDBRANCH  24  28
BRANCH  25  30
ATOM     30  O   UNL     1      -6.750   2.322  -0.280  0.00  0.00    -0.379 OA
ATOM     31  H   UNL     1      -6.497   3.258  -0.299  0.00  0.00    +0.211 HD
ENDBRANCH  25  30
BRANCH  27  32
ATOM     32  O   UNL     1      -7.250  -0.059   1.310  0.00  0.00    -0.379 OA
ATOM     33  H   UNL     1      -7.989   0.508   1.038  0.00  0.00    +0.211 HD
ENDBRANCH  27  32
BRANCH  26  35
ATOM     34  O   UNL     1      -4.739  -2.973  -0.168  0.00  0.00    -0.247 OA
ATOM     35  C   UNL     1      -5.341  -2.236   0.599  0.00  0.00    +0.344 C 
BRANCH  35  36
ATOM     36  O   UNL     1      -6.401  -2.619   1.351  0.00  0.00    -0.478 OA
ATOM     37  H   UNL     1      -6.819  -2.003   1.920  0.00  0.00    +0.295 HD
ENDBRANCH  35  36
ENDBRANCH  26  35
ENDBRANCH  21  23
ENDBRANCH   8  21
TORSDOF 7
