REMARK  Name = 108108
REMARK  12 active torsions:
REMARK  status: ('A' for Active; 'I' for Inactive)
REMARK    1  A    between atoms: C_1  and  O_2
REMARK    2  A    between atoms: C_1  and  C_4
REMARK    3  A    between atoms: C_1  and  C_13
REMARK    4  A    between atoms: C_4  and  O_5
REMARK    5  A    between atoms: C_4  and  C_7
REMARK    6  A    between atoms: C_7  and  O_8
REMARK    7  A    between atoms: C_7  and  C_10
REMARK    8  A    between atoms: C_10  and  C_12
REMARK    9  A    between atoms: C_13  and  O_14
REMARK   10  A    between atoms: O_14  and  P_15
REMARK   11  A    between atoms: P_15  and  O_17
REMARK   12  A    between atoms: P_15  and  O_19
REMARK                            x       y       z     vdW  Elec       q    Type
REMARK                         _______ _______ _______ _____ _____    ______ ____
ROOT
ATOM      1  C   UNL     1      -0.138  -0.491   0.078  0.00  0.00    +0.170 C 
ENDROOT
BRANCH   1   2
ATOM      2  O   UNL     1      -0.249  -1.812  -0.454  0.00  0.00    -0.379 OA
ATOM      3  H   UNL     1       0.569  -2.303  -0.276  0.00  0.00    +0.211 HD
ENDBRANCH   1   2
BRANCH   1   4
ATOM      4  C   UNL     1       1.090   0.220  -0.520  0.00  0.00    +0.167 C 
BRANCH   4   5
ATOM      5  O   UNL     1       1.133   1.569  -0.039  0.00  0.00    -0.379 OA
ATOM      6  H   UNL     1       0.292   2.010  -0.236  0.00  0.00    +0.211 HD
ENDBRANCH   4   5
BRANCH   4   7
ATOM      7  C   UNL     1       2.451  -0.413  -0.173  0.00  0.00    +0.147 C 
BRANCH   7   8
ATOM      8  O   UNL     1       2.563  -0.445   1.257  0.00  0.00    -0.381 OA
ATOM      9  H   UNL     1       1.815  -0.939   1.629  0.00  0.00    +0.210 HD
ENDBRANCH   7   8
BRANCH   7  10
ATOM     10  C   UNL     1       3.649   0.374  -0.700  0.00  0.00    +0.104 C 
BRANCH  10  12
ATOM     11  O   UNL     1       5.737   0.365   0.507  0.00  0.00    -0.288 OA
ATOM     12  C   UNL     1       4.936  -0.236  -0.203  0.00  0.00    +0.210 C 
ENDBRANCH  10  12
ENDBRANCH   7  10
ENDBRANCH   4   7
ENDBRANCH   1   4
BRANCH   1  13
ATOM     13  C   UNL     1      -1.447   0.236  -0.229  0.00  0.00    +0.185 C 
BRANCH  13  14
ATOM     14  O   UNL     1      -2.527  -0.507   0.329  0.00  0.00    -0.271 OA
BRANCH  14  15
ATOM     15  P   UNL     1      -4.026   0.062   0.136  0.00  0.00    +0.473 P 
ATOM     16  O   UNL     1      -5.109  -0.775   0.751  0.00  0.00    -0.227 OA
BRANCH  15  17
ATOM     17  O   UNL     1      -4.151   0.290  -1.460  0.00  0.00    -0.303 OA
ATOM     18  H   UNL     1      -3.412   0.839  -1.766  0.00  0.00    +0.222 HD
ENDBRANCH  15  17
BRANCH  15  19
ATOM     19  O   UNL     1      -3.912   1.566   0.719  0.00  0.00    -0.303 OA
ATOM     20  H   UNL     1      -3.191   2.033   0.269  0.00  0.00    +0.222 HD
ENDBRANCH  15  19
ENDBRANCH  14  15
ENDBRANCH  13  14
ENDBRANCH   1  13
TORSDOF 12
