REMARK  Name = 10810506
REMARK  2 active torsions:
REMARK  status: ('A' for Active; 'I' for Inactive)
REMARK    1  A    between atoms: C_10  and  O_27
REMARK    2  A    between atoms: C_17  and  O_29
REMARK                            x       y       z     vdW  Elec       q    Type
REMARK                         _______ _______ _______ _____ _____    ______ ____
ROOT
ATOM      1  O   UNL     1      -0.271  -0.086  -1.118  0.00  0.00    -0.336 OA
ATOM      2  O   UNL     1       0.268  -0.909   1.109  0.00  0.00    -0.311 OA
ATOM      3  O   UNL     1      -3.834   1.972   0.788  0.00  0.00    -0.452 OA
ATOM      4  O   UNL     1       3.824  -0.383   0.429  0.00  0.00    -0.447 OA
ATOM      5  O   UNL     1      -2.408   3.700   0.162  0.00  0.00    -0.250 OA
ATOM      6  O   UNL     1       5.555   0.922  -0.330  0.00  0.00    -0.250 OA
ATOM      7  C   UNL     1      -2.203   0.345   0.832  0.00  0.00    +0.060 C 
ATOM      8  C   UNL     1      -1.961  -1.092   0.381  0.00  0.00    +0.080 C 
ATOM      9  C   UNL     1      -1.875   1.358  -0.250  0.00  0.00    +0.130 C 
ATOM     10  C   UNL     1      -3.168  -1.362  -0.551  0.00  0.00    +0.096 C 
ATOM     11  C   UNL     1      -0.501  -1.101  -0.114  0.00  0.00    +0.192 C 
ATOM     12  C   UNL     1      -3.677   0.547   0.983  0.00  0.00    +0.172 C 
ATOM     13  C   UNL     1      -0.438   1.280  -0.698  0.00  0.00    +0.128 C 
ATOM     14  C   UNL     1      -4.289  -0.358  -0.102  0.00  0.00    +0.071 C 
ATOM     15  C   UNL     1       0.723   1.718   0.212  0.00  0.00    +0.035 C 
ATOM     16  C   UNL     1       2.042   0.994  -0.178  0.00  0.00    +0.058 C 
ATOM     17  C   UNL     1       1.604  -1.386   0.892  0.00  0.00    +0.223 C 
ATOM     18  C   UNL     1       2.466  -0.115   0.788  0.00  0.00    +0.220 C 
ATOM     19  C   UNL     1      -2.664   2.515   0.261  0.00  0.00    +0.319 C 
ATOM     20  C   UNL     1       0.159  -2.294  -0.700  0.00  0.00    +0.061 C 
ATOM     21  C   UNL     1      -3.634  -2.814  -0.456  0.00  0.00    +0.030 C 
ATOM     22  C   UNL     1       1.419  -2.350  -0.243  0.00  0.00    +0.060 C 
ATOM     23  C   UNL     1       3.303   1.855  -0.131  0.00  0.00    +0.103 C 
ATOM     24  C   UNL     1       4.375   0.784  -0.044  0.00  0.00    +0.317 C 
ATOM     25  C   UNL     1       2.493  -3.265  -0.710  0.00  0.00    +0.005 C 
ATOM     26  C   UNL     1       3.468   2.735  -1.358  0.00  0.00    +0.012 C 
ENDROOT
BRANCH  10  27
ATOM     27  O   UNL     1      -2.825  -1.118  -1.913  0.00  0.00    -0.386 OA
ATOM     28  H   UNL     1      -2.523  -0.202  -2.011  0.00  0.00    +0.210 HD
ENDBRANCH  10  27
BRANCH  17  29
ATOM     29  O   UNL     1       2.048  -2.090   2.058  0.00  0.00    -0.361 OA
ATOM     30  H   UNL     1       2.167  -1.463   2.789  0.00  0.00    +0.213 HD
ENDBRANCH  17  29
TORSDOF 2
