REMARK  Name = 108172
REMARK  11 active torsions:
REMARK  status: ('A' for Active; 'I' for Inactive)
REMARK    1  A    between atoms: CA_1  and  N_2
REMARK    2  A    between atoms: CA_1  and  C_12
REMARK    3  A    between atoms: CA_1  and  CB_15
REMARK    4  A    between atoms: N_2  and  CA_5
REMARK    5  A    between atoms: CA_5  and  C_8
REMARK    6  A    between atoms: C_8  and  O_9
REMARK    7  A    between atoms: C_12  and  O_13
REMARK    8  A    between atoms: CB_15  and  CG_16
REMARK    9  A    between atoms: CG_16  and  CD_17
REMARK   10  A    between atoms: CD_17  and  NE_18
REMARK   11  A    between atoms: NE_18  and  CZ_21
REMARK                            x       y       z     vdW  Elec       q    Type
REMARK                         _______ _______ _______ _____ _____    ______ ____
ROOT
ATOM      1  CA  ALA A   1       0.701  -0.453   0.291  0.00  0.00    +0.040 C 
ENDROOT
BRANCH   1   2
ATOM      2  N   ALA A   1       1.642   0.540  -0.222  0.00  0.00    +0.400 N 
ATOM      3  H1  ALA A   1       1.366   1.465   0.109  0.00  0.00    -0.083 HD
ATOM      4  H2  ALA A   1       1.627   0.509  -1.242  0.00  0.00    -0.083 HD
BRANCH   2   5
ATOM      5  CA  ALA A   1       2.994   0.254   0.233  0.00  0.00    +0.040 C 
ATOM      6  CB  ALA A   1       3.036   0.261   1.755  0.00  0.00    -0.012 C 
BRANCH   5   8
ATOM      7  OXT ALA A   1       3.585   2.269  -1.022  0.00  0.00    -0.253 OA
ATOM      8  C   ALA A   1       3.915   1.313  -0.335  0.00  0.00    +0.293 C 
BRANCH   8   9
ATOM      9  O   ALA A   1       5.200   1.070   0.035  0.00  0.00    -0.482 OA
ATOM     10  H   ALA A   1       5.403   0.322   0.563  0.00  0.00    +0.295 HD
ENDBRANCH   8   9
ENDBRANCH   5   8
ENDBRANCH   2   5
ENDBRANCH   1   2
BRANCH   1  12
ATOM     11  OXT ALA A   1       1.268  -2.092  -1.420  0.00  0.00    -0.253 OA
ATOM     12  C   ALA A   1       1.179  -1.793  -0.237  0.00  0.00    +0.293 C 
BRANCH  12  13
ATOM     13  O   ALA A   1       1.532  -2.641   0.765  0.00  0.00    -0.482 OA
ATOM     14  H   ALA A   1       1.447  -2.372   1.659  0.00  0.00    +0.295 HD
ENDBRANCH  12  13
ENDBRANCH   1  12
BRANCH   1  15
ATOM     15  CB  ALA A   1      -0.722  -0.115  -0.177  0.00  0.00    -0.008 C 
BRANCH  15  16
ATOM     16  CG  ALA A   1      -1.746  -1.166   0.274  0.00  0.00    +0.025 C 
BRANCH  16  17
ATOM     17  CD  ALA A   1      -3.158  -0.847  -0.206  0.00  0.00    +0.129 C 
BRANCH  17  18
ATOM     18  NE  ALA A   1      -3.598   0.432   0.355  0.00  0.00    -0.240 NA
BRANCH  18  21
ATOM     19  NH1 ALA A   1      -5.292   2.001   0.555  0.00  0.00    -0.370 N 
ATOM     20  NH2 ALA A   1      -5.734   0.157  -0.710  0.00  0.00    -0.370 N 
ATOM     21  CZ  ALA A   1      -4.804   0.812   0.067  0.00  0.00    +0.189 C 
ATOM     22 HH11 ALA A   1      -4.725   2.568   1.126  0.00  0.00    +0.159 HD
ATOM     23 HH12 ALA A   1      -6.208   2.285   0.333  0.00  0.00    +0.159 HD
ATOM     24 HH21 ALA A   1      -5.509  -0.709  -1.121  0.00  0.00    +0.159 HD
ATOM     25 HH22 ALA A   1      -6.623   0.554  -0.853  0.00  0.00    +0.159 HD
ENDBRANCH  18  21
ENDBRANCH  17  18
ENDBRANCH  16  17
ENDBRANCH  15  16
ENDBRANCH   1  15
TORSDOF 11
