108168
  -OEChem-03292013323D

 32 35  0     0  0  0  0  0  0999 V2000
   -1.6093    2.8408   -0.0010 O   0  0  0  0  0  0  0  0  0  0  0  0
    0.5009    3.9759   -0.0141 O   0  0  0  0  0  0  0  0  0  0  0  0
    3.6106   -0.2352    1.2253 O   0  0  0  0  0  0  0  0  0  0  0  0
    3.7759   -0.3166   -1.0402 O   0  0  0  0  0  0  0  0  0  0  0  0
    2.2866   -2.6597   -1.1214 O   0  5  0  0  0  0  0  0  0  0  0  0
    2.3001   -2.6587    1.0738 O   0  0  0  0  0  0  0  0  0  0  0  0
    1.7938   -2.3267   -0.0209 N   0  3  0  0  0  0  0  0  0  0  0  0
   -0.6764    0.5430   -0.0074 C   0  0  0  0  0  0  0  0  0  0  0  0
    0.5739   -0.1396   -0.0146 C   0  0  0  0  0  0  0  0  0  0  0  0
   -1.9016   -0.2343    0.0001 C   0  0  0  0  0  0  0  0  0  0  0  0
   -0.5714    1.9509   -0.0083 C   0  0  0  0  0  0  0  0  0  0  0  0
   -1.8160   -1.6524    0.0010 C   0  0  0  0  0  0  0  0  0  0  0  0
    1.7991    0.5671   -0.0225 C   0  0  0  0  0  0  0  0  0  0  0  0
    0.6055   -1.5350   -0.0139 C   0  0  0  0  0  0  0  0  0  0  0  0
    0.6378    2.6213   -0.0156 C   0  0  0  0  0  0  0  0  0  0  0  0
   -0.5687   -2.2789   -0.0060 C   0  0  0  0  0  0  0  0  0  0  0  0
    1.8393    1.9575   -0.0232 C   0  0  0  0  0  0  0  0  0  0  0  0
   -3.2120    0.3099    0.0068 C   0  0  0  0  0  0  0  0  0  0  0  0
   -0.9286    4.1065   -0.0054 C   0  0  0  0  0  0  0  0  0  0  0  0
   -2.9757   -2.4466    0.0085 C   0  0  0  0  0  0  0  0  0  0  0  0
   -4.3588   -0.4906    0.0141 C   0  0  0  0  0  0  0  0  0  0  0  0
   -4.2406   -1.8703    0.0149 C   0  0  0  0  0  0  0  0  0  0  0  0
    3.1355   -0.0285   -0.0299 C   0  0  0  0  0  0  0  0  0  0  0  0
   -0.5170   -3.3683   -0.0055 H   0  0  0  0  0  0  0  0  0  0  0  0
    2.7743    2.5087   -0.0291 H   0  0  0  0  0  0  0  0  0  0  0  0
   -3.3808    1.3815    0.0064 H   0  0  0  0  0  0  0  0  0  0  0  0
   -1.2265    4.6694    0.8865 H   0  0  0  0  0  0  0  0  0  0  0  0
   -1.2373    4.6690   -0.8939 H   0  0  0  0  0  0  0  0  0  0  0  0
   -2.9031   -3.5329    0.0091 H   0  0  0  0  0  0  0  0  0  0  0  0
   -5.3416   -0.0280    0.0190 H   0  0  0  0  0  0  0  0  0  0  0  0
   -5.1271   -2.4968    0.0206 H   0  0  0  0  0  0  0  0  0  0  0  0
    4.5062   -0.6355    1.2160 H   0  0  0  0  0  0  0  0  0  0  0  0
  1 11  1  0  0  0  0
  1 19  1  0  0  0  0
  2 15  1  0  0  0  0
  2 19  1  0  0  0  0
  3 23  1  0  0  0  0
  3 32  1  0  0  0  0
  4 23  2  0  0  0  0
  5  7  1  0  0  0  0
  6  7  2  0  0  0  0
  7 14  1  0  0  0  0
  8  9  2  0  0  0  0
  8 10  1  0  0  0  0
  8 11  1  0  0  0  0
  9 13  1  0  0  0  0
  9 14  1  0  0  0  0
 10 12  1  0  0  0  0
 10 18  2  0  0  0  0
 11 15  2  0  0  0  0
 12 16  1  0  0  0  0
 12 20  2  0  0  0  0
 13 17  2  0  0  0  0
 13 23  1  0  0  0  0
 14 16  2  0  0  0  0
 15 17  1  0  0  0  0
 16 24  1  0  0  0  0
 17 25  1  0  0  0  0
 18 21  1  0  0  0  0
 18 26  1  0  0  0  0
 19 27  1  0  0  0  0
 19 28  1  0  0  0  0
 20 22  1  0  0  0  0
 20 29  1  0  0  0  0
 21 22  2  0  0  0  0
 21 30  1  0  0  0  0
 22 31  1  0  0  0  0
M  CHG  2   5  -1   7   1
M  END
> <PUBCHEM_COMPOUND_CID>
108168

> <PUBCHEM_CONFORMER_RMSD>
0.6

> <PUBCHEM_CONFORMER_DIVERSEORDER>
1

> <PUBCHEM_MMFF94_PARTIAL_CHARGES>
26
1 -0.36
11 0.08
13 0.09
14 0.13
15 0.08
16 -0.15
17 -0.15
18 -0.15
19 0.56
2 -0.36
20 -0.15
21 -0.15
22 -0.15
23 0.63
24 0.15
25 0.15
26 0.15
29 0.15
3 -0.65
30 0.15
31 0.15
32 0.5
4 -0.57
5 -0.52
6 -0.52
7 0.91

> <PUBCHEM_EFFECTIVE_ROTOR_COUNT>
2.6

> <PUBCHEM_PHARMACOPHORE_FEATURES>
12
1 1 acceptor
1 2 acceptor
1 3 acceptor
1 4 acceptor
1 5 acceptor
1 5 anion
1 6 acceptor
3 3 4 23 anion
5 1 2 11 15 19 rings
6 10 12 18 20 21 22 rings
6 8 9 10 12 14 16 rings
6 8 9 11 13 15 17 rings

> <PUBCHEM_HEAVY_ATOM_COUNT>
23

> <PUBCHEM_ATOM_DEF_STEREO_COUNT>
0

> <PUBCHEM_ATOM_UDEF_STEREO_COUNT>
0

> <PUBCHEM_BOND_DEF_STEREO_COUNT>
0

> <PUBCHEM_BOND_UDEF_STEREO_COUNT>
0

> <PUBCHEM_ISOTOPIC_ATOM_COUNT>
0

> <PUBCHEM_COMPONENT_COUNT>
1

> <PUBCHEM_CACTVS_TAUTO_COUNT>
1

> <PUBCHEM_CONFORMER_ID>
0001A68800000001

> <PUBCHEM_MMFF94_ENERGY>
96.1046

> <PUBCHEM_FEATURE_SELFOVERLAP>
61.251

> <PUBCHEM_SHAPE_FINGERPRINT>
10319926 262 17690814806837225770
10411042 1 18338798914479901431
104564 63 18339647724233272540
10967382 1 18266741470517097005
1100329 8 17761207013892900704
11578080 2 17171202348140469996
116883 192 18268431226568137255
12553582 1 18410294717977867219
12788726 201 18262239923968406096
13140716 1 18266454502150575624
138480 1 14807694953439062893
14178342 30 18192699065192259176
14223421 5 18269550555354176562
14790565 3 18266190593633160804
15042514 8 18265609884353149056
15442244 35 18267869561226701217
16087824 20 18266464196884331625
16945 1 18410573976603747052
18785283 64 17974580396594761371
19591789 44 18121784086662504351
20645477 70 18049152565204433407
20739085 24 18191325959621132705
20905425 154 18269558247651335278
21197605 99 17763482625686465681
21267235 1 18339090388124373583
21421861 104 18042966475872275019
221490 88 17975984477001411451
2255824 54 18122627424928928669
23184049 29 18193271897280171018
2334 1 17978510067736371692
23366157 5 17682108129862705245
23419403 2 17681515377205038084
23558518 356 17974011652287696914
23559900 14 18196367246346155371
238 59 17474060721798602021
2748010 2 18122906417277411724
3091708 16 9354225465611813057
335352 9 18410575119619027103
34934 24 18411411817523412399
350125 39 17834403323571566064
352729 6 17690277110515108341
5104073 3 18194123156273405163
5939293 188 18267301130525472138
6438718 38 17773026454754074317
6443956 14 18337393845882256549
7364860 26 18051415359733294245
7832392 63 18340769333889896463
81228 2 18337963280993799233

> <PUBCHEM_SHAPE_MULTIPOLES>
433.13
6.03
4.5
0.76
4.07
3.54
-0.02
-2.95
-0.05
-1.69
0.04
-0.43
-0.32
0.01

> <PUBCHEM_SHAPE_SELFOVERLAP>
996.484

> <PUBCHEM_SHAPE_VOLUME>
221.8

> <PUBCHEM_COORDINATE_TYPE>
2
5
10

$$$$
