REMARK  Name = 108119
REMARK  7 active torsions:
REMARK  status: ('A' for Active; 'I' for Inactive)
REMARK    1  A    between atoms: N_2  and  N_3
REMARK    2  A    between atoms: N_2  and  C_5
REMARK    3  A    between atoms: N_3  and  C_20
REMARK    4  A    between atoms: C_6  and  N_13
REMARK    5  A    between atoms: C_7  and  N_16
REMARK    6  A    between atoms: C_18  and  N_26
REMARK    7  A    between atoms: C_19  and  N_29
REMARK                            x       y       z     vdW  Elec       q    Type
REMARK                         _______ _______ _______ _____ _____    ______ ____
ROOT
ATOM      1  O   UNL     1       0.054   0.914  -1.482  0.00  0.00    -0.063 OA
ATOM      2  N   UNL     1      -0.369   0.271  -0.461  0.00  0.00    -0.111 N 
ENDROOT
BRANCH   2   4
ATOM      3  C   UNL     1      -4.526  -0.114   0.106  0.00  0.00    +0.023 C 
ATOM      4  C   UNL     1      -1.806   0.138  -0.264  0.00  0.00    +0.111 C 
ATOM      5  C   UNL     1      -3.663  -1.103   0.578  0.00  0.00    +0.142 C 
ATOM      6  C   UNL     1      -4.013   1.002  -0.554  0.00  0.00    +0.142 C 
ATOM      7  C   UNL     1      -2.287  -0.975   0.391  0.00  0.00    +0.045 C 
ATOM      8  C   UNL     1      -2.636   1.130  -0.741  0.00  0.00    +0.045 C 
ATOM      9  C   UNL     1      -6.005  -0.251   0.307  0.00  0.00    +0.035 C 
BRANCH   5  12
ATOM     10  O   UNL     1      -3.349  -3.114   1.662  0.00  0.00    -0.126 OA
ATOM     11  O   UNL     1      -5.398  -2.365   1.423  0.00  0.00    -0.126 OA
ATOM     12  N   UNL     1      -4.162  -2.251   1.254  0.00  0.00    +0.057 N 
ENDBRANCH   5  12
BRANCH   6  15
ATOM     13  O   UNL     1      -4.365   3.010  -1.632  0.00  0.00    -0.126 OA
ATOM     14  O   UNL     1      -6.108   1.909  -0.878  0.00  0.00    -0.126 OA
ATOM     15  N   UNL     1      -4.871   2.025  -1.046  0.00  0.00    +0.057 N 
ENDBRANCH   6  15
ENDBRANCH   2   4
BRANCH   2  16
ATOM     16  N   UNL     1       0.370  -0.270   0.435  0.00  0.00    -0.111 NA
BRANCH  16  20
ATOM     17  C   UNL     1       4.527   0.036   0.027  0.00  0.00    +0.023 C 
ATOM     18  C   UNL     1       3.821   1.014   0.727  0.00  0.00    +0.142 C 
ATOM     19  C   UNL     1       3.848  -1.045  -0.538  0.00  0.00    +0.142 C 
ATOM     20  C   UNL     1       1.758  -0.167   0.298  0.00  0.00    +0.095 C 
ATOM     21  C   UNL     1       2.436   0.912   0.862  0.00  0.00    +0.042 C 
ATOM     22  C   UNL     1       2.464  -1.146  -0.402  0.00  0.00    +0.042 C 
ATOM     23  C   UNL     1       6.014   0.145  -0.120  0.00  0.00    +0.035 C 
BRANCH  18  26
ATOM     24  O   UNL     1       3.815   2.980   1.932  0.00  0.00    -0.126 OA
ATOM     25  O   UNL     1       5.734   2.215   1.190  0.00  0.00    -0.126 OA
ATOM     26  N   UNL     1       4.490   2.125   1.312  0.00  0.00    +0.057 N 
ENDBRANCH  18  26
BRANCH  19  29
ATOM     27  O   UNL     1       3.893  -3.007  -1.748  0.00  0.00    -0.126 OA
ATOM     28  O   UNL     1       5.789  -1.963  -1.379  0.00  0.00    -0.126 OA
ATOM     29  N   UNL     1       4.544  -2.055  -1.257  0.00  0.00    +0.057 N 
ENDBRANCH  19  29
ENDBRANCH  16  20
ENDBRANCH   2  16
TORSDOF 7
