REMARK  Name = 10811090
REMARK  9 active torsions:
REMARK  status: ('A' for Active; 'I' for Inactive)
REMARK    1  A    between atoms: C_2  and  O_8
REMARK    2  A    between atoms: C_2  and  C_14
REMARK    3  A    between atoms: C_3  and  O_10
REMARK    4  A    between atoms: C_3  and  C_24
REMARK    5  A    between atoms: C_5  and  O_12
REMARK    6  A    between atoms: C_14  and  C_17
REMARK    7  A    between atoms: C_19  and  O_22
REMARK    8  A    between atoms: C_24  and  C_26
REMARK    9  A    between atoms: C_26  and  C_27
REMARK                            x       y       z     vdW  Elec       q    Type
REMARK                         _______ _______ _______ _____ _____    ______ ____
ROOT
ATOM      1  O   UNL     1      -1.956   3.046  -0.449  0.00  0.00    -0.293 OA
ATOM      2  C   UNL     1       0.654   0.705   0.018  0.00  0.00    +0.127 C 
ATOM      3  C   UNL     1      -0.799   1.090   0.398  0.00  0.00    +0.169 C 
ATOM      4  C   UNL     1       0.736   0.120  -1.403  0.00  0.00    +0.060 C 
ATOM      5  C   UNL     1       0.135   1.064  -2.452  0.00  0.00    +0.120 C 
ATOM      6  C   UNL     1      -1.294   1.461  -2.115  0.00  0.00    +0.096 C 
ATOM      7  C   UNL     1      -1.387   1.983  -0.698  0.00  0.00    +0.180 C 
ENDROOT
BRANCH   2   8
ATOM      8  O   UNL     1       1.458   1.897   0.026  0.00  0.00    -0.383 OA
ATOM      9  H   UNL     1       1.086   2.542  -0.596  0.00  0.00    +0.210 HD
ENDBRANCH   2   8
BRANCH   3  10
ATOM     10  O   UNL     1      -0.773   1.843   1.609  0.00  0.00    -0.377 OA
ATOM     11  H   UNL     1      -0.188   2.609   1.500  0.00  0.00    +0.211 HD
ENDBRANCH   3  10
BRANCH   5  12
ATOM     12  O   UNL     1       0.135   0.420  -3.723  0.00  0.00    -0.384 OA
ATOM     13  H   UNL     1       1.040   0.159  -3.953  0.00  0.00    +0.210 HD
ENDBRANCH   5  12
BRANCH   2  14
ATOM     14  C   UNL     1       1.300  -0.261   1.019  0.00  0.00    +0.094 C 
BRANCH  14  17
ATOM     15  O   UNL     1       2.955  -1.595  -0.176  0.00  0.00    -0.425 OA
ATOM     16  O   UNL     1       4.440  -2.881  -1.320  0.00  0.00    -0.244 OA
ATOM     17  C   UNL     1       2.730  -0.503   0.697  0.00  0.00    +0.132 C 
ATOM     18  C   UNL     1       3.743   0.231   1.175  0.00  0.00    +0.070 C 
ATOM     19  C   UNL     1       5.086  -0.102   0.789  0.00  0.00    +0.148 C 
ATOM     20  C   UNL     1       4.222  -1.940  -0.564  0.00  0.00    +0.349 C 
ATOM     21  C   UNL     1       5.334  -1.126  -0.033  0.00  0.00    +0.119 C 
BRANCH  19  22
ATOM     22  O   UNL     1       6.106   0.672   1.299  0.00  0.00    -0.471 OA
ATOM     23  C   UNL     1       7.363   0.222   0.831  0.00  0.00    +0.252 C 
ENDBRANCH  19  22
ENDBRANCH  14  17
ENDBRANCH   2  14
BRANCH   3  24
ATOM     24  C   UNL     1      -1.732  -0.106   0.614  0.00  0.00    +0.105 C 
BRANCH  24  26
ATOM     25  O   UNL     1      -3.329   1.361   1.665  0.00  0.00    -0.291 OA
ATOM     26  C   UNL     1      -3.123   0.330   1.029  0.00  0.00    +0.176 C 
BRANCH  26  27
ATOM     27  C   UNL     1      -4.279  -0.533   0.644  0.00  0.00    +0.035 C 
ATOM     28  C   UNL     1      -4.076  -1.889   0.522  0.00  0.00    +0.003 C 
ATOM     29  C   UNL     1      -5.501   0.060   0.428  0.00  0.00    +0.003 C 
ATOM     30  C   UNL     1      -5.156  -2.696   0.163  0.00  0.00    +0.000 C 
ATOM     31  C   UNL     1      -6.581  -0.747   0.070  0.00  0.00    +0.000 C 
ATOM     32  C   UNL     1      -6.408  -2.125  -0.063  0.00  0.00    +0.000 C 
ENDBRANCH  26  27
ENDBRANCH  24  26
ENDBRANCH   3  24
TORSDOF 9
