REMARK  Name = 108213
REMARK  7 active torsions:
REMARK  status: ('A' for Active; 'I' for Inactive)
REMARK    1  A    between atoms: C_3  and  C_12
REMARK    2  A    between atoms: C_5  and  C_28
REMARK    3  A    between atoms: C_7  and  O_25
REMARK    4  A    between atoms: C_14  and  C_22
REMARK    5  A    between atoms: C_16  and  O_19
REMARK    6  A    between atoms: C_22  and  O_23
REMARK    7  A    between atoms: C_28  and  O_29
REMARK                            x       y       z     vdW  Elec       q    Type
REMARK                         _______ _______ _______ _____ _____    ______ ____
ROOT
ATOM      1  O   UNL     1      -1.240   1.486  -1.906  0.00  0.00    -0.435 OA
ATOM      2  O   UNL     1      -3.599   0.990  -1.940  0.00  0.00    -0.431 OA
ATOM      3  C   UNL     1      -0.707  -0.159  -0.183  0.00  0.00    +0.047 C 
ATOM      4  C   UNL     1      -1.576   0.506  -1.023  0.00  0.00    +0.180 C 
ATOM      5  C   UNL     1      -1.239  -1.140   0.657  0.00  0.00    +0.082 C 
ATOM      6  C   UNL     1      -2.922   0.223  -1.042  0.00  0.00    +0.210 C 
ATOM      7  C   UNL     1      -3.474  -0.741  -0.223  0.00  0.00    +0.176 C 
ATOM      8  C   UNL     1      -2.615  -1.429   0.637  0.00  0.00    +0.047 C 
ATOM      9  C   UNL     1      -2.527   1.788  -2.483  0.00  0.00    +0.429 C 
ENDROOT
BRANCH   3  12
ATOM     10  O   UNL     1       1.240  -1.486  -1.906  0.00  0.00    -0.435 OA
ATOM     11  O   UNL     1       3.599  -0.990  -1.940  0.00  0.00    -0.431 OA
ATOM     12  C   UNL     1       0.707   0.159  -0.183  0.00  0.00    +0.047 C 
ATOM     13  C   UNL     1       1.576  -0.506  -1.023  0.00  0.00    +0.180 C 
ATOM     14  C   UNL     1       1.239   1.140   0.657  0.00  0.00    +0.082 C 
ATOM     15  C   UNL     1       2.922  -0.223  -1.042  0.00  0.00    +0.210 C 
ATOM     16  C   UNL     1       3.474   0.741  -0.223  0.00  0.00    +0.176 C 
ATOM     17  C   UNL     1       2.615   1.429   0.637  0.00  0.00    +0.047 C 
ATOM     18  C   UNL     1       2.527  -1.788  -2.483  0.00  0.00    +0.429 C 
BRANCH  16  19
ATOM     19  O   UNL     1       4.801   1.016  -0.246  0.00  0.00    -0.468 OA
ATOM     20  C   UNL     1       5.640   0.273   0.641  0.00  0.00    +0.253 C 
ENDBRANCH  16  19
BRANCH  14  22
ATOM     21  O   UNL     1       0.152   1.550   2.740  0.00  0.00    -0.245 OA
ATOM     22  C   UNL     1       0.396   1.894   1.578  0.00  0.00    +0.342 C 
BRANCH  22  23
ATOM     23  O   UNL     1      -0.089   3.030   0.993  0.00  0.00    -0.441 OA
ATOM     24  C   UNL     1      -0.932   3.859   1.800  0.00  0.00    +0.256 C 
ENDBRANCH  22  23
ENDBRANCH  14  22
ENDBRANCH   3  12
BRANCH   7  25
ATOM     25  O   UNL     1      -4.801  -1.016  -0.246  0.00  0.00    -0.468 OA
ATOM     26  C   UNL     1      -5.640  -0.273   0.641  0.00  0.00    +0.253 C 
ENDBRANCH   7  25
BRANCH   5  28
ATOM     27  O   UNL     1      -0.152  -1.550   2.739  0.00  0.00    -0.245 OA
ATOM     28  C   UNL     1      -0.396  -1.894   1.578  0.00  0.00    +0.342 C 
BRANCH  28  29
ATOM     29  O   UNL     1       0.089  -3.030   0.993  0.00  0.00    -0.441 OA
ATOM     30  C   UNL     1       0.932  -3.860   1.800  0.00  0.00    +0.256 C 
ENDBRANCH  28  29
ENDBRANCH   5  28
TORSDOF 7
