108213
  -OEChem-03292013323D

 48 51  0     0  0  0  0  0  0999 V2000
   -1.2405    1.4861   -1.9056 O   0  0  0  0  0  0  0  0  0  0  0  0
    1.2405   -1.4859   -1.9056 O   0  0  0  0  0  0  0  0  0  0  0  0
   -3.5988    0.9904   -1.9401 O   0  0  0  0  0  0  0  0  0  0  0  0
    3.5988   -0.9903   -1.9402 O   0  0  0  0  0  0  0  0  0  0  0  0
   -4.8013   -1.0164   -0.2462 O   0  0  0  0  0  0  0  0  0  0  0  0
    4.8014    1.0165   -0.2461 O   0  0  0  0  0  0  0  0  0  0  0  0
    0.0887   -3.0304    0.9931 O   0  0  0  0  0  0  0  0  0  0  0  0
   -0.0887    3.0303    0.9933 O   0  0  0  0  0  0  0  0  0  0  0  0
   -0.1525   -1.5501    2.7394 O   0  0  0  0  0  0  0  0  0  0  0  0
    0.1525    1.5499    2.7395 O   0  0  0  0  0  0  0  0  0  0  0  0
   -0.7065   -0.1590   -0.1826 C   0  0  0  0  0  0  0  0  0  0  0  0
    0.7065    0.1590   -0.1826 C   0  0  0  0  0  0  0  0  0  0  0  0
   -1.5758    0.5061   -1.0226 C   0  0  0  0  0  0  0  0  0  0  0  0
    1.5758   -0.5060   -1.0226 C   0  0  0  0  0  0  0  0  0  0  0  0
   -1.2394   -1.1399    0.6573 C   0  0  0  0  0  0  0  0  0  0  0  0
    1.2394    1.1398    0.6573 C   0  0  0  0  0  0  0  0  0  0  0  0
   -2.9223    0.2230   -1.0424 C   0  0  0  0  0  0  0  0  0  0  0  0
    2.9224   -0.2229   -1.0424 C   0  0  0  0  0  0  0  0  0  0  0  0
   -3.4739   -0.7406   -0.2232 C   0  0  0  0  0  0  0  0  0  0  0  0
    3.4738    0.7407   -0.2232 C   0  0  0  0  0  0  0  0  0  0  0  0
   -2.6152   -1.4290    0.6370 C   0  0  0  0  0  0  0  0  0  0  0  0
    2.6153    1.4290    0.6371 C   0  0  0  0  0  0  0  0  0  0  0  0
   -2.5271    1.7883   -2.4832 C   0  0  0  0  0  0  0  0  0  0  0  0
    2.5271   -1.7882   -2.4833 C   0  0  0  0  0  0  0  0  0  0  0  0
   -0.3961   -1.8944    1.5780 C   0  0  0  0  0  0  0  0  0  0  0  0
    0.3961    1.8943    1.5781 C   0  0  0  0  0  0  0  0  0  0  0  0
   -5.6396   -0.2730    0.6409 C   0  0  0  0  0  0  0  0  0  0  0  0
    5.6396    0.2730    0.6410 C   0  0  0  0  0  0  0  0  0  0  0  0
    0.9320   -3.8595    1.8000 C   0  0  0  0  0  0  0  0  0  0  0  0
   -0.9320    3.8593    1.8002 C   0  0  0  0  0  0  0  0  0  0  0  0
   -3.0191   -2.1956    1.2952 H   0  0  0  0  0  0  0  0  0  0  0  0
    3.0192    2.1954    1.2954 H   0  0  0  0  0  0  0  0  0  0  0  0
   -2.7518    2.8460   -2.3042 H   0  0  0  0  0  0  0  0  0  0  0  0
   -2.4751    1.6172   -3.5645 H   0  0  0  0  0  0  0  0  0  0  0  0
    2.7518   -2.8460   -2.3043 H   0  0  0  0  0  0  0  0  0  0  0  0
    2.4751   -1.6170   -3.5647 H   0  0  0  0  0  0  0  0  0  0  0  0
   -5.5844    0.7963    0.4139 H   0  0  0  0  0  0  0  0  0  0  0  0
   -6.6703   -0.6094    0.5000 H   0  0  0  0  0  0  0  0  0  0  0  0
   -5.3498   -0.4532    1.6810 H   0  0  0  0  0  0  0  0  0  0  0  0
    5.3498    0.4530    1.6810 H   0  0  0  0  0  0  0  0  0  0  0  0
    5.5844   -0.7963    0.4138 H   0  0  0  0  0  0  0  0  0  0  0  0
    6.6703    0.6093    0.5000 H   0  0  0  0  0  0  0  0  0  0  0  0
    0.3844   -4.2136    2.6783 H   0  0  0  0  0  0  0  0  0  0  0  0
    1.2344   -4.7224    1.2010 H   0  0  0  0  0  0  0  0  0  0  0  0
    1.8276   -3.3067    2.0990 H   0  0  0  0  0  0  0  0  0  0  0  0
   -0.3844    4.2134    2.6785 H   0  0  0  0  0  0  0  0  0  0  0  0
   -1.2343    4.7223    1.2012 H   0  0  0  0  0  0  0  0  0  0  0  0
   -1.8276    3.3066    2.0992 H   0  0  0  0  0  0  0  0  0  0  0  0
  1 13  1  0  0  0  0
  1 23  1  0  0  0  0
  2 14  1  0  0  0  0
  2 24  1  0  0  0  0
  3 17  1  0  0  0  0
  3 23  1  0  0  0  0
  4 18  1  0  0  0  0
  4 24  1  0  0  0  0
  5 19  1  0  0  0  0
  5 27  1  0  0  0  0
  6 20  1  0  0  0  0
  6 28  1  0  0  0  0
  7 25  1  0  0  0  0
  7 29  1  0  0  0  0
  8 26  1  0  0  0  0
  8 30  1  0  0  0  0
  9 25  2  0  0  0  0
 10 26  2  0  0  0  0
 11 12  1  0  0  0  0
 11 13  2  0  0  0  0
 11 15  1  0  0  0  0
 12 14  2  0  0  0  0
 12 16  1  0  0  0  0
 13 17  1  0  0  0  0
 14 18  1  0  0  0  0
 15 21  2  0  0  0  0
 15 25  1  0  0  0  0
 16 22  2  0  0  0  0
 16 26  1  0  0  0  0
 17 19  2  0  0  0  0
 18 20  2  0  0  0  0
 19 21  1  0  0  0  0
 20 22  1  0  0  0  0
 21 31  1  0  0  0  0
 22 32  1  0  0  0  0
 23 33  1  0  0  0  0
 23 34  1  0  0  0  0
 24 35  1  0  0  0  0
 24 36  1  0  0  0  0
 27 37  1  0  0  0  0
 27 38  1  0  0  0  0
 27 39  1  0  0  0  0
 28 40  1  0  0  0  0
 28 41  1  0  0  0  0
 28 42  1  0  0  0  0
 29 43  1  0  0  0  0
 29 44  1  0  0  0  0
 29 45  1  0  0  0  0
 30 46  1  0  0  0  0
 30 47  1  0  0  0  0
 30 48  1  0  0  0  0
M  END
> <PUBCHEM_COMPOUND_CID>
108213

> <PUBCHEM_CONFORMER_RMSD>
1

> <PUBCHEM_CONFORMER_DIVERSEORDER>
2
1
5
6
3
4

> <PUBCHEM_MMFF94_PARTIAL_CHARGES>
30
1 -0.36
10 -0.57
13 0.08
14 0.08
15 0.09
16 0.09
17 0.08
18 0.08
19 0.08
2 -0.36
20 0.08
21 -0.15
22 -0.15
23 0.56
24 0.56
25 0.63
26 0.63
27 0.28
28 0.28
29 0.28
3 -0.36
30 0.28
31 0.15
32 0.15
4 -0.36
5 -0.36
6 -0.36
7 -0.43
8 -0.43
9 -0.57

> <PUBCHEM_EFFECTIVE_ROTOR_COUNT>
8.2

> <PUBCHEM_PHARMACOPHORE_FEATURES>
12
1 1 acceptor
1 10 acceptor
1 2 acceptor
1 3 acceptor
1 4 acceptor
1 5 acceptor
1 6 acceptor
1 9 acceptor
5 1 3 13 17 23 rings
5 2 4 14 18 24 rings
6 11 13 15 17 19 21 rings
6 12 14 16 18 20 22 rings

> <PUBCHEM_HEAVY_ATOM_COUNT>
30

> <PUBCHEM_ATOM_DEF_STEREO_COUNT>
0

> <PUBCHEM_ATOM_UDEF_STEREO_COUNT>
0

> <PUBCHEM_BOND_DEF_STEREO_COUNT>
0

> <PUBCHEM_BOND_UDEF_STEREO_COUNT>
0

> <PUBCHEM_ISOTOPIC_ATOM_COUNT>
0

> <PUBCHEM_COMPONENT_COUNT>
1

> <PUBCHEM_CACTVS_TAUTO_COUNT>
1

> <PUBCHEM_CONFORMER_ID>
0001A6B500000002

> <PUBCHEM_MMFF94_ENERGY>
119.2409

> <PUBCHEM_FEATURE_SELFOVERLAP>
61.22

> <PUBCHEM_SHAPE_FINGERPRINT>
10165383 225 18260830410565795809
10906281 52 18127714792496104200
11370993 70 17894901919887543038
11582403 64 17335562848139659008
12293681 4 18342748454640370417
12788726 201 18341902883191782576
133893 2 16953110712262298898
13911987 19 17986679371102770548
14028597 1 18338517443380537898
20511986 3 15841833339100128771
20600515 1 18189347929301215916
20905425 154 18041833992223958039
229495 10 16669690622040449829
23175994 123 18272375325074704560
23419403 2 17905903821764985001
23526113 38 18411984688682372130
23558518 356 18197513830779014064
23559900 14 18260266309851445846
2818148 4 18122350073648174539
298252 57 16877946061345783258
3380486 145 18127428949427143246
404807 14 16887487357623820962
469060 322 17677634007155335781
5265222 85 17896047697430526326
6086070 43 18269248259162271373
70251023 43 17487362372938034094
81228 2 18127158345107364352

> <PUBCHEM_SHAPE_MULTIPOLES>
558.69
7.81
3.33
2.56
0
0
0.17
0
2
0
-2.4
0
0
1.34

> <PUBCHEM_SHAPE_SELFOVERLAP>
1240.877

> <PUBCHEM_SHAPE_VOLUME>
301.5

> <PUBCHEM_COORDINATE_TYPE>
2
5
10

$$$$
