108214
  -OEChem-03292013323D

 26 26  0     0  0  0  0  0  0999 V2000
    0.6857    2.5678    0.4318 O   0  0  0  0  0  0  0  0  0  0  0  0
   -3.4321    0.5319   -0.4122 O   0  0  0  0  0  0  0  0  0  0  0  0
    2.6818    0.1154   -1.5362 O   0  0  0  0  0  0  0  0  0  0  0  0
   -1.7361   -3.3175   -0.1035 O   0  0  0  0  0  0  0  0  0  0  0  0
   -1.4070    1.6199    0.0072 N   0  0  0  0  0  0  0  0  0  0  0  0
   -1.5635   -0.7284   -0.0464 N   0  0  0  0  0  0  0  0  0  0  0  0
    1.8944    0.1388    0.6586 N   0  0  0  0  0  0  0  0  0  0  0  0
    0.2482   -2.1423    0.3068 N   0  0  0  0  0  0  0  0  0  0  0  0
    0.5561    0.2105    0.3894 C   0  0  0  0  0  0  0  0  0  0  0  0
   -0.2281   -0.8642    0.2219 C   0  0  0  0  0  0  0  0  0  0  0  0
   -0.0321    1.5795    0.2819 C   0  0  0  0  0  0  0  0  0  0  0  0
   -2.2240    0.4822   -0.1681 C   0  0  0  0  0  0  0  0  0  0  0  0
   -2.0371    2.9302   -0.1054 C   0  0  0  0  0  0  0  0  0  0  0  0
    2.8712    0.1085   -0.3220 C   0  0  0  0  0  0  0  0  0  0  0  0
    4.2594    0.0284    0.2575 C   0  0  0  0  0  0  0  0  0  0  0  0
   -0.5368   -3.2608    0.1388 C   0  0  0  0  0  0  0  0  0  0  0  0
   -2.1265   -1.5615   -0.1678 H   0  0  0  0  0  0  0  0  0  0  0  0
    2.1786    0.4055    1.5981 H   0  0  0  0  0  0  0  0  0  0  0  0
   -2.8707    2.9816    0.6023 H   0  0  0  0  0  0  0  0  0  0  0  0
   -2.4425    3.0338   -1.1170 H   0  0  0  0  0  0  0  0  0  0  0  0
   -1.3429    3.7499    0.0926 H   0  0  0  0  0  0  0  0  0  0  0  0
    1.2371   -2.2682    0.5064 H   0  0  0  0  0  0  0  0  0  0  0  0
    4.9790   -0.1890   -0.5367 H   0  0  0  0  0  0  0  0  0  0  0  0
    4.3107   -0.7672    1.0063 H   0  0  0  0  0  0  0  0  0  0  0  0
    4.5160    0.9843    0.7221 H   0  0  0  0  0  0  0  0  0  0  0  0
    0.0687   -4.1755    0.2534 H   0  0  0  0  0  0  0  0  0  0  0  0
  1 11  2  0  0  0  0
  2 12  2  0  0  0  0
  3 14  2  0  0  0  0
  4 16  2  0  0  0  0
  5 11  1  0  0  0  0
  5 12  1  0  0  0  0
  5 13  1  0  0  0  0
  6 10  1  0  0  0  0
  6 12  1  0  0  0  0
  6 17  1  0  0  0  0
  7  9  1  0  0  0  0
  7 14  1  0  0  0  0
  7 18  1  0  0  0  0
  8 10  1  0  0  0  0
  8 16  1  0  0  0  0
  8 22  1  0  0  0  0
  9 10  2  0  0  0  0
  9 11  1  0  0  0  0
 13 19  1  0  0  0  0
 13 20  1  0  0  0  0
 13 21  1  0  0  0  0
 14 15  1  0  0  0  0
 15 23  1  0  0  0  0
 15 24  1  0  0  0  0
 15 25  1  0  0  0  0
 16 26  1  0  0  0  0
M  END
> <PUBCHEM_COMPOUND_CID>
108214

> <PUBCHEM_CONFORMER_RMSD>
0.6

> <PUBCHEM_CONFORMER_DIVERSEORDER>
2
5
4
7
3
1
6

> <PUBCHEM_MMFF94_PARTIAL_CHARGES>
20
1 -0.57
10 0.22
11 0.62
12 0.69
13 0.3
14 0.57
15 0.06
16 0.57
17 0.37
18 0.37
2 -0.57
22 0.37
26 0.06
3 -0.57
4 -0.57
5 -0.42
6 -0.54
7 -0.54
8 -0.54
9 0.12

> <PUBCHEM_EFFECTIVE_ROTOR_COUNT>
4

> <PUBCHEM_PHARMACOPHORE_FEATURES>
8
1 1 acceptor
1 2 acceptor
1 3 acceptor
1 4 acceptor
1 6 donor
1 7 donor
1 8 donor
6 5 6 9 10 11 12 rings

> <PUBCHEM_HEAVY_ATOM_COUNT>
16

> <PUBCHEM_ATOM_DEF_STEREO_COUNT>
0

> <PUBCHEM_ATOM_UDEF_STEREO_COUNT>
0

> <PUBCHEM_BOND_DEF_STEREO_COUNT>
0

> <PUBCHEM_BOND_UDEF_STEREO_COUNT>
0

> <PUBCHEM_ISOTOPIC_ATOM_COUNT>
0

> <PUBCHEM_COMPONENT_COUNT>
1

> <PUBCHEM_CACTVS_TAUTO_COUNT>
16

> <PUBCHEM_CONFORMER_ID>
0001A6B600000002

> <PUBCHEM_MMFF94_ENERGY>
54.7983

> <PUBCHEM_FEATURE_SELFOVERLAP>
40.646

> <PUBCHEM_SHAPE_FINGERPRINT>
10967382 1 18410852118701803315
11680986 33 17981034533675522217
116883 192 17910390920386921551
13140716 1 18194966463952552227
13380535 21 17978798909009639801
14614273 12 18116709604187797109
14790565 3 18339093618014068609
15042514 8 18336265733777567450
161256 15 17618793899485714234
16945 1 18411133649555273841
193761 8 17834110123524028417
19591789 44 18267872692020593635
20510252 161 18271806774605287968
20645476 183 18113910350825867430
20671657 1 17476363794605188521
20871998 22 17690280838367620290
21501502 16 17978798135572193312
21524375 3 18114182969469191816
22802520 49 18055072317937095279
2334 1 17906167708992886913
23402539 116 18342443834169323364
23419403 2 17201064048789667330
23526113 38 17704073988948143634
23526114 1 18123185693346969775
23552423 10 17761491392124688651
23557571 272 18125732424807935356
23559900 14 18342455946736603624
2748010 2 18194124006001364339
305870 269 18119810201334473622
3250762 1 17908134726489116616
43471831 8 18192710042506350747
53812653 8 18336260150377572064
54173680 148 18337951323952572514
7364860 26 17547006334373608866
81228 2 18266750266605091738
9709674 26 18272374148997373342

> <PUBCHEM_SHAPE_MULTIPOLES>
285.87
4.77
3.54
0.77
3.59
2.58
0.16
-1.76
0.72
-2.42
-0.23
0.4
-0.08
0

> <PUBCHEM_SHAPE_SELFOVERLAP>
592.773

> <PUBCHEM_SHAPE_VOLUME>
161

> <PUBCHEM_COORDINATE_TYPE>
2
5
10

$$$$
