REMARK  Name = 10824166
REMARK  9 active torsions:
REMARK  status: ('A' for Active; 'I' for Inactive)
REMARK    1  A    between atoms: C_2  and  O_6
REMARK    2  A    between atoms: C_3  and  O_8
REMARK    3  A    between atoms: C_4  and  C_10
REMARK    4  A    between atoms: C_5  and  C_18
REMARK    5  A    between atoms: C_10  and  O_11
REMARK    6  A    between atoms: O_11  and  P_12
REMARK    7  A    between atoms: P_12  and  O_14
REMARK    8  A    between atoms: P_12  and  O_16
REMARK    9  A    between atoms: C_18  and  O_19
REMARK                            x       y       z     vdW  Elec       q    Type
REMARK                         _______ _______ _______ _____ _____    ______ ____
ROOT
ATOM      1  O   UNL     1       0.824   0.671  -0.797  0.00  0.00    -0.348 OA
ATOM      2  C   UNL     1       1.512  -1.321   0.277  0.00  0.00    +0.169 C 
ATOM      3  C   UNL     1       2.729  -0.670  -0.344  0.00  0.00    +0.169 C 
ATOM      4  C   UNL     1       0.391  -0.669  -0.513  0.00  0.00    +0.174 C 
ATOM      5  C   UNL     1       2.247   0.757  -0.582  0.00  0.00    +0.174 C 
ENDROOT
BRANCH   2   6
ATOM      6  O   UNL     1       1.510  -2.724   0.096  0.00  0.00    -0.379 OA
ATOM      7  H   UNL     1       2.233  -3.117   0.609  0.00  0.00    +0.211 HD
ENDBRANCH   2   6
BRANCH   3   8
ATOM      8  O   UNL     1       3.862  -0.738   0.498  0.00  0.00    -0.379 OA
ATOM      9  H   UNL     1       4.123  -1.664   0.615  0.00  0.00    +0.211 HD
ENDBRANCH   3   8
BRANCH   4  10
ATOM     10  C   UNL     1      -0.927  -0.629   0.240  0.00  0.00    +0.186 C 
BRANCH  10  11
ATOM     11  O   UNL     1      -1.897   0.004  -0.575  0.00  0.00    -0.271 OA
BRANCH  11  12
ATOM     12  P   UNL     1      -3.400   0.173   0.003  0.00  0.00    +0.473 P 
ATOM     13  O   UNL     1      -4.363   0.854  -0.926  0.00  0.00    -0.227 OA
BRANCH  12  14
ATOM     14  O   UNL     1      -3.183   0.902   1.430  0.00  0.00    -0.303 OA
ATOM     15  H   UNL     1      -2.549   0.393   1.959  0.00  0.00    +0.222 HD
ENDBRANCH  12  14
BRANCH  12  16
ATOM     16  O   UNL     1      -3.801  -1.338   0.414  0.00  0.00    -0.303 OA
ATOM     17  H   UNL     1      -3.129  -1.700   1.012  0.00  0.00    +0.222 HD
ENDBRANCH  12  16
ENDBRANCH  11  12
ENDBRANCH  10  11
ENDBRANCH   4  10
BRANCH   5  18
ATOM     18  C   UNL     1       2.492   1.722   0.572  0.00  0.00    +0.169 C 
BRANCH  18  19
ATOM     19  O   UNL     1       2.006   3.004   0.207  0.00  0.00    -0.379 OA
ATOM     20  H   UNL     1       2.157   3.626   0.936  0.00  0.00    +0.211 HD
ENDBRANCH  18  19
ENDBRANCH   5  18
TORSDOF 9
