REMARK  Name = 108214
REMARK  2 active torsions:
REMARK  status: ('A' for Active; 'I' for Inactive)
REMARK    1  A    between atoms: C_5  and  N_12
REMARK    2  A    between atoms: C_6  and  N_17
REMARK                            x       y       z     vdW  Elec       q    Type
REMARK                         _______ _______ _______ _____ _____    ______ ____
ROOT
ATOM      1  O   UNL     1       0.686   2.568   0.432  0.00  0.00    -0.265 OA
ATOM      2  O   UNL     1      -3.432   0.532  -0.412  0.00  0.00    -0.246 OA
ATOM      3  N   UNL     1      -1.407   1.620   0.007  0.00  0.00    -0.246 N 
ATOM      4  N   UNL     1      -1.563  -0.728  -0.046  0.00  0.00    -0.294 N 
ATOM      5  C   UNL     1       0.556   0.210   0.389  0.00  0.00    +0.138 A 
ATOM      6  C   UNL     1      -0.228  -0.864   0.222  0.00  0.00    +0.134 A 
ATOM      7  C   UNL     1      -0.032   1.579   0.282  0.00  0.00    +0.281 A 
ATOM      8  C   UNL     1      -2.224   0.482  -0.168  0.00  0.00    +0.331 A 
ATOM      9  C   UNL     1      -2.037   2.930  -0.105  0.00  0.00    +0.138 C 
ATOM     10  H   UNL     1      -2.092  -1.551  -0.161  0.00  0.00    +0.172 HD
ENDROOT
BRANCH   5  12
ATOM     11  O   UNL     1       2.682   0.115  -1.536  0.00  0.00    -0.275 OA
ATOM     12  N   UNL     1       1.894   0.139   0.659  0.00  0.00    -0.278 N 
ATOM     13  C   UNL     1       2.871   0.108  -0.322  0.00  0.00    +0.227 C 
ATOM     14  C   UNL     1       4.259   0.028   0.258  0.00  0.00    +0.095 C 
ATOM     15  H   UNL     1       2.179   0.107   1.601  0.00  0.00    +0.155 HD
ENDBRANCH   5  12
BRANCH   6  17
ATOM     16  O   UNL     1      -1.736  -3.317  -0.103  0.00  0.00    -0.265 OA
ATOM     17  N   UNL     1       0.248  -2.142   0.307  0.00  0.00    -0.262 N 
ATOM     18  C   UNL     1      -0.537  -3.261   0.139  0.00  0.00    +0.305 C 
ATOM     19  H   UNL     1       1.205  -2.270   0.499  0.00  0.00    +0.157 HD
ENDBRANCH   6  17
TORSDOF 2
