10824166
  -OEChem-03292013303D

 28 28  0     1  0  0  0  0  0999 V2000
   -3.4004    0.1733    0.0025 P   0  0  0  0  0  0  0  0  0  0  0  0
    0.8240    0.6715   -0.7972 O   0  0  0  0  0  0  0  0  0  0  0  0
    1.5100   -2.7240    0.0963 O   0  0  0  0  0  0  0  0  0  0  0  0
    3.8616   -0.7377    0.4983 O   0  0  0  0  0  0  0  0  0  0  0  0
   -1.8973    0.0041   -0.5752 O   0  0  0  0  0  0  0  0  0  0  0  0
    2.0062    3.0042    0.2073 O   0  0  0  0  0  0  0  0  0  0  0  0
   -3.1833    0.9018    1.4297 O   0  0  0  0  0  0  0  0  0  0  0  0
   -3.8015   -1.3383    0.4138 O   0  0  0  0  0  0  0  0  0  0  0  0
   -4.3631    0.8543   -0.9258 O   0  0  0  0  0  0  0  0  0  0  0  0
    1.5125   -1.3207    0.2772 C   0  0  1  0  0  0  0  0  0  0  0  0
    2.7289   -0.6701   -0.3440 C   0  0  1  0  0  0  0  0  0  0  0  0
    0.3906   -0.6688   -0.5126 C   0  0  1  0  0  0  0  0  0  0  0  0
    2.2471    0.7573   -0.5821 C   0  0  2  0  0  0  0  0  0  0  0  0
   -0.9271   -0.6293    0.2404 C   0  0  0  0  0  0  0  0  0  0  0  0
    2.4917    1.7224    0.5716 C   0  0  0  0  0  0  0  0  0  0  0  0
    1.4604   -1.1059    1.3511 H   0  0  0  0  0  0  0  0  0  0  0  0
    2.9807   -1.1540   -1.2957 H   0  0  0  0  0  0  0  0  0  0  0  0
    0.2399   -1.1679   -1.4786 H   0  0  0  0  0  0  0  0  0  0  0  0
    2.6917    1.1655   -1.4970 H   0  0  0  0  0  0  0  0  0  0  0  0
   -0.8165   -0.0503    1.1631 H   0  0  0  0  0  0  0  0  0  0  0  0
   -1.2576   -1.6422    0.4887 H   0  0  0  0  0  0  0  0  0  0  0  0
    3.5551    1.8139    0.8120 H   0  0  0  0  0  0  0  0  0  0  0  0
    1.9502    1.4147    1.4714 H   0  0  0  0  0  0  0  0  0  0  0  0
    0.6742   -3.0657    0.4568 H   0  0  0  0  0  0  0  0  0  0  0  0
    4.0342   -1.6772    0.6803 H   0  0  0  0  0  0  0  0  0  0  0  0
    2.5092    3.3001   -0.5705 H   0  0  0  0  0  0  0  0  0  0  0  0
   -3.9702    1.1753    1.9476 H   0  0  0  0  0  0  0  0  0  0  0  0
   -4.7176   -1.5215    0.7127 H   0  0  0  0  0  0  0  0  0  0  0  0
  1  5  1  0  0  0  0
  1  7  1  0  0  0  0
  1  8  1  0  0  0  0
  1  9  2  0  0  0  0
  2 12  1  0  0  0  0
  2 13  1  0  0  0  0
  3 10  1  0  0  0  0
  3 24  1  0  0  0  0
  4 11  1  0  0  0  0
  4 25  1  0  0  0  0
  5 14  1  0  0  0  0
  6 15  1  0  0  0  0
  6 26  1  0  0  0  0
  7 27  1  0  0  0  0
  8 28  1  0  0  0  0
 10 11  1  0  0  0  0
 10 12  1  0  0  0  0
 10 16  1  0  0  0  0
 11 13  1  0  0  0  0
 11 17  1  0  0  0  0
 12 14  1  0  0  0  0
 12 18  1  0  0  0  0
 13 15  1  0  0  0  0
 13 19  1  0  0  0  0
 14 20  1  0  0  0  0
 14 21  1  0  0  0  0
 15 22  1  0  0  0  0
 15 23  1  0  0  0  0
M  END
> <PUBCHEM_COMPOUND_CID>
10824166

> <PUBCHEM_CONFORMER_RMSD>
0.6

> <PUBCHEM_CONFORMER_DIVERSEORDER>
1
32
26
8
34
24
35
15
19
25
31
17
9
33
28
20
29
3
4
30
13
5
6
27
12
7
22
16
21
11
10
23
2
18
14

> <PUBCHEM_MMFF94_PARTIAL_CHARGES>
20
1 1.51
10 0.28
11 0.28
12 0.28
13 0.28
14 0.28
15 0.28
2 -0.56
24 0.4
25 0.4
26 0.4
27 0.5
28 0.5
3 -0.68
4 -0.68
5 -0.55
6 -0.68
7 -0.77
8 -0.77
9 -0.7

> <PUBCHEM_EFFECTIVE_ROTOR_COUNT>
5

> <PUBCHEM_PHARMACOPHORE_FEATURES>
12
1 2 acceptor
1 3 acceptor
1 3 donor
1 4 acceptor
1 4 donor
1 6 acceptor
1 6 donor
1 7 acceptor
1 8 acceptor
1 9 acceptor
4 1 7 8 9 anion
5 2 10 11 12 13 rings

> <PUBCHEM_HEAVY_ATOM_COUNT>
15

> <PUBCHEM_ATOM_DEF_STEREO_COUNT>
4

> <PUBCHEM_ATOM_UDEF_STEREO_COUNT>
0

> <PUBCHEM_BOND_DEF_STEREO_COUNT>
0

> <PUBCHEM_BOND_UDEF_STEREO_COUNT>
0

> <PUBCHEM_ISOTOPIC_ATOM_COUNT>
0

> <PUBCHEM_COMPONENT_COUNT>
1

> <PUBCHEM_CACTVS_TAUTO_COUNT>
1

> <PUBCHEM_CONFORMER_ID>
00A529E600000001

> <PUBCHEM_MMFF94_ENERGY>
2.6908

> <PUBCHEM_FEATURE_SELFOVERLAP>
60.941

> <PUBCHEM_SHAPE_FINGERPRINT>
10608611 8 18335136514271967757
10980938 120 18409168822276295188
11471102 20 18410007715362383588
11615757 297 18343023289671422411
12162725 195 18059860558280421673
12500047 106 18113614560997530615
12507557 5 18412259545267428065
12932764 1 18334023778482130879
13922767 16 18409443678798118916
14144814 61 18340772546382931155
14251717 144 18410571760453707758
15501101 241 18187085035771465630
16945 1 18410854330905366358
17041 49 18340774715003714768
17802600 8 18410286982842364277
18186145 218 18343031003258710197
19050596 39 18412832399789986763
20279233 1 17822015268312396663
20645477 70 18190173486867817135
20671657 1 18266466588589875852
21524375 3 18126848437341418404
21639500 275 18411692201572940925
21730867 7 18334857220711271557
22096605 113 18411130368601127877
22854114 111 18413109493493743497
22892500 29 18409441479637902109
23402539 116 10807942535625492726
23557571 272 14979953640977347777
3248919 1 17846503595607422055
474 4 18340482382339487561
6333272 397 18195529413747763153
7364860 26 18412826854607529342

> <PUBCHEM_SHAPE_MULTIPOLES>
265.59
7.16
2.23
0.9
6.88
0.52
-0.07
0.86
-0.42
-1.92
-0.34
0.4
0.18
0.14

> <PUBCHEM_SHAPE_SELFOVERLAP>
515.501

> <PUBCHEM_SHAPE_VOLUME>
162.5

> <PUBCHEM_COORDINATE_TYPE>
2
5
10

$$$$
