REMARK  Name = 10829
REMARK  8 active torsions:
REMARK  status: ('A' for Active; 'I' for Inactive)
REMARK    1  A    between atoms: O_1  and  C_3
REMARK    2  A    between atoms: O_1  and  C_16
REMARK    3  A    between atoms: C_4  and  C_12
REMARK    4  A    between atoms: C_6  and  O_9
REMARK    5  A    between atoms: C_12  and  O_13
REMARK    6  A    between atoms: C_16  and  C_17
REMARK    7  A    between atoms: C_19  and  O_26
REMARK    8  A    between atoms: C_21  and  O_24
REMARK                            x       y       z     vdW  Elec       q    Type
REMARK                         _______ _______ _______ _____ _____    ______ ____
ROOT
ATOM      1  O   UNL     1       0.118  -0.033   0.618  0.00  0.00    -0.421 OA
ENDROOT
BRANCH   1   3
ATOM      2  C   UNL     1      -3.342  -1.154   0.223  0.00  0.00    -0.010 C 
ATOM      3  C   UNL     1      -1.232   0.001   0.448  0.00  0.00    +0.151 C 
ATOM      4  C   UNL     1      -3.998   0.070   0.099  0.00  0.00    +0.105 C 
ATOM      5  C   UNL     1      -1.958  -1.188   0.397  0.00  0.00    +0.034 C 
ATOM      6  C   UNL     1      -3.272   1.260   0.149  0.00  0.00    +0.143 C 
ATOM      7  C   UNL     1      -1.888   1.226   0.323  0.00  0.00    +0.074 C 
ATOM      8  C   UNL     1      -4.094  -2.444   0.172  0.00  0.00    +0.031 C 
BRANCH   6   9
ATOM      9  O   UNL     1      -3.893   2.467   0.029  0.00  0.00    -0.505 OA
ATOM     10  H   UNL     1      -4.822   2.506  -0.089  0.00  0.00    +0.292 HD
ENDBRANCH   6   9
BRANCH   4  12
ATOM     11  O   UNL     1      -6.027   0.100  -1.170  0.00  0.00    -0.245 OA
ATOM     12  C   UNL     1      -5.446   0.114  -0.083  0.00  0.00    +0.341 C 
BRANCH  12  13
ATOM     13  O   UNL     1      -6.112   0.171   1.100  0.00  0.00    -0.477 OA
ATOM     14  H   UNL     1      -5.636   0.179   1.907  0.00  0.00    +0.295 HD
ENDBRANCH  12  13
ENDBRANCH   4  12
ENDBRANCH   1   3
BRANCH   1  16
ATOM     15  O   UNL     1       0.371  -0.103  -1.698  0.00  0.00    -0.244 OA
ATOM     16  C   UNL     1       0.847  -0.090  -0.573  0.00  0.00    +0.348 C 
BRANCH  16  17
ATOM     17  C   UNL     1       2.308  -0.124  -0.307  0.00  0.00    +0.106 C 
ATOM     18  C   UNL     1       2.941  -1.343  -0.159  0.00  0.00    -0.010 C 
ATOM     19  C   UNL     1       2.996   1.071  -0.215  0.00  0.00    +0.143 C 
ATOM     20  C   UNL     1       4.313  -1.369   0.091  0.00  0.00    +0.033 C 
ATOM     21  C   UNL     1       5.026  -0.174   0.188  0.00  0.00    +0.141 C 
ATOM     22  C   UNL     1       4.368   1.046   0.035  0.00  0.00    +0.074 C 
ATOM     23  C   UNL     1       2.203  -2.639  -0.258  0.00  0.00    +0.031 C 
BRANCH  21  24
ATOM     24  O   UNL     1       6.365  -0.199   0.432  0.00  0.00    -0.471 OA
ATOM     25  C   UNL     1       7.033   1.059   0.519  0.00  0.00    +0.252 C 
ENDBRANCH  21  24
BRANCH  19  26
ATOM     26  O   UNL     1       2.372   2.274  -0.362  0.00  0.00    -0.505 OA
ATOM     27  H   UNL     1       1.451   2.307  -0.530  0.00  0.00    +0.292 HD
ENDBRANCH  19  26
ENDBRANCH  16  17
ENDBRANCH   1  16
TORSDOF 8
