REMARK  Name = 10833071
REMARK  2 active torsions:
REMARK  status: ('A' for Active; 'I' for Inactive)
REMARK    1  A    between atoms: C_8  and  O_24
REMARK    2  A    between atoms: C_12  and  O_26
REMARK                            x       y       z     vdW  Elec       q    Type
REMARK                         _______ _______ _______ _____ _____    ______ ____
ROOT
ATOM      1  O   UNL     1      -2.654   0.101   0.409  0.00  0.00    -0.448 OA
ATOM      2  O   UNL     1       2.614  -1.135   0.480  0.00  0.00    -0.445 OA
ATOM      3  O   UNL     1       2.022   1.953   0.406  0.00  0.00    -0.449 OA
ATOM      4  O   UNL     1       0.367  -3.306   1.384  0.00  0.00    -0.292 OA
ATOM      5  O   UNL     1      -3.450  -1.076  -1.408  0.00  0.00    -0.247 OA
ATOM      6  O   UNL     1       4.157  -1.010  -1.235  0.00  0.00    -0.250 OA
ATOM      7  O   UNL     1       1.129   3.025  -1.439  0.00  0.00    -0.245 OA
ATOM      8  C   UNL     1      -1.753  -2.041   0.039  0.00  0.00    +0.221 C 
ATOM      9  C   UNL     1      -0.307  -1.602  -0.185  0.00  0.00    +0.109 C 
ATOM     10  C   UNL     1      -3.461   1.260   0.093  0.00  0.00    +0.200 C 
ATOM     11  C   UNL     1       2.143  -2.410   0.017  0.00  0.00    +0.225 C 
ATOM     12  C   UNL     1      -2.706   2.500   0.603  0.00  0.00    +0.173 C 
ATOM     13  C   UNL     1       0.699  -2.525   0.493  0.00  0.00    +0.193 C 
ATOM     14  C   UNL     1      -2.720  -0.972  -0.431  0.00  0.00    +0.345 C 
ATOM     15  C   UNL     1       3.348   1.915  -0.167  0.00  0.00    +0.180 C 
ATOM     16  C   UNL     1       4.075   0.719   0.444  0.00  0.00    +0.153 C 
ATOM     17  C   UNL     1      -4.821   1.089   0.768  0.00  0.00    +0.050 C 
ATOM     18  C   UNL     1       3.018  -3.518   0.587  0.00  0.00    +0.056 C 
ATOM     19  C   UNL     1      -1.395   2.659  -0.122  0.00  0.00    +0.013 C 
ATOM     20  C   UNL     1       3.642  -0.569  -0.215  0.00  0.00    +0.321 C 
ATOM     21  C   UNL     1       4.061   3.217   0.181  0.00  0.00    +0.048 C 
ATOM     22  C   UNL     1      -0.212   2.423   0.459  0.00  0.00    +0.080 C 
ATOM     23  C   UNL     1       1.033   2.527  -0.329  0.00  0.00    +0.341 C 
ENDROOT
BRANCH   8  24
ATOM     24  O   UNL     1      -2.016  -3.226  -0.701  0.00  0.00    -0.342 OA
ATOM     25  C   UNL     1      -3.347  -3.680  -0.502  0.00  0.00    +0.175 C 
ENDBRANCH   8  24
BRANCH  12  26
ATOM     26  O   UNL     1      -3.466   3.682   0.371  0.00  0.00    -0.377 OA
ATOM     27  H   UNL     1      -4.320   3.612   0.826  0.00  0.00    +0.211 HD
ENDBRANCH  12  26
TORSDOF 2
