REMARK  Name = 10835222
REMARK  16 active torsions:
REMARK  status: ('A' for Active; 'I' for Inactive)
REMARK    1  A    between atoms: C_1  and  O_2
REMARK    2  A    between atoms: C_1  and  C_4
REMARK    3  A    between atoms: C_1  and  C_18
REMARK    4  A    between atoms: C_4  and  C_5
REMARK    5  A    between atoms: C_5  and  C_6
REMARK    6  A    between atoms: C_6  and  C_7
REMARK    7  A    between atoms: C_7  and  C_8
REMARK    8  A    between atoms: C_8  and  C_9
REMARK    9  A    between atoms: C_9  and  C_12
REMARK   10  A    between atoms: C_18  and  C_19
REMARK   11  A    between atoms: C_19  and  O_20
REMARK   12  A    between atoms: C_19  and  C_23
REMARK   13  A    between atoms: C_19  and  C_26
REMARK   14  A    between atoms: C_23  and  O_24
REMARK   15  A    between atoms: C_26  and  C_28
REMARK   16  A    between atoms: C_28  and  O_29
REMARK                            x       y       z     vdW  Elec       q    Type
REMARK                         _______ _______ _______ _____ _____    ______ ____
ROOT
ATOM      1  C   UNL     1      -2.910  -1.460  -0.708  0.00  0.00    +0.113 C 
ENDROOT
BRANCH   1   2
ATOM      2  O   UNL     1      -3.979  -2.058   0.017  0.00  0.00    -0.384 OA
ATOM      3  H   UNL     1      -4.231  -2.893  -0.409  0.00  0.00    +0.210 HD
ENDBRANCH   1   2
BRANCH   1   4
ATOM      4  C   UNL     1      -1.755  -2.473  -0.769  0.00  0.00    +0.029 C 
BRANCH   4   5
ATOM      5  C   UNL     1      -1.164  -2.813   0.601  0.00  0.00    +0.002 C 
BRANCH   5   6
ATOM      6  C   UNL     1      -0.061  -3.874   0.538  0.00  0.00    +0.000 C 
BRANCH   6   7
ATOM      7  C   UNL     1       1.153  -3.527  -0.331  0.00  0.00    +0.000 C 
BRANCH   7   8
ATOM      8  C   UNL     1       1.922  -2.296   0.160  0.00  0.00    +0.005 C 
BRANCH   8   9
ATOM      9  C   UNL     1       3.183  -2.011  -0.666  0.00  0.00    +0.027 C 
BRANCH   9  12
ATOM     10 CL   UNL     1       2.403   0.639  -2.032  0.00  0.00    -0.083 Cl
ATOM     11 CL   UNL     1       6.176   2.896   1.072  0.00  0.00    -0.082 Cl
ATOM     12  C   UNL     1       3.917  -0.761  -0.251  0.00  0.00    -0.012 C 
ATOM     13  C   UNL     1       3.620   0.469  -0.821  0.00  0.00    +0.055 C 
ATOM     14  C   UNL     1       4.901  -0.879   0.722  0.00  0.00    -0.003 C 
ATOM     15  C   UNL     1       4.321   1.604  -0.411  0.00  0.00    +0.022 C 
ATOM     16  C   UNL     1       5.601   0.256   1.132  0.00  0.00    +0.011 C 
ATOM     17  C   UNL     1       5.311   1.497   0.565  0.00  0.00    +0.058 C 
ENDBRANCH   9  12
ENDBRANCH   8   9
ENDBRANCH   7   8
ENDBRANCH   6   7
ENDBRANCH   5   6
ENDBRANCH   4   5
ENDBRANCH   1   4
BRANCH   1  18
ATOM     18  C   UNL     1      -2.499  -0.132  -0.044  0.00  0.00    +0.068 C 
BRANCH  18  19
ATOM     19  C   UNL     1      -3.556   0.999   0.012  0.00  0.00    +0.190 C 
BRANCH  19  20
ATOM     20  O   UNL     1      -4.100   1.135  -1.310  0.00  0.00    -0.376 OA
ATOM     21  H   UNL     1      -3.392   1.375  -1.929  0.00  0.00    +0.211 HD
ENDBRANCH  19  20
BRANCH  19  23
ATOM     22  O   UNL     1      -5.902   0.415   0.415  0.00  0.00    -0.248 OA
ATOM     23  C   UNL     1      -4.780   0.625   0.854  0.00  0.00    +0.339 C 
BRANCH  23  24
ATOM     24  O   UNL     1      -4.503   0.549   2.184  0.00  0.00    -0.479 OA
ATOM     25  H   UNL     1      -3.634   0.716   2.492  0.00  0.00    +0.295 HD
ENDBRANCH  23  24
ENDBRANCH  19  23
BRANCH  19  26
ATOM     26  C   UNL     1      -3.014   2.366   0.455  0.00  0.00    +0.147 C 
BRANCH  26  28
ATOM     27  O   UNL     1      -1.799   3.071  -1.519  0.00  0.00    -0.250 OA
ATOM     28  C   UNL     1      -1.798   2.831  -0.319  0.00  0.00    +0.317 C 
BRANCH  28  29
ATOM     29  O   UNL     1      -0.689   2.931   0.456  0.00  0.00    -0.480 OA
ATOM     30  H   UNL     1      -0.738   2.736   1.371  0.00  0.00    +0.295 HD
ENDBRANCH  28  29
ENDBRANCH  26  28
ENDBRANCH  19  26
ENDBRANCH  18  19
ENDBRANCH   1  18
TORSDOF 16
