10832934
  -OEChem-03292013303D

 45 48  0     1  0  0  0  0  0999 V2000
    4.4215    0.7521   -1.0938 O   0  0  0  0  0  0  0  0  0  0  0  0
    5.7816   -1.6005    1.4388 O   0  0  0  0  0  0  0  0  0  0  0  0
    2.9744   -2.2906    1.2864 O   0  0  0  0  0  0  0  0  0  0  0  0
   -2.9568    1.6645    1.2047 O   0  0  0  0  0  0  0  0  0  0  0  0
   -1.6419   -1.1505   -1.4401 O   0  0  0  0  0  0  0  0  0  0  0  0
   -4.0545   -2.0992   -1.6445 O   0  0  0  0  0  0  0  0  0  0  0  0
   -7.4218    0.0803    0.8959 O   0  0  0  0  0  0  0  0  0  0  0  0
    5.3589    0.2410   -0.1259 C   0  0  0  0  0  0  0  0  0  0  0  0
    4.8783   -1.1059    0.4522 C   0  0  2  0  0  0  0  0  0  0  0  0
    3.4992   -0.9737    1.1008 C   0  0  1  0  0  0  0  0  0  0  0  0
    2.5836   -0.1327    0.2527 C   0  0  0  0  0  0  0  0  0  0  0  0
    3.0923    0.6671   -0.7772 C   0  0  0  0  0  0  0  0  0  0  0  0
    5.6082    1.3155    0.9473 C   0  0  0  0  0  0  0  0  0  0  0  0
    6.6710    0.0403   -0.9041 C   0  0  0  0  0  0  0  0  0  0  0  0
    1.2033   -0.1107    0.5065 C   0  0  0  0  0  0  0  0  0  0  0  0
    2.2306    1.4326   -1.5693 C   0  0  0  0  0  0  0  0  0  0  0  0
    0.3465    0.6637   -0.2767 C   0  0  0  0  0  0  0  0  0  0  0  0
    0.8599    1.4306   -1.3188 C   0  0  0  0  0  0  0  0  0  0  0  0
   -1.0996    0.6683   -0.0023 C   0  0  0  0  0  0  0  0  0  0  0  0
   -2.0241   -0.3152   -0.6310 C   0  0  0  0  0  0  0  0  0  0  0  0
   -3.4426   -0.2253   -0.2386 C   0  0  0  0  0  0  0  0  0  0  0  0
   -1.6344    1.5578    0.8479 C   0  0  0  0  0  0  0  0  0  0  0  0
   -3.8368    0.7641    0.6614 C   0  0  0  0  0  0  0  0  0  0  0  0
   -4.3843   -1.1156   -0.7616 C   0  0  0  0  0  0  0  0  0  0  0  0
   -5.1746    0.8692    1.0435 C   0  0  0  0  0  0  0  0  0  0  0  0
   -5.7217   -1.0088   -0.3775 C   0  0  0  0  0  0  0  0  0  0  0  0
   -6.1163   -0.0185    0.5231 C   0  0  0  0  0  0  0  0  0  0  0  0
    4.8311   -1.8517   -0.3534 H   0  0  0  0  0  0  0  0  0  0  0  0
    3.5772   -0.5157    2.0947 H   0  0  0  0  0  0  0  0  0  0  0  0
    6.3759    1.0040    1.6628 H   0  0  0  0  0  0  0  0  0  0  0  0
    4.6979    1.5558    1.5056 H   0  0  0  0  0  0  0  0  0  0  0  0
    5.9321    2.2548    0.4835 H   0  0  0  0  0  0  0  0  0  0  0  0
    7.4795   -0.3158   -0.2574 H   0  0  0  0  0  0  0  0  0  0  0  0
    6.9929    0.9755   -1.3772 H   0  0  0  0  0  0  0  0  0  0  0  0
    6.5330   -0.6825   -1.7165 H   0  0  0  0  0  0  0  0  0  0  0  0
    0.7987   -0.7090    1.3210 H   0  0  0  0  0  0  0  0  0  0  0  0
    2.6245    2.0420   -2.3788 H   0  0  0  0  0  0  0  0  0  0  0  0
    5.5068   -2.5045    1.6663 H   0  0  0  0  0  0  0  0  0  0  0  0
    3.5098   -2.7282    1.9694 H   0  0  0  0  0  0  0  0  0  0  0  0
    0.2062    2.0364   -1.9417 H   0  0  0  0  0  0  0  0  0  0  0  0
   -1.0592    2.3153    1.3662 H   0  0  0  0  0  0  0  0  0  0  0  0
   -5.4841    1.6398    1.7451 H   0  0  0  0  0  0  0  0  0  0  0  0
   -6.4548   -1.7016   -0.7840 H   0  0  0  0  0  0  0  0  0  0  0  0
   -3.1021   -2.0919   -1.8238 H   0  0  0  0  0  0  0  0  0  0  0  0
   -7.9328   -0.6113    0.4414 H   0  0  0  0  0  0  0  0  0  0  0  0
  1  8  1  0  0  0  0
  1 12  1  0  0  0  0
  2  9  1  0  0  0  0
  2 38  1  0  0  0  0
  3 10  1  0  0  0  0
  3 39  1  0  0  0  0
  4 22  1  0  0  0  0
  4 23  1  0  0  0  0
  5 20  2  0  0  0  0
  6 24  1  0  0  0  0
  6 44  1  0  0  0  0
  7 27  1  0  0  0  0
  7 45  1  0  0  0  0
  8  9  1  0  0  0  0
  8 13  1  0  0  0  0
  8 14  1  0  0  0  0
  9 10  1  0  0  0  0
  9 28  1  0  0  0  0
 10 11  1  0  0  0  0
 10 29  1  0  0  0  0
 11 12  2  0  0  0  0
 11 15  1  0  0  0  0
 12 16  1  0  0  0  0
 13 30  1  0  0  0  0
 13 31  1  0  0  0  0
 13 32  1  0  0  0  0
 14 33  1  0  0  0  0
 14 34  1  0  0  0  0
 14 35  1  0  0  0  0
 15 17  2  0  0  0  0
 15 36  1  0  0  0  0
 16 18  2  0  0  0  0
 16 37  1  0  0  0  0
 17 18  1  0  0  0  0
 17 19  1  0  0  0  0
 18 40  1  0  0  0  0
 19 20  1  0  0  0  0
 19 22  2  0  0  0  0
 20 21  1  0  0  0  0
 21 23  1  0  0  0  0
 21 24  2  0  0  0  0
 22 41  1  0  0  0  0
 23 25  2  0  0  0  0
 24 26  1  0  0  0  0
 25 27  1  0  0  0  0
 25 42  1  0  0  0  0
 26 27  2  0  0  0  0
 26 43  1  0  0  0  0
M  END
> <PUBCHEM_COMPOUND_CID>
10832934

> <PUBCHEM_CONFORMER_RMSD>
0.6

> <PUBCHEM_CONFORMER_DIVERSEORDER>
3
8
6
10
2
11
7
5
4
9
1
12

> <PUBCHEM_MMFF94_PARTIAL_CHARGES>
35
1 -0.36
10 0.42
11 -0.14
12 0.08
15 -0.15
16 -0.15
17 0.03
18 -0.15
19 -0.01
2 -0.68
20 0.47
21 0.09
22 -0.07
23 0.08
24 0.08
25 -0.15
26 -0.15
27 0.08
3 -0.68
36 0.15
37 0.15
38 0.4
39 0.4
4 -0.16
40 0.15
41 0.15
42 0.15
43 0.15
44 0.45
45 0.45
5 -0.57
6 -0.53
7 -0.53
8 0.28
9 0.28

> <PUBCHEM_EFFECTIVE_ROTOR_COUNT>
1.8

> <PUBCHEM_PHARMACOPHORE_FEATURES>
14
1 1 acceptor
1 2 acceptor
1 2 donor
1 3 acceptor
1 3 donor
1 4 acceptor
1 5 acceptor
1 6 donor
1 7 donor
3 8 13 14 hydrophobe
6 1 8 9 10 11 12 rings
6 11 12 15 16 17 18 rings
6 21 23 24 25 26 27 rings
6 4 19 20 21 22 23 rings

> <PUBCHEM_HEAVY_ATOM_COUNT>
27

> <PUBCHEM_ATOM_DEF_STEREO_COUNT>
2

> <PUBCHEM_ATOM_UDEF_STEREO_COUNT>
0

> <PUBCHEM_BOND_DEF_STEREO_COUNT>
0

> <PUBCHEM_BOND_UDEF_STEREO_COUNT>
0

> <PUBCHEM_ISOTOPIC_ATOM_COUNT>
0

> <PUBCHEM_COMPONENT_COUNT>
1

> <PUBCHEM_CACTVS_TAUTO_COUNT>
12

> <PUBCHEM_CONFORMER_ID>
00A54C2600000003

> <PUBCHEM_MMFF94_ENERGY>
93.1062

> <PUBCHEM_FEATURE_SELFOVERLAP>
71.109

> <PUBCHEM_SHAPE_FINGERPRINT>
10 15 16128364987684324490
10299344 5 18412829075580277510
10319926 262 17346308324012606499
11524674 6 17313108579334180747
11578080 2 18193527100032324149
12107183 9 17691125928985645416
12166972 35 18333734636630782836
12236239 1 18409451379722096289
12403259 415 15195285291873628840
12516196 113 18186802482605404788
12596602 18 18273213123075605168
12616971 3 18261397792746255389
12788726 201 18271534108891130369
13533116 47 18335981987322014722
13668630 136 17312825978780431091
13685833 64 17313107445114355313
13911987 19 16515983509789231790
14251764 18 18413108381777793303
14386348 63 15574435422824229433
14840074 17 18260548926724987262
14849402 71 18267866267251360968
15183329 4 17821442474050956967
15348495 7 16271636888284465322
15461852 350 17346591985855671141
15537594 2 18408322189680667270
15788980 27 17967530159937826589
17349148 13 18113054930884959160
17844677 252 14056722348252576047
17857418 61 18407759239863986713
1813 80 18041288664336177788
19377110 9 18337379483833216624
200 152 18040151812131127237
20028762 73 18334288726731486586
20511986 3 18338222808887918201
20645477 70 17167861959006017864
21033648 29 15267337384142703835
21267235 1 18040998393878536314
21315763 178 18410006650163209663
21623969 137 17312825974042507858
21641784 216 16588599599941681212
21792961 116 15502657071292465832
220451 1 18410576197281362742
22061861 79 16515401867462937234
22224240 67 18187643644315050720
23366157 5 17910386514183317329
23402539 116 17775002410219249581
23516275 137 18127436508549057074
23522609 53 18266204814196141733
23557571 272 16917080927242717993
23559900 14 17274822488700269409
23569914 152 15871613465816482959
23569943 247 18045786681023989714
24771293 8 18263637541452004660
3004659 81 18343311382908289772
314194 84 18113898256197987962
345986 75 18261661572183653368
34797466 226 17489313005682167676
351380 3 18408318887029995803
3633792 109 18187070759885775279
397830 11 15912470445724960903
4073 2 18200032970789834198
46194498 28 15864073195603571550
5104073 3 17845658195919992587
5265222 85 17131271406715127540
5385378 56 17345772789321005095
5758199 1 18336263544399053784
59755656 215 14923942349341530825
67856867 119 18270962482682257961
7226269 152 17632580436054284345
9849439 229 16982390634128288777

> <PUBCHEM_SHAPE_MULTIPOLES>
514.56
17.33
1.7
1.41
3.57
0.4
-0.17
2.94
2.81
-0.53
0.09
-0.17
0.06
-2.35

> <PUBCHEM_SHAPE_SELFOVERLAP>
1148.125

> <PUBCHEM_SHAPE_VOLUME>
272.1

> <PUBCHEM_COORDINATE_TYPE>
2
5
10

$$$$
