REMARK  Name = 10830984
REMARK  1 active torsions:
REMARK  status: ('A' for Active; 'I' for Inactive)
REMARK    1  A    between atoms: C_10  and  O_24
REMARK                            x       y       z     vdW  Elec       q    Type
REMARK                         _______ _______ _______ _____ _____    ______ ____
ROOT
ATOM      1  O   UNL     1      -0.903   2.001  -0.533  0.00  0.00    -0.449 OA
ATOM      2  O   UNL     1       2.897  -1.492  -0.257  0.00  0.00    -0.446 OA
ATOM      3  O   UNL     1      -2.820  -0.543  -0.456  0.00  0.00    -0.444 OA
ATOM      4  O   UNL     1      -4.217   0.393   1.127  0.00  0.00    -0.250 OA
ATOM      5  O   UNL     1       0.312   2.778   1.275  0.00  0.00    -0.245 OA
ATOM      6  O   UNL     1      -1.567  -3.537  -0.916  0.00  0.00    -0.288 OA
ATOM      7  O   UNL     1       1.964  -1.233   1.846  0.00  0.00    -0.245 OA
ATOM      8  C   UNL     1       4.007  -0.611   0.038  0.00  0.00    +0.200 C 
ATOM      9  C   UNL     1      -2.138   2.561  -0.029  0.00  0.00    +0.180 C 
ATOM     10  C   UNL     1       3.720   0.770  -0.586  0.00  0.00    +0.173 C 
ATOM     11  C   UNL     1      -3.293   1.761  -0.631  0.00  0.00    +0.153 C 
ATOM     12  C   UNL     1       5.251  -1.260  -0.565  0.00  0.00    +0.050 C 
ATOM     13  C   UNL     1       2.545   1.455   0.065  0.00  0.00    +0.013 C 
ATOM     14  C   UNL     1      -2.217   4.022  -0.462  0.00  0.00    +0.048 C 
ATOM     15  C   UNL     1      -2.955  -1.851   0.127  0.00  0.00    +0.230 C 
ATOM     16  C   UNL     1      -3.515   0.474   0.127  0.00  0.00    +0.321 C 
ATOM     17  C   UNL     1       1.347   1.575  -0.526  0.00  0.00    +0.080 C 
ATOM     18  C   UNL     1       0.223   2.199   0.204  0.00  0.00    +0.341 C 
ATOM     19  C   UNL     1      -1.643  -2.563  -0.172  0.00  0.00    +0.213 C 
ATOM     20  C   UNL     1      -4.148  -2.559  -0.498  0.00  0.00    +0.056 C 
ATOM     21  C   UNL     1       1.938  -1.638   0.695  0.00  0.00    +0.341 C 
ATOM     22  C   UNL     1      -0.437  -2.003   0.503  0.00  0.00    +0.048 C 
ATOM     23  C   UNL     1       0.786  -2.304   0.054  0.00  0.00    +0.085 C 
ENDROOT
BRANCH  10  24
ATOM     24  O   UNL     1       4.866   1.605  -0.430  0.00  0.00    -0.377 OA
ATOM     25  H   UNL     1       5.634   1.181  -0.844  0.00  0.00    +0.211 HD
ENDBRANCH  10  24
TORSDOF 1
