REMARK  Name = 10837020
REMARK  15 active torsions:
REMARK  status: ('A' for Active; 'I' for Inactive)
REMARK    1  A    between atoms: C_1  and  C_2
REMARK    2  A    between atoms: C_1  and  C_19
REMARK    3  A    between atoms: C_2  and  C_3
REMARK    4  A    between atoms: C_3  and  C_6
REMARK    5  A    between atoms: C_7  and  O_12
REMARK    6  A    between atoms: C_8  and  C_16
REMARK    7  A    between atoms: C_9  and  O_14
REMARK    8  A    between atoms: C_16  and  O_17
REMARK    9  A    between atoms: C_19  and  C_20
REMARK   10  A    between atoms: C_20  and  C_21
REMARK   11  A    between atoms: C_21  and  C_22
REMARK   12  A    between atoms: C_22  and  O_23
REMARK   13  A    between atoms: C_22  and  C_25
REMARK   14  A    between atoms: C_25  and  C_28
REMARK   15  A    between atoms: C_25  and  O_35
REMARK                            x       y       z     vdW  Elec       q    Type
REMARK                         _______ _______ _______ _____ _____    ______ ____
ROOT
ATOM      1  C   UNL     1      -1.381   0.028   0.439  0.00  0.00    +0.000 C 
ENDROOT
BRANCH   1   2
ATOM      2  C   UNL     1      -2.613   0.230  -0.445  0.00  0.00    +0.002 C 
BRANCH   2   3
ATOM      3  C   UNL     1      -3.886  -0.230   0.267  0.00  0.00    +0.022 C 
BRANCH   3   6
ATOM      4  O   UNL     1      -5.406  -2.828  -0.627  0.00  0.00    -0.275 OA
ATOM      5  N   UNL     1      -6.283  -0.755  -0.090  0.00  0.00    -0.275 N 
ATOM      6  C   UNL     1      -5.127  -0.001  -0.600  0.00  0.00    +0.105 C 
ATOM      7  C   UNL     1      -5.572   1.468  -0.574  0.00  0.00    +0.157 C 
ATOM      8  C   UNL     1      -7.330   0.141   0.436  0.00  0.00    +0.134 C 
ATOM      9  C   UNL     1      -6.648   1.517   0.510  0.00  0.00    +0.159 C 
ATOM     10  C   UNL     1      -6.317  -2.143  -0.153  0.00  0.00    +0.226 C 
ATOM     11  C   UNL     1      -7.547  -2.827   0.386  0.00  0.00    +0.095 C 
BRANCH   7  12
ATOM     12  O   UNL     1      -6.135   1.799  -1.839  0.00  0.00    -0.380 OA
ATOM     13  H   UNL     1      -5.444   1.764  -2.519  0.00  0.00    +0.211 HD
ENDBRANCH   7  12
BRANCH   9  14
ATOM     14  O   UNL     1      -6.023   1.677   1.780  0.00  0.00    -0.380 OA
ATOM     15  H   UNL     1      -5.594   2.546   1.822  0.00  0.00    +0.211 HD
ENDBRANCH   9  14
BRANCH   8  16
ATOM     16  C   UNL     1      -8.556   0.181  -0.478  0.00  0.00    +0.159 C 
BRANCH  16  17
ATOM     17  O   UNL     1      -9.475   1.118   0.050  0.00  0.00    -0.380 OA
ATOM     18  H   UNL     1     -10.260   1.156  -0.519  0.00  0.00    +0.211 HD
ENDBRANCH  16  17
ENDBRANCH   8  16
ENDBRANCH   3   6
ENDBRANCH   2   3
ENDBRANCH   1   2
BRANCH   1  19
ATOM     19  C   UNL     1      -0.067   0.405  -0.252  0.00  0.00    +0.000 C 
BRANCH  19  20
ATOM     20  C   UNL     1       1.172   0.134   0.606  0.00  0.00    +0.003 C 
BRANCH  20  21
ATOM     21  C   UNL     1       2.457   0.501  -0.146  0.00  0.00    +0.032 C 
BRANCH  21  22
ATOM     22  C   UNL     1       3.720   0.215   0.684  0.00  0.00    +0.139 C 
BRANCH  22  23
ATOM     23  O   UNL     1       3.867   1.253   1.649  0.00  0.00    -0.382 OA
ATOM     24  H   UNL     1       4.660   1.089   2.183  0.00  0.00    +0.210 HD
ENDBRANCH  22  23
BRANCH  22  25
ATOM     25  C   UNL     1       4.976   0.139  -0.199  0.00  0.00    +0.155 C 
BRANCH  25  28
ATOM     26  O   UNL     1       9.150   1.237  -1.211  0.00  0.00    -0.275 OA
ATOM     27  N   UNL     1       7.449  -0.035  -0.258  0.00  0.00    -0.279 N 
ATOM     28  C   UNL     1       6.250  -0.135   0.605  0.00  0.00    +0.104 C 
ATOM     29  C   UNL     1       6.200  -1.487   1.332  0.00  0.00    +0.022 C 
ATOM     30  C   UNL     1       6.407  -2.674   0.395  0.00  0.00    +0.004 C 
ATOM     31  C   UNL     1       7.707  -1.173  -1.149  0.00  0.00    +0.093 C 
ATOM     32  C   UNL     1       7.694  -2.500  -0.401  0.00  0.00    +0.022 C 
ATOM     33  C   UNL     1       8.239   1.113  -0.388  0.00  0.00    +0.226 C 
ATOM     34  C   UNL     1       7.943   2.252   0.556  0.00  0.00    +0.095 C 
ENDBRANCH  25  28
BRANCH  25  35
ATOM     35  O   UNL     1       5.135   1.378  -0.886  0.00  0.00    -0.380 OA
ATOM     36  H   UNL     1       5.927   1.338  -1.446  0.00  0.00    +0.211 HD
ENDBRANCH  25  35
ENDBRANCH  22  25
ENDBRANCH  21  22
ENDBRANCH  20  21
ENDBRANCH  19  20
ENDBRANCH   1  19
TORSDOF 15
