10830984
  -OEChem-03292013303D

 44 44  0     1  0  0  0  0  0999 V2000
   -0.9033    2.0006   -0.5327 O   0  0  0  0  0  0  0  0  0  0  0  0
    2.8974   -1.4915   -0.2567 O   0  0  0  0  0  0  0  0  0  0  0  0
   -2.8201   -0.5428   -0.4556 O   0  0  0  0  0  0  0  0  0  0  0  0
    4.8656    1.6054   -0.4304 O   0  0  0  0  0  0  0  0  0  0  0  0
   -4.2172    0.3926    1.1273 O   0  0  0  0  0  0  0  0  0  0  0  0
    0.3117    2.7777    1.2747 O   0  0  0  0  0  0  0  0  0  0  0  0
   -1.5673   -3.5368   -0.9163 O   0  0  0  0  0  0  0  0  0  0  0  0
    1.9639   -1.2329    1.8460 O   0  0  0  0  0  0  0  0  0  0  0  0
    4.0068   -0.6113    0.0383 C   0  0  2  0  0  0  0  0  0  0  0  0
   -2.1378    2.5607   -0.0292 C   0  0  2  0  0  0  0  0  0  0  0  0
    3.7199    0.7702   -0.5864 C   0  0  1  0  0  0  0  0  0  0  0  0
   -3.2926    1.7607   -0.6315 C   0  0  0  0  0  0  0  0  0  0  0  0
    5.2507   -1.2597   -0.5652 C   0  0  0  0  0  0  0  0  0  0  0  0
    2.5450    1.4549    0.0647 C   0  0  0  0  0  0  0  0  0  0  0  0
   -2.2170    4.0219   -0.4617 C   0  0  0  0  0  0  0  0  0  0  0  0
   -2.9550   -1.8513    0.1267 C   0  0  2  0  0  0  0  0  0  0  0  0
   -3.5155    0.4740    0.1273 C   0  0  0  0  0  0  0  0  0  0  0  0
    1.3474    1.5746   -0.5256 C   0  0  0  0  0  0  0  0  0  0  0  0
    0.2232    2.1990    0.2038 C   0  0  0  0  0  0  0  0  0  0  0  0
   -1.6433   -2.5626   -0.1721 C   0  0  0  0  0  0  0  0  0  0  0  0
   -4.1483   -2.5595   -0.4980 C   0  0  0  0  0  0  0  0  0  0  0  0
    1.9376   -1.6378    0.6949 C   0  0  0  0  0  0  0  0  0  0  0  0
   -0.4374   -2.0027    0.5032 C   0  0  0  0  0  0  0  0  0  0  0  0
    0.7857   -2.3035    0.0545 C   0  0  0  0  0  0  0  0  0  0  0  0
    4.1682   -0.5258    1.1208 H   0  0  0  0  0  0  0  0  0  0  0  0
   -2.1609    2.4908    1.0656 H   0  0  0  0  0  0  0  0  0  0  0  0
    3.5376    0.6590   -1.6621 H   0  0  0  0  0  0  0  0  0  0  0  0
   -3.1191    1.5277   -1.6889 H   0  0  0  0  0  0  0  0  0  0  0  0
   -4.2345    2.3200   -0.5784 H   0  0  0  0  0  0  0  0  0  0  0  0
    5.1468   -1.3719   -1.6501 H   0  0  0  0  0  0  0  0  0  0  0  0
    6.1533   -0.6778   -0.3566 H   0  0  0  0  0  0  0  0  0  0  0  0
    5.3883   -2.2672   -0.1574 H   0  0  0  0  0  0  0  0  0  0  0  0
    2.6969    1.8250    1.0760 H   0  0  0  0  0  0  0  0  0  0  0  0
   -2.1553    4.1104   -1.5520 H   0  0  0  0  0  0  0  0  0  0  0  0
   -3.1487    4.4857   -0.1232 H   0  0  0  0  0  0  0  0  0  0  0  0
   -1.3794    4.5961   -0.0523 H   0  0  0  0  0  0  0  0  0  0  0  0
   -3.0748   -1.7990    1.2158 H   0  0  0  0  0  0  0  0  0  0  0  0
    1.1683    1.1869   -1.5227 H   0  0  0  0  0  0  0  0  0  0  0  0
   -4.2401   -3.5851   -0.1271 H   0  0  0  0  0  0  0  0  0  0  0  0
   -5.0769   -2.0240   -0.2745 H   0  0  0  0  0  0  0  0  0  0  0  0
   -4.0591   -2.5943   -1.5897 H   0  0  0  0  0  0  0  0  0  0  0  0
    5.0841    1.6456    0.5167 H   0  0  0  0  0  0  0  0  0  0  0  0
   -0.6042   -1.3048    1.3168 H   0  0  0  0  0  0  0  0  0  0  0  0
    0.9632   -2.9523   -0.7952 H   0  0  0  0  0  0  0  0  0  0  0  0
  1 10  1  0  0  0  0
  1 19  1  0  0  0  0
  2  9  1  0  0  0  0
  2 22  1  0  0  0  0
  3 16  1  0  0  0  0
  3 17  1  0  0  0  0
  4 11  1  0  0  0  0
  4 42  1  0  0  0  0
  5 17  2  0  0  0  0
  6 19  2  0  0  0  0
  7 20  2  0  0  0  0
  8 22  2  0  0  0  0
  9 11  1  0  0  0  0
  9 13  1  0  0  0  0
  9 25  1  0  0  0  0
 10 12  1  0  0  0  0
 10 15  1  0  0  0  0
 10 26  1  0  0  0  0
 11 14  1  0  0  0  0
 11 27  1  0  0  0  0
 12 17  1  0  0  0  0
 12 28  1  0  0  0  0
 12 29  1  0  0  0  0
 13 30  1  0  0  0  0
 13 31  1  0  0  0  0
 13 32  1  0  0  0  0
 14 18  2  0  0  0  0
 14 33  1  0  0  0  0
 15 34  1  0  0  0  0
 15 35  1  0  0  0  0
 15 36  1  0  0  0  0
 16 20  1  0  0  0  0
 16 21  1  0  0  0  0
 16 37  1  0  0  0  0
 18 19  1  0  0  0  0
 18 38  1  0  0  0  0
 20 23  1  0  0  0  0
 21 39  1  0  0  0  0
 21 40  1  0  0  0  0
 21 41  1  0  0  0  0
 22 24  1  0  0  0  0
 23 24  2  0  0  0  0
 23 43  1  0  0  0  0
 24 44  1  0  0  0  0
M  END
> <PUBCHEM_COMPOUND_CID>
10830984

> <PUBCHEM_CONFORMER_RMSD>
0.6

> <PUBCHEM_CONFORMER_DIVERSEORDER>
1

> <PUBCHEM_MMFF94_PARTIAL_CHARGES>
26
1 -0.43
10 0.28
11 0.42
12 0.06
14 -0.29
16 0.34
17 0.66
18 -0.14
19 0.71
2 -0.43
20 0.49
22 0.71
23 -0.14
24 -0.14
3 -0.43
33 0.15
38 0.15
4 -0.68
42 0.4
43 0.15
44 0.15
5 -0.57
6 -0.57
7 -0.57
8 -0.57
9 0.28

> <PUBCHEM_EFFECTIVE_ROTOR_COUNT>
1.6

> <PUBCHEM_PHARMACOPHORE_FEATURES>
6
1 4 acceptor
1 4 donor
1 5 acceptor
1 6 acceptor
1 7 acceptor
1 8 acceptor

> <PUBCHEM_HEAVY_ATOM_COUNT>
24

> <PUBCHEM_ATOM_DEF_STEREO_COUNT>
4

> <PUBCHEM_ATOM_UDEF_STEREO_COUNT>
0

> <PUBCHEM_BOND_DEF_STEREO_COUNT>
2

> <PUBCHEM_BOND_UDEF_STEREO_COUNT>
0

> <PUBCHEM_ISOTOPIC_ATOM_COUNT>
0

> <PUBCHEM_COMPONENT_COUNT>
1

> <PUBCHEM_CACTVS_TAUTO_COUNT>
2

> <PUBCHEM_CONFORMER_ID>
00A5448800000001

> <PUBCHEM_MMFF94_ENERGY>
43.91

> <PUBCHEM_FEATURE_SELFOVERLAP>
30.45

> <PUBCHEM_SHAPE_FINGERPRINT>
104564 63 18408885152724302962
10498660 4 18408878525584808927
10616163 171 18191870028586973681
10759866 29 17897165715434142442
107951 10 17313670318164982665
1100329 8 17977097955831029562
11513181 2 17840859686189276703
11578080 2 17489015098139133610
12038231 1 18194118753303853581
12553582 1 18337101371631658649
12596599 1 17916328123962090551
12788726 201 18263081162402283752
12838862 33 18265033782877928101
13122387 1 18265892463020403503
138480 1 16392959909381423261
14081887 123 18341598361161981528
14117953 113 17110711273024130996
14251745 187 18266455601862760920
14251751 93 18335701598565711212
14251757 17 17985001309931101454
14251757 5 18338534009602531174
14363568 33 17036719075102247696
14765038 42 18127716960990631593
14790565 3 18196661687835271489
14931854 50 18335699506821745278
15196674 1 18410013264586886318
19591789 44 18410575088984432986
19930381 70 16680909476076538103
20775438 99 16906323524942241151
20905425 154 18411982498269994391
21141583 151 18343023281065728688
21673915 165 18409730694430587892
221357 26 18339923834796207422
23352939 185 18271811293322301027
23559900 14 18342455963658646552
238 59 16815415495466652181
3014063 31 18266453381491178311
338550 245 18260557710038771516
5047190 48 16900167462328107248
6438718 38 18059852891537153311
7832392 63 18340205309968103178

> <PUBCHEM_SHAPE_MULTIPOLES>
446.95
8.79
4.67
0.96
5.66
1.08
0.26
-1.06
-1.23
-3.7
-0.49
0.07
-0.07
-0.39

> <PUBCHEM_SHAPE_SELFOVERLAP>
903.134

> <PUBCHEM_SHAPE_VOLUME>
258.3

> <PUBCHEM_COORDINATE_TYPE>
2
5
10

$$$$
