REMARK  Name = 10832934
REMARK  5 active torsions:
REMARK  status: ('A' for Active; 'I' for Inactive)
REMARK    1  A    between atoms: C_3  and  O_28
REMARK    2  A    between atoms: C_4  and  O_30
REMARK    3  A    between atoms: C_11  and  C_15
REMARK    4  A    between atoms: C_20  and  O_24
REMARK    5  A    between atoms: C_23  and  O_26
REMARK                            x       y       z     vdW  Elec       q    Type
REMARK                         _______ _______ _______ _____ _____    ______ ____
ROOT
ATOM      1  O   UNL     1       4.421   0.752  -1.094  0.00  0.00    -0.480 OA
ATOM      2  C   UNL     1       5.359   0.241  -0.126  0.00  0.00    +0.160 C 
ATOM      3  C   UNL     1       4.878  -1.106   0.452  0.00  0.00    +0.178 C 
ATOM      4  C   UNL     1       3.499  -0.974   1.101  0.00  0.00    +0.166 C 
ATOM      5  C   UNL     1       2.584  -0.133   0.253  0.00  0.00    +0.041 C 
ATOM      6  C   UNL     1       3.092   0.667  -0.777  0.00  0.00    +0.137 C 
ATOM      7  C   UNL     1       5.608   1.315   0.947  0.00  0.00    +0.046 C 
ATOM      8  C   UNL     1       6.671   0.040  -0.904  0.00  0.00    +0.046 C 
ATOM      9  C   UNL     1       1.203  -0.111   0.506  0.00  0.00    +0.001 C 
ATOM     10  C   UNL     1       2.231   1.433  -1.569  0.00  0.00    +0.037 C 
ATOM     11  C   UNL     1       0.346   0.664  -0.277  0.00  0.00    +0.006 C 
ATOM     12  C   UNL     1       0.860   1.431  -1.319  0.00  0.00    +0.003 C 
ENDROOT
BRANCH  11  15
ATOM     13  O   UNL     1      -2.957   1.665   1.205  0.00  0.00    -0.450 OA
ATOM     14  O   UNL     1      -1.642  -1.151  -1.440  0.00  0.00    -0.286 OA
ATOM     15  C   UNL     1      -1.100   0.668  -0.002  0.00  0.00    +0.077 C 
ATOM     16  C   UNL     1      -2.024  -0.315  -0.631  0.00  0.00    +0.204 C 
ATOM     17  C   UNL     1      -3.443  -0.225  -0.239  0.00  0.00    +0.107 C 
ATOM     18  C   UNL     1      -1.634   1.558   0.848  0.00  0.00    +0.183 C 
ATOM     19  C   UNL     1      -3.837   0.764   0.661  0.00  0.00    +0.154 C 
ATOM     20  C   UNL     1      -4.384  -1.116  -0.762  0.00  0.00    +0.143 C 
ATOM     21  C   UNL     1      -5.175   0.869   1.044  0.00  0.00    +0.074 C 
ATOM     22  C   UNL     1      -5.722  -1.009  -0.378  0.00  0.00    +0.073 C 
ATOM     23  C   UNL     1      -6.116  -0.018   0.523  0.00  0.00    +0.140 C 
BRANCH  20  24
ATOM     24  O   UNL     1      -4.054  -2.099  -1.645  0.00  0.00    -0.505 OA
ATOM     25  H   UNL     1      -3.166  -2.199  -1.924  0.00  0.00    +0.292 HD
ENDBRANCH  20  24
BRANCH  23  26
ATOM     26  O   UNL     1      -7.422   0.080   0.896  0.00  0.00    -0.505 OA
ATOM     27  H   UNL     1      -7.687   0.745   1.501  0.00  0.00    +0.292 HD
ENDBRANCH  23  26
ENDBRANCH  11  15
BRANCH   3  28
ATOM     28  O   UNL     1       5.782  -1.601   1.439  0.00  0.00    -0.378 OA
ATOM     29  H   UNL     1       6.666  -1.693   1.050  0.00  0.00    +0.211 HD
ENDBRANCH   3  28
BRANCH   4  30
ATOM     30  O   UNL     1       2.974  -2.291   1.286  0.00  0.00    -0.377 OA
ATOM     31  H   UNL     1       3.585  -2.807   1.835  0.00  0.00    +0.211 HD
ENDBRANCH   4  30
TORSDOF 5
