10837811
  -OEChem-03292013303D

 70 72  0     1  0  0  0  0  0999 V2000
    1.8019    1.2625   -1.3431 O   0  0  0  0  0  0  0  0  0  0  0  0
    2.0456    4.2166   -1.1392 O   0  0  0  0  0  0  0  0  0  0  0  0
    3.0336    2.4739    3.1982 O   0  0  0  0  0  0  0  0  0  0  0  0
    5.6963   -1.8709    1.6639 O   0  0  0  0  0  0  0  0  0  0  0  0
   -5.8867   -2.1884    1.4211 O   0  0  0  0  0  0  0  0  0  0  0  0
   -8.0431    0.4460    0.0532 O   0  0  0  0  0  0  0  0  0  0  0  0
    4.3322   -4.5319    0.5049 O   0  0  0  0  0  0  0  0  0  0  0  0
    4.6592   -1.8467   -0.4588 N   0  0  0  0  0  0  0  0  0  0  0  0
    0.6939    2.1830   -1.3183 C   0  0  2  0  0  0  0  0  0  0  0  0
    1.0164    3.4526   -0.5032 C   0  0  1  0  0  0  0  0  0  0  0  0
    1.4636    3.1228    0.9183 C   0  0  0  0  0  0  0  0  0  0  0  0
   -0.5427    1.4478   -0.7724 C   0  0  0  0  0  0  0  0  0  0  0  0
    2.3901    1.9375    0.9345 C   0  0  0  0  0  0  0  0  0  0  0  0
    2.4929    1.0897   -0.1787 C   0  0  0  0  0  0  0  0  0  0  0  0
    0.4264    2.5453   -2.7886 C   0  0  0  0  0  0  0  0  0  0  0  0
    3.3689    0.0189   -0.1155 C   0  0  0  0  0  0  0  0  0  0  0  0
   -0.8281    0.1715   -1.5630 C   0  0  0  0  0  0  0  0  0  0  0  0
    3.6797   -1.0151   -1.1462 C   0  0  0  0  0  0  0  0  0  0  0  0
    4.1098   -0.2176    1.0428 C   0  0  0  0  0  0  0  0  0  0  0  0
    3.1450    1.6692    2.1001 C   0  0  0  0  0  0  0  0  0  0  0  0
    4.0184    0.5825    2.1630 C   0  0  0  0  0  0  0  0  0  0  0  0
    4.9379   -1.4099    0.8308 C   0  0  0  0  0  0  0  0  0  0  0  0
   -2.0211   -0.5561   -1.0105 C   0  0  0  0  0  0  0  0  0  0  0  0
    5.2503   -3.0015   -1.0992 C   0  0  0  0  0  0  0  0  0  0  0  0
   -3.1720   -0.8490   -1.6468 C   0  0  0  0  0  0  0  0  0  0  0  0
   -4.2913   -1.5565   -0.9079 C   0  0  0  0  0  0  0  0  0  0  0  0
   -5.2934   -0.5728   -0.2840 C   0  0  0  0  0  0  0  0  0  0  0  0
   -6.4359   -1.3049    0.4449 C   0  0  2  0  0  0  0  0  0  0  0  0
   -7.4812   -0.3627    1.0922 C   0  0  0  0  0  0  0  0  0  0  0  0
    4.4110   -4.2480   -0.8859 C   0  0  0  0  0  0  0  0  0  0  0  0
   -3.4693   -0.4825   -3.0751 C   0  0  0  0  0  0  0  0  0  0  0  0
   -6.8854    0.5711    2.1516 C   0  0  0  0  0  0  0  0  0  0  0  0
   -8.6226   -1.1768    1.7165 C   0  0  0  0  0  0  0  0  0  0  0  0
    0.1346    4.1038   -0.4640 H   0  0  0  0  0  0  0  0  0  0  0  0
    1.9671    3.9925    1.3574 H   0  0  0  0  0  0  0  0  0  0  0  0
    0.5916    2.8846    1.5387 H   0  0  0  0  0  0  0  0  0  0  0  0
   -1.4173    2.1109   -0.8004 H   0  0  0  0  0  0  0  0  0  0  0  0
   -0.3936    1.1687    0.2778 H   0  0  0  0  0  0  0  0  0  0  0  0
    0.4123    1.6693   -3.4445 H   0  0  0  0  0  0  0  0  0  0  0  0
   -0.5091    3.1021   -2.9066 H   0  0  0  0  0  0  0  0  0  0  0  0
    1.2354    3.1642   -3.1941 H   0  0  0  0  0  0  0  0  0  0  0  0
   -0.9617    0.3802   -2.6220 H   0  0  0  0  0  0  0  0  0  0  0  0
    0.0247   -0.5145   -1.4923 H   0  0  0  0  0  0  0  0  0  0  0  0
    2.8027   -1.6181   -1.3968 H   0  0  0  0  0  0  0  0  0  0  0  0
    4.1387   -0.5783   -2.0375 H   0  0  0  0  0  0  0  0  0  0  0  0
    4.6026    0.3719    3.0520 H   0  0  0  0  0  0  0  0  0  0  0  0
    2.1633    5.0353   -0.6278 H   0  0  0  0  0  0  0  0  0  0  0  0
   -1.9203   -0.8667    0.0290 H   0  0  0  0  0  0  0  0  0  0  0  0
    5.3792   -2.7883   -2.1651 H   0  0  0  0  0  0  0  0  0  0  0  0
    6.2391   -3.1549   -0.6522 H   0  0  0  0  0  0  0  0  0  0  0  0
   -3.8627   -2.1963   -0.1258 H   0  0  0  0  0  0  0  0  0  0  0  0
   -4.8084   -2.2361   -1.5970 H   0  0  0  0  0  0  0  0  0  0  0  0
   -4.7444    0.0584    0.4249 H   0  0  0  0  0  0  0  0  0  0  0  0
   -5.7063    0.0848   -1.0574 H   0  0  0  0  0  0  0  0  0  0  0  0
   -6.9480   -1.9311   -0.2971 H   0  0  0  0  0  0  0  0  0  0  0  0
    3.6203    2.1410    3.8988 H   0  0  0  0  0  0  0  0  0  0  0  0
    3.3948   -4.1128   -1.2698 H   0  0  0  0  0  0  0  0  0  0  0  0
    4.8696   -5.1046   -1.3894 H   0  0  0  0  0  0  0  0  0  0  0  0
   -3.5804   -1.3920   -3.6750 H   0  0  0  0  0  0  0  0  0  0  0  0
   -2.7101    0.1361   -3.5544 H   0  0  0  0  0  0  0  0  0  0  0  0
   -4.4085    0.0778   -3.1322 H   0  0  0  0  0  0  0  0  0  0  0  0
   -6.1533    1.2578    1.7147 H   0  0  0  0  0  0  0  0  0  0  0  0
   -6.4100    0.0187    2.9676 H   0  0  0  0  0  0  0  0  0  0  0  0
   -7.6652    1.2083    2.5860 H   0  0  0  0  0  0  0  0  0  0  0  0
   -9.0964   -1.8194    0.9657 H   0  0  0  0  0  0  0  0  0  0  0  0
   -9.4113   -0.5175    2.0972 H   0  0  0  0  0  0  0  0  0  0  0  0
   -8.2732   -1.8050    2.5421 H   0  0  0  0  0  0  0  0  0  0  0  0
   -5.3043   -1.6712    2.0025 H   0  0  0  0  0  0  0  0  0  0  0  0
   -8.7077    1.0325    0.4532 H   0  0  0  0  0  0  0  0  0  0  0  0
    3.7932   -5.3353    0.6018 H   0  0  0  0  0  0  0  0  0  0  0  0
  1  9  1  0  0  0  0
  1 14  1  0  0  0  0
  2 10  1  0  0  0  0
  2 47  1  0  0  0  0
  3 20  1  0  0  0  0
  3 56  1  0  0  0  0
  4 22  2  0  0  0  0
  5 28  1  0  0  0  0
  5 68  1  0  0  0  0
  6 29  1  0  0  0  0
  6 69  1  0  0  0  0
  7 30  1  0  0  0  0
  7 70  1  0  0  0  0
  8 18  1  0  0  0  0
  8 22  1  0  0  0  0
  8 24  1  0  0  0  0
  9 10  1  0  0  0  0
  9 12  1  0  0  0  0
  9 15  1  0  0  0  0
 10 11  1  0  0  0  0
 10 34  1  0  0  0  0
 11 13  1  0  0  0  0
 11 35  1  0  0  0  0
 11 36  1  0  0  0  0
 12 17  1  0  0  0  0
 12 37  1  0  0  0  0
 12 38  1  0  0  0  0
 13 14  1  0  0  0  0
 13 20  2  0  0  0  0
 14 16  2  0  0  0  0
 15 39  1  0  0  0  0
 15 40  1  0  0  0  0
 15 41  1  0  0  0  0
 16 18  1  0  0  0  0
 16 19  1  0  0  0  0
 17 23  1  0  0  0  0
 17 42  1  0  0  0  0
 17 43  1  0  0  0  0
 18 44  1  0  0  0  0
 18 45  1  0  0  0  0
 19 21  2  0  0  0  0
 19 22  1  0  0  0  0
 20 21  1  0  0  0  0
 21 46  1  0  0  0  0
 23 25  2  0  0  0  0
 23 48  1  0  0  0  0
 24 30  1  0  0  0  0
 24 49  1  0  0  0  0
 24 50  1  0  0  0  0
 25 26  1  0  0  0  0
 25 31  1  0  0  0  0
 26 27  1  0  0  0  0
 26 51  1  0  0  0  0
 26 52  1  0  0  0  0
 27 28  1  0  0  0  0
 27 53  1  0  0  0  0
 27 54  1  0  0  0  0
 28 29  1  0  0  0  0
 28 55  1  0  0  0  0
 29 32  1  0  0  0  0
 29 33  1  0  0  0  0
 30 57  1  0  0  0  0
 30 58  1  0  0  0  0
 31 59  1  0  0  0  0
 31 60  1  0  0  0  0
 31 61  1  0  0  0  0
 32 62  1  0  0  0  0
 32 63  1  0  0  0  0
 32 64  1  0  0  0  0
 33 65  1  0  0  0  0
 33 66  1  0  0  0  0
 33 67  1  0  0  0  0
M  END
> <PUBCHEM_COMPOUND_CID>
10837811

> <PUBCHEM_CONFORMER_RMSD>
1.2

> <PUBCHEM_CONFORMER_DIVERSEORDER>
4
160
52
20
39
144
152
90
59
22
14
1
61
24
25
83
93
31
156
148
145
88
18
33
76
27
11
153
141
19
97
68
63
79
133
62
135
30
21
34
2
6
17
41
111
151
9
67
23
77
155
101
130
45
26
40
149
5
137
150
89
110
75
131
108
13
138
125
109
15
136
43
72
122
86
91
146
7
140
118
42
38
32
84
132
8
105
107
53
65
78
117
85
37
47
60
48
154
66
82
120
64
115
100
16
128
162
36
159
3
80
44
124
161
69
114
123
55
127
95
46
104
142
92
113
74
103
94
147
157
99
51
28
126
81
121
158
106
116
56
58
98
73
57
12
70
129
143
139
71
10
54
35
29
112
119
102
96
49
87
50
134

> <PUBCHEM_MMFF94_PARTIAL_CHARGES>
35
1 -0.36
10 0.28
11 0.14
13 -0.14
14 0.08
16 -0.14
17 0.14
18 0.44
19 0.09
2 -0.68
20 0.08
21 -0.15
22 0.54
23 -0.29
24 0.3
25 -0.28
26 0.14
28 0.28
29 0.28
3 -0.53
30 0.28
31 0.14
4 -0.57
46 0.15
47 0.4
48 0.15
5 -0.68
56 0.45
6 -0.68
68 0.4
69 0.4
7 -0.68
70 0.4
8 -0.66
9 0.28

> <PUBCHEM_EFFECTIVE_ROTOR_COUNT>
10.2

> <PUBCHEM_PHARMACOPHORE_FEATURES>
16
1 1 acceptor
1 2 acceptor
1 2 donor
1 3 donor
1 31 hydrophobe
1 4 acceptor
1 5 acceptor
1 5 donor
1 6 acceptor
1 6 donor
1 7 acceptor
1 7 donor
3 29 32 33 hydrophobe
5 8 16 18 19 22 rings
6 1 9 10 11 13 14 rings
6 13 14 16 19 20 21 rings

> <PUBCHEM_HEAVY_ATOM_COUNT>
33

> <PUBCHEM_ATOM_DEF_STEREO_COUNT>
0

> <PUBCHEM_ATOM_UDEF_STEREO_COUNT>
3

> <PUBCHEM_BOND_DEF_STEREO_COUNT>
1

> <PUBCHEM_BOND_UDEF_STEREO_COUNT>
0

> <PUBCHEM_ISOTOPIC_ATOM_COUNT>
0

> <PUBCHEM_COMPONENT_COUNT>
1

> <PUBCHEM_CACTVS_TAUTO_COUNT>
3

> <PUBCHEM_CONFORMER_ID>
00A55F3300000004

> <PUBCHEM_MMFF94_ENERGY>
86.5986

> <PUBCHEM_FEATURE_SELFOVERLAP>
81.316

> <PUBCHEM_SHAPE_FINGERPRINT>
10169797 241 16878216575603527641
10190108 129 18272085050475227232
10319926 262 18186519917724755517
10692045 39 18412832387285107211
10928967 22 16733248154162356755
11374522 58 18342460309764591183
11399510 152 17981894352570576507
12047536 79 17203046283602608712
12107183 9 17846499219051688735
12422481 6 18343022199261854885
12778500 126 17489588973772060731
13150687 139 11746943066754245616
13673619 4 17530967982088111775
13782708 43 17749387118419367111
13785724 45 18340216193251506663
13947947 73 17703790258982071407
14040221 304 11026084650186254291
14347424 109 18060698390166625297
15475509 84 17560802095793907608
15669420 48 16008759026035216302
15776043 110 18059863839709730907
16708801 149 15338301033490173371
20578428 11 16009322044338654485
20775438 99 12251895984607214832
20775530 9 18269545058165719086
21421861 104 18339076119858115684
21599406 157 10809610550968812579
2260408 40 18338229491625474473
24893989 43 16808433970456466611
249057 25 17702938271252250893
2748736 6 15554455111242577611
3680242 22 17917439765411136089
439807 62 14635134721585898681
5372103 7 10087624984173250287
57091435 61 9439406821690984271
6201460 15 17031896119193767306
6679774 75 16389002783975810137
7918774 8 17967531251075895007
86090 222 18113617876148560962
9555976 147 16486677178402455799

> <PUBCHEM_SHAPE_MULTIPOLES>
633.06
19.57
4.57
2.71
47.06
1.01
0
15.55
12.4
-9.03
-0.59
0.64
-1.21
1.25

> <PUBCHEM_SHAPE_SELFOVERLAP>
1325.176

> <PUBCHEM_SHAPE_VOLUME>
360.2

> <PUBCHEM_COORDINATE_TYPE>
2
5
10

$$$$
