REMARK  Name = 10837811
REMARK  14 active torsions:
REMARK  status: ('A' for Active; 'I' for Inactive)
REMARK    1  A    between atoms: N_3  and  C_35
REMARK    2  A    between atoms: C_4  and  C_20
REMARK    3  A    between atoms: C_5  and  O_16
REMARK    4  A    between atoms: C_13  and  O_18
REMARK    5  A    between atoms: C_20  and  C_21
REMARK    6  A    between atoms: C_21  and  C_22
REMARK    7  A    between atoms: C_23  and  C_25
REMARK    8  A    between atoms: C_25  and  C_26
REMARK    9  A    between atoms: C_26  and  C_27
REMARK   10  A    between atoms: C_27  and  C_28
REMARK   11  A    between atoms: C_27  and  O_33
REMARK   12  A    between atoms: C_28  and  O_31
REMARK   13  A    between atoms: C_35  and  C_36
REMARK   14  A    between atoms: C_36  and  O_37
REMARK                            x       y       z     vdW  Elec       q    Type
REMARK                         _______ _______ _______ _____ _____    ______ ____
ROOT
ATOM      1  O   UNL     1       1.802   1.262  -1.343  0.00  0.00    -0.481 OA
ATOM      2  O   UNL     1       5.696  -1.871   1.664  0.00  0.00    -0.270 OA
ATOM      3  N   UNL     1       4.659  -1.847  -0.459  0.00  0.00    -0.269 N 
ATOM      4  C   UNL     1       0.694   2.183  -1.318  0.00  0.00    +0.158 C 
ATOM      5  C   UNL     1       1.016   3.453  -0.503  0.00  0.00    +0.151 C 
ATOM      6  C   UNL     1       1.464   3.123   0.918  0.00  0.00    +0.065 C 
ATOM      7  C   UNL     1       2.390   1.938   0.934  0.00  0.00    +0.048 C 
ATOM      8  C   UNL     1       2.493   1.090  -0.179  0.00  0.00    +0.135 C 
ATOM      9  C   UNL     1       0.426   2.545  -2.789  0.00  0.00    +0.046 C 
ATOM     10  C   UNL     1       3.369   0.019  -0.116  0.00  0.00    +0.036 C 
ATOM     11  C   UNL     1       3.680  -1.015  -1.146  0.00  0.00    +0.124 C 
ATOM     12  C   UNL     1       4.110  -0.218   1.043  0.00  0.00    +0.057 C 
ATOM     13  C   UNL     1       3.145   1.669   2.100  0.00  0.00    +0.133 C 
ATOM     14  C   UNL     1       4.018   0.583   2.163  0.00  0.00    +0.041 C 
ATOM     15  C   UNL     1       4.938  -1.410   0.831  0.00  0.00    +0.249 C 
ENDROOT
BRANCH   5  16
ATOM     16  O   UNL     1       2.046   4.217  -1.139  0.00  0.00    -0.381 OA
ATOM     17  H   UNL     1       1.774   4.434  -2.045  0.00  0.00    +0.211 HD
ENDBRANCH   5  16
BRANCH  13  18
ATOM     18  O   UNL     1       3.034   2.474   3.198  0.00  0.00    -0.506 OA
ATOM     19  H   UNL     1       2.454   3.210   3.183  0.00  0.00    +0.292 HD
ENDBRANCH  13  18
BRANCH   4  20
ATOM     20  C   UNL     1      -0.543   1.448  -0.772  0.00  0.00    +0.047 C 
BRANCH  20  21
ATOM     21  C   UNL     1      -0.828   0.172  -1.563  0.00  0.00    +0.029 C 
BRANCH  21  22
ATOM     22  C   UNL     1      -2.021  -0.556  -1.010  0.00  0.00    -0.034 C 
ATOM     23  C   UNL     1      -3.172  -0.849  -1.647  0.00  0.00    -0.048 C 
ATOM     24  C   UNL     1      -3.469  -0.482  -3.075  0.00  0.00    +0.026 C 
BRANCH  23  25
ATOM     25  C   UNL     1      -4.291  -1.556  -0.908  0.00  0.00    +0.024 C 
BRANCH  25  26
ATOM     26  C   UNL     1      -5.293  -0.573  -0.284  0.00  0.00    +0.036 C 
BRANCH  26  27
ATOM     27  C   UNL     1      -6.436  -1.305   0.445  0.00  0.00    +0.135 C 
BRANCH  27  28
ATOM     28  C   UNL     1      -7.481  -0.363   1.092  0.00  0.00    +0.113 C 
ATOM     29  C   UNL     1      -6.885   0.571   2.152  0.00  0.00    +0.032 C 
ATOM     30  C   UNL     1      -8.623  -1.177   1.716  0.00  0.00    +0.032 C 
BRANCH  28  31
ATOM     31  O   UNL     1      -8.043   0.446   0.053  0.00  0.00    -0.384 OA
ATOM     32  H   UNL     1      -7.342   0.973  -0.361  0.00  0.00    +0.210 HD
ENDBRANCH  28  31
ENDBRANCH  27  28
BRANCH  27  33
ATOM     33  O   UNL     1      -5.887  -2.188   1.421  0.00  0.00    -0.382 OA
ATOM     34  H   UNL     1      -5.235  -2.771   1.000  0.00  0.00    +0.210 HD
ENDBRANCH  27  33
ENDBRANCH  26  27
ENDBRANCH  25  26
ENDBRANCH  23  25
ENDBRANCH  21  22
ENDBRANCH  20  21
ENDBRANCH   4  20
BRANCH   3  35
ATOM     35  C   UNL     1       5.250  -3.002  -1.099  0.00  0.00    +0.126 C 
BRANCH  35  36
ATOM     36  C   UNL     1       4.411  -4.248  -0.886  0.00  0.00    +0.159 C 
BRANCH  36  37
ATOM     37  O   UNL     1       4.332  -4.532   0.505  0.00  0.00    -0.380 OA
ATOM     38  H   UNL     1       3.796  -5.328   0.642  0.00  0.00    +0.211 HD
ENDBRANCH  36  37
ENDBRANCH  35  36
ENDBRANCH   3  35
TORSDOF 14
