10837020
  -OEChem-03292013303D

 71 72  0     1  0  0  0  0  0999 V2000
   -6.1351    1.7989   -1.8388 O   0  0  0  0  0  0  0  0  0  0  0  0
   -6.0230    1.6770    1.7797 O   0  0  0  0  0  0  0  0  0  0  0  0
   -9.4749    1.1180    0.0496 O   0  0  0  0  0  0  0  0  0  0  0  0
    5.1354    1.3779   -0.8861 O   0  0  0  0  0  0  0  0  0  0  0  0
    3.8666    1.2534    1.6491 O   0  0  0  0  0  0  0  0  0  0  0  0
   -5.4060   -2.8277   -0.6272 O   0  0  0  0  0  0  0  0  0  0  0  0
    9.1500    1.2369   -1.2107 O   0  0  0  0  0  0  0  0  0  0  0  0
   -6.2831   -0.7554   -0.0904 N   0  0  0  0  0  0  0  0  0  0  0  0
    7.4493   -0.0345   -0.2583 N   0  0  0  0  0  0  0  0  0  0  0  0
   -5.1269   -0.0007   -0.5998 C   0  0  1  0  0  0  0  0  0  0  0  0
   -5.5723    1.4675   -0.5737 C   0  0  2  0  0  0  0  0  0  0  0  0
   -7.3297    0.1411    0.4364 C   0  0  1  0  0  0  0  0  0  0  0  0
   -6.6482    1.5174    0.5102 C   0  0  1  0  0  0  0  0  0  0  0  0
   -3.8864   -0.2300    0.2666 C   0  0  0  0  0  0  0  0  0  0  0  0
   -2.6133    0.2299   -0.4453 C   0  0  0  0  0  0  0  0  0  0  0  0
    6.2504   -0.1346    0.6049 C   0  0  1  0  0  0  0  0  0  0  0  0
   -8.5558    0.1813   -0.4778 C   0  0  0  0  0  0  0  0  0  0  0  0
    4.9759    0.1393   -0.1986 C   0  0  1  0  0  0  0  0  0  0  0  0
   -1.3808    0.0279    0.4390 C   0  0  0  0  0  0  0  0  0  0  0  0
    6.2000   -1.4874    1.3321 C   0  0  0  0  0  0  0  0  0  0  0  0
   -6.3167   -2.1426   -0.1532 C   0  0  0  0  0  0  0  0  0  0  0  0
    3.7196    0.2150    0.6841 C   0  0  2  0  0  0  0  0  0  0  0  0
    6.4067   -2.6736    0.3953 C   0  0  0  0  0  0  0  0  0  0  0  0
   -0.0668    0.4052   -0.2515 C   0  0  0  0  0  0  0  0  0  0  0  0
    2.4574    0.5010   -0.1465 C   0  0  0  0  0  0  0  0  0  0  0  0
    7.7070   -1.1729   -1.1485 C   0  0  0  0  0  0  0  0  0  0  0  0
    7.6945   -2.5003   -0.4009 C   0  0  0  0  0  0  0  0  0  0  0  0
    1.1717    0.1339    0.6061 C   0  0  0  0  0  0  0  0  0  0  0  0
   -7.5472   -2.8267    0.3862 C   0  0  0  0  0  0  0  0  0  0  0  0
    8.2386    1.1129   -0.3880 C   0  0  0  0  0  0  0  0  0  0  0  0
    7.9431    2.2519    0.5563 C   0  0  0  0  0  0  0  0  0  0  0  0
   -4.9355   -0.3549   -1.6206 H   0  0  0  0  0  0  0  0  0  0  0  0
   -4.7557    2.1683   -0.3760 H   0  0  0  0  0  0  0  0  0  0  0  0
   -7.6221   -0.1944    1.4375 H   0  0  0  0  0  0  0  0  0  0  0  0
   -7.3362    2.3565    0.3692 H   0  0  0  0  0  0  0  0  0  0  0  0
   -3.7737   -1.2935    0.5066 H   0  0  0  0  0  0  0  0  0  0  0  0
   -3.9797    0.2798    1.2321 H   0  0  0  0  0  0  0  0  0  0  0  0
   -2.6848    1.2878   -0.7205 H   0  0  0  0  0  0  0  0  0  0  0  0
   -2.4904   -0.3371   -1.3761 H   0  0  0  0  0  0  0  0  0  0  0  0
    6.3291    0.6328    1.3793 H   0  0  0  0  0  0  0  0  0  0  0  0
   -8.2991    0.4721   -1.5009 H   0  0  0  0  0  0  0  0  0  0  0  0
   -9.0562   -0.7878   -0.5264 H   0  0  0  0  0  0  0  0  0  0  0  0
    4.8338   -0.6277   -0.9674 H   0  0  0  0  0  0  0  0  0  0  0  0
    5.2877   -1.6223    1.9178 H   0  0  0  0  0  0  0  0  0  0  0  0
    7.0180   -1.5009    2.0663 H   0  0  0  0  0  0  0  0  0  0  0  0
   -1.3287   -1.0237    0.7477 H   0  0  0  0  0  0  0  0  0  0  0  0
   -1.4886    0.6215    1.3551 H   0  0  0  0  0  0  0  0  0  0  0  0
    3.5767   -0.7289    1.2170 H   0  0  0  0  0  0  0  0  0  0  0  0
    5.5538   -2.7731   -0.2855 H   0  0  0  0  0  0  0  0  0  0  0  0
    6.4581   -3.5996    0.9791 H   0  0  0  0  0  0  0  0  0  0  0  0
   -0.0970    1.4679   -0.5220 H   0  0  0  0  0  0  0  0  0  0  0  0
    0.0161   -0.1578   -1.1896 H   0  0  0  0  0  0  0  0  0  0  0  0
    6.9358   -1.1630   -1.9272 H   0  0  0  0  0  0  0  0  0  0  0  0
    8.6706   -1.0531   -1.6547 H   0  0  0  0  0  0  0  0  0  0  0  0
    2.4196    1.5624   -0.4213 H   0  0  0  0  0  0  0  0  0  0  0  0
    2.4889   -0.0834   -1.0743 H   0  0  0  0  0  0  0  0  0  0  0  0
   -5.4249    1.7328   -2.4998 H   0  0  0  0  0  0  0  0  0  0  0  0
    7.8085   -3.3278   -1.1099 H   0  0  0  0  0  0  0  0  0  0  0  0
    8.5510   -2.5408    0.2837 H   0  0  0  0  0  0  0  0  0  0  0  0
    1.1976   -0.9268    0.8833 H   0  0  0  0  0  0  0  0  0  0  0  0
    1.0998    0.7106    1.5351 H   0  0  0  0  0  0  0  0  0  0  0  0
   -6.7255    1.6763    2.4521 H   0  0  0  0  0  0  0  0  0  0  0  0
   -8.3054   -2.8863   -0.3979 H   0  0  0  0  0  0  0  0  0  0  0  0
   -7.9508   -2.3255    1.2666 H   0  0  0  0  0  0  0  0  0  0  0  0
   -7.2815   -3.8457    0.6860 H   0  0  0  0  0  0  0  0  0  0  0  0
  -10.2454    1.1305   -0.5435 H   0  0  0  0  0  0  0  0  0  0  0  0
    4.9850    2.0951   -0.2473 H   0  0  0  0  0  0  0  0  0  0  0  0
    3.1183    1.1961    2.2663 H   0  0  0  0  0  0  0  0  0  0  0  0
    8.6590    3.0604    0.3748 H   0  0  0  0  0  0  0  0  0  0  0  0
    6.9433    2.6550    0.4002 H   0  0  0  0  0  0  0  0  0  0  0  0
    8.0693    1.9262    1.5923 H   0  0  0  0  0  0  0  0  0  0  0  0
  1 11  1  0  0  0  0
  1 57  1  0  0  0  0
  2 13  1  0  0  0  0
  2 62  1  0  0  0  0
  3 17  1  0  0  0  0
  3 66  1  0  0  0  0
  4 18  1  0  0  0  0
  4 67  1  0  0  0  0
  5 22  1  0  0  0  0
  5 68  1  0  0  0  0
  6 21  2  0  0  0  0
  7 30  2  0  0  0  0
  8 10  1  0  0  0  0
  8 12  1  0  0  0  0
  8 21  1  0  0  0  0
  9 16  1  0  0  0  0
  9 26  1  0  0  0  0
  9 30  1  0  0  0  0
 10 11  1  0  0  0  0
 10 14  1  0  0  0  0
 10 32  1  0  0  0  0
 11 13  1  0  0  0  0
 11 33  1  0  0  0  0
 12 13  1  0  0  0  0
 12 17  1  0  0  0  0
 12 34  1  0  0  0  0
 13 35  1  0  0  0  0
 14 15  1  0  0  0  0
 14 36  1  0  0  0  0
 14 37  1  0  0  0  0
 15 19  1  0  0  0  0
 15 38  1  0  0  0  0
 15 39  1  0  0  0  0
 16 18  1  0  0  0  0
 16 20  1  0  0  0  0
 16 40  1  0  0  0  0
 17 41  1  0  0  0  0
 17 42  1  0  0  0  0
 18 22  1  0  0  0  0
 18 43  1  0  0  0  0
 19 24  1  0  0  0  0
 19 46  1  0  0  0  0
 19 47  1  0  0  0  0
 20 23  1  0  0  0  0
 20 44  1  0  0  0  0
 20 45  1  0  0  0  0
 21 29  1  0  0  0  0
 22 25  1  0  0  0  0
 22 48  1  0  0  0  0
 23 27  1  0  0  0  0
 23 49  1  0  0  0  0
 23 50  1  0  0  0  0
 24 28  1  0  0  0  0
 24 51  1  0  0  0  0
 24 52  1  0  0  0  0
 25 28  1  0  0  0  0
 25 55  1  0  0  0  0
 25 56  1  0  0  0  0
 26 27  1  0  0  0  0
 26 53  1  0  0  0  0
 26 54  1  0  0  0  0
 27 58  1  0  0  0  0
 27 59  1  0  0  0  0
 28 60  1  0  0  0  0
 28 61  1  0  0  0  0
 29 63  1  0  0  0  0
 29 64  1  0  0  0  0
 29 65  1  0  0  0  0
 30 31  1  0  0  0  0
 31 69  1  0  0  0  0
 31 70  1  0  0  0  0
 31 71  1  0  0  0  0
M  END
> <PUBCHEM_COMPOUND_CID>
10837020

> <PUBCHEM_CONFORMER_RMSD>
1.2

> <PUBCHEM_CONFORMER_DIVERSEORDER>
1
63
86
153
116
162
98
6
31
110
128
56
118
26
172
102
167
91
38
121
9
29
3
61
35
48
104
70
47
130
123
21
134
170
81
78
24
129
74
112
97
90
34
136
76
68
147
166
52
14
57
58
88
73
65
69
16
50
54
7
124
113
85
80
126
165
30
151
168
42
106
49
46
157
19
138
155
144
72
71
103
37
160
59
120
89
20
62
33
36
23
158
77
132
87
163
92
27
18
148
127
137
10
28
122
8
140
131
101
109
84
82
39
133
107
15
13
105
32
75
83
176
93
149
79
115
96
55
22
125
4
117
51
141
171
135
100
119
64
145
108
44
161
25
173
60
142
45
11
40
159
53
175
114
17
66
111
174
12
67
143
156
43
139
154
146
41
150
2
95
94
5
169
164
152
99

> <PUBCHEM_MMFF94_PARTIAL_CHARGES>
27
1 -0.68
10 0.3
11 0.28
12 0.3
13 0.28
16 0.3
17 0.28
18 0.28
2 -0.68
21 0.57
22 0.28
26 0.3
29 0.06
3 -0.68
30 0.57
31 0.06
4 -0.68
5 -0.68
57 0.4
6 -0.57
62 0.4
66 0.4
67 0.4
68 0.4
7 -0.57
8 -0.66
9 -0.66

> <PUBCHEM_EFFECTIVE_ROTOR_COUNT>
14.2

> <PUBCHEM_PHARMACOPHORE_FEATURES>
16
1 1 acceptor
1 1 donor
1 2 acceptor
1 2 donor
1 3 acceptor
1 3 donor
1 4 acceptor
1 4 donor
1 5 acceptor
1 5 donor
1 6 acceptor
1 7 acceptor
3 14 15 19 hydrophobe
3 24 25 28 hydrophobe
5 8 10 11 12 13 rings
6 9 16 20 23 26 27 rings

> <PUBCHEM_HEAVY_ATOM_COUNT>
31

> <PUBCHEM_ATOM_DEF_STEREO_COUNT>
7

> <PUBCHEM_ATOM_UDEF_STEREO_COUNT>
0

> <PUBCHEM_BOND_DEF_STEREO_COUNT>
0

> <PUBCHEM_BOND_UDEF_STEREO_COUNT>
0

> <PUBCHEM_ISOTOPIC_ATOM_COUNT>
0

> <PUBCHEM_COMPONENT_COUNT>
1

> <PUBCHEM_CACTVS_TAUTO_COUNT>
1

> <PUBCHEM_CONFORMER_ID>
00A55C1C00000001

> <PUBCHEM_MMFF94_ENERGY>
64.8837

> <PUBCHEM_FEATURE_SELFOVERLAP>
81.209

> <PUBCHEM_SHAPE_FINGERPRINT>
10299344 5 18335420166464820490
10677351 14 17274252976115882805
11103572 155 18411979152723631942
11135609 127 17823424963285691548
11181472 205 17987528022259557552
11315181 36 18411700998504700793
11719270 70 17847061060898650078
12082328 90 18413388739735855661
12089408 11 18343018878961705049
12664476 115 12829488160751428887
13885169 127 18413390930010836489
14118638 360 15554179077287823566
14251764 18 18131070420405889568
14251764 46 16226047794796673128
15183329 4 18272369745822003490
15352257 5 18408885126807449298
15510794 2 18342177777735087887
1577012 14 18113893862298705650
15980000 95 17240484706063364772
19841028 212 18409728418821082082
4073 2 18334297578010100619
45270241 37 18412830210026644092
58083652 198 16343701067060913283
67123 10 18408886256678708084
9831232 110 18338234865352294014

> <PUBCHEM_SHAPE_MULTIPOLES>
586.92
37.84
2.55
1.14
1.63
1.71
-0.08
1.06
3.71
0.05
-0.01
0.38
-0.31
-0.1

> <PUBCHEM_SHAPE_SELFOVERLAP>
1170.922

> <PUBCHEM_SHAPE_VOLUME>
345

> <PUBCHEM_COORDINATE_TYPE>
2
5
10

$$$$
