REMARK  Name = 10830923
REMARK  11 active torsions:
REMARK  status: ('A' for Active; 'I' for Inactive)
REMARK    1  A    between atoms: C_2  and  O_7
REMARK    2  A    between atoms: C_3  and  O_9
REMARK    3  A    between atoms: C_4  and  O_11
REMARK    4  A    between atoms: C_5  and  C_25
REMARK    5  A    between atoms: C_6  and  O_13
REMARK    6  A    between atoms: O_13  and  C_14
REMARK    7  A    between atoms: C_14  and  C_15
REMARK    8  A    between atoms: C_15  and  N_17
REMARK    9  A    between atoms: C_18  and  C_20
REMARK   10  A    between atoms: C_21  and  S_22
REMARK   11  A    between atoms: C_25  and  O_26
REMARK                            x       y       z     vdW  Elec       q    Type
REMARK                         _______ _______ _______ _____ _____    ______ ____
ROOT
ATOM      1  O   UNL     1      -1.801   0.553  -0.428  0.00  0.00    -0.326 OA
ATOM      2  C   UNL     1      -4.198  -0.334   0.883  0.00  0.00    +0.172 C 
ATOM      3  C   UNL     1      -3.899   1.144   0.634  0.00  0.00    +0.169 C 
ATOM      4  C   UNL     1      -2.916  -1.167   0.873  0.00  0.00    +0.196 C 
ATOM      5  C   UNL     1      -2.998   1.317  -0.591  0.00  0.00    +0.176 C 
ATOM      6  C   UNL     1      -2.054  -0.848  -0.348  0.00  0.00    +0.266 C 
ENDROOT
BRANCH   2   7
ATOM      7  O   UNL     1      -4.830  -0.449   2.159  0.00  0.00    -0.379 OA
ATOM      8  H   UNL     1      -5.643   0.080   2.165  0.00  0.00    +0.211 HD
ENDBRANCH   2   7
BRANCH   3   9
ATOM      9  O   UNL     1      -5.122   1.843   0.422  0.00  0.00    -0.379 OA
ATOM     10  H   UNL     1      -5.695   1.735   1.197  0.00  0.00    +0.211 HD
ENDBRANCH   3   9
BRANCH   4  11
ATOM     11  O   UNL     1      -3.253  -2.554   0.832  0.00  0.00    -0.378 OA
ATOM     12  H   UNL     1      -3.801  -2.777   1.600  0.00  0.00    +0.211 HD
ENDBRANCH   4  11
BRANCH   6  13
ATOM     13  O   UNL     1      -0.820  -1.553  -0.212  0.00  0.00    -0.327 OA
BRANCH  13  14
ATOM     14  C   UNL     1      -0.164  -1.689  -1.462  0.00  0.00    +0.166 C 
BRANCH  14  15
ATOM     15  C   UNL     1       1.136  -2.448  -1.269  0.00  0.00    +0.122 C 
BRANCH  15  17
ATOM     16  O   UNL     1       3.134  -0.498  -2.014  0.00  0.00    -0.270 OA
ATOM     17  N   UNL     1       2.033  -1.745  -0.391  0.00  0.00    -0.298 N 
ATOM     18  C   UNL     1       2.965  -0.821  -0.843  0.00  0.00    +0.247 C 
ATOM     19  H   UNL     1       1.984  -1.928   0.575  0.00  0.00    +0.150 HD
BRANCH  18  20
ATOM     20  C   UNL     1       3.763  -0.239   0.272  0.00  0.00    +0.067 C 
ATOM     21  C   UNL     1       4.709   0.672   0.011  0.00  0.00    +0.069 C 
BRANCH  21  22
ATOM     22  S   UNL     1       5.630   1.341   1.387  0.00  0.00    +0.067 S 
ATOM     23  O   UNL     1       5.862   0.189   2.318  0.00  0.00    -0.251 OA
ATOM     24  C   UNL     1       7.166   1.655   0.487  0.00  0.00    +0.111 C 
ENDBRANCH  21  22
ENDBRANCH  18  20
ENDBRANCH  15  17
ENDBRANCH  14  15
ENDBRANCH  13  14
ENDBRANCH   6  13
BRANCH   5  25
ATOM     25  C   UNL     1      -2.590   2.774  -0.790  0.00  0.00    +0.169 C 
BRANCH  25  26
ATOM     26  O   UNL     1      -1.753   2.855  -1.930  0.00  0.00    -0.379 OA
ATOM     27  H   UNL     1      -1.485   3.777  -2.069  0.00  0.00    +0.211 HD
ENDBRANCH  25  26
ENDBRANCH   5  25
TORSDOF 11
