REMARK  Name = 10835924
REMARK  10 active torsions:
REMARK  status: ('A' for Active; 'I' for Inactive)
REMARK    1  A    between atoms: C_1  and  C_16
REMARK    2  A    between atoms: C_2  and  C_5
REMARK    3  A    between atoms: C_7  and  C_10
REMARK    4  A    between atoms: C_12  and  C_13
REMARK    5  A    between atoms: C_16  and  O_17
REMARK    6  A    between atoms: C_16  and  C_19
REMARK    7  A    between atoms: C_19  and  C_21
REMARK    8  A    between atoms: C_21  and  O_23
REMARK    9  A    between atoms: C_22  and  C_26
REMARK   10  A    between atoms: C_26  and  O_27
REMARK                            x       y       z     vdW  Elec       q    Type
REMARK                         _______ _______ _______ _____ _____    ______ ____
ROOT
ATOM      1  C   UNL     1      -1.855   1.203   0.694  0.00  0.00    +0.006 C 
ATOM      2  C   UNL     1      -1.182   0.726   1.756  0.00  0.00    +0.026 C 
ENDROOT
BRANCH   2   5
ATOM      3  S   UNL     1       2.522  -0.323   2.613  0.00  0.00    -0.073 S 
ATOM      4  N   UNL     1       1.020   0.591   0.719  0.00  0.00    -0.397 NA
ATOM      5  C   UNL     1       0.223   0.406   1.831  0.00  0.00    +0.121 C 
ATOM      6  C   UNL     1       0.858  -0.082   2.954  0.00  0.00    +0.123 C 
ATOM      7  C   UNL     1       2.251   0.239   1.015  0.00  0.00    +0.183 C 
BRANCH   7  10
ATOM      8  S   UNL     1       4.632   0.736  -2.123  0.00  0.00    -0.075 S 
ATOM      9  N   UNL     1       4.639  -0.047   0.341  0.00  0.00    -0.396 NA
ATOM     10  C   UNL     1       3.347   0.324   0.024  0.00  0.00    +0.156 C 
ATOM     11  C   UNL     1       3.148   0.774  -1.264  0.00  0.00    +0.127 C 
ATOM     12  C   UNL     1       5.402   0.128  -0.715  0.00  0.00    +0.153 C 
BRANCH  12  13
ATOM     13  C   UNL     1       6.788  -0.141  -0.782  0.00  0.00    +0.014 C 
ATOM     14  C   UNL     1       7.517  -0.555  -2.058  0.00  0.00    +0.034 C 
ATOM     15  C   UNL     1       7.534  -0.019   0.348  0.00  0.00    -0.001 C 
ENDBRANCH  12  13
ENDBRANCH   7  10
ENDBRANCH   2   5
BRANCH   1  16
ATOM     16  C   UNL     1      -3.334   1.520   0.641  0.00  0.00    +0.144 C 
BRANCH  16  17
ATOM     17  O   UNL     1      -3.630   2.624  -0.210  0.00  0.00    -0.349 OA
ATOM     18  C   UNL     1      -3.376   3.861   0.439  0.00  0.00    +0.174 C 
ENDBRANCH  16  17
BRANCH  16  19
ATOM     19  C   UNL     1      -4.182   0.292   0.220  0.00  0.00    +0.088 C 
ATOM     20  C   UNL     1      -5.681   0.616   0.280  0.00  0.00    +0.011 C 
BRANCH  19  21
ATOM     21  C   UNL     1      -3.816  -0.256  -1.152  0.00  0.00    +0.125 C 
ATOM     22  C   UNL     1      -3.358  -1.511  -1.311  0.00  0.00    +0.114 C 
BRANCH  21  23
ATOM     23  O   UNL     1      -3.998   0.638  -2.189  0.00  0.00    -0.475 OA
ATOM     24  C   UNL     1      -4.925   0.133  -3.129  0.00  0.00    +0.252 C 
ENDBRANCH  21  23
BRANCH  22  26
ATOM     25  O   UNL     1      -4.044  -2.862   0.558  0.00  0.00    -0.245 OA
ATOM     26  C   UNL     1      -3.168  -2.467  -0.194  0.00  0.00    +0.344 C 
BRANCH  26  27
ATOM     27  O   UNL     1      -1.852  -2.811  -0.167  0.00  0.00    -0.441 OA
ATOM     28  C   UNL     1      -1.479  -3.736   0.860  0.00  0.00    +0.256 C 
ENDBRANCH  26  27
ENDBRANCH  22  26
ENDBRANCH  19  21
ENDBRANCH  16  19
ENDBRANCH   1  16
TORSDOF 10
