10835222
  -OEChem-03292013303D

 50 50  0     1  0  0  0  0  0999 V2000
    2.4026    0.6390   -2.0322 Cl  0  0  0  0  0  0  0  0  0  0  0  0
    6.1763    2.8960    1.0717 Cl  0  0  0  0  0  0  0  0  0  0  0  0
   -3.9795   -2.0585    0.0167 O   0  0  0  0  0  0  0  0  0  0  0  0
   -4.1004    1.1352   -1.3102 O   0  0  0  0  0  0  0  0  0  0  0  0
   -4.5029    0.5495    2.1842 O   0  0  0  0  0  0  0  0  0  0  0  0
   -5.9024    0.4147    0.4147 O   0  0  0  0  0  0  0  0  0  0  0  0
   -0.6891    2.9311    0.4556 O   0  0  0  0  0  0  0  0  0  0  0  0
   -1.7988    3.0712   -1.5187 O   0  0  0  0  0  0  0  0  0  0  0  0
   -2.9099   -1.4596   -0.7082 C   0  0  2  0  0  0  0  0  0  0  0  0
   -1.7551   -2.4734   -0.7687 C   0  0  0  0  0  0  0  0  0  0  0  0
   -2.4994   -0.1318   -0.0445 C   0  0  0  0  0  0  0  0  0  0  0  0
   -1.1639   -2.8126    0.6007 C   0  0  0  0  0  0  0  0  0  0  0  0
   -3.5557    0.9993    0.0119 C   0  0  1  0  0  0  0  0  0  0  0  0
   -0.0606   -3.8743    0.5383 C   0  0  0  0  0  0  0  0  0  0  0  0
    1.1530   -3.5274   -0.3311 C   0  0  0  0  0  0  0  0  0  0  0  0
    1.9219   -2.2961    0.1595 C   0  0  0  0  0  0  0  0  0  0  0  0
   -3.0136    2.3664    0.4546 C   0  0  0  0  0  0  0  0  0  0  0  0
    3.1828   -2.0109   -0.6657 C   0  0  0  0  0  0  0  0  0  0  0  0
   -4.7797    0.6255    0.8540 C   0  0  0  0  0  0  0  0  0  0  0  0
    3.9170   -0.7608   -0.2508 C   0  0  0  0  0  0  0  0  0  0  0  0
   -1.7979    2.8306   -0.3186 C   0  0  0  0  0  0  0  0  0  0  0  0
    3.6205    0.4693   -0.8211 C   0  0  0  0  0  0  0  0  0  0  0  0
    4.9009   -0.8787    0.7219 C   0  0  0  0  0  0  0  0  0  0  0  0
    4.3210    1.6037   -0.4111 C   0  0  0  0  0  0  0  0  0  0  0  0
    5.6015    0.2557    1.1318 C   0  0  0  0  0  0  0  0  0  0  0  0
    5.3115    1.4968    0.5653 C   0  0  0  0  0  0  0  0  0  0  0  0
   -3.2649   -1.2693   -1.7273 H   0  0  0  0  0  0  0  0  0  0  0  0
   -0.9763   -2.0640   -1.4215 H   0  0  0  0  0  0  0  0  0  0  0  0
   -2.1163   -3.3995   -1.2330 H   0  0  0  0  0  0  0  0  0  0  0  0
   -2.1884   -0.3171    0.9902 H   0  0  0  0  0  0  0  0  0  0  0  0
   -1.6189    0.2302   -0.5894 H   0  0  0  0  0  0  0  0  0  0  0  0
   -1.9564   -3.1850    1.2610 H   0  0  0  0  0  0  0  0  0  0  0  0
   -0.7558   -1.9178    1.0799 H   0  0  0  0  0  0  0  0  0  0  0  0
    0.2811   -4.0819    1.5601 H   0  0  0  0  0  0  0  0  0  0  0  0
   -0.4950   -4.8100    0.1643 H   0  0  0  0  0  0  0  0  0  0  0  0
    1.8314   -4.3899   -0.3241 H   0  0  0  0  0  0  0  0  0  0  0  0
    0.8493   -3.3878   -1.3743 H   0  0  0  0  0  0  0  0  0  0  0  0
    2.1989   -2.4340    1.2123 H   0  0  0  0  0  0  0  0  0  0  0  0
    1.2664   -1.4182    0.1224 H   0  0  0  0  0  0  0  0  0  0  0  0
   -3.7744    3.1501    0.3487 H   0  0  0  0  0  0  0  0  0  0  0  0
   -2.7492    2.3406    1.5192 H   0  0  0  0  0  0  0  0  0  0  0  0
    2.9398   -1.9838   -1.7344 H   0  0  0  0  0  0  0  0  0  0  0  0
    3.8644   -2.8680   -0.5718 H   0  0  0  0  0  0  0  0  0  0  0  0
   -4.2397   -2.8679   -0.4553 H   0  0  0  0  0  0  0  0  0  0  0  0
   -4.6978    1.9027   -1.3170 H   0  0  0  0  0  0  0  0  0  0  0  0
    5.1345   -1.8390    1.1732 H   0  0  0  0  0  0  0  0  0  0  0  0
   -5.2967    0.3112    2.7088 H   0  0  0  0  0  0  0  0  0  0  0  0
    4.0961    2.5727   -0.8518 H   0  0  0  0  0  0  0  0  0  0  0  0
    6.3701    0.1576    1.8942 H   0  0  0  0  0  0  0  0  0  0  0  0
    0.0935    3.2193   -0.0608 H   0  0  0  0  0  0  0  0  0  0  0  0
  1 22  1  0  0  0  0
  2 26  1  0  0  0  0
  3  9  1  0  0  0  0
  3 44  1  0  0  0  0
  4 13  1  0  0  0  0
  4 45  1  0  0  0  0
  5 19  1  0  0  0  0
  5 47  1  0  0  0  0
  6 19  2  0  0  0  0
  7 21  1  0  0  0  0
  7 50  1  0  0  0  0
  8 21  2  0  0  0  0
  9 10  1  0  0  0  0
  9 11  1  0  0  0  0
  9 27  1  0  0  0  0
 10 12  1  0  0  0  0
 10 28  1  0  0  0  0
 10 29  1  0  0  0  0
 11 13  1  0  0  0  0
 11 30  1  0  0  0  0
 11 31  1  0  0  0  0
 12 14  1  0  0  0  0
 12 32  1  0  0  0  0
 12 33  1  0  0  0  0
 13 17  1  0  0  0  0
 13 19  1  0  0  0  0
 14 15  1  0  0  0  0
 14 34  1  0  0  0  0
 14 35  1  0  0  0  0
 15 16  1  0  0  0  0
 15 36  1  0  0  0  0
 15 37  1  0  0  0  0
 16 18  1  0  0  0  0
 16 38  1  0  0  0  0
 16 39  1  0  0  0  0
 17 21  1  0  0  0  0
 17 40  1  0  0  0  0
 17 41  1  0  0  0  0
 18 20  1  0  0  0  0
 18 42  1  0  0  0  0
 18 43  1  0  0  0  0
 20 22  2  0  0  0  0
 20 23  1  0  0  0  0
 22 24  1  0  0  0  0
 23 25  2  0  0  0  0
 23 46  1  0  0  0  0
 24 26  2  0  0  0  0
 24 48  1  0  0  0  0
 25 26  1  0  0  0  0
 25 49  1  0  0  0  0
M  END
> <PUBCHEM_COMPOUND_CID>
10835222

> <PUBCHEM_CONFORMER_RMSD>
1.2

> <PUBCHEM_CONFORMER_DIVERSEORDER>
2
67
166
87
14
211
413
278
12
629
34
505
401
544
412
679
473
205
545
266
291
326
299
60
16
539
202
165
655
6
461
469
29
204
43
501
489
464
597
119
560
618
42
683
138
448
525
63
377
171
160
290
186
372
77
317
55
402
643
272
533
561
24
261
636
311
25
574
59
348
150
656
283
447
498
118
387
220
158
32
65
591
536
109
423
364
8
155
200
105
411
149
622
422
463
450
288
46
279
38
378
240
1
79
493
435
310
84
338
478
201
265
3
673
399
260
258
20
333
687
667
385
178
83
639
691
50
389
19
613
409
408
92
44
123
537
386
436
73
394
648
391
403
148
215
153
71
644
374
7
592
156
351
610
421
82
268
274
69
86
392
400
507
247
39
206
101
76
174
17
517
218
88
685
481
318
541
45
653
226
28
255
449
417
512
428
176
56
95
122
151
243
159
515
137
556
252
214
563
49
57
596
327
250
167
565
26
641
293
5
479
635
35
627
390
41
246
322
62
451
538
581
146
239
620
163
4
550
495
280
275
410
61
619
686
10
53
632
257
11
210
615
443
54
614
695
520
579
128
324
347
227
444
9
181
116
256
316
465
617
543
590
430
360
263
530
244
593
141
664
314
678
78
467
380
571
540
557
407
313
575

> <PUBCHEM_MMFF94_PARTIAL_CHARGES>
27
1 -0.18
13 0.34
17 0.06
18 0.14
19 0.66
2 -0.18
20 -0.14
21 0.66
22 0.18
23 -0.15
24 -0.15
25 -0.15
26 0.18
3 -0.68
4 -0.68
44 0.4
45 0.4
46 0.15
47 0.5
48 0.15
49 0.15
5 -0.65
50 0.5
6 -0.57
7 -0.65
8 -0.57
9 0.28

> <PUBCHEM_EFFECTIVE_ROTOR_COUNT>
12

> <PUBCHEM_PHARMACOPHORE_FEATURES>
13
1 3 acceptor
1 3 donor
1 4 acceptor
1 4 donor
1 5 acceptor
1 6 acceptor
1 7 acceptor
1 8 acceptor
3 10 12 14 hydrophobe
3 15 16 18 hydrophobe
3 5 6 19 anion
3 7 8 21 anion
6 20 22 23 24 25 26 rings

> <PUBCHEM_HEAVY_ATOM_COUNT>
26

> <PUBCHEM_ATOM_DEF_STEREO_COUNT>
2

> <PUBCHEM_ATOM_UDEF_STEREO_COUNT>
0

> <PUBCHEM_BOND_DEF_STEREO_COUNT>
0

> <PUBCHEM_BOND_UDEF_STEREO_COUNT>
0

> <PUBCHEM_ISOTOPIC_ATOM_COUNT>
0

> <PUBCHEM_COMPONENT_COUNT>
1

> <PUBCHEM_CACTVS_TAUTO_COUNT>
1

> <PUBCHEM_CONFORMER_ID>
00A5551600000002

> <PUBCHEM_MMFF94_ENERGY>
44.7953

> <PUBCHEM_FEATURE_SELFOVERLAP>
66.105

> <PUBCHEM_SHAPE_FINGERPRINT>
10670039 82 18336559282656070126
11370993 70 18337386042105865238
12107183 9 18335967694204227538
12925494 130 17760369890444764113
12978246 48 18334018280681307932
13402501 40 18343299310045130600
13617811 41 18338785750769058265
14394314 77 18413110550599829545
14765038 42 18129961047042845376
15322535 138 18192140513069571180
20764821 26 18268141131713558012
21315764 268 18337387120053349398
21734292 116 18411981334318182050
338550 245 18334863779611694420
469060 322 18264505029870739139
474144 1 17605575437742756980
7064713 232 18335138704774003702
7808743 9 18341607178919984562
9981440 41 18334856151365642618

> <PUBCHEM_SHAPE_MULTIPOLES>
503.59
13.85
4.73
1.36
6.19
1.73
0.14
-8.52
-4.42
-0.28
-0.13
-0.02
-0.5
0.62

> <PUBCHEM_SHAPE_SELFOVERLAP>
999.025

> <PUBCHEM_SHAPE_VOLUME>
298.2

> <PUBCHEM_COORDINATE_TYPE>
2
5
10

$$$$
