REMARK  Name = 10836384
REMARK  12 active torsions:
REMARK  status: ('A' for Active; 'I' for Inactive)
REMARK    1  A    between atoms: C_1  and  C_25
REMARK    2  A    between atoms: C_2  and  O_7
REMARK    3  A    between atoms: C_4  and  C_10
REMARK    4  A    between atoms: C_5  and  O_13
REMARK    5  A    between atoms: C_10  and  O_11
REMARK    6  A    between atoms: O_13  and  C_14
REMARK    7  A    between atoms: C_15  and  C_24
REMARK    8  A    between atoms: C_16  and  O_21
REMARK    9  A    between atoms: C_25  and  O_26
REMARK   10  A    between atoms: C_25  and  C_30
REMARK   11  A    between atoms: O_26  and  C_28
REMARK   12  A    between atoms: C_30  and  C_31
REMARK                            x       y       z     vdW  Elec       q    Type
REMARK                         _______ _______ _______ _____ _____    ______ ____
ROOT
ATOM      1  C   UNL     1      -1.834   0.001   0.356  0.00  0.00    +0.052 C 
ATOM      2  C   UNL     1      -1.427  -0.876  -0.650  0.00  0.00    +0.147 C 
ATOM      3  C   UNL     1      -0.919   0.437   1.314  0.00  0.00    +0.005 C 
ATOM      4  C   UNL     1      -0.104  -1.317  -0.697  0.00  0.00    +0.143 C 
ATOM      5  C   UNL     1       0.811  -0.880   0.261  0.00  0.00    +0.155 C 
ATOM      6  C   UNL     1       0.404  -0.003   1.267  0.00  0.00    +0.038 C 
ENDROOT
BRANCH   2   7
ATOM      7  O   UNL     1      -2.325  -1.300  -1.585  0.00  0.00    -0.471 OA
ATOM      8  C   UNL     1      -3.053  -2.489  -1.288  0.00  0.00    +0.252 C 
ENDBRANCH   2   7
BRANCH   4  10
ATOM      9  O   UNL     1       0.274  -2.002  -2.958  0.00  0.00    -0.245 OA
ATOM     10  C   UNL     1       0.324  -2.233  -1.748  0.00  0.00    +0.344 C 
BRANCH  10  11
ATOM     11  O   UNL     1       0.800  -3.405  -1.249  0.00  0.00    -0.477 OA
ATOM     12  H   UNL     1       0.823  -3.545  -0.323  0.00  0.00    +0.295 HD
ENDBRANCH  10  11
ENDBRANCH   4  10
BRANCH   5  13
ATOM     13  O   UNL     1       2.108  -1.298   0.234  0.00  0.00    -0.450 OA
BRANCH  13  14
ATOM     14  C   UNL     1       3.091  -0.333   0.102  0.00  0.00    +0.182 C 
ATOM     15  C   UNL     1       4.065  -0.180   1.089  0.00  0.00    +0.079 C 
ATOM     16  C   UNL     1       3.105   0.488  -1.025  0.00  0.00    +0.168 C 
ATOM     17  C   UNL     1       5.066   1.617  -0.179  0.00  0.00    -0.019 C 
ATOM     18  C   UNL     1       5.052   0.795   0.948  0.00  0.00    +0.002 C 
ATOM     19  C   UNL     1       4.092   1.463  -1.166  0.00  0.00    +0.036 C 
ATOM     20  C   UNL     1       6.122   2.659  -0.329  0.00  0.00    +0.031 C 
BRANCH  16  21
ATOM     21  O   UNL     1       2.159   0.349  -1.997  0.00  0.00    -0.503 OA
ATOM     22  H   UNL     1       1.492  -0.303  -1.911  0.00  0.00    +0.292 HD
ENDBRANCH  16  21
BRANCH  15  24
ATOM     23  O   UNL     1       4.912  -0.925   3.168  0.00  0.00    -0.283 OA
ATOM     24  C   UNL     1       4.070  -1.027   2.273  0.00  0.00    +0.237 C 
ENDBRANCH  15  24
ENDBRANCH  13  14
ENDBRANCH   5  13
BRANCH   1  25
ATOM     25  C   UNL     1      -3.262   0.490   0.424  0.00  0.00    +0.194 C 
BRANCH  25  26
ATOM     26  O   UNL     1      -3.838  -0.014   1.633  0.00  0.00    -0.448 OA
BRANCH  26  28
ATOM     27  O   UNL     1      -5.904  -0.140   0.607  0.00  0.00    -0.250 OA
ATOM     28  C   UNL     1      -5.173  -0.286   1.577  0.00  0.00    +0.318 C 
ATOM     29  C   UNL     1      -5.636  -0.804   2.905  0.00  0.00    +0.121 C 
ENDBRANCH  26  28
ENDBRANCH  25  26
BRANCH  25  30
ATOM     30  C   UNL     1      -3.400   2.023   0.415  0.00  0.00    +0.048 C 
BRANCH  30  31
ATOM     31  C   UNL     1      -2.893   2.726  -0.859  0.00  0.00    +0.004 C 
ATOM     32  C   UNL     1      -3.014   4.247  -0.770  0.00  0.00    +0.000 C 
ATOM     33  C   UNL     1      -3.673   2.217  -2.074  0.00  0.00    +0.000 C 
ENDBRANCH  30  31
ENDBRANCH  25  30
ENDBRANCH   1  25
TORSDOF 12
