REMARK  Name = 10844302
REMARK  7 active torsions:
REMARK  status: ('A' for Active; 'I' for Inactive)
REMARK    1  A    between atoms: C_3  and  C_19
REMARK    2  A    between atoms: C_11  and  C_27
REMARK    3  A    between atoms: C_12  and  O_35
REMARK    4  A    between atoms: C_16  and  O_37
REMARK    5  A    between atoms: C_18  and  O_39
REMARK    6  A    between atoms: C_24  and  O_25
REMARK    7  A    between atoms: C_32  and  O_33
REMARK                            x       y       z     vdW  Elec       q    Type
REMARK                         _______ _______ _______ _____ _____    ______ ____
ROOT
ATOM      1  O   UNL     1       0.981   2.559   0.252  0.00  0.00    -0.453 OA
ATOM      2  O   UNL     1      -3.219  -0.608   2.556  0.00  0.00    -0.291 OA
ATOM      3  C   UNL     1      -2.008  -1.435   0.626  0.00  0.00    +0.109 C 
ATOM      4  C   UNL     1       0.422   0.412   0.695  0.00  0.00    +0.037 A 
ATOM      5  C   UNL     1      -0.569  -1.888   0.885  0.00  0.00    +0.023 C 
ATOM      6  C   UNL     1      -0.704   1.242   0.953  0.00  0.00    +0.040 A 
ATOM      7  C   UNL     1       0.558  -1.028   0.882  0.00  0.00    +0.006 C 
ATOM      8  C   UNL     1      -2.010   1.024   1.408  0.00  0.00    +0.041 C 
ATOM      9  C   UNL     1      -2.469  -0.360   1.615  0.00  0.00    +0.181 C 
ATOM     10  C   UNL     1      -0.306   2.546   0.697  0.00  0.00    +0.148 A 
ATOM     11  C   UNL     1       1.412   1.269   0.253  0.00  0.00    +0.145 A 
ATOM     12  C   UNL     1      -0.363  -3.270   1.089  0.00  0.00    +0.133 C 
ATOM     13  C   UNL     1       1.837  -1.578   1.094  0.00  0.00    +0.037 C 
ATOM     14  C   UNL     1      -2.858   2.115   1.631  0.00  0.00    +0.040 C 
ATOM     15  C   UNL     1      -1.122   3.660   0.883  0.00  0.00    +0.074 C 
ATOM     16  C   UNL     1      -2.413   3.413   1.368  0.00  0.00    +0.137 C 
ATOM     17  C   UNL     1       0.913  -3.793   1.294  0.00  0.00    +0.073 C 
ATOM     18  C   UNL     1       2.012  -2.946   1.297  0.00  0.00    +0.137 C 
ENDROOT
BRANCH   3  19
ATOM     19  C   UNL     1      -2.380  -1.107  -0.823  0.00  0.00    -0.011 C 
ATOM     20  C   UNL     1      -3.690  -0.766  -1.138  0.00  0.00    -0.000 C 
ATOM     21  C   UNL     1      -1.403  -1.155  -1.812  0.00  0.00    -0.000 C 
ATOM     22  C   UNL     1      -4.029  -0.468  -2.458  0.00  0.00    +0.036 C 
ATOM     23  C   UNL     1      -1.742  -0.857  -3.132  0.00  0.00    +0.036 C 
ATOM     24  C   UNL     1      -3.055  -0.514  -3.455  0.00  0.00    +0.134 C 
BRANCH  24  25
ATOM     25  O   UNL     1      -3.386  -0.223  -4.743  0.00  0.00    -0.506 OA
ATOM     26  H   UNL     1      -4.268   0.007  -4.959  0.00  0.00    +0.292 HD
ENDBRANCH  24  25
ENDBRANCH   3  19
BRANCH  11  27
ATOM     27  C   UNL     1       2.756   1.142  -0.248  0.00  0.00    +0.035 C 
ATOM     28  C   UNL     1       2.981   0.994  -1.618  0.00  0.00    +0.006 C 
ATOM     29  C   UNL     1       3.837   1.168   0.635  0.00  0.00    +0.006 C 
ATOM     30  C   UNL     1       4.283   0.872  -2.103  0.00  0.00    +0.037 C 
ATOM     31  C   UNL     1       5.139   1.045   0.150  0.00  0.00    +0.037 C 
ATOM     32  C   UNL     1       5.362   0.897  -1.219  0.00  0.00    +0.134 C 
BRANCH  32  33
ATOM     33  O   UNL     1       6.633   0.778  -1.693  0.00  0.00    -0.506 OA
ATOM     34  H   UNL     1       6.782   0.679  -2.612  0.00  0.00    +0.292 HD
ENDBRANCH  32  33
ENDBRANCH  11  27
BRANCH  12  35
ATOM     35  O   UNL     1      -1.402  -4.158   1.089  0.00  0.00    -0.506 OA
ATOM     36  H   UNL     1      -2.278  -3.853   0.955  0.00  0.00    +0.292 HD
ENDBRANCH  12  35
BRANCH  16  37
ATOM     37  O   UNL     1      -3.256   4.465   1.579  0.00  0.00    -0.505 OA
ATOM     38  H   UNL     1      -4.123   4.314   1.903  0.00  0.00    +0.292 HD
ENDBRANCH  16  37
BRANCH  18  39
ATOM     39  O   UNL     1       3.259  -3.450   1.509  0.00  0.00    -0.505 OA
ATOM     40  H   UNL     1       4.001  -2.879   1.511  0.00  0.00    +0.292 HD
ENDBRANCH  18  39
TORSDOF 7
