REMARK  Name = 10842
REMARK  5 active torsions:
REMARK  status: ('A' for Active; 'I' for Inactive)
REMARK    1  A    between atoms: S_1  and  C_2
REMARK    2  A    between atoms: S_1  and  S_11
REMARK    3  A    between atoms: C_3  and  N_10
REMARK    4  A    between atoms: S_11  and  C_12
REMARK    5  A    between atoms: C_13  and  N_20
REMARK                            x       y       z     vdW  Elec       q    Type
REMARK                         _______ _______ _______ _____ _____    ______ ____
ROOT
ATOM      1  S   UNL     1       0.654   2.905  -0.794  0.00  0.00    -0.051 S 
ENDROOT
BRANCH   1   2
ATOM      2  C   UNL     1       1.837   1.671  -0.288  0.00  0.00    +0.037 C 
ATOM      3  C   UNL     1       2.568  -0.631  -0.237  0.00  0.00    +0.143 C 
ATOM      4  C   UNL     1       1.641   0.334  -0.633  0.00  0.00    +0.031 C 
ATOM      5  C   UNL     1       2.958   2.044   0.453  0.00  0.00    +0.007 C 
ATOM      6  C   UNL     1       3.689  -0.258   0.504  0.00  0.00    +0.024 C 
ATOM      7  C   UNL     1       3.885   1.079   0.849  0.00  0.00    +0.002 C 
BRANCH   3  10
ATOM      8  O   UNL     1       3.215  -2.844  -0.221  0.00  0.00    -0.126 OA
ATOM      9  O   UNL     1       1.354  -2.307  -1.254  0.00  0.00    -0.126 OA
ATOM     10  N   UNL     1       2.370  -1.992  -0.588  0.00  0.00    +0.058 N 
ENDBRANCH   3  10
ENDBRANCH   1   2
BRANCH   1  11
ATOM     11  S   UNL     1      -0.655   2.906   0.795  0.00  0.00    -0.051 S 
BRANCH  11  12
ATOM     12  C   UNL     1      -1.838   1.671   0.288  0.00  0.00    +0.037 C 
ATOM     13  C   UNL     1      -2.567  -0.631   0.237  0.00  0.00    +0.143 C 
ATOM     14  C   UNL     1      -1.641   0.334   0.633  0.00  0.00    +0.031 C 
ATOM     15  C   UNL     1      -2.958   2.043  -0.454  0.00  0.00    +0.007 C 
ATOM     16  C   UNL     1      -3.689  -0.259  -0.504  0.00  0.00    +0.024 C 
ATOM     17  C   UNL     1      -3.884   1.078  -0.850  0.00  0.00    +0.002 C 
BRANCH  13  20
ATOM     18  O   UNL     1      -3.214  -2.844   0.221  0.00  0.00    -0.126 OA
ATOM     19  O   UNL     1      -1.354  -2.307   1.255  0.00  0.00    -0.126 OA
ATOM     20  N   UNL     1      -2.369  -1.993   0.588  0.00  0.00    +0.058 N 
ENDBRANCH  13  20
ENDBRANCH  11  12
ENDBRANCH   1  11
TORSDOF 5
