REMARK  Name = 10849624
REMARK  6 active torsions:
REMARK  status: ('A' for Active; 'I' for Inactive)
REMARK    1  A    between atoms: C_2  and  N_8
REMARK    2  A    between atoms: C_2  and  C_19
REMARK    3  A    between atoms: C_3  and  O_15
REMARK    4  A    between atoms: C_4  and  O_17
REMARK    5  A    between atoms: C_5  and  C_21
REMARK    6  A    between atoms: C_21  and  O_22
REMARK                            x       y       z     vdW  Elec       q    Type
REMARK                         _______ _______ _______ _____ _____    ______ ____
ROOT
ATOM      1  O   UNL     1      -1.266  -0.761   0.779  0.00  0.00    -0.333 OA
ATOM      2  C   UNL     1      -0.589   0.417   0.289  0.00  0.00    +0.207 C 
ATOM      3  C   UNL     1      -1.232   0.714  -1.067  0.00  0.00    +0.187 C 
ATOM      4  C   UNL     1      -2.653   0.220  -0.885  0.00  0.00    +0.171 C 
ATOM      5  C   UNL     1      -2.446  -1.015  -0.018  0.00  0.00    +0.176 C 
ENDROOT
BRANCH   2   8
ATOM      6  O   UNL     1       1.385   2.279  -0.491  0.00  0.00    -0.252 OA
ATOM      7  O   UNL     1       4.731  -0.879  -0.215  0.00  0.00    -0.270 OA
ATOM      8  N   UNL     1       0.810   0.107   0.149  0.00  0.00    -0.217 N 
ATOM      9  N   UNL     1       3.050   0.705  -0.354  0.00  0.00    -0.236 N 
ATOM     10  C   UNL     1       1.714   1.116  -0.248  0.00  0.00    +0.316 C 
ATOM     11  C   UNL     1       1.259  -1.180   0.407  0.00  0.00    +0.076 C 
ATOM     12  C   UNL     1       2.535  -1.557   0.302  0.00  0.00    +0.074 C 
ATOM     13  C   UNL     1       3.549  -0.565  -0.109  0.00  0.00    +0.254 C 
ATOM     14  H   UNL     1       3.701   1.389  -0.630  0.00  0.00    +0.159 HD
ENDBRANCH   2   8
BRANCH   3  15
ATOM     15  O   UNL     1      -1.172   2.068  -1.467  0.00  0.00    -0.378 OA
ATOM     16  H   UNL     1      -0.245   2.334  -1.569  0.00  0.00    +0.211 HD
ENDBRANCH   3  15
BRANCH   4  17
ATOM     17  O   UNL     1      -3.424   1.165  -0.146  0.00  0.00    -0.379 OA
ATOM     18  H   UNL     1      -3.565   1.959  -0.685  0.00  0.00    +0.211 HD
ENDBRANCH   4  17
BRANCH   2  19
ATOM     19  C   UNL     1      -0.717   1.490   1.325  0.00  0.00    +0.022 C 
ATOM     20  C   UNL     1      -1.321   1.322   2.506  0.00  0.00    -0.001 C 
ENDBRANCH   2  19
BRANCH   5  21
ATOM     21  C   UNL     1      -2.201  -2.282  -0.827  0.00  0.00    +0.169 C 
BRANCH  21  22
ATOM     22  O   UNL     1      -2.011  -3.363   0.069  0.00  0.00    -0.379 OA
ATOM     23  H   UNL     1      -1.855  -4.176  -0.435  0.00  0.00    +0.211 HD
ENDBRANCH  21  22
ENDBRANCH   5  21
TORSDOF 6
