REMARK  Name = 10851256
REMARK  6 active torsions:
REMARK  status: ('A' for Active; 'I' for Inactive)
REMARK    1  A    between atoms: C_2  and  O_3
REMARK    2  A    between atoms: C_2  and  C_11
REMARK    3  A    between atoms: O_3  and  N_6
REMARK    4  A    between atoms: C_11  and  S_12
REMARK    5  A    between atoms: S_12  and  C_14
REMARK    6  A    between atoms: C_14  and  C_15
REMARK                            x       y       z     vdW  Elec       q    Type
REMARK                         _______ _______ _______ _____ _____    ______ ____
ROOT
ATOM      1  O   UNL     1       1.597  -0.678   1.038  0.00  0.00    -0.247 OA
ATOM      2  C   UNL     1       1.459  -0.008   0.024  0.00  0.00    +0.352 C 
ENDROOT
BRANCH   2   3
ATOM      3  O   UNL     1       2.504   0.489  -0.730  0.00  0.00    -0.335 OA
BRANCH   3   6
ATOM      4  O   UNL     1       4.024  -1.834  -1.393  0.00  0.00    -0.267 OA
ATOM      5  O   UNL     1       4.083   2.087   1.030  0.00  0.00    -0.267 OA
ATOM      6  N   UNL     1       3.747   0.158  -0.224  0.00  0.00    -0.054 N 
ATOM      7  C   UNL     1       5.679  -1.017   0.173  0.00  0.00    +0.066 C 
ATOM      8  C   UNL     1       5.698   0.284   0.978  0.00  0.00    +0.066 C 
ATOM      9  C   UNL     1       4.388  -0.979  -0.600  0.00  0.00    +0.287 C 
ATOM     10  C   UNL     1       4.418   0.988   0.616  0.00  0.00    +0.287 C 
ENDBRANCH   3   6
ENDBRANCH   2   3
BRANCH   2  11
ATOM     11  C   UNL     1       0.150   0.403  -0.603  0.00  0.00    +0.177 C 
BRANCH  11  12
ATOM     12  S   UNL     1      -1.259  -0.223   0.343  0.00  0.00    -0.061 S 
BRANCH  12  14
ATOM     13  O   UNL     1      -2.420   1.089  -1.617  0.00  0.00    -0.280 OA
ATOM     14  C   UNL     1      -2.597   0.400  -0.621  0.00  0.00    +0.222 C 
BRANCH  14  15
ATOM     15  C   UNL     1      -3.975   0.091  -0.160  0.00  0.00    +0.045 C 
ATOM     16  C   UNL     1      -4.980   1.004  -0.405  0.00  0.00    +0.004 C 
ATOM     17  C   UNL     1      -4.207  -1.099   0.499  0.00  0.00    +0.004 C 
ATOM     18  C   UNL     1      -6.274   0.715   0.027  0.00  0.00    +0.000 C 
ATOM     19  C   UNL     1      -5.501  -1.388   0.931  0.00  0.00    +0.000 C 
ATOM     20  C   UNL     1      -6.535  -0.482   0.695  0.00  0.00    +0.000 C 
ENDBRANCH  14  15
ENDBRANCH  12  14
ENDBRANCH  11  12
ENDBRANCH   2  11
TORSDOF 6
