10850332
  -OEChem-03292013303D

 36 36  0     1  0  0  0  0  0999 V2000
   -3.9768   -1.9445    1.1921 O   0  0  0  0  0  0  0  0  0  0  0  0
   -3.0077   -2.8313   -0.6555 O   0  0  0  0  0  0  0  0  0  0  0  0
    4.9853    0.2556   -0.2151 O   0  0  0  0  0  0  0  0  0  0  0  0
   -3.7826    2.2443   -0.9320 O   0  0  0  0  0  0  0  0  0  0  0  0
    3.5531   -0.3148    1.4742 O   0  0  0  0  0  0  0  0  0  0  0  0
   -3.4377    0.5270    0.6004 N   0  0  0  0  0  0  0  0  0  0  0  0
    2.7833    0.1781   -0.6858 N   0  0  0  0  0  0  0  0  0  0  0  0
   -2.8476   -0.4329   -0.3109 C   0  0  1  0  0  0  0  0  0  0  0  0
   -1.3681   -0.2720   -0.4092 C   0  0  0  0  0  0  0  0  0  0  0  0
   -0.5667   -0.4915    0.7112 C   0  0  0  0  0  0  0  0  0  0  0  0
   -0.7859    0.0976   -1.6217 C   0  0  0  0  0  0  0  0  0  0  0  0
    1.3994    0.0280   -0.5933 C   0  0  0  0  0  0  0  0  0  0  0  0
    0.8171   -0.3415    0.6192 C   0  0  0  0  0  0  0  0  0  0  0  0
    0.5978    0.2475   -1.7137 C   0  0  0  0  0  0  0  0  0  0  0  0
   -3.2614   -1.8581    0.0444 C   0  0  0  0  0  0  0  0  0  0  0  0
   -3.8535    1.7843    0.2046 C   0  0  0  0  0  0  0  0  0  0  0  0
   -4.4521    2.5671    1.3423 C   0  0  0  0  0  0  0  0  0  0  0  0
    3.7443    0.0063    0.3076 C   0  0  0  0  0  0  0  0  0  0  0  0
    6.0875    0.1207    0.6897 C   0  0  0  0  0  0  0  0  0  0  0  0
    7.3723    0.4302   -0.0485 C   0  0  0  0  0  0  0  0  0  0  0  0
   -3.3103   -0.2460   -1.2895 H   0  0  0  0  0  0  0  0  0  0  0  0
   -1.0059   -0.7795    1.6629 H   0  0  0  0  0  0  0  0  0  0  0  0
   -1.3963    0.2727   -2.5034 H   0  0  0  0  0  0  0  0  0  0  0  0
   -3.5313    0.2615    1.5770 H   0  0  0  0  0  0  0  0  0  0  0  0
    1.3725   -0.5281    1.5279 H   0  0  0  0  0  0  0  0  0  0  0  0
    1.0382    0.5360   -2.6648 H   0  0  0  0  0  0  0  0  0  0  0  0
    3.1399    0.4489   -1.5992 H   0  0  0  0  0  0  0  0  0  0  0  0
   -3.7678    2.5752    2.1956 H   0  0  0  0  0  0  0  0  0  0  0  0
   -5.4014    2.1132    1.6398 H   0  0  0  0  0  0  0  0  0  0  0  0
   -4.6308    3.5987    1.0265 H   0  0  0  0  0  0  0  0  0  0  0  0
   -4.2457   -2.8674    1.3878 H   0  0  0  0  0  0  0  0  0  0  0  0
    6.1197   -0.9045    1.0750 H   0  0  0  0  0  0  0  0  0  0  0  0
    5.9623    0.8201    1.5239 H   0  0  0  0  0  0  0  0  0  0  0  0
    8.2367    0.3366    0.6146 H   0  0  0  0  0  0  0  0  0  0  0  0
    7.5023   -0.2493   -0.8972 H   0  0  0  0  0  0  0  0  0  0  0  0
    7.3475    1.4463   -0.4559 H   0  0  0  0  0  0  0  0  0  0  0  0
  1 15  1  0  0  0  0
  1 31  1  0  0  0  0
  2 15  2  0  0  0  0
  3 18  1  0  0  0  0
  3 19  1  0  0  0  0
  4 16  2  0  0  0  0
  5 18  2  0  0  0  0
  6  8  1  0  0  0  0
  6 16  1  0  0  0  0
  6 24  1  0  0  0  0
  7 12  1  0  0  0  0
  7 18  1  0  0  0  0
  7 27  1  0  0  0  0
  8  9  1  0  0  0  0
  8 15  1  0  0  0  0
  8 21  1  0  0  0  0
  9 10  2  0  0  0  0
  9 11  1  0  0  0  0
 10 13  1  0  0  0  0
 10 22  1  0  0  0  0
 11 14  2  0  0  0  0
 11 23  1  0  0  0  0
 12 13  2  0  0  0  0
 12 14  1  0  0  0  0
 13 25  1  0  0  0  0
 14 26  1  0  0  0  0
 16 17  1  0  0  0  0
 17 28  1  0  0  0  0
 17 29  1  0  0  0  0
 17 30  1  0  0  0  0
 19 20  1  0  0  0  0
 19 32  1  0  0  0  0
 19 33  1  0  0  0  0
 20 34  1  0  0  0  0
 20 35  1  0  0  0  0
 20 36  1  0  0  0  0
M  END
> <PUBCHEM_COMPOUND_CID>
10850332

> <PUBCHEM_CONFORMER_RMSD>
0.8

> <PUBCHEM_CONFORMER_DIVERSEORDER>
1
45
20
18
40
53
3
34
32
15
37
50
33
23
49
31
35
44
51
14
36
41
22
52
39
19
47
38
10
11
4
27
21
48
30
26
12
29
9
16
6
17
25
7
2
24
28
43
13
42
8
5
46

> <PUBCHEM_MMFF94_PARTIAL_CHARGES>
26
1 -0.65
10 -0.15
11 -0.15
12 0.12
13 -0.15
14 -0.15
15 0.66
16 0.57
17 0.06
18 0.78
19 0.28
2 -0.57
22 0.15
23 0.15
24 0.37
25 0.15
26 0.15
27 0.37
3 -0.43
31 0.5
4 -0.57
5 -0.57
6 -0.73
7 -0.55
8 0.5
9 -0.14

> <PUBCHEM_EFFECTIVE_ROTOR_COUNT>
8

> <PUBCHEM_PHARMACOPHORE_FEATURES>
8
1 1 acceptor
1 2 acceptor
1 4 acceptor
1 5 acceptor
1 6 donor
1 7 donor
3 1 2 15 anion
6 9 10 11 12 13 14 rings

> <PUBCHEM_HEAVY_ATOM_COUNT>
20

> <PUBCHEM_ATOM_DEF_STEREO_COUNT>
1

> <PUBCHEM_ATOM_UDEF_STEREO_COUNT>
0

> <PUBCHEM_BOND_DEF_STEREO_COUNT>
0

> <PUBCHEM_BOND_UDEF_STEREO_COUNT>
0

> <PUBCHEM_ISOTOPIC_ATOM_COUNT>
0

> <PUBCHEM_COMPONENT_COUNT>
1

> <PUBCHEM_CACTVS_TAUTO_COUNT>
4

> <PUBCHEM_CONFORMER_ID>
00A5901C00000001

> <PUBCHEM_MMFF94_ENERGY>
43.1833

> <PUBCHEM_FEATURE_SELFOVERLAP>
40.656

> <PUBCHEM_SHAPE_FINGERPRINT>
10291535 26 17775573000835250689
10912923 1 18040992969171051464
11089746 13 12463567388308436194
11315181 36 18187644747393340028
11545043 162 18201998858967433114
12091667 2 17988921193669860350
12507560 40 18130796624435195447
12616971 3 16877951538014583510
13214271 11 18202279212472389260
13288520 33 17822006557591329751
13583140 156 17846211172310784782
13675066 3 17775003514046696590
13760787 5 16008754632130639438
14178342 30 18334585633213993775
15209294 21 18187644669825738585
17093844 174 18413100667794827984
1741750 31 18269843030169406769
17844677 252 18271247226650787856
1813 80 16371298722739468310
19489759 90 18272646861507206599
200 152 17023173964285519094
20645477 56 18342741789151845913
20645477 70 16199879353783751742
21033648 29 17131538492828638480
21401589 2 17773890705527597201
21426921 1 18342174505544930175
220451 1 18113337488763179570
23081809 10 17821445777614017154
23402539 116 17240474828001793486
23522609 53 17677917694314504780
23557571 272 18060427919223297741
25147074 1 17823151162249259757
2838139 119 17632008663737559216
5104073 3 18261383447840044330
90127 26 17775274002470710080

> <PUBCHEM_SHAPE_MULTIPOLES>
372.28
13.53
2.05
1.33
24.69
0.04
0.21
-4.13
-3.42
-5.21
-0.35
-0.33
-0.12
-0.26

> <PUBCHEM_SHAPE_SELFOVERLAP>
762.476

> <PUBCHEM_SHAPE_VOLUME>
213.6

> <PUBCHEM_COORDINATE_TYPE>
2
5
10

$$$$
