REMARK  Name = 10863488
REMARK  8 active torsions:
REMARK  status: ('A' for Active; 'I' for Inactive)
REMARK    1  A    between atoms: C_2  and  O_21
REMARK    2  A    between atoms: C_6  and  O_23
REMARK    3  A    between atoms: O_23  and  C_29
REMARK    4  A    between atoms: C_25  and  O_30
REMARK    5  A    between atoms: C_26  and  O_32
REMARK    6  A    between atoms: C_27  and  O_34
REMARK    7  A    between atoms: C_28  and  C_36
REMARK    8  A    between atoms: C_36  and  O_37
REMARK                            x       y       z     vdW  Elec       q    Type
REMARK                         _______ _______ _______ _____ _____    ______ ____
ROOT
ATOM      1  O   UNL     1      -0.042   0.084   2.022  0.00  0.00    -0.450 OA
ATOM      2  C   UNL     1      -3.995   1.182  -1.177  0.00  0.00    +0.111 C 
ATOM      3  C   UNL     1      -4.885   0.190  -0.412  0.00  0.00    +0.029 C 
ATOM      4  C   UNL     1      -3.930   2.544  -0.455  0.00  0.00    +0.034 C 
ATOM      5  C   UNL     1      -5.020  -1.172  -1.114  0.00  0.00    +0.003 C 
ATOM      6  C   UNL     1       1.111   1.775   0.804  0.00  0.00    +0.176 C 
ATOM      7  C   UNL     1      -2.637   3.335  -0.740  0.00  0.00    +0.029 C 
ATOM      8  C   UNL     1      -5.399  -2.299  -0.135  0.00  0.00    +0.005 C 
ATOM      9  C   UNL     1      -1.345   2.792  -0.162  0.00  0.00    -0.019 C 
ATOM     10  C   UNL     1      -0.092   1.205   1.208  0.00  0.00    +0.179 C 
ATOM     11  C   UNL     1      -4.237  -3.240   0.241  0.00  0.00    +0.026 C 
ATOM     12  C   UNL     1       1.091   2.853  -0.081  0.00  0.00    +0.040 C 
ATOM     13  C   UNL     1      -1.310   1.752   0.773  0.00  0.00    +0.036 C 
ATOM     14  C   UNL     1      -0.124   3.348  -0.570  0.00  0.00    -0.001 C 
ATOM     15  C   UNL     1      -3.030  -2.535   0.804  0.00  0.00    -0.022 C 
ATOM     16  C   UNL     1      -0.945  -0.902   1.673  0.00  0.00    +0.145 C 
ATOM     17  C   UNL     1      -1.896  -2.347   0.000  0.00  0.00    -0.001 C 
ATOM     18  C   UNL     1      -3.053  -1.986   2.095  0.00  0.00    -0.001 C 
ATOM     19  C   UNL     1      -0.850  -1.538   0.432  0.00  0.00    +0.037 C 
ATOM     20  C   UNL     1      -2.007  -1.175   2.536  0.00  0.00    +0.037 C 
ENDROOT
BRANCH   2  21
ATOM     21  O   UNL     1      -4.489   1.373  -2.499  0.00  0.00    -0.384 OA
ATOM     22  H   UNL     1      -4.531   0.518  -2.956  0.00  0.00    +0.210 HD
ENDBRANCH   2  21
BRANCH   6  23
ATOM     23  O   UNL     1       2.303   1.281   1.236  0.00  0.00    -0.447 OA
BRANCH  23  29
ATOM     24  O   UNL     1       2.571  -0.279  -0.478  0.00  0.00    -0.316 OA
ATOM     25  C   UNL     1       5.404  -0.417  -0.024  0.00  0.00    +0.173 C 
ATOM     26  C   UNL     1       4.662  -1.434  -0.891  0.00  0.00    +0.169 C 
ATOM     27  C   UNL     1       4.454   0.275   0.953  0.00  0.00    +0.210 C 
ATOM     28  C   UNL     1       3.408  -0.810  -1.507  0.00  0.00    +0.177 C 
ATOM     29  C   UNL     1       3.197   0.780   0.243  0.00  0.00    +0.318 C 
BRANCH  25  30
ATOM     30  O   UNL     1       6.414  -1.113   0.708  0.00  0.00    -0.379 OA
ATOM     31  H   UNL     1       7.017  -1.553   0.088  0.00  0.00    +0.211 HD
ENDBRANCH  25  30
BRANCH  26  32
ATOM     32  O   UNL     1       5.525  -1.884  -1.933  0.00  0.00    -0.379 OA
ATOM     33  H   UNL     1       6.321  -2.280  -1.545  0.00  0.00    +0.211 HD
ENDBRANCH  26  32
BRANCH  27  34
ATOM     34  O   UNL     1       5.114   1.395   1.544  0.00  0.00    -0.377 OA
ATOM     35  H   UNL     1       5.915   1.094   2.000  0.00  0.00    +0.211 HD
ENDBRANCH  27  34
BRANCH  28  36
ATOM     36  C   UNL     1       2.588  -1.837  -2.282  0.00  0.00    +0.169 C 
BRANCH  36  37
ATOM     37  O   UNL     1       1.444  -1.194  -2.812  0.00  0.00    -0.379 OA
ATOM     38  H   UNL     1       0.912  -1.836  -3.308  0.00  0.00    +0.211 HD
ENDBRANCH  36  37
ENDBRANCH  28  36
ENDBRANCH  23  29
ENDBRANCH   6  23
TORSDOF 8
