REMARK  Name = 10862189
REMARK  5 active torsions:
REMARK  status: ('A' for Active; 'I' for Inactive)
REMARK    1  A    between atoms: C_11  and  C_27
REMARK    2  A    between atoms: C_12  and  O_23
REMARK    3  A    between atoms: C_13  and  O_25
REMARK    4  A    between atoms: C_27  and  O_29
REMARK    5  A    between atoms: C_27  and  C_31
REMARK                            x       y       z     vdW  Elec       q    Type
REMARK                         _______ _______ _______ _____ _____    ______ ____
ROOT
ATOM      1  O   UNL     1       1.773   0.626   0.183  0.00  0.00    -0.455 OA
ATOM      2  O   UNL     1      -2.397   3.345   0.228  0.00  0.00    -0.291 OA
ATOM      3  O   UNL     1      -5.383  -1.069  -0.230  0.00  0.00    -0.291 OA
ATOM      4  O   UNL     1       3.628  -2.993   0.078  0.00  0.00    -0.286 OA
ATOM      5  C   UNL     1      -0.396  -0.369   0.055  0.00  0.00    +0.071 A 
ATOM      6  C   UNL     1       1.010  -0.518   0.100  0.00  0.00    +0.151 C 
ATOM      7  C   UNL     1      -1.199  -1.532  -0.032  0.00  0.00    +0.039 A 
ATOM      8  C   UNL     1      -2.434   0.993   0.040  0.00  0.00    +0.074 A 
ATOM      9  C   UNL     1       1.593  -1.787   0.061  0.00  0.00    +0.070 C 
ATOM     10  C   UNL     1      -3.215  -0.159  -0.034  0.00  0.00    +0.074 A 
ATOM     11  C   UNL     1       3.152   0.514   0.232  0.00  0.00    +0.150 C 
ATOM     12  C   UNL     1      -1.038   0.889   0.089  0.00  0.00    +0.139 A 
ATOM     13  C   UNL     1      -2.599  -1.414  -0.075  0.00  0.00    +0.137 A 
ATOM     14  C   UNL     1       0.798  -2.927  -0.025  0.00  0.00    -0.016 C 
ATOM     15  C   UNL     1      -0.589  -2.796  -0.070  0.00  0.00    -0.001 C 
ATOM     16  C   UNL     1      -4.529   2.406  -0.316  0.00  0.00    +0.077 C 
ATOM     17  C   UNL     1      -5.306   1.263   0.303  0.00  0.00    +0.077 C 
ATOM     18  C   UNL     1      -3.063   2.335   0.031  0.00  0.00    +0.177 C 
ATOM     19  C   UNL     1      -4.694  -0.073  -0.033  0.00  0.00    +0.177 C 
ATOM     20  C   UNL     1       3.059  -1.910   0.110  0.00  0.00    +0.201 C 
ATOM     21  C   UNL     1       3.816  -0.649   0.201  0.00  0.00    +0.077 C 
ATOM     22  C   UNL     1       1.344  -4.318  -0.071  0.00  0.00    +0.031 C 
ENDROOT
BRANCH  12  23
ATOM     23  O   UNL     1      -0.289   2.033   0.151  0.00  0.00    -0.505 OA
ATOM     24  H   UNL     1       0.645   1.980   0.185  0.00  0.00    +0.292 HD
ENDBRANCH  12  23
BRANCH  13  25
ATOM     25  O   UNL     1      -3.353  -2.555  -0.140  0.00  0.00    -0.505 OA
ATOM     26  H   UNL     1      -2.935  -3.393  -0.167  0.00  0.00    +0.292 HD
ENDBRANCH  13  25
BRANCH  11  27
ATOM     27  C   UNL     1       3.854   1.832   0.325  0.00  0.00    +0.139 C 
ATOM     28  C   UNL     1       3.426   2.584   1.589  0.00  0.00    +0.037 C 
BRANCH  27  29
ATOM     29  O   UNL     1       5.253   1.544   0.443  0.00  0.00    -0.380 OA
ATOM     30  H   UNL     1       5.553   1.066  -0.346  0.00  0.00    +0.211 HD
ENDBRANCH  27  29
BRANCH  27  31
ATOM     31  C   UNL     1       3.662   2.682  -0.949  0.00  0.00    +0.034 C 
ATOM     32  C   UNL     1       4.116   2.024  -2.245  0.00  0.00    +0.003 C 
ENDBRANCH  27  31
ENDBRANCH  11  27
TORSDOF 5
