108745
  -OEChem-03292013323D

 21 21  0     0  0  0  0  0  0999 V2000
   -3.0498    2.3408   -0.0005 O   0  5  0  0  0  0  0  0  0  0  0  0
   -0.8566    2.2462    0.0006 O   0  0  0  0  0  0  0  0  0  0  0  0
    0.3990    0.0982    0.0000 N   0  0  0  0  0  0  0  0  0  0  0  0
   -1.9792    1.6893    0.0000 N   0  3  0  0  0  0  0  0  0  0  0  0
    1.5059   -0.6645   -0.0010 N   0  0  0  0  0  0  0  0  0  0  0  0
    4.6468   -1.7399    0.0013 N   0  0  0  0  0  0  0  0  0  0  0  0
    2.9035    2.5043    0.0003 N   0  0  0  0  0  0  0  0  0  0  0  0
   -0.8790   -0.5050    0.0002 C   0  0  0  0  0  0  0  0  0  0  0  0
   -2.0406    0.2673    0.0003 C   0  0  0  0  0  0  0  0  0  0  0  0
   -0.9672   -1.8972    0.0000 C   0  0  0  0  0  0  0  0  0  0  0  0
   -3.2902   -0.3525    0.0002 C   0  0  0  0  0  0  0  0  0  0  0  0
   -2.2169   -2.5169    0.0000 C   0  0  0  0  0  0  0  0  0  0  0  0
   -3.3784   -1.7446    0.0001 C   0  0  0  0  0  0  0  0  0  0  0  0
    2.6566   -0.0779   -0.0011 C   0  0  0  0  0  0  0  0  0  0  0  0
    3.7554   -0.9970   -0.0005 C   0  0  0  0  0  0  0  0  0  0  0  0
    2.7907    1.3494    0.0002 C   0  0  0  0  0  0  0  0  0  0  0  0
   -0.0870   -2.5343   -0.0001 H   0  0  0  0  0  0  0  0  0  0  0  0
   -4.2187    0.2127    0.0002 H   0  0  0  0  0  0  0  0  0  0  0  0
   -2.2862   -3.6008   -0.0002 H   0  0  0  0  0  0  0  0  0  0  0  0
   -4.3512   -2.2277    0.0001 H   0  0  0  0  0  0  0  0  0  0  0  0
    0.4638    1.1055   -0.0008 H   0  0  0  0  0  0  0  0  0  0  0  0
  1  4  1  0  0  0  0
  2  4  2  0  0  0  0
  3  5  1  0  0  0  0
  3  8  1  0  0  0  0
  3 21  1  0  0  0  0
  4  9  1  0  0  0  0
  5 14  2  0  0  0  0
  6 15  3  0  0  0  0
  7 16  3  0  0  0  0
  8  9  1  0  0  0  0
  8 10  2  0  0  0  0
  9 11  2  0  0  0  0
 10 12  1  0  0  0  0
 10 17  1  0  0  0  0
 11 13  1  0  0  0  0
 11 18  1  0  0  0  0
 12 13  2  0  0  0  0
 12 19  1  0  0  0  0
 13 20  1  0  0  0  0
 14 15  1  0  0  0  0
 14 16  1  0  0  0  0
M  CHG  2   1  -1   4   1
M  END
> <PUBCHEM_COMPOUND_CID>
108745

> <PUBCHEM_CONFORMER_RMSD>
0.6

> <PUBCHEM_CONFORMER_DIVERSEORDER>
1
6
4
2
3
5

> <PUBCHEM_MMFF94_PARTIAL_CHARGES>
21
1 -0.52
10 -0.15
11 -0.15
12 -0.15
13 -0.15
14 0.66
15 0.45
16 0.45
17 0.15
18 0.15
19 0.15
2 -0.52
20 0.15
21 0.4
3 -0.46
4 0.91
5 -0.49
6 -0.56
7 -0.56
8 0.1
9 0.13

> <PUBCHEM_EFFECTIVE_ROTOR_COUNT>
3

> <PUBCHEM_PHARMACOPHORE_FEATURES>
8
1 1 acceptor
1 1 anion
1 2 acceptor
1 3 donor
1 5 acceptor
1 6 acceptor
1 7 acceptor
6 8 9 10 11 12 13 rings

> <PUBCHEM_HEAVY_ATOM_COUNT>
16

> <PUBCHEM_ATOM_DEF_STEREO_COUNT>
0

> <PUBCHEM_ATOM_UDEF_STEREO_COUNT>
0

> <PUBCHEM_BOND_DEF_STEREO_COUNT>
0

> <PUBCHEM_BOND_UDEF_STEREO_COUNT>
0

> <PUBCHEM_ISOTOPIC_ATOM_COUNT>
0

> <PUBCHEM_COMPONENT_COUNT>
1

> <PUBCHEM_CACTVS_TAUTO_COUNT>
1

> <PUBCHEM_CONFORMER_ID>
0001A8C900000001

> <PUBCHEM_MMFF94_ENERGY>
54.4454

> <PUBCHEM_FEATURE_SELFOVERLAP>
40.68

> <PUBCHEM_SHAPE_FINGERPRINT>
10608611 8 18412261761496841848
10967382 1 17978511162989812519
12916754 54 18413111688085135155
14965852 173 18409729543421355590
15196674 1 18410574032839255015
15375462 6 18267868465851577342
15442244 35 18409729539279271650
15536298 74 18340206396821156160
17492 89 18409448128611889986
17804303 29 18410862023234011070
18186145 218 17676477393314626794
20510252 161 18341333378938405995
20711985 365 18411418410108145286
21501502 16 18411986887927147592
21524375 3 18044097843683889337
221490 88 18337116764994862098
2255824 54 17894912971112604778
2306618 200 18202289065449275867
23402539 116 18343292657431024023
23558518 356 18333737939354287387
23559900 14 18412537739194891128
335352 9 18338517417647708597
4214541 1 18410856530160671878
4409770 3 17392462309248503852
5104073 3 18411420639211893162
559249 180 18191583047953105458
58051976 100 18335421227232266743
7364860 26 18341049731109163344
74978 22 18409445865163254402
8809292 202 18409732850372288690
93112 12 18410292510554737086
9709674 26 18413394228467371686

> <PUBCHEM_SHAPE_MULTIPOLES>
292.63
7.39
2.89
0.58
5.49
0.99
0
-1.91
0
-0.58
0
-0.02
-0.04
0

> <PUBCHEM_SHAPE_SELFOVERLAP>
613.391

> <PUBCHEM_SHAPE_VOLUME>
160.3

> <PUBCHEM_COORDINATE_TYPE>
2
5
10

$$$$
