REMARK  Name = 10873814
REMARK  9 active torsions:
REMARK  status: ('A' for Active; 'I' for Inactive)
REMARK    1  A    between atoms: C_1  and  C_5
REMARK    2  A    between atoms: C_1  and  O_19
REMARK    3  A    between atoms: C_1  and  C_21
REMARK    4  A    between atoms: N_4  and  C_7
REMARK    5  A    between atoms: C_9  and  C_16
REMARK    6  A    between atoms: C_11  and  C_18
REMARK    7  A    between atoms: C_21  and  S_22
REMARK    8  A    between atoms: S_22  and  C_23
REMARK    9  A    between atoms: C_26  and  N_30
REMARK                            x       y       z     vdW  Elec       q    Type
REMARK                         _______ _______ _______ _____ _____    ______ ____
ROOT
ATOM      1  C   UNL     1       4.133   1.358  -0.027  0.00  0.00    +0.167 C 
ATOM      2  C   UNL     1       4.250   2.732  -0.695  0.00  0.00    +0.040 C 
ENDROOT
BRANCH   1   5
ATOM      3  O   UNL     1       2.780   1.065   1.948  0.00  0.00    -0.272 OA
ATOM      4  N   UNL     1       1.690   1.422  -0.092  0.00  0.00    -0.282 N 
ATOM      5  C   UNL     1       2.796   1.261   0.735  0.00  0.00    +0.251 C 
ATOM      6  H   UNL     1       1.880   1.576  -1.046  0.00  0.00    +0.155 HD
BRANCH   4   7
ATOM      7  C   UNL     1       0.323   1.391   0.275  0.00  0.00    +0.050 C 
ATOM      8  C   UNL     1      -0.644   1.575  -0.698  0.00  0.00    +0.019 C 
ATOM      9  C   UNL     1      -1.991   1.546  -0.335  0.00  0.00    +0.082 C 
ATOM     10  C   UNL     1      -0.016   1.180   1.601  0.00  0.00    +0.015 C 
ATOM     11  C   UNL     1      -2.350   1.334   0.997  0.00  0.00    +0.072 C 
ATOM     12  C   UNL     1      -1.362   1.151   1.964  0.00  0.00    +0.011 C 
BRANCH   9  16
ATOM     13  F   UNL     1      -2.491   1.940  -2.641  0.00  0.00    -0.166 F 
ATOM     14  F   UNL     1      -3.875   0.690  -1.534  0.00  0.00    -0.166 F 
ATOM     15  F   UNL     1      -3.812   2.831  -1.161  0.00  0.00    -0.166 F 
ATOM     16  C   UNL     1      -3.022   1.746  -1.399  0.00  0.00    +0.419 C 
ENDBRANCH   9  16
BRANCH  11  18
ATOM     17  N   UNL     1      -4.838   1.269   1.716  0.00  0.00    -0.191 NA
ATOM     18  C   UNL     1      -3.725   1.298   1.394  0.00  0.00    +0.100 C 
ENDBRANCH  11  18
ENDBRANCH   4   7
ENDBRANCH   1   5
BRANCH   1  19
ATOM     19  O   UNL     1       5.190   1.298   0.931  0.00  0.00    -0.377 OA
ATOM     20  H   UNL     1       5.165   0.443   1.388  0.00  0.00    +0.211 HD
ENDBRANCH   1  19
BRANCH   1  21
ATOM     21  C   UNL     1       4.342   0.246  -1.069  0.00  0.00    +0.098 C 
BRANCH  21  22
ATOM     22  S   UNL     1       4.361  -1.426  -0.340  0.00  0.00    -0.111 S 
BRANCH  22  23
ATOM     23  C   UNL     1       2.628  -1.860  -0.424  0.00  0.00    +0.025 C 
ATOM     24  C   UNL     1       1.929  -2.151   0.744  0.00  0.00    +0.007 C 
ATOM     25  C   UNL     1       1.986  -1.902  -1.659  0.00  0.00    +0.007 C 
ATOM     26  C   UNL     1      -0.071  -2.529  -0.557  0.00  0.00    +0.050 C 
ATOM     27  C   UNL     1       0.577  -2.485   0.677  0.00  0.00    +0.015 C 
ATOM     28  C   UNL     1       0.633  -2.237  -1.725  0.00  0.00    +0.015 C 
BRANCH  26  30
ATOM     29  O   UNL     1      -2.023  -3.224   1.627  0.00  0.00    -0.275 OA
ATOM     30  N   UNL     1      -1.424  -2.861  -0.624  0.00  0.00    -0.284 N 
ATOM     31  C   UNL     1      -2.290  -3.179   0.431  0.00  0.00    +0.227 C 
ATOM     32  C   UNL     1      -3.684  -3.480  -0.061  0.00  0.00    +0.095 C 
ATOM     33  H   UNL     1      -1.821  -2.873  -1.525  0.00  0.00    +0.155 HD
ENDBRANCH  26  30
ENDBRANCH  22  23
ENDBRANCH  21  22
ENDBRANCH   1  21
TORSDOF 9
