10873814
  -OEChem-03292013303D

 48 49  0     1  0  0  0  0  0999 V2000
    4.3606   -1.4261   -0.3399 S   0  0  0  0  0  0  0  0  0  0  0  0
   -2.4912    1.9395   -2.6407 F   0  0  0  0  0  0  0  0  0  0  0  0
   -3.8754    0.6898   -1.5335 F   0  0  0  0  0  0  0  0  0  0  0  0
   -3.8122    2.8313   -1.1615 F   0  0  0  0  0  0  0  0  0  0  0  0
    5.1902    1.2982    0.9313 O   0  0  0  0  0  0  0  0  0  0  0  0
    2.7804    1.0652    1.9485 O   0  0  0  0  0  0  0  0  0  0  0  0
   -2.0232   -3.2239    1.6273 O   0  0  0  0  0  0  0  0  0  0  0  0
    1.6900    1.4223   -0.0923 N   0  0  0  0  0  0  0  0  0  0  0  0
   -1.4244   -2.8607   -0.6240 N   0  0  0  0  0  0  0  0  0  0  0  0
   -4.8380    1.2691    1.7161 N   0  0  0  0  0  0  0  0  0  0  0  0
    4.1335    1.3577   -0.0274 C   0  0  1  0  0  0  0  0  0  0  0  0
    4.3421    0.2458   -1.0695 C   0  0  0  0  0  0  0  0  0  0  0  0
    2.7962    1.2612    0.7349 C   0  0  0  0  0  0  0  0  0  0  0  0
    4.2495    2.7322   -0.6948 C   0  0  0  0  0  0  0  0  0  0  0  0
    0.3234    1.3915    0.2754 C   0  0  0  0  0  0  0  0  0  0  0  0
    2.6283   -1.8599   -0.4245 C   0  0  0  0  0  0  0  0  0  0  0  0
   -0.6445    1.5748   -0.6978 C   0  0  0  0  0  0  0  0  0  0  0  0
   -1.9910    1.5456   -0.3346 C   0  0  0  0  0  0  0  0  0  0  0  0
   -0.0160    1.1799    1.6012 C   0  0  0  0  0  0  0  0  0  0  0  0
   -2.3500    1.3336    0.9965 C   0  0  0  0  0  0  0  0  0  0  0  0
   -1.3624    1.1508    1.9644 C   0  0  0  0  0  0  0  0  0  0  0  0
    1.9295   -2.1505    0.7437 C   0  0  0  0  0  0  0  0  0  0  0  0
    1.9859   -1.9017   -1.6587 C   0  0  0  0  0  0  0  0  0  0  0  0
   -0.0710   -2.5286   -0.5571 C   0  0  0  0  0  0  0  0  0  0  0  0
    0.5771   -2.4854    0.6773 C   0  0  0  0  0  0  0  0  0  0  0  0
    0.6335   -2.2367   -1.7250 C   0  0  0  0  0  0  0  0  0  0  0  0
   -3.0222    1.7458   -1.3989 C   0  0  0  0  0  0  0  0  0  0  0  0
   -3.7246    1.2980    1.3940 C   0  0  0  0  0  0  0  0  0  0  0  0
   -2.2903   -3.1788    0.4308 C   0  0  0  0  0  0  0  0  0  0  0  0
   -3.6838   -3.4799   -0.0611 C   0  0  0  0  0  0  0  0  0  0  0  0
    3.6117    0.3108   -1.8811 H   0  0  0  0  0  0  0  0  0  0  0  0
    5.3318    0.3698   -1.5250 H   0  0  0  0  0  0  0  0  0  0  0  0
    4.0377    3.5350    0.0215 H   0  0  0  0  0  0  0  0  0  0  0  0
    5.2685    2.9022   -1.0617 H   0  0  0  0  0  0  0  0  0  0  0  0
    3.5620    2.8476   -1.5387 H   0  0  0  0  0  0  0  0  0  0  0  0
    1.8593    1.5690   -1.0841 H   0  0  0  0  0  0  0  0  0  0  0  0
    5.1065    2.0646    1.5243 H   0  0  0  0  0  0  0  0  0  0  0  0
   -0.3516    1.7379   -1.7316 H   0  0  0  0  0  0  0  0  0  0  0  0
    0.6849    1.0281    2.4079 H   0  0  0  0  0  0  0  0  0  0  0  0
   -1.6265    0.9829    3.0061 H   0  0  0  0  0  0  0  0  0  0  0  0
    2.4190   -2.1192    1.7139 H   0  0  0  0  0  0  0  0  0  0  0  0
    2.5165   -1.6886   -2.5831 H   0  0  0  0  0  0  0  0  0  0  0  0
    0.0984   -2.6963    1.6233 H   0  0  0  0  0  0  0  0  0  0  0  0
    0.1414   -2.2673   -2.6939 H   0  0  0  0  0  0  0  0  0  0  0  0
   -1.8237   -2.8688   -1.5602 H   0  0  0  0  0  0  0  0  0  0  0  0
   -3.6536   -4.2920   -0.7931 H   0  0  0  0  0  0  0  0  0  0  0  0
   -4.3155   -3.7836    0.7783 H   0  0  0  0  0  0  0  0  0  0  0  0
   -4.1110   -2.5857   -0.5236 H   0  0  0  0  0  0  0  0  0  0  0  0
  1 12  1  0  0  0  0
  1 16  1  0  0  0  0
  2 27  1  0  0  0  0
  3 27  1  0  0  0  0
  4 27  1  0  0  0  0
  5 11  1  0  0  0  0
  5 37  1  0  0  0  0
  6 13  2  0  0  0  0
  7 29  2  0  0  0  0
  8 13  1  0  0  0  0
  8 15  1  0  0  0  0
  8 36  1  0  0  0  0
  9 24  1  0  0  0  0
  9 29  1  0  0  0  0
  9 45  1  0  0  0  0
 10 28  3  0  0  0  0
 11 12  1  0  0  0  0
 11 13  1  0  0  0  0
 11 14  1  0  0  0  0
 12 31  1  0  0  0  0
 12 32  1  0  0  0  0
 14 33  1  0  0  0  0
 14 34  1  0  0  0  0
 14 35  1  0  0  0  0
 15 17  2  0  0  0  0
 15 19  1  0  0  0  0
 16 22  2  0  0  0  0
 16 23  1  0  0  0  0
 17 18  1  0  0  0  0
 17 38  1  0  0  0  0
 18 20  2  0  0  0  0
 18 27  1  0  0  0  0
 19 21  2  0  0  0  0
 19 39  1  0  0  0  0
 20 21  1  0  0  0  0
 20 28  1  0  0  0  0
 21 40  1  0  0  0  0
 22 25  1  0  0  0  0
 22 41  1  0  0  0  0
 23 26  2  0  0  0  0
 23 42  1  0  0  0  0
 24 25  2  0  0  0  0
 24 26  1  0  0  0  0
 25 43  1  0  0  0  0
 26 44  1  0  0  0  0
 29 30  1  0  0  0  0
 30 46  1  0  0  0  0
 30 47  1  0  0  0  0
 30 48  1  0  0  0  0
M  END
> <PUBCHEM_COMPOUND_CID>
10873814

> <PUBCHEM_CONFORMER_RMSD>
1

> <PUBCHEM_CONFORMER_DIVERSEORDER>
2
68
127
43
117
110
101
148
107
11
48
17
104
21
49
67
25
57
164
45
134
22
102
6
91
113
157
75
142
154
39
1
64
123
63
73
10
78
82
66
4
130
55
9
51
70
121
132
27
24
146
156
50
112
129
108
120
77
89
135
166
109
122
60
128
58
72
137
143
139
116
54
59
165
19
3
53
153
125
74
16
115
52
103
13
95
105
140
100
71
37
33
80
114
15
158
12
124
46
161
90
14
118
20
159
155
31
88
8
162
87
61
32
38
133
86
30
145
138
29
93
76
151
41
47
152
92
119
163
56
141
79
42
144
81
98
83
40
44
7
111
99
97
150
65
94
147
84
5
85
23
26
28
35
18
136
36
149
34
131
69
126
62
106
160
96

> <PUBCHEM_MMFF94_PARTIAL_CHARGES>
39
1 -0.33
10 -0.56
11 0.34
12 0.23
13 0.57
15 0.12
16 0.1
17 -0.15
18 -0.14
19 -0.15
2 -0.34
20 0.07
21 -0.15
22 -0.15
23 -0.15
24 0.12
25 -0.15
26 -0.15
27 1.16
28 0.48
29 0.57
3 -0.34
30 0.06
36 0.37
37 0.4
38 0.15
39 0.15
4 -0.34
40 0.15
41 0.15
42 0.15
43 0.15
44 0.15
45 0.37
5 -0.68
6 -0.57
7 -0.57
8 -0.55
9 -0.55

> <PUBCHEM_EFFECTIVE_ROTOR_COUNT>
9

> <PUBCHEM_PHARMACOPHORE_FEATURES>
9
1 10 acceptor
1 5 acceptor
1 5 donor
1 6 acceptor
1 7 acceptor
1 8 donor
1 9 donor
6 15 17 18 19 20 21 rings
6 16 22 23 24 25 26 rings

> <PUBCHEM_HEAVY_ATOM_COUNT>
30

> <PUBCHEM_ATOM_DEF_STEREO_COUNT>
1

> <PUBCHEM_ATOM_UDEF_STEREO_COUNT>
0

> <PUBCHEM_BOND_DEF_STEREO_COUNT>
0

> <PUBCHEM_BOND_UDEF_STEREO_COUNT>
0

> <PUBCHEM_ISOTOPIC_ATOM_COUNT>
0

> <PUBCHEM_COMPONENT_COUNT>
1

> <PUBCHEM_CACTVS_TAUTO_COUNT>
4

> <PUBCHEM_CONFORMER_ID>
00A5EBD600000002

> <PUBCHEM_MMFF94_ENERGY>
73.4553

> <PUBCHEM_FEATURE_SELFOVERLAP>
45.683

> <PUBCHEM_SHAPE_FINGERPRINT>
104564 63 18197501946224581098
10688039 33 18045220706679913363
1100329 8 18268999695945209946
11513181 2 17845949501618772199
12156800 1 14174562648873061719
12422481 6 18123219984503330347
12788726 201 17973157624148106216
13140716 1 18342740702604423338
13149001 5 18197517129182080678
13402501 40 18340484594812179943
13583140 156 17604429583449349154
14363568 33 16964648308700056187
144659 39 18336814334787961698
17138139 8 17628318805677199517
17357779 13 18125997410851665975
17492 54 18267031544751577254
20691752 17 17968105260343471178
20764821 26 18341899601377714962
20905425 154 18270403926485447430
22182313 1 18202004378290656014
22907989 373 18195528309957395348
23559900 14 13830125071064627872
23566358 2 18343305885476731838
238 59 18193834847555235364
27425 322 17240761783235720973
3052486 1 18189347925180412718
4340502 62 18200051576783183849
469060 322 17969788672864574971
57527358 35 15433741824861343630
6287921 2 16985187838589278910
9981440 41 15691757878984897208

> <PUBCHEM_SHAPE_MULTIPOLES>
566.86
8.77
4.48
1.9
2.61
3.31
0.27
-3.87
0.03
-2.43
0.31
-1.23
-0.67
1.08

> <PUBCHEM_SHAPE_SELFOVERLAP>
1190.877

> <PUBCHEM_SHAPE_VOLUME>
323.3

> <PUBCHEM_COORDINATE_TYPE>
2
5
10

$$$$
