REMARK  Name = 10872445
REMARK  7 active torsions:
REMARK  status: ('A' for Active; 'I' for Inactive)
REMARK    1  A    between atoms: C_5  and  C_12
REMARK    2  A    between atoms: C_6  and  O_22
REMARK    3  A    between atoms: C_7  and  O_24
REMARK    4  A    between atoms: C_9  and  O_26
REMARK    5  A    between atoms: C_10  and  O_28
REMARK    6  A    between atoms: C_13  and  O_18
REMARK    7  A    between atoms: C_14  and  O_20
REMARK                            x       y       z     vdW  Elec       q    Type
REMARK                         _______ _______ _______ _____ _____    ______ ____
ROOT
ATOM      1  O   UNL     1       0.550  -0.523   0.129  0.00  0.00    -0.450 OA
ATOM      2  O   UNL     1      -0.829   3.307   0.300  0.00  0.00    -0.286 OA
ATOM      3  C   UNL     1      -1.340   1.002   0.208  0.00  0.00    +0.114 A 
ATOM      4  C   UNL     1      -0.801  -0.283   0.151  0.00  0.00    +0.188 A 
ATOM      5  C   UNL     1       1.414   0.561   0.159  0.00  0.00    +0.154 C 
ATOM      6  C   UNL     1      -2.724   1.187   0.229  0.00  0.00    +0.181 A 
ATOM      7  C   UNL     1      -1.646  -1.392   0.114  0.00  0.00    +0.210 A 
ATOM      8  C   UNL     1      -0.426   2.153   0.248  0.00  0.00    +0.205 C 
ATOM      9  C   UNL     1      -3.029  -1.212   0.135  0.00  0.00    +0.212 A 
ATOM     10  C   UNL     1      -3.567   0.075   0.192  0.00  0.00    +0.206 A 
ATOM     11  C   UNL     1       1.018   1.842   0.221  0.00  0.00    +0.080 C 
ENDROOT
BRANCH   5  12
ATOM     12  C   UNL     1       2.843   0.189   0.138  0.00  0.00    +0.102 C 
ATOM     13  C   UNL     1       3.526   0.070  -1.078  0.00  0.00    +0.145 C 
ATOM     14  C   UNL     1       3.529  -0.046   1.335  0.00  0.00    +0.139 C 
ATOM     15  C   UNL     1       4.876  -0.280  -1.096  0.00  0.00    +0.037 C 
ATOM     16  C   UNL     1       4.879  -0.396   1.317  0.00  0.00    +0.037 C 
ATOM     17  C   UNL     1       5.552  -0.514   0.101  0.00  0.00    +0.006 C 
BRANCH  13  18
ATOM     18  O   UNL     1       2.891   0.292  -2.264  0.00  0.00    -0.471 OA
ATOM     19  C   UNL     1       2.270  -0.831  -2.885  0.00  0.00    +0.252 C 
ENDBRANCH  13  18
BRANCH  14  20
ATOM     20  O   UNL     1       2.897   0.062   2.539  0.00  0.00    -0.505 OA
ATOM     21  H   UNL     1       1.990   0.296   2.573  0.00  0.00    +0.292 HD
ENDBRANCH  14  20
ENDBRANCH   5  12
BRANCH   6  22
ATOM     22  O   UNL     1      -3.286   2.427   0.284  0.00  0.00    -0.468 OA
ATOM     23  C   UNL     1      -3.565   3.067  -0.959  0.00  0.00    +0.253 C 
ENDBRANCH   6  22
BRANCH   7  24
ATOM     24  O   UNL     1      -1.126  -2.651   0.059  0.00  0.00    -0.465 OA
ATOM     25  C   UNL     1      -0.867  -3.300   1.302  0.00  0.00    +0.253 C 
ENDBRANCH   7  24
BRANCH   9  26
ATOM     26  O   UNL     1      -3.857  -2.294   0.098  0.00  0.00    -0.465 OA
ATOM     27  C   UNL     1      -4.262  -2.756  -1.189  0.00  0.00    +0.253 C 
ENDBRANCH   9  26
BRANCH  10  28
ATOM     28  O   UNL     1      -4.920   0.244   0.211  0.00  0.00    -0.501 OA
ATOM     29  H   UNL     1      -5.285   1.106   0.249  0.00  0.00    +0.292 HD
ENDBRANCH  10  28
TORSDOF 7
