REMARK  Name = 10874014
REMARK  10 active torsions:
REMARK  status: ('A' for Active; 'I' for Inactive)
REMARK    1  A    between atoms: C_3  and  O_22
REMARK    2  A    between atoms: C_7  and  C_12
REMARK    3  A    between atoms: C_11  and  O_20
REMARK    4  A    between atoms: C_17  and  O_18
REMARK    5  A    between atoms: O_22  and  C_28
REMARK    6  A    between atoms: C_24  and  O_29
REMARK    7  A    between atoms: C_25  and  O_31
REMARK    8  A    between atoms: C_26  and  O_33
REMARK    9  A    between atoms: C_27  and  C_35
REMARK   10  A    between atoms: C_35  and  O_36
REMARK                            x       y       z     vdW  Elec       q    Type
REMARK                         _______ _______ _______ _____ _____    ______ ____
ROOT
ATOM      1  O   UNL     1       1.766   0.670   0.687  0.00  0.00    -0.444 OA
ATOM      2  O   UNL     1      -0.373   1.287   1.099  0.00  0.00    -0.245 OA
ATOM      3  C   UNL     1      -1.321  -1.337   0.645  0.00  0.00    +0.150 C 
ATOM      4  C   UNL     1      -0.010  -0.933   0.370  0.00  0.00    +0.106 C 
ATOM      5  C   UNL     1       2.258  -1.330  -0.612  0.00  0.00    +0.075 C 
ATOM      6  C   UNL     1       0.866  -1.793  -0.304  0.00  0.00    -0.006 C 
ATOM      7  C   UNL     1       2.707  -0.418   0.525  0.00  0.00    +0.196 C 
ATOM      8  C   UNL     1      -1.755  -2.602   0.246  0.00  0.00    +0.074 C 
ATOM      9  C   UNL     1       0.430   0.428   0.758  0.00  0.00    +0.344 C 
ATOM     10  C   UNL     1       0.416  -3.053  -0.714  0.00  0.00    +0.033 C 
ATOM     11  C   UNL     1      -0.890  -3.457  -0.435  0.00  0.00    +0.136 C 
ENDROOT
BRANCH   7  12
ATOM     12  C   UNL     1       4.081   0.159   0.268  0.00  0.00    +0.018 C 
ATOM     13  C   UNL     1       5.214  -0.496   0.751  0.00  0.00    +0.002 C 
ATOM     14  C   UNL     1       4.216   1.346  -0.453  0.00  0.00    +0.002 C 
ATOM     15  C   UNL     1       6.481   0.037   0.514  0.00  0.00    +0.037 C 
ATOM     16  C   UNL     1       5.483   1.878  -0.690  0.00  0.00    +0.037 C 
ATOM     17  C   UNL     1       6.616   1.224  -0.206  0.00  0.00    +0.139 C 
BRANCH  17  18
ATOM     18  O   UNL     1       7.853   1.743  -0.437  0.00  0.00    -0.471 OA
ATOM     19  C   UNL     1       8.967   1.022   0.086  0.00  0.00    +0.252 C 
ENDBRANCH  17  18
ENDBRANCH   7  12
BRANCH  11  20
ATOM     20  O   UNL     1      -1.320  -4.687  -0.828  0.00  0.00    -0.505 OA
ATOM     21  H   UNL     1      -2.197  -4.958  -0.640  0.00  0.00    +0.292 HD
ENDBRANCH  11  20
BRANCH   3  22
ATOM     22  O   UNL     1      -2.210  -0.545   1.311  0.00  0.00    -0.450 OA
BRANCH  22  28
ATOM     23  O   UNL     1      -3.095   0.474  -0.593  0.00  0.00    -0.316 OA
ATOM     24  C   UNL     1      -5.492   1.207   0.810  0.00  0.00    +0.173 C 
ATOM     25  C   UNL     1      -5.129   1.791  -0.556  0.00  0.00    +0.169 C 
ATOM     26  C   UNL     1      -4.252   0.679   1.532  0.00  0.00    +0.210 C 
ATOM     27  C   UNL     1      -4.257   0.816  -1.350  0.00  0.00    +0.177 C 
ATOM     28  C   UNL     1      -3.412  -0.211   0.617  0.00  0.00    +0.318 C 
BRANCH  24  29
ATOM     29  O   UNL     1      -6.091   2.244   1.589  0.00  0.00    -0.379 OA
ATOM     30  H   UNL     1      -6.877   2.579   1.131  0.00  0.00    +0.211 HD
ENDBRANCH  24  29
BRANCH  25  31
ATOM     31  O   UNL     1      -6.324   2.058  -1.286  0.00  0.00    -0.379 OA
ATOM     32  H   UNL     1      -6.878   2.676  -0.785  0.00  0.00    +0.211 HD
ENDBRANCH  25  31
BRANCH  26  33
ATOM     33  O   UNL     1      -4.656  -0.095   2.662  0.00  0.00    -0.377 OA
ATOM     34  H   UNL     1      -5.192   0.454   3.255  0.00  0.00    +0.211 HD
ENDBRANCH  26  33
BRANCH  27  35
ATOM     35  C   UNL     1      -3.786   1.423  -2.667  0.00  0.00    +0.169 C 
BRANCH  35  36
ATOM     36  O   UNL     1      -2.980   0.472  -3.339  0.00  0.00    -0.379 OA
ATOM     37  H   UNL     1      -2.673   0.846  -4.180  0.00  0.00    +0.211 HD
ENDBRANCH  35  36
ENDBRANCH  27  35
ENDBRANCH  22  28
ENDBRANCH   3  22
TORSDOF 10
