REMARK  Name = 10873754
REMARK  6 active torsions:
REMARK  status: ('A' for Active; 'I' for Inactive)
REMARK    1  A    between atoms: C_6  and  O_26
REMARK    2  A    between atoms: C_10  and  O_22
REMARK    3  A    between atoms: C_11  and  O_24
REMARK    4  A    between atoms: C_14  and  O_30
REMARK    5  A    between atoms: O_26  and  C_28
REMARK    6  A    between atoms: O_30  and  C_32
REMARK                            x       y       z     vdW  Elec       q    Type
REMARK                         _______ _______ _______ _____ _____    ______ ____
ROOT
ATOM      1  O   UNL     1       2.112   0.125   2.228  0.00  0.00    -0.292 OA
ATOM      2  C   UNL     1      -0.683   0.291  -0.980  0.00  0.00    +0.028 C 
ATOM      3  C   UNL     1       0.508   1.176  -0.364  0.00  0.00    +0.039 C 
ATOM      4  C   UNL     1       1.854   0.376  -0.204  0.00  0.00    +0.095 C 
ATOM      5  C   UNL     1      -0.794  -0.963  -0.024  0.00  0.00    +0.009 C 
ATOM      6  C   UNL     1       1.773  -1.133  -0.449  0.00  0.00    +0.176 C 
ATOM      7  C   UNL     1      -2.093  -1.845  -0.157  0.00  0.00    +0.037 C 
ATOM      8  C   UNL     1       0.505  -1.797   0.076  0.00  0.00    +0.044 C 
ATOM      9  C   UNL     1       2.988   1.014  -1.048  0.00  0.00    +0.015 C 
ATOM     10  C   UNL     1       0.738   2.590  -0.991  0.00  0.00    +0.111 C 
ATOM     11  C   UNL     1      -2.040   1.080  -0.927  0.00  0.00    +0.114 C 
ATOM     12  C   UNL     1       3.233   2.346  -0.344  0.00  0.00    +0.028 C 
ATOM     13  C   UNL     1       2.054   3.289  -0.585  0.00  0.00    +0.034 C 
ATOM     14  C   UNL     1      -3.346  -0.932  -0.078  0.00  0.00    +0.171 C 
ATOM     15  C   UNL     1       2.388   0.705   1.191  0.00  0.00    +0.172 C 
ATOM     16  C   UNL     1      -3.295   0.212  -1.083  0.00  0.00    +0.073 C 
ATOM     17  C   UNL     1      -0.384  -0.105  -2.449  0.00  0.00    +0.003 C 
ATOM     18  C   UNL     1       3.268   1.903   1.094  0.00  0.00    +0.012 C 
ATOM     19  C   UNL     1      -2.154  -2.675  -1.458  0.00  0.00    +0.004 C 
ATOM     20  C   UNL     1      -2.152  -2.860   1.016  0.00  0.00    +0.004 C 
ATOM     21  C   UNL     1       3.973   2.395   2.112  0.00  0.00    -0.002 C 
ENDROOT
BRANCH  10  22
ATOM     22  O   UNL     1      -0.316   3.475  -0.605  0.00  0.00    -0.384 OA
ATOM     23  H   UNL     1      -1.171   3.081  -0.840  0.00  0.00    +0.210 HD
ENDBRANCH  10  22
BRANCH  11  24
ATOM     24  O   UNL     1      -2.109   2.100  -1.926  0.00  0.00    -0.384 OA
ATOM     25  H   UNL     1      -1.328   2.672  -1.859  0.00  0.00    +0.210 HD
ENDBRANCH  11  24
BRANCH   6  26
ATOM     26  O   UNL     1       2.889  -1.833   0.110  0.00  0.00    -0.452 OA
BRANCH  26  28
ATOM     27  O   UNL     1       2.434  -3.765  -1.073  0.00  0.00    -0.250 OA
ATOM     28  C   UNL     1       2.905  -3.179  -0.107  0.00  0.00    +0.317 C 
ATOM     29  C   UNL     1       3.598  -3.862   1.033  0.00  0.00    +0.121 C 
ENDBRANCH  26  28
ENDBRANCH   6  26
BRANCH  14  30
ATOM     30  O   UNL     1      -3.466  -0.376   1.234  0.00  0.00    -0.452 OA
BRANCH  30  32
ATOM     31  O   UNL     1      -5.629   0.349   0.867  0.00  0.00    -0.250 OA
ATOM     32  C   UNL     1      -4.545   0.433   1.430  0.00  0.00    +0.317 C 
ATOM     33  C   UNL     1      -4.213   1.469   2.460  0.00  0.00    +0.121 C 
ENDBRANCH  30  32
ENDBRANCH  14  30
TORSDOF 6
