REMARK  Name = 108745
REMARK  5 active torsions:
REMARK  status: ('A' for Active; 'I' for Inactive)
REMARK    1  A    between atoms: C_1  and  N_10
REMARK    2  A    between atoms: C_2  and  N_9
REMARK    3  A    between atoms: N_10  and  N_12
REMARK    4  A    between atoms: C_13  and  C_15
REMARK    5  A    between atoms: C_13  and  C_17
REMARK                            x       y       z     vdW  Elec       q    Type
REMARK                         _______ _______ _______ _____ _____    ______ ____
ROOT
ATOM      1  C   UNL     1      -0.879  -0.505   0.000  0.00  0.00    +0.087 C 
ATOM      2  C   UNL     1      -2.041   0.267   0.000  0.00  0.00    +0.158 C 
ATOM      3  C   UNL     1      -0.967  -1.897   0.000  0.00  0.00    +0.018 C 
ATOM      4  C   UNL     1      -3.290  -0.352   0.000  0.00  0.00    +0.025 C 
ATOM      5  C   UNL     1      -2.217  -2.517   0.000  0.00  0.00    +0.001 C 
ATOM      6  C   UNL     1      -3.378  -1.745   0.000  0.00  0.00    +0.002 C 
ENDROOT
BRANCH   2   9
ATOM      7  O   UNL     1      -3.050   2.341  -0.001  0.00  0.00    -0.126 OA
ATOM      8  O   UNL     1      -0.857   2.246   0.001  0.00  0.00    -0.126 OA
ATOM      9  N   UNL     1      -1.979   1.689   0.000  0.00  0.00    +0.059 N 
ENDBRANCH   2   9
BRANCH   1  10
ATOM     10  N   UNL     1       0.399   0.098   0.000  0.00  0.00    -0.233 N 
ATOM     11  H   UNL     1       0.479   1.079   0.001  0.00  0.00    +0.175 HD
BRANCH  10  12
ATOM     12  N   UNL     1       1.506  -0.664  -0.001  0.00  0.00    -0.160 NA
ATOM     13  C   UNL     1       2.657  -0.078  -0.001  0.00  0.00    +0.234 C 
BRANCH  13  15
ATOM     14  N   UNL     1       4.647  -1.740   0.001  0.00  0.00    -0.188 NA
ATOM     15  C   UNL     1       3.755  -0.997  -0.001  0.00  0.00    +0.132 C 
ENDBRANCH  13  15
BRANCH  13  17
ATOM     16  N   UNL     1       2.904   2.504   0.000  0.00  0.00    -0.188 NA
ATOM     17  C   UNL     1       2.791   1.349   0.000  0.00  0.00    +0.132 C 
ENDBRANCH  13  17
ENDBRANCH  10  12
ENDBRANCH   1  10
TORSDOF 5
