REMARK  Name = 10885340
REMARK  9 active torsions:
REMARK  status: ('A' for Active; 'I' for Inactive)
REMARK    1  A    between atoms: C_3  and  C_28
REMARK    2  A    between atoms: C_4  and  C_38
REMARK    3  A    between atoms: C_5  and  C_13
REMARK    4  A    between atoms: C_14  and  O_22
REMARK    5  A    between atoms: C_18  and  O_24
REMARK    6  A    between atoms: C_20  and  O_26
REMARK    7  A    between atoms: C_31  and  O_34
REMARK    8  A    between atoms: C_33  and  O_36
REMARK    9  A    between atoms: C_38  and  O_39
REMARK                            x       y       z     vdW  Elec       q    Type
REMARK                         _______ _______ _______ _____ _____    ______ ____
ROOT
ATOM      1  O   UNL     1      -1.296   0.357   1.407  0.00  0.00    -0.469 OA
ATOM      2  O   UNL     1      -2.634   0.313  -1.141  0.00  0.00    -0.468 OA
ATOM      3  C   UNL     1      -3.235   0.876   0.038  0.00  0.00    +0.230 C 
ATOM      4  C   UNL     1      -2.715   0.150   1.290  0.00  0.00    +0.239 C 
ATOM      5  C   UNL     1       1.475  -0.246  -0.876  0.00  0.00    +0.023 C 
ATOM      6  C   UNL     1      -0.636   0.152   0.227  0.00  0.00    +0.172 C 
ATOM      7  C   UNL     1      -1.286   0.120  -1.007  0.00  0.00    +0.173 C 
ATOM      8  C   UNL     1       0.748  -0.015   0.292  0.00  0.00    +0.039 C 
ATOM      9  C   UNL     1       0.821  -0.306  -2.106  0.00  0.00    +0.003 C 
ATOM     10  C   UNL     1      -0.560  -0.124  -2.173  0.00  0.00    +0.040 C 
ENDROOT
BRANCH   5  13
ATOM     11  O   UNL     1       3.543   0.791  -0.326  0.00  0.00    -0.471 OA
ATOM     12  O   UNL     1       5.458  -2.795   0.241  0.00  0.00    -0.288 OA
ATOM     13  C   UNL     1       2.978  -0.439  -0.806  0.00  0.00    +0.222 C 
ATOM     14  C   UNL     1       3.358  -1.613   0.099  0.00  0.00    +0.217 C 
ATOM     15  C   UNL     1       4.866  -1.726   0.141  0.00  0.00    +0.209 C 
ATOM     16  C   UNL     1       5.603  -0.448   0.092  0.00  0.00    +0.105 C 
ATOM     17  C   UNL     1       4.896   0.738  -0.122  0.00  0.00    +0.148 C 
ATOM     18  C   UNL     1       6.987  -0.421   0.287  0.00  0.00    +0.142 C 
ATOM     19  C   UNL     1       5.573   1.958  -0.107  0.00  0.00    +0.074 C 
ATOM     20  C   UNL     1       6.954   1.988   0.091  0.00  0.00    +0.140 C 
ATOM     21  C   UNL     1       7.660   0.801   0.283  0.00  0.00    +0.073 C 
BRANCH  14  22
ATOM     22  O   UNL     1       2.839  -2.823  -0.427  0.00  0.00    -0.374 OA
ATOM     23  H   UNL     1       1.871  -2.770  -0.462  0.00  0.00    +0.211 HD
ENDBRANCH  14  22
BRANCH  18  24
ATOM     24  O   UNL     1       7.723  -1.548   0.497  0.00  0.00    -0.505 OA
ATOM     25  H   UNL     1       7.304  -2.386   0.507  0.00  0.00    +0.292 HD
ENDBRANCH  18  24
BRANCH  20  26
ATOM     26  O   UNL     1       7.614   3.179   0.096  0.00  0.00    -0.505 OA
ATOM     27  H   UNL     1       7.141   3.978  -0.033  0.00  0.00    +0.292 HD
ENDBRANCH  20  26
ENDBRANCH   5  13
BRANCH   3  28
ATOM     28  C   UNL     1      -4.734   0.777  -0.145  0.00  0.00    +0.024 C 
ATOM     29  C   UNL     1      -5.346  -0.473  -0.222  0.00  0.00    +0.039 C 
ATOM     30  C   UNL     1      -5.503   1.938  -0.238  0.00  0.00    +0.003 C 
ATOM     31  C   UNL     1      -6.728  -0.564  -0.392  0.00  0.00    +0.172 C 
ATOM     32  C   UNL     1      -6.884   1.847  -0.408  0.00  0.00    +0.040 C 
ATOM     33  C   UNL     1      -7.497   0.596  -0.485  0.00  0.00    +0.168 C 
BRANCH  31  34
ATOM     34  O   UNL     1      -7.315  -1.791  -0.464  0.00  0.00    -0.468 OA
ATOM     35  C   UNL     1      -7.748  -2.376   0.763  0.00  0.00    +0.253 C 
ENDBRANCH  31  34
BRANCH  33  36
ATOM     36  O   UNL     1      -8.847   0.521  -0.650  0.00  0.00    -0.503 OA
ATOM     37  H   UNL     1      -9.267  -0.315  -0.703  0.00  0.00    +0.292 HD
ENDBRANCH  33  36
ENDBRANCH   3  28
BRANCH   4  38
ATOM     38  C   UNL     1      -3.333   0.672   2.583  0.00  0.00    +0.185 C 
BRANCH  38  39
ATOM     39  O   UNL     1      -2.799  -0.065   3.667  0.00  0.00    -0.378 OA
ATOM     40  H   UNL     1      -3.183   0.257   4.498  0.00  0.00    +0.211 HD
ENDBRANCH  38  39
ENDBRANCH   4  38
TORSDOF 9
