REMARK  Name = 10880539
REMARK  6 active torsions:
REMARK  status: ('A' for Active; 'I' for Inactive)
REMARK    1  A    between atoms: C_2  and  O_7
REMARK    2  A    between atoms: C_3  and  C_15
REMARK    3  A    between atoms: C_4  and  O_9
REMARK    4  A    between atoms: C_5  and  O_11
REMARK    5  A    between atoms: C_6  and  O_13
REMARK    6  A    between atoms: C_15  and  S_16
REMARK                            x       y       z     vdW  Elec       q    Type
REMARK                         _______ _______ _______ _____ _____    ______ ____
ROOT
ATOM      1  O   UNL     1      -0.064   0.863   0.321  0.00  0.00    -0.327 OA
ATOM      2  C   UNL     1       0.821  -1.393   0.276  0.00  0.00    +0.169 C 
ATOM      3  C   UNL     1      -0.311  -0.460  -0.158  0.00  0.00    +0.171 C 
ATOM      4  C   UNL     1       2.174  -0.861  -0.198  0.00  0.00    +0.171 C 
ATOM      5  C   UNL     1       2.347   0.614   0.166  0.00  0.00    +0.196 C 
ATOM      6  C   UNL     1       1.120   1.433  -0.234  0.00  0.00    +0.262 C 
ENDROOT
BRANCH   2   7
ATOM      7  O   UNL     1       0.604  -2.688  -0.279  0.00  0.00    -0.379 OA
ATOM      8  H   UNL     1      -0.254  -3.027   0.020  0.00  0.00    +0.211 HD
ENDBRANCH   2   7
BRANCH   4   9
ATOM      9  O   UNL     1       3.198  -1.630   0.435  0.00  0.00    -0.379 OA
ATOM     10  H   UNL     1       3.088  -2.566   0.204  0.00  0.00    +0.211 HD
ENDBRANCH   4   9
BRANCH   5  11
ATOM     11  O   UNL     1       3.481   1.142  -0.522  0.00  0.00    -0.378 OA
ATOM     12  H   UNL     1       4.271   0.634  -0.281  0.00  0.00    +0.211 HD
ENDBRANCH   5  11
BRANCH   6  13
ATOM     13  O   UNL     1       1.296   2.759   0.264  0.00  0.00    -0.358 OA
ATOM     14  H   UNL     1       0.527   3.300   0.022  0.00  0.00    +0.213 HD
ENDBRANCH   6  13
BRANCH   3  15
ATOM     15  C   UNL     1      -1.658  -0.907   0.402  0.00  0.00    +0.190 C 
BRANCH  15  16
ATOM     16  S   UNL     1      -2.944   0.186  -0.091  0.00  0.00    +0.025 S 
ATOM     17  O   UNL     1      -4.200  -0.680   0.488  0.00  0.00    -0.069 OA
ATOM     18  O   UNL     1      -3.024   0.204  -1.542  0.00  0.00    -0.069 OA
ATOM     19  O   UNL     1      -2.839   1.417   0.674  0.00  0.00    -0.069 OA
ENDBRANCH  15  16
ENDBRANCH   3  15
TORSDOF 6
