REMARK  Name = 10896127
REMARK  8 active torsions:
REMARK  status: ('A' for Active; 'I' for Inactive)
REMARK    1  A    between atoms: C_6  and  C_20
REMARK    2  A    between atoms: C_9  and  O_25
REMARK    3  A    between atoms: C_13  and  O_27
REMARK    4  A    between atoms: C_14  and  O_29
REMARK    5  A    between atoms: O_29  and  C_31
REMARK    6  A    between atoms: C_31  and  C_32
REMARK    7  A    between atoms: C_32  and  O_34
REMARK    8  A    between atoms: C_32  and  C_36
REMARK                            x       y       z     vdW  Elec       q    Type
REMARK                         _______ _______ _______ _____ _____    ______ ____
ROOT
ATOM      1  O   UNL     1       1.434  -3.134   0.965  0.00  0.00    -0.332 OA
ATOM      2  O   UNL     1       0.374   1.538   0.835  0.00  0.00    -0.450 OA
ATOM      3  O   UNL     1      -1.484   2.544   0.069  0.00  0.00    -0.246 OA
ATOM      4  C   UNL     1       0.553  -0.924   0.985  0.00  0.00    +0.073 C 
ATOM      5  C   UNL     1       1.565  -1.056  -0.152  0.00  0.00    +0.063 C 
ATOM      6  C   UNL     1       2.862  -0.351   0.365  0.00  0.00    +0.049 C 
ATOM      7  C   UNL     1      -0.898  -1.042   0.474  0.00  0.00    +0.060 C 
ATOM      8  C   UNL     1       0.862   0.420   1.602  0.00  0.00    +0.171 C 
ATOM      9  C   UNL     1       1.464  -2.565  -0.359  0.00  0.00    +0.209 C 
ATOM     10  C   UNL     1       2.395   0.488   1.594  0.00  0.00    +0.048 C 
ATOM     11  C   UNL     1       0.918  -2.132   1.864  0.00  0.00    +0.148 C 
ATOM     12  C   UNL     1      -1.114  -2.433  -0.227  0.00  0.00    +0.036 C 
ATOM     13  C   UNL     1       0.116  -2.896  -1.056  0.00  0.00    +0.161 C 
ATOM     14  C   UNL     1      -1.261   0.186  -0.367  0.00  0.00    +0.266 C 
ATOM     15  C   UNL     1       4.029  -1.267   0.762  0.00  0.00    +0.004 C 
ATOM     16  C   UNL     1      -2.417  -2.560  -1.020  0.00  0.00    +0.003 C 
ATOM     17  C   UNL     1      -0.836   1.513   0.228  0.00  0.00    +0.358 C 
ENDROOT
BRANCH   6  20
ATOM     18  O   UNL     1       2.360   1.566  -1.029  0.00  0.00    -0.445 OA
ATOM     19  O   UNL     1       2.204   3.859  -0.939  0.00  0.00    -0.245 OA
ATOM     20  C   UNL     1       3.384   0.604  -0.730  0.00  0.00    +0.188 C 
ATOM     21  C   UNL     1       4.532   1.444  -0.309  0.00  0.00    +0.002 C 
ATOM     22  C   UNL     1       4.220   2.738  -0.343  0.00  0.00    +0.077 C 
ATOM     23  C   UNL     1       2.831   2.824  -0.794  0.00  0.00    +0.341 C 
ATOM     24  C   UNL     1       5.849   0.863   0.063  0.00  0.00    +0.030 C 
ENDBRANCH   6  20
BRANCH   9  25
ATOM     25  O   UNL     1       2.547  -3.051  -1.132  0.00  0.00    -0.362 OA
ATOM     26  H   UNL     1       3.383  -2.839  -0.688  0.00  0.00    +0.213 HD
ENDBRANCH   9  25
BRANCH  13  27
ATOM     27  O   UNL     1       0.082  -2.296  -2.352  0.00  0.00    -0.380 OA
ATOM     28  H   UNL     1       0.852  -2.590  -2.863  0.00  0.00    +0.211 HD
ENDBRANCH  13  27
BRANCH  14  29
ATOM     29  O   UNL     1      -2.671   0.281  -0.545  0.00  0.00    -0.439 OA
BRANCH  29  31
ATOM     30  O   UNL     1      -2.938   0.617   1.718  0.00  0.00    -0.248 OA
ATOM     31  C   UNL     1      -3.403   0.500   0.590  0.00  0.00    +0.342 C 
BRANCH  31  32
ATOM     32  C   UNL     1      -4.892   0.580   0.262  0.00  0.00    +0.177 C 
ATOM     33  C   UNL     1      -5.516  -0.812   0.346  0.00  0.00    +0.041 C 
BRANCH  32  34
ATOM     34  O   UNL     1      -5.489   1.372   1.287  0.00  0.00    -0.376 OA
ATOM     35  H   UNL     1      -5.115   2.266   1.264  0.00  0.00    +0.211 HD
ENDBRANCH  32  34
BRANCH  32  36
ATOM     36  C   UNL     1      -5.103   1.261  -1.101  0.00  0.00    +0.038 C 
ATOM     37  C   UNL     1      -6.558   1.324  -1.551  0.00  0.00    +0.003 C 
ENDBRANCH  32  36
ENDBRANCH  31  32
ENDBRANCH  29  31
ENDBRANCH  14  29
TORSDOF 8
