REMARK  Name = 10895404
REMARK  10 active torsions:
REMARK  status: ('A' for Active; 'I' for Inactive)
REMARK    1  A    between atoms: C_2  and  C_34
REMARK    2  A    between atoms: C_3  and  C_10
REMARK    3  A    between atoms: C_7  and  O_20
REMARK    4  A    between atoms: C_8  and  C_22
REMARK    5  A    between atoms: C_13  and  O_16
REMARK    6  A    between atoms: C_15  and  O_18
REMARK    7  A    between atoms: C_23  and  C_24
REMARK    8  A    between atoms: C_27  and  O_30
REMARK    9  A    between atoms: C_28  and  O_32
REMARK   10  A    between atoms: C_34  and  O_35
REMARK                            x       y       z     vdW  Elec       q    Type
REMARK                         _______ _______ _______ _____ _____    ______ ____
ROOT
ATOM      1  O   UNL     1      -2.476  -1.393  -0.249  0.00  0.00    -0.472 OA
ATOM      2  C   UNL     1      -1.656   0.810  -0.881  0.00  0.00    +0.099 C 
ATOM      3  C   UNL     1      -2.803  -0.216  -1.039  0.00  0.00    +0.195 C 
ATOM      4  C   UNL     1      -0.560  -0.130  -0.520  0.00  0.00    +0.021 C 
ATOM      5  C   UNL     1      -1.108  -1.349  -0.144  0.00  0.00    +0.169 C 
ATOM      6  C   UNL     1       0.807   0.075  -0.456  0.00  0.00    -0.001 C 
ATOM      7  C   UNL     1      -0.329  -2.398   0.307  0.00  0.00    +0.172 C 
ATOM      8  C   UNL     1       1.616  -0.976  -0.015  0.00  0.00    +0.003 C 
ATOM      9  C   UNL     1       1.051  -2.204   0.365  0.00  0.00    +0.040 C 
ENDROOT
BRANCH   3  10
ATOM     10  C   UNL     1      -4.147   0.330  -0.614  0.00  0.00    +0.021 C 
ATOM     11  C   UNL     1      -4.544   0.244   0.721  0.00  0.00    +0.039 C 
ATOM     12  C   UNL     1      -4.991   0.919  -1.556  0.00  0.00    +0.002 C 
ATOM     13  C   UNL     1      -5.784   0.748   1.113  0.00  0.00    +0.172 C 
ATOM     14  C   UNL     1      -6.231   1.423  -1.163  0.00  0.00    +0.040 C 
ATOM     15  C   UNL     1      -6.628   1.337   0.171  0.00  0.00    +0.168 C 
BRANCH  13  16
ATOM     16  O   UNL     1      -6.160   0.659   2.419  0.00  0.00    -0.468 OA
ATOM     17  C   UNL     1      -5.241   0.042   3.318  0.00  0.00    +0.253 C 
ENDBRANCH  13  16
BRANCH  15  18
ATOM     18  O   UNL     1      -7.841   1.833   0.543  0.00  0.00    -0.503 OA
ATOM     19  H   UNL     1      -8.115   1.780   1.437  0.00  0.00    +0.292 HD
ENDBRANCH  15  18
ENDBRANCH   3  10
BRANCH   7  20
ATOM     20  O   UNL     1      -0.879  -3.581   0.679  0.00  0.00    -0.468 OA
ATOM     21  C   UNL     1      -1.029  -4.579  -0.333  0.00  0.00    +0.253 C 
ENDBRANCH   7  20
BRANCH   8  22
ATOM     22  C   UNL     1       3.058  -0.793   0.060  0.00  0.00    +0.000 C 
ATOM     23  C   UNL     1       3.691   0.403   0.110  0.00  0.00    +0.000 C 
BRANCH  23  24
ATOM     24  C   UNL     1       5.150   0.587   0.205  0.00  0.00    +0.006 C 
ATOM     25  C   UNL     1       5.990  -0.451  -0.162  0.00  0.00    +0.037 C 
ATOM     26  C   UNL     1       5.652   1.795   0.661  0.00  0.00    +0.037 C 
ATOM     27  C   UNL     1       7.034   1.970   0.752  0.00  0.00    +0.137 C 
ATOM     28  C   UNL     1       7.371  -0.276  -0.072  0.00  0.00    +0.137 C 
ATOM     29  C   UNL     1       7.893   0.934   0.385  0.00  0.00    +0.073 C 
BRANCH  27  30
ATOM     30  O   UNL     1       7.543   3.151   1.198  0.00  0.00    -0.505 OA
ATOM     31  H   UNL     1       6.965   3.846   1.444  0.00  0.00    +0.292 HD
ENDBRANCH  27  30
BRANCH  28  32
ATOM     32  O   UNL     1       8.210  -1.287  -0.430  0.00  0.00    -0.505 OA
ATOM     33  H   UNL     1       7.860  -2.100  -0.737  0.00  0.00    +0.292 HD
ENDBRANCH  28  32
ENDBRANCH  23  24
ENDBRANCH   8  22
BRANCH   2  34
ATOM     34  C   UNL     1      -1.417   1.629  -2.141  0.00  0.00    +0.146 C 
BRANCH  34  35
ATOM     35  O   UNL     1      -1.244   0.743  -3.233  0.00  0.00    -0.382 OA
ATOM     36  H   UNL     1      -1.091   1.255  -4.043  0.00  0.00    +0.210 HD
ENDBRANCH  34  35
ENDBRANCH   2  34
TORSDOF 10
