REMARK  Name = 10894737
REMARK  7 active torsions:
REMARK  status: ('A' for Active; 'I' for Inactive)
REMARK    1  A    between atoms: C_4  and  O_28
REMARK    2  A    between atoms: C_8  and  C_19
REMARK    3  A    between atoms: C_12  and  O_17
REMARK    4  A    between atoms: C_20  and  C_21
REMARK    5  A    between atoms: C_22  and  C_25
REMARK    6  A    between atoms: C_25  and  O_26
REMARK    7  A    between atoms: O_28  and  C_30
REMARK                            x       y       z     vdW  Elec       q    Type
REMARK                         _______ _______ _______ _____ _____    ______ ____
ROOT
ATOM      1  O   UNL     1      -0.480   0.735  -1.097  0.00  0.00    -0.451 OA
ATOM      2  O   UNL     1       0.268   2.699  -0.307  0.00  0.00    -0.250 OA
ATOM      3  C   UNL     1       1.260   0.697   0.654  0.00  0.00    +0.126 C 
ATOM      4  C   UNL     1       1.729  -0.623   0.022  0.00  0.00    +0.153 C 
ATOM      5  C   UNL     1       0.366  -1.355  -0.035  0.00  0.00    +0.078 C 
ATOM      6  C   UNL     1       0.371   0.233   1.835  0.00  0.00    +0.014 C 
ATOM      7  C   UNL     1      -0.116  -1.160   1.430  0.00  0.00    +0.008 C 
ATOM      8  C   UNL     1      -0.608  -0.713  -1.055  0.00  0.00    +0.158 C 
ATOM      9  C   UNL     1       2.398   1.602   1.166  0.00  0.00    +0.047 C 
ATOM     10  C   UNL     1       2.524  -0.471  -1.278  0.00  0.00    +0.066 C 
ATOM     11  C   UNL     1       0.329   1.472  -0.291  0.00  0.00    +0.319 C 
ATOM     12  C   UNL     1       3.365   2.143   0.096  0.00  0.00    +0.129 C 
ATOM     13  C   UNL     1      -0.393  -1.233  -2.485  0.00  0.00    +0.048 C 
ATOM     14  C   UNL     1       3.940  -0.004  -1.084  0.00  0.00    -0.029 C 
ATOM     15  C   UNL     1       4.337   1.124  -0.466  0.00  0.00    -0.022 C 
ATOM     16  C   UNL     1       5.810   1.428  -0.366  0.00  0.00    +0.028 C 
ENDROOT
BRANCH  12  17
ATOM     17  O   UNL     1       4.094   3.220   0.700  0.00  0.00    -0.380 OA
ATOM     18  H   UNL     1       3.470   3.871   1.059  0.00  0.00    +0.211 HD
ENDBRANCH  12  17
BRANCH   8  19
ATOM     19  C   UNL     1      -2.054  -1.013  -0.747  0.00  0.00    +0.013 C 
ATOM     20  C   UNL     1      -2.973  -0.069  -0.493  0.00  0.00    -0.001 C 
BRANCH  20  21
ATOM     21  C   UNL     1      -4.358  -0.377  -0.197  0.00  0.00    +0.002 C 
ATOM     22  C   UNL     1      -5.340   0.506   0.068  0.00  0.00    +0.054 C 
ATOM     23  C   UNL     1      -5.202   2.003   0.119  0.00  0.00    +0.038 C 
BRANCH  22  25
ATOM     24  O   UNL     1      -7.663   0.753   0.615  0.00  0.00    -0.245 OA
ATOM     25  C   UNL     1      -6.720   0.014   0.365  0.00  0.00    +0.334 C 
BRANCH  25  26
ATOM     26  O   UNL     1      -6.829  -1.332   0.295  0.00  0.00    -0.477 OA
ATOM     27  H   UNL     1      -6.075  -1.853   0.100  0.00  0.00    +0.295 HD
ENDBRANCH  25  26
ENDBRANCH  22  25
ENDBRANCH  20  21
ENDBRANCH   8  19
BRANCH   4  28
ATOM     28  O   UNL     1       2.566  -1.346   0.944  0.00  0.00    -0.455 OA
BRANCH  28  30
ATOM     29  O   UNL     1       2.638  -3.130  -0.522  0.00  0.00    -0.250 OA
ATOM     30  C   UNL     1       2.940  -2.587   0.532  0.00  0.00    +0.317 C 
ATOM     31  C   UNL     1       3.802  -3.216   1.584  0.00  0.00    +0.121 C 
ENDBRANCH  28  30
ENDBRANCH   4  28
TORSDOF 7
