REMARK  Name = 10892197
REMARK  4 active torsions:
REMARK  status: ('A' for Active; 'I' for Inactive)
REMARK    1  A    between atoms: C_5  and  C_22
REMARK    2  A    between atoms: C_6  and  O_18
REMARK    3  A    between atoms: C_12  and  O_20
REMARK    4  A    between atoms: C_22  and  C_23
REMARK                            x       y       z     vdW  Elec       q    Type
REMARK                         _______ _______ _______ _____ _____    ______ ____
ROOT
ATOM      1  O   UNL     1      -1.828  -2.434   0.057  0.00  0.00    -0.386 OA
ATOM      2  O   UNL     1       0.980  -0.487  -2.710  0.00  0.00    -0.293 OA
ATOM      3  O   UNL     1      -2.883  -0.822  -1.170  0.00  0.00    -0.245 OA
ATOM      4  O   UNL     1      -0.323  -3.481   1.428  0.00  0.00    -0.245 OA
ATOM      5  C   UNL     1      -0.723   1.103  -0.222  0.00  0.00    +0.063 C 
ATOM      6  C   UNL     1      -0.185   1.339  -1.646  0.00  0.00    +0.172 C 
ATOM      7  C   UNL     1      -0.886  -0.360   0.098  0.00  0.00    +0.059 C 
ATOM      8  C   UNL     1      -0.121  -1.155   0.854  0.00  0.00    +0.060 C 
ATOM      9  C   UNL     1       1.140  -0.941   1.635  0.00  0.00    +0.057 C 
ATOM     10  C   UNL     1       1.042   0.484  -1.953  0.00  0.00    +0.180 C 
ATOM     11  C   UNL     1       2.358   0.880  -1.308  0.00  0.00    +0.100 C 
ATOM     12  C   UNL     1       2.824  -0.048  -0.179  0.00  0.00    +0.136 C 
ATOM     13  C   UNL     1       2.090   0.126   1.138  0.00  0.00    -0.017 C 
ATOM     14  C   UNL     1      -1.986  -1.181  -0.429  0.00  0.00    +0.344 C 
ATOM     15  C   UNL     1      -0.729  -2.494   0.841  0.00  0.00    +0.344 C 
ATOM     16  C   UNL     1       2.373   1.185   1.919  0.00  0.00    -0.032 C 
ATOM     17  C   UNL     1       3.294   2.283   1.520  0.00  0.00    +0.030 C 
ENDROOT
BRANCH   6  18
ATOM     18  O   UNL     1      -1.185   1.053  -2.613  0.00  0.00    -0.377 OA
ATOM     19  H   UNL     1      -1.973   1.590  -2.431  0.00  0.00    +0.211 HD
ENDBRANCH   6  18
BRANCH  12  20
ATOM     20  O   UNL     1       2.809  -1.409  -0.603  0.00  0.00    -0.380 OA
ATOM     21  H   UNL     1       3.284  -1.490  -1.445  0.00  0.00    +0.211 HD
ENDBRANCH  12  20
BRANCH   5  22
ATOM     22  C   UNL     1      -2.002   1.906   0.047  0.00  0.00    +0.007 C 
BRANCH  22  23
ATOM     23  C   UNL     1      -2.389   1.839   1.518  0.00  0.00    +0.000 C 
ATOM     24  C   UNL     1      -3.671   2.614   1.779  0.00  0.00    +0.000 C 
ENDBRANCH  22  23
ENDBRANCH   5  22
TORSDOF 4
