REMARK  Name = 10904575
REMARK  4 active torsions:
REMARK  status: ('A' for Active; 'I' for Inactive)
REMARK    1  A    between atoms: C_8  and  C_25
REMARK    2  A    between atoms: C_10  and  O_22
REMARK    3  A    between atoms: C_18  and  O_28
REMARK    4  A    between atoms: C_25  and  O_26
REMARK                            x       y       z     vdW  Elec       q    Type
REMARK                         _______ _______ _______ _____ _____    ______ ____
ROOT
ATOM      1  O   UNL     1       2.665  -2.337  -0.366  0.00  0.00    -0.286 OA
ATOM      2  O   UNL     1       1.134   2.712   0.475  0.00  0.00    -0.287 OA
ATOM      3  C   UNL     1      -1.444  -1.541  -0.057  0.00  0.00    +0.012 C 
ATOM      4  C   UNL     1      -2.469  -2.634  -0.193  0.00  0.00    +0.034 C 
ATOM      5  C   UNL     1      -1.866  -0.211   0.132  0.00  0.00    +0.005 C 
ATOM      6  C   UNL     1      -3.715  -2.329   0.636  0.00  0.00    +0.027 C 
ATOM      7  C   UNL     1      -4.202  -0.901   0.464  0.00  0.00    -0.037 C 
ATOM      8  C   UNL     1      -3.321   0.095   0.213  0.00  0.00    +0.068 C 
ATOM      9  C   UNL     1       0.881  -0.839  -0.059  0.00  0.00    +0.075 C 
ATOM     10  C   UNL     1      -0.080  -1.848  -0.169  0.00  0.00    +0.133 C 
ATOM     11  C   UNL     1       0.479   0.476   0.157  0.00  0.00    +0.045 C 
ATOM     12  C   UNL     1      -0.886   0.788   0.253  0.00  0.00    +0.003 C 
ATOM     13  C   UNL     1       2.314  -1.180  -0.169  0.00  0.00    +0.202 C 
ATOM     14  C   UNL     1       1.484   1.554   0.285  0.00  0.00    +0.196 C 
ATOM     15  C   UNL     1       3.318  -0.105  -0.040  0.00  0.00    +0.076 C 
ATOM     16  C   UNL     1       2.918   1.214   0.179  0.00  0.00    +0.045 C 
ATOM     17  C   UNL     1      -5.699  -0.776   0.601  0.00  0.00    +0.027 C 
ATOM     18  C   UNL     1       4.680  -0.414  -0.139  0.00  0.00    +0.137 C 
ATOM     19  C   UNL     1       3.879   2.225   0.299  0.00  0.00    +0.003 C 
ATOM     20  C   UNL     1       5.635   0.596  -0.019  0.00  0.00    +0.037 C 
ATOM     21  C   UNL     1       5.235   1.913   0.200  0.00  0.00    +0.003 C 
ENDROOT
BRANCH  10  22
ATOM     22  O   UNL     1       0.274  -3.148  -0.393  0.00  0.00    -0.506 OA
ATOM     23  H   UNL     1      -0.387  -3.808  -0.463  0.00  0.00    +0.292 HD
ENDBRANCH  10  22
BRANCH   8  25
ATOM     24  O   UNL     1      -3.939   2.263   0.946  0.00  0.00    -0.245 OA
ATOM     25  C   UNL     1      -3.809   1.475   0.029  0.00  0.00    +0.341 C 
BRANCH  25  26
ATOM     26  O   UNL     1      -4.063   1.664  -1.287  0.00  0.00    -0.441 OA
ATOM     27  C   UNL     1      -4.548   2.967  -1.628  0.00  0.00    +0.256 C 
ENDBRANCH  25  26
ENDBRANCH   8  25
BRANCH  18  28
ATOM     28  O   UNL     1       5.142  -1.680  -0.351  0.00  0.00    -0.505 OA
ATOM     29  H   UNL     1       4.538  -2.390  -0.438  0.00  0.00    +0.292 HD
ENDBRANCH  18  28
TORSDOF 4
