10901668
  -OEChem-03292013303D

 37 38  0     1  0  0  0  0  0999 V2000
   -1.8436    1.2166    0.8784 O   0  0  0  0  0  0  0  0  0  0  0  0
   -5.0304    0.8310    0.1735 O   0  0  0  0  0  0  0  0  0  0  0  0
    3.4355   -2.0152   -0.4236 O   0  0  0  0  0  0  0  0  0  0  0  0
    2.1611   -3.4187    0.8197 O   0  0  0  0  0  0  0  0  0  0  0  0
    1.5955    1.3215    1.4260 O   0  0  0  0  0  0  0  0  0  0  0  0
    1.7200   -0.0613   -0.4333 N   0  0  0  0  0  0  0  0  0  0  0  0
    1.7935    3.5222   -0.2242 N   0  0  0  0  0  0  0  0  0  0  0  0
   -1.5295   -0.1835    0.8386 C   0  0  2  0  0  0  0  0  0  0  0  0
   -1.1541   -0.6986   -0.5242 C   0  0  2  0  0  0  0  0  0  0  0  0
   -2.9322    0.3078    1.0845 C   0  0  2  0  0  0  0  0  0  0  0  0
   -2.3951   -1.2769   -1.2202 C   0  0  0  0  0  0  0  0  0  0  0  0
   -0.0577   -1.7589   -0.4274 C   0  0  0  0  0  0  0  0  0  0  0  0
   -3.4993   -0.2312   -1.3462 C   0  0  0  0  0  0  0  0  0  0  0  0
   -3.9287    0.3240   -0.0071 C   0  0  0  0  0  0  0  0  0  0  0  0
    1.2433   -1.2616    0.2053 C   0  0  1  0  0  0  0  0  0  0  0  0
    2.3059   -2.3455    0.2468 C   0  0  0  0  0  0  0  0  0  0  0  0
    1.8591    1.1485    0.2378 C   0  0  0  0  0  0  0  0  0  0  0  0
    2.3676    2.2571   -0.6750 C   0  0  2  0  0  0  0  0  0  0  0  0
    3.8891    2.3226   -0.6295 C   0  0  0  0  0  0  0  0  0  0  0  0
   -1.0162   -0.6238    1.6805 H   0  0  0  0  0  0  0  0  0  0  0  0
   -0.7889    0.1374   -1.1350 H   0  0  0  0  0  0  0  0  0  0  0  0
   -3.3216    0.2144    2.0914 H   0  0  0  0  0  0  0  0  0  0  0  0
   -2.7749   -2.1367   -0.6526 H   0  0  0  0  0  0  0  0  0  0  0  0
   -2.1293   -1.6405   -2.2199 H   0  0  0  0  0  0  0  0  0  0  0  0
   -0.4232   -2.6243    0.1420 H   0  0  0  0  0  0  0  0  0  0  0  0
    0.1621   -2.1343   -1.4364 H   0  0  0  0  0  0  0  0  0  0  0  0
   -4.3741   -0.6861   -1.8234 H   0  0  0  0  0  0  0  0  0  0  0  0
   -3.1655    0.6067   -1.9681 H   0  0  0  0  0  0  0  0  0  0  0  0
    1.0700   -1.0282    1.2618 H   0  0  0  0  0  0  0  0  0  0  0  0
    2.0008   -0.1241   -1.4077 H   0  0  0  0  0  0  0  0  0  0  0  0
    2.0380    2.0751   -1.7038 H   0  0  0  0  0  0  0  0  0  0  0  0
    4.1059   -2.7305   -0.3877 H   0  0  0  0  0  0  0  0  0  0  0  0
    4.3267    1.3817   -0.9809 H   0  0  0  0  0  0  0  0  0  0  0  0
    4.2553    2.4899    0.3901 H   0  0  0  0  0  0  0  0  0  0  0  0
    4.2686    3.1289   -1.2663 H   0  0  0  0  0  0  0  0  0  0  0  0
    2.0795    3.7157    0.7348 H   0  0  0  0  0  0  0  0  0  0  0  0
    0.7763    3.4586   -0.2180 H   0  0  0  0  0  0  0  0  0  0  0  0
  1  8  1  0  0  0  0
  1 10  1  0  0  0  0
  2 14  2  0  0  0  0
  3 16  1  0  0  0  0
  3 32  1  0  0  0  0
  4 16  2  0  0  0  0
  5 17  2  0  0  0  0
  6 15  1  0  0  0  0
  6 17  1  0  0  0  0
  6 30  1  0  0  0  0
  7 18  1  0  0  0  0
  7 36  1  0  0  0  0
  7 37  1  0  0  0  0
  8  9  1  0  0  0  0
  8 10  1  0  0  0  0
  8 20  1  0  0  0  0
  9 11  1  0  0  0  0
  9 12  1  0  0  0  0
  9 21  1  0  0  0  0
 10 14  1  0  0  0  0
 10 22  1  0  0  0  0
 11 13  1  0  0  0  0
 11 23  1  0  0  0  0
 11 24  1  0  0  0  0
 12 15  1  0  0  0  0
 12 25  1  0  0  0  0
 12 26  1  0  0  0  0
 13 14  1  0  0  0  0
 13 27  1  0  0  0  0
 13 28  1  0  0  0  0
 15 16  1  0  0  0  0
 15 29  1  0  0  0  0
 17 18  1  0  0  0  0
 18 19  1  0  0  0  0
 18 31  1  0  0  0  0
 19 33  1  0  0  0  0
 19 34  1  0  0  0  0
 19 35  1  0  0  0  0
M  END
> <PUBCHEM_COMPOUND_CID>
10901668

> <PUBCHEM_CONFORMER_RMSD>
0.8

> <PUBCHEM_CONFORMER_DIVERSEORDER>
1
35
9
26
33
43
18
24
49
6
25
23
20
44
11
15
8
47
46
27
4
31
42
37
19
32
36
29
28
14
48
21
3
17
30
38
45
41
10
13
22
5
51
16
12
34
50
40
2
7
39

> <PUBCHEM_MMFF94_PARTIAL_CHARGES>
22
1 -0.3
10 0.05
13 0.06
14 0.51
15 0.36
16 0.66
17 0.57
18 0.33
2 -0.57
20 0.1
22 0.1
3 -0.65
30 0.37
32 0.5
36 0.36
37 0.36
4 -0.57
5 -0.57
6 -0.73
7 -0.99
8 -0.05
9 0.09

> <PUBCHEM_EFFECTIVE_ROTOR_COUNT>
6.8

> <PUBCHEM_PHARMACOPHORE_FEATURES>
10
1 1 acceptor
1 2 acceptor
1 3 acceptor
1 4 acceptor
1 5 acceptor
1 6 donor
1 7 cation
1 7 donor
3 3 4 16 anion
7 1 8 9 10 11 13 14 rings

> <PUBCHEM_HEAVY_ATOM_COUNT>
19

> <PUBCHEM_ATOM_DEF_STEREO_COUNT>
5

> <PUBCHEM_ATOM_UDEF_STEREO_COUNT>
0

> <PUBCHEM_BOND_DEF_STEREO_COUNT>
0

> <PUBCHEM_BOND_UDEF_STEREO_COUNT>
0

> <PUBCHEM_ISOTOPIC_ATOM_COUNT>
0

> <PUBCHEM_COMPONENT_COUNT>
1

> <PUBCHEM_CACTVS_TAUTO_COUNT>
6

> <PUBCHEM_CONFORMER_ID>
00A658A400000001

> <PUBCHEM_MMFF94_ENERGY>
27.8806

> <PUBCHEM_FEATURE_SELFOVERLAP>
50.807

> <PUBCHEM_SHAPE_FINGERPRINT>
12173636 292 17761495089754310509
12553582 1 18193833739375084374
13009979 54 17845378751766980626
13132413 78 18196939877155848862
13134695 92 18190175689827006006
13583140 156 18260554377529206315
14115302 16 17560792191941927731
14123255 52 18265899253079303612
14250199 8 18411139112901328319
15342168 16 18261116339307730173
15775835 57 18272375312347843901
1813 80 18054799373267302974
18186145 218 18335128766367483983
20510252 161 17402613442397312718
20559304 39 18201156542412880811
20645476 183 18201155567913987623
20671657 1 18342455967145953124
21524375 3 18198346362701636148
21639500 275 18408877447553039223
2255824 54 18410572868671528974
22854114 111 18411139142960805167
23175994 123 18045225942281963954
23532345 88 18410849928410913533
23557571 272 14764049208372992023
23559900 14 18336262362766115403
23598291 2 18202007585855577623
25 1 18336267958886741356
25147074 1 18131912668140965327
2748010 2 13947760093337046735
283562 15 17617092950740124342
312423 11 18130783486657907103
4175511 71 18195817253992983774
4409770 3 17038376593444930702
474 4 18336824290036882274
5262128 65 15624831641336561105
7364860 26 18410577275444592062
74978 22 18411699872406137231
7615 1 18059559292268556071
81228 2 17546729249154278794
84936 182 18199743803130999280
90316 7 17617371788680515322
9981440 41 17980186810384359968

> <PUBCHEM_SHAPE_MULTIPOLES>
351.7
7.35
3.37
1.13
4.55
0.47
0.01
-2.94
-0.93
-4.96
0.09
0.51
-0.04
-1.06

> <PUBCHEM_SHAPE_SELFOVERLAP>
717.424

> <PUBCHEM_SHAPE_VOLUME>
202.1

> <PUBCHEM_COORDINATE_TYPE>
2
5
10

$$$$
