10904575
  -OEChem-03292013303D

 43 46  0     0  0  0  0  0  0999 V2000
    0.2740   -3.1482   -0.3927 O   0  0  0  0  0  0  0  0  0  0  0  0
    2.6650   -2.3370   -0.3661 O   0  0  0  0  0  0  0  0  0  0  0  0
   -4.0631    1.6641   -1.2871 O   0  0  0  0  0  0  0  0  0  0  0  0
    1.1340    2.7118    0.4752 O   0  0  0  0  0  0  0  0  0  0  0  0
   -3.9386    2.2631    0.9457 O   0  0  0  0  0  0  0  0  0  0  0  0
    5.1421   -1.6796   -0.3509 O   0  0  0  0  0  0  0  0  0  0  0  0
   -1.4445   -1.5411   -0.0572 C   0  0  0  0  0  0  0  0  0  0  0  0
   -2.4686   -2.6337   -0.1929 C   0  0  0  0  0  0  0  0  0  0  0  0
   -1.8661   -0.2113    0.1318 C   0  0  0  0  0  0  0  0  0  0  0  0
   -3.7146   -2.3287    0.6356 C   0  0  0  0  0  0  0  0  0  0  0  0
   -4.2022   -0.9012    0.4643 C   0  0  0  0  0  0  0  0  0  0  0  0
   -3.3207    0.0953    0.2130 C   0  0  0  0  0  0  0  0  0  0  0  0
    0.8810   -0.8394   -0.0588 C   0  0  0  0  0  0  0  0  0  0  0  0
   -0.0799   -1.8476   -0.1686 C   0  0  0  0  0  0  0  0  0  0  0  0
    0.4793    0.4765    0.1570 C   0  0  0  0  0  0  0  0  0  0  0  0
   -0.8856    0.7878    0.2525 C   0  0  0  0  0  0  0  0  0  0  0  0
    2.3142   -1.1802   -0.1693 C   0  0  0  0  0  0  0  0  0  0  0  0
    1.4839    1.5535    0.2851 C   0  0  0  0  0  0  0  0  0  0  0  0
    3.3184   -0.1050   -0.0404 C   0  0  0  0  0  0  0  0  0  0  0  0
    2.9176    1.2143    0.1791 C   0  0  0  0  0  0  0  0  0  0  0  0
   -5.6987   -0.7759    0.6012 C   0  0  0  0  0  0  0  0  0  0  0  0
   -3.8087    1.4750    0.0293 C   0  0  0  0  0  0  0  0  0  0  0  0
    4.6803   -0.4141   -0.1392 C   0  0  0  0  0  0  0  0  0  0  0  0
    3.8788    2.2251    0.2995 C   0  0  0  0  0  0  0  0  0  0  0  0
    5.6350    0.5962   -0.0187 C   0  0  0  0  0  0  0  0  0  0  0  0
    5.2351    1.9130    0.2001 C   0  0  0  0  0  0  0  0  0  0  0  0
   -4.5475    2.9672   -1.6278 C   0  0  0  0  0  0  0  0  0  0  0  0
   -2.7348   -2.7291   -1.2533 H   0  0  0  0  0  0  0  0  0  0  0  0
   -2.0741   -3.6015    0.1368 H   0  0  0  0  0  0  0  0  0  0  0  0
   -3.5156   -2.4988    1.7018 H   0  0  0  0  0  0  0  0  0  0  0  0
   -4.4967   -3.0395    0.3417 H   0  0  0  0  0  0  0  0  0  0  0  0
   -1.1875    1.8196    0.4184 H   0  0  0  0  0  0  0  0  0  0  0  0
   -6.2004   -1.3555   -0.1806 H   0  0  0  0  0  0  0  0  0  0  0  0
   -6.0464    0.2576    0.5192 H   0  0  0  0  0  0  0  0  0  0  0  0
   -6.0206   -1.1535    1.5773 H   0  0  0  0  0  0  0  0  0  0  0  0
    3.5930    3.2594    0.4704 H   0  0  0  0  0  0  0  0  0  0  0  0
    1.2320   -3.2694   -0.3270 H   0  0  0  0  0  0  0  0  0  0  0  0
    6.6965    0.3744   -0.0926 H   0  0  0  0  0  0  0  0  0  0  0  0
    5.9801    2.6979    0.2937 H   0  0  0  0  0  0  0  0  0  0  0  0
    6.1138   -1.6714   -0.3860 H   0  0  0  0  0  0  0  0  0  0  0  0
   -4.7135    2.9964   -2.7080 H   0  0  0  0  0  0  0  0  0  0  0  0
   -3.8055    3.7276   -1.3658 H   0  0  0  0  0  0  0  0  0  0  0  0
   -5.4975    3.1626   -1.1210 H   0  0  0  0  0  0  0  0  0  0  0  0
  1 14  1  0  0  0  0
  1 37  1  0  0  0  0
  2 17  2  0  0  0  0
  3 22  1  0  0  0  0
  3 27  1  0  0  0  0
  4 18  2  0  0  0  0
  5 22  2  0  0  0  0
  6 23  1  0  0  0  0
  6 40  1  0  0  0  0
  7  8  1  0  0  0  0
  7  9  1  0  0  0  0
  7 14  2  0  0  0  0
  8 10  1  0  0  0  0
  8 28  1  0  0  0  0
  8 29  1  0  0  0  0
  9 12  1  0  0  0  0
  9 16  2  0  0  0  0
 10 11  1  0  0  0  0
 10 30  1  0  0  0  0
 10 31  1  0  0  0  0
 11 12  2  0  0  0  0
 11 21  1  0  0  0  0
 12 22  1  0  0  0  0
 13 14  1  0  0  0  0
 13 15  2  0  0  0  0
 13 17  1  0  0  0  0
 15 16  1  0  0  0  0
 15 18  1  0  0  0  0
 16 32  1  0  0  0  0
 17 19  1  0  0  0  0
 18 20  1  0  0  0  0
 19 20  2  0  0  0  0
 19 23  1  0  0  0  0
 20 24  1  0  0  0  0
 21 33  1  0  0  0  0
 21 34  1  0  0  0  0
 21 35  1  0  0  0  0
 23 25  2  0  0  0  0
 24 26  2  0  0  0  0
 24 36  1  0  0  0  0
 25 26  1  0  0  0  0
 25 38  1  0  0  0  0
 26 39  1  0  0  0  0
 27 41  1  0  0  0  0
 27 42  1  0  0  0  0
 27 43  1  0  0  0  0
M  END
> <PUBCHEM_COMPOUND_CID>
10904575

> <PUBCHEM_CONFORMER_RMSD>
0.6

> <PUBCHEM_CONFORMER_DIVERSEORDER>
1
4
3
2

> <PUBCHEM_MMFF94_PARTIAL_CHARGES>
33
1 -0.53
10 0.14
11 -0.28
12 -0.01
13 0.09
14 0.08
15 0.09
16 -0.15
17 0.4
18 0.4
19 0.09
2 -0.57
20 0.09
21 0.14
22 0.71
23 0.08
24 -0.15
25 -0.15
26 -0.15
27 0.28
3 -0.43
32 0.15
36 0.15
37 0.45
38 0.15
39 0.15
4 -0.57
40 0.45
5 -0.57
6 -0.53
7 -0.14
8 0.14
9 0.03

> <PUBCHEM_EFFECTIVE_ROTOR_COUNT>
2.4

> <PUBCHEM_PHARMACOPHORE_FEATURES>
9
1 1 donor
1 2 acceptor
1 4 acceptor
1 5 acceptor
1 6 donor
6 13 15 17 18 19 20 rings
6 19 20 23 24 25 26 rings
6 7 8 9 10 11 12 rings
6 7 9 13 14 15 16 rings

> <PUBCHEM_HEAVY_ATOM_COUNT>
27

> <PUBCHEM_ATOM_DEF_STEREO_COUNT>
0

> <PUBCHEM_ATOM_UDEF_STEREO_COUNT>
0

> <PUBCHEM_BOND_DEF_STEREO_COUNT>
0

> <PUBCHEM_BOND_UDEF_STEREO_COUNT>
0

> <PUBCHEM_ISOTOPIC_ATOM_COUNT>
0

> <PUBCHEM_COMPONENT_COUNT>
1

> <PUBCHEM_CACTVS_TAUTO_COUNT>
24

> <PUBCHEM_CONFORMER_ID>
00A663FF00000001

> <PUBCHEM_MMFF94_ENERGY>
87.8153

> <PUBCHEM_FEATURE_SELFOVERLAP>
45.737

> <PUBCHEM_SHAPE_FINGERPRINT>
10 15 18264202690148723752
10411042 1 17187287864126917759
10675989 125 17399787208236713013
1100329 8 17042892283267952904
11578080 2 16951668213189056967
11595378 159 17385990780653222969
12107183 9 18049440349044860938
12403259 226 18124875913655060337
12403259 415 18411696603862003001
13140716 1 18338519638230534330
13402501 40 18410293623004072645
13944108 23 16819941016597519725
14251751 93 18409164441652350499
14341114 176 18337398231096431393
14790565 3 18339368560444995160
15196674 1 18412265051726614266
1601671 61 18410576171828050392
17349148 13 17632864126485020200
17844677 252 18410301328064528016
1813 80 17168142373189253324
19591789 44 18411983593697813610
20715895 44 18264763260099542332
21033648 144 18058159716702909116
21033648 29 18340756126406935097
21236236 1 18411136952717271349
21267235 1 18341061782545069154
21279426 13 18340208484254409662
21315764 268 18410009978794661869
21421861 104 17969214530843631034
22182313 1 18341342131755006431
22393880 68 18336263457465596582
23227448 37 18342738567425532567
23559900 14 18271247093607398646
3004659 81 18334861615496744654
335352 9 18413392047066525438
338550 245 18263931093269401636
350125 39 18339365274689310905
3545911 37 18341054098347117984
3680242 22 18336546006891149978
4073 2 18114750455272263514
4214541 1 18411139155687640009
508706 21 18261383451908378741
5104073 3 18410292514928696586
5283173 99 18334854991760843140
59755656 215 18411139156072521471
9709674 26 18266182905651860802

> <PUBCHEM_SHAPE_MULTIPOLES>
520.43
12.26
3.37
0.85
3.21
0.17
-0.16
3.52
0.03
-1.77
-0.57
-0.81
0.4
1.62

> <PUBCHEM_SHAPE_SELFOVERLAP>
1173.11

> <PUBCHEM_SHAPE_VOLUME>
271.7

> <PUBCHEM_COORDINATE_TYPE>
2
5
10

$$$$
