REMARK  Name = 10915390
REMARK  7 active torsions:
REMARK  status: ('A' for Active; 'I' for Inactive)
REMARK    1  A    between atoms: C_1  and  S_11
REMARK    2  A    between atoms: C_3  and  S_7
REMARK    3  A    between atoms: C_5  and  N_21
REMARK    4  A    between atoms: S_11  and  C_14
REMARK    5  A    between atoms: C_14  and  C_15
REMARK    6  A    between atoms: C_15  and  O_16
REMARK    7  A    between atoms: O_16  and  S_17
REMARK                            x       y       z     vdW  Elec       q    Type
REMARK                         _______ _______ _______ _____ _____    ______ ____
ROOT
ATOM      1  C   UNL     1       0.707  -0.508   0.296  0.00  0.00    +0.107 C 
ATOM      2  C   UNL     1       1.750   0.418   0.277  0.00  0.00    +0.038 C 
ATOM      3  C   UNL     1       3.055  -0.007   0.030  0.00  0.00    +0.126 C 
ATOM      4  C   UNL     1       0.969  -1.859   0.066  0.00  0.00    +0.020 C 
ATOM      5  C   UNL     1       3.317  -1.358  -0.200  0.00  0.00    +0.059 C 
ATOM      6  C   UNL     1       2.274  -2.284  -0.181  0.00  0.00    +0.017 C 
ENDROOT
BRANCH   3   7
ATOM      7  S   UNL     1       4.337   1.186   0.015  0.00  0.00    +0.043 S 
ATOM      8  O   UNL     1       4.799   1.293  -1.548  0.00  0.00    -0.065 OA
ATOM      9  O   UNL     1       3.756   2.468   0.378  0.00  0.00    -0.065 OA
ATOM     10  O   UNL     1       5.440   0.625   0.777  0.00  0.00    -0.065 OA
ENDBRANCH   3   7
BRANCH   1  11
ATOM     11  S   UNL     1      -0.927   0.023   0.606  0.00  0.00    +0.011 S 
ATOM     12  O   UNL     1      -1.672  -1.108   1.142  0.00  0.00    -0.169 OA
ATOM     13  O   UNL     1      -0.884   1.276   1.348  0.00  0.00    -0.169 OA
BRANCH  11  14
ATOM     14  C   UNL     1      -1.584   0.397  -1.004  0.00  0.00    +0.191 C 
BRANCH  14  15
ATOM     15  C   UNL     1      -3.019   0.881  -0.926  0.00  0.00    +0.203 C 
BRANCH  15  16
ATOM     16  O   UNL     1      -3.851  -0.121  -0.356  0.00  0.00    -0.198 OA
BRANCH  16  17
ATOM     17  S   UNL     1      -5.449   0.163  -0.165  0.00  0.00    +0.239 S 
ATOM     18  O   UNL     1      -5.974  -1.141   0.662  0.00  0.00    -0.116 OA
ATOM     19  O   UNL     1      -5.586   1.317   0.705  0.00  0.00    -0.022 OA
ATOM     20  O   UNL     1      -6.088   0.153  -1.468  0.00  0.00    -0.116 OA
ENDBRANCH  16  17
ENDBRANCH  15  16
ENDBRANCH  14  15
ENDBRANCH  11  14
ENDBRANCH   1  11
BRANCH   5  21
ATOM     21  N   UNL     1       4.630  -1.813  -0.453  0.00  0.00    -0.356 N 
ATOM     22  H   UNL     1       5.378  -1.173  -0.469  0.00  0.00    +0.142 HD
ATOM     23  H   UNL     1       4.797  -2.770  -0.612  0.00  0.00    +0.142 HD
ENDBRANCH   5  21
TORSDOF 7
