REMARK  Name = 10911854
REMARK  4 active torsions:
REMARK  status: ('A' for Active; 'I' for Inactive)
REMARK    1  A    between atoms: C_1  and  S_7
REMARK    2  A    between atoms: C_2  and  N_15
REMARK    3  A    between atoms: C_5  and  N_18
REMARK    4  A    between atoms: S_7  and  N_10
REMARK                            x       y       z     vdW  Elec       q    Type
REMARK                         _______ _______ _______ _____ _____    ______ ____
ROOT
ATOM      1  C   UNL     1       0.760   0.623   0.059  0.00  0.00    +0.144 C 
ATOM      2  C   UNL     1       0.238  -0.670   0.024  0.00  0.00    +0.163 C 
ATOM      3  C   UNL     1      -0.099   1.722   0.067  0.00  0.00    +0.023 C 
ATOM      4  C   UNL     1      -1.143  -0.864  -0.002  0.00  0.00    +0.050 C 
ATOM      5  C   UNL     1      -2.002   0.235   0.006  0.00  0.00    +0.145 C 
ATOM      6  C   UNL     1      -1.480   1.528   0.040  0.00  0.00    +0.026 C 
ENDROOT
BRANCH   1   7
ATOM      7  S   UNL     1       2.487   0.916   0.095  0.00  0.00    +0.059 S 
ATOM      8  O   UNL     1       2.713   2.222   0.693  0.00  0.00    -0.153 OA
ATOM      9  O   UNL     1       3.138  -0.261   0.647  0.00  0.00    -0.153 OA
BRANCH   7  10
ATOM     10  N   UNL     1       2.831   1.004  -1.576  0.00  0.00    -0.203 NA
ATOM     11  H   UNL     1       3.827   1.175  -1.709  0.00  0.00    +0.144 HD
ATOM     12  H   UNL     1       2.296   1.765  -1.993  0.00  0.00    +0.144 HD
ENDBRANCH   7  10
ENDBRANCH   1   7
BRANCH   2  15
ATOM     13  O   UNL     1       1.467  -2.273  -1.087  0.00  0.00    -0.126 OA
ATOM     14  O   UNL     1       1.433  -2.318   1.107  0.00  0.00    -0.126 OA
ATOM     15  N   UNL     1       1.088  -1.811   0.014  0.00  0.00    +0.059 N 
ENDBRANCH   2  15
BRANCH   5  18
ATOM     16  O   UNL     1      -4.163   1.042  -0.013  0.00  0.00    -0.126 OA
ATOM     17  O   UNL     1      -3.858  -1.132  -0.052  0.00  0.00    -0.126 OA
ATOM     18  N   UNL     1      -3.408   0.039  -0.021  0.00  0.00    +0.058 N 
ENDBRANCH   5  18
TORSDOF 4
