10911854
  -OEChem-03292013303D

 21 21  0     0  0  0  0  0  0999 V2000
    2.4871    0.9158    0.0946 S   0  0  0  0  0  0  0  0  0  0  0  0
    2.7130    2.2216    0.6933 O   0  0  0  0  0  0  0  0  0  0  0  0
    3.1381   -0.2613    0.6474 O   0  0  0  0  0  0  0  0  0  0  0  0
    1.4667   -2.2734   -1.0875 O   0  5  0  0  0  0  0  0  0  0  0  0
    1.4330   -2.3185    1.1071 O   0  0  0  0  0  0  0  0  0  0  0  0
   -4.1627    1.0415   -0.0133 O   0  5  0  0  0  0  0  0  0  0  0  0
   -3.8582   -1.1322   -0.0524 O   0  0  0  0  0  0  0  0  0  0  0  0
    1.0878   -1.8106    0.0142 N   0  3  0  0  0  0  0  0  0  0  0  0
    2.8307    1.0038   -1.5757 N   0  0  0  0  0  0  0  0  0  0  0  0
   -3.4082    0.0388   -0.0212 N   0  3  0  0  0  0  0  0  0  0  0  0
    0.7598    0.6230    0.0588 C   0  0  0  0  0  0  0  0  0  0  0  0
    0.2376   -0.6701    0.0244 C   0  0  0  0  0  0  0  0  0  0  0  0
   -0.0989    1.7221    0.0667 C   0  0  0  0  0  0  0  0  0  0  0  0
   -1.1435   -0.8640   -0.0022 C   0  0  0  0  0  0  0  0  0  0  0  0
   -2.0023    0.2352    0.0056 C   0  0  0  0  0  0  0  0  0  0  0  0
   -1.4799    1.5282    0.0400 C   0  0  0  0  0  0  0  0  0  0  0  0
    0.2817    2.7394    0.0851 H   0  0  0  0  0  0  0  0  0  0  0  0
   -1.5306   -1.8808   -0.0290 H   0  0  0  0  0  0  0  0  0  0  0  0
   -2.1186    2.4079    0.0453 H   0  0  0  0  0  0  0  0  0  0  0  0
    3.0668    1.9240   -1.9667 H   0  0  0  0  0  0  0  0  0  0  0  0
    3.3539    0.2265   -1.9968 H   0  0  0  0  0  0  0  0  0  0  0  0
  1  2  2  0  0  0  0
  1  3  2  0  0  0  0
  1  9  1  0  0  0  0
  1 11  1  0  0  0  0
  4  8  1  0  0  0  0
  5  8  2  0  0  0  0
  6 10  1  0  0  0  0
  7 10  2  0  0  0  0
  8 12  1  0  0  0  0
  9 20  1  0  0  0  0
  9 21  1  0  0  0  0
 10 15  1  0  0  0  0
 11 12  2  0  0  0  0
 11 13  1  0  0  0  0
 12 14  1  0  0  0  0
 13 16  2  0  0  0  0
 13 17  1  0  0  0  0
 14 15  2  0  0  0  0
 14 18  1  0  0  0  0
 15 16  1  0  0  0  0
 16 19  1  0  0  0  0
M  CHG  4   4  -1   6  -1   8   1  10   1
M  END
> <PUBCHEM_COMPOUND_CID>
10911854

> <PUBCHEM_CONFORMER_RMSD>
0.6

> <PUBCHEM_CONFORMER_DIVERSEORDER>
1
2
3
4

> <PUBCHEM_MMFF94_PARTIAL_CHARGES>
21
1 1.45
10 0.91
11 -0.01
12 0.13
13 -0.15
14 -0.15
15 0.13
16 -0.15
17 0.15
18 0.15
19 0.15
2 -0.65
20 0.42
21 0.42
3 -0.65
4 -0.52
5 -0.52
6 -0.52
7 -0.52
8 0.91
9 -0.98

> <PUBCHEM_EFFECTIVE_ROTOR_COUNT>
3

> <PUBCHEM_PHARMACOPHORE_FEATURES>
10
1 2 acceptor
1 3 acceptor
1 4 acceptor
1 4 anion
1 5 acceptor
1 6 acceptor
1 6 anion
1 7 acceptor
1 9 donor
6 11 12 13 14 15 16 rings

> <PUBCHEM_HEAVY_ATOM_COUNT>
16

> <PUBCHEM_ATOM_DEF_STEREO_COUNT>
0

> <PUBCHEM_ATOM_UDEF_STEREO_COUNT>
0

> <PUBCHEM_BOND_DEF_STEREO_COUNT>
0

> <PUBCHEM_BOND_UDEF_STEREO_COUNT>
0

> <PUBCHEM_ISOTOPIC_ATOM_COUNT>
0

> <PUBCHEM_COMPONENT_COUNT>
1

> <PUBCHEM_CACTVS_TAUTO_COUNT>
1

> <PUBCHEM_CONFORMER_ID>
00A6806E00000001

> <PUBCHEM_MMFF94_ENERGY>
36.1923

> <PUBCHEM_FEATURE_SELFOVERLAP>
50.936

> <PUBCHEM_SHAPE_FINGERPRINT>
10608611 8 18337384955432134197
10967382 1 18339077210863554977
10980938 120 18411982455594582263
11132069 177 18340197574515322729
11471102 20 18411411796085421309
13140716 1 18122626317033322393
13380535 21 18411149017359540059
13380535 76 18409445925055751147
14251717 144 18411974771882408471
14325111 11 18339358668787217849
14817 1 12567052619023131574
15536298 74 18272088245096685038
15775835 57 18339641247744473488
161256 15 18339364041595853588
16945 1 18272662245990474464
17990270 104 18197778786868165090
18186145 218 18129953376315656737
193761 8 18051130298248154729
20559304 39 18339357461985557016
20645476 183 17679031640788674764
20645477 70 18340763746422294335
21501502 16 18266461997106150041
21524375 3 18338515352190354032
21650355 55 17181067952554712962
2334 1 17834957855637104409
23402539 116 18129653231596145364
23463225 33 18334851714716315336
23552423 10 18189904114733717859
2748010 2 17978512266949615793
3071541 250 18126014766777235166
449060 62 18410014329580617561
53812653 166 18342734152325687745
57177213 63 18260839176103527532
633830 44 18201443618185396197
7364860 26 18271525282501058958
81228 2 17401474344066415210
81539 233 18261108590685301622

> <PUBCHEM_SHAPE_MULTIPOLES>
282.96
5.63
2.3
0.88
4.28
0.72
-0.17
-1.08
-0.13
-1.18
0.14
-0.71
0.1
-0.05

> <PUBCHEM_SHAPE_SELFOVERLAP>
586.392

> <PUBCHEM_SHAPE_VOLUME>
162.8

> <PUBCHEM_COORDINATE_TYPE>
2
5
10

$$$$
