REMARK  Name = 10914547
REMARK  8 active torsions:
REMARK  status: ('A' for Active; 'I' for Inactive)
REMARK    1  A    between atoms: C_4  and  O_15
REMARK    2  A    between atoms: C_4  and  C_23
REMARK    3  A    between atoms: C_10  and  C_20
REMARK    4  A    between atoms: C_12  and  O_17
REMARK    5  A    between atoms: C_13  and  C_26
REMARK    6  A    between atoms: C_20  and  O_21
REMARK    7  A    between atoms: C_23  and  O_24
REMARK    8  A    between atoms: C_26  and  O_27
REMARK                            x       y       z     vdW  Elec       q    Type
REMARK                         _______ _______ _______ _____ _____    ______ ____
ROOT
ATOM      1  O   UNL     1      -0.212  -0.860   0.130  0.00  0.00    -0.335 OA
ATOM      2  O   UNL     1      -1.557   0.454  -1.316  0.00  0.00    -0.332 OA
ATOM      3  C   UNL     1       1.321   0.736  -0.758  0.00  0.00    +0.059 C 
ATOM      4  C   UNL     1       0.209   1.468   0.003  0.00  0.00    +0.164 C 
ATOM      5  C   UNL     1      -0.909   0.396  -0.034  0.00  0.00    +0.214 C 
ATOM      6  C   UNL     1       1.166  -0.701  -0.260  0.00  0.00    +0.121 C 
ATOM      7  C   UNL     1       2.744   1.291  -0.686  0.00  0.00    +0.006 C 
ATOM      8  C   UNL     1       2.029  -1.087   0.943  0.00  0.00    +0.041 C 
ATOM      9  C   UNL     1      -1.948   0.555   1.092  0.00  0.00    +0.088 C 
ATOM     10  C   UNL     1       3.471  -0.609   0.848  0.00  0.00    +0.101 C 
ATOM     11  C   UNL     1       3.551   0.884   0.544  0.00  0.00    +0.011 C 
ATOM     12  C   UNL     1      -3.122  -0.418   0.949  0.00  0.00    +0.120 C 
ATOM     13  C   UNL     1      -3.688  -0.379  -0.477  0.00  0.00    +0.086 C 
ATOM     14  C   UNL     1      -2.567  -0.534  -1.506  0.00  0.00    +0.150 C 
ENDROOT
BRANCH   4  15
ATOM     15  O   UNL     1       0.597   1.706   1.354  0.00  0.00    -0.379 OA
ATOM     16  H   UNL     1       0.846   0.867   1.772  0.00  0.00    +0.211 HD
ENDBRANCH   4  15
BRANCH  12  17
ATOM     17  O   UNL     1      -2.709  -1.734   1.308  0.00  0.00    -0.384 OA
ATOM     18  H   UNL     1      -2.357  -1.728   2.212  0.00  0.00    +0.210 HD
ENDBRANCH  12  17
BRANCH  10  20
ATOM     19  O   UNL     1       3.781  -2.286  -0.868  0.00  0.00    -0.250 OA
ATOM     20  C   UNL     1       4.245  -1.399  -0.167  0.00  0.00    +0.313 C 
BRANCH  20  21
ATOM     21  O   UNL     1       5.539  -0.996  -0.201  0.00  0.00    -0.480 OA
ATOM     22  H   UNL     1       5.831  -0.309   0.364  0.00  0.00    +0.295 HD
ENDBRANCH  20  21
ENDBRANCH  10  20
BRANCH   4  23
ATOM     23  C   UNL     1      -0.176   2.807  -0.627  0.00  0.00    +0.169 C 
BRANCH  23  24
ATOM     24  O   UNL     1      -1.210   3.384   0.147  0.00  0.00    -0.379 OA
ATOM     25  H   UNL     1      -1.467   4.236  -0.239  0.00  0.00    +0.211 HD
ENDBRANCH  23  24
ENDBRANCH   4  23
BRANCH  13  26
ATOM     26  C   UNL     1      -4.774  -1.429  -0.699  0.00  0.00    +0.142 C 
BRANCH  26  27
ATOM     27  O   UNL     1      -5.779  -1.250   0.281  0.00  0.00    -0.382 OA
ATOM     28  H   UNL     1      -6.477  -1.911   0.153  0.00  0.00    +0.210 HD
ENDBRANCH  26  27
ENDBRANCH  13  26
TORSDOF 8
