REMARK  Name = 10916629
REMARK  6 active torsions:
REMARK  status: ('A' for Active; 'I' for Inactive)
REMARK    1  A    between atoms: C_5  and  O_22
REMARK    2  A    between atoms: C_15  and  O_24
REMARK    3  A    between atoms: C_18  and  O_26
REMARK    4  A    between atoms: C_19  and  C_30
REMARK    5  A    between atoms: C_21  and  O_28
REMARK    6  A    between atoms: C_30  and  C_31
REMARK                            x       y       z     vdW  Elec       q    Type
REMARK                         _______ _______ _______ _____ _____    ______ ____
ROOT
ATOM      1  O   UNL     1      -4.993  -0.053   0.284  0.00  0.00    -0.480 OA
ATOM      2  O   UNL     1      -0.001  -2.408   0.170  0.00  0.00    -0.450 OA
ATOM      3  O   UNL     1       0.004   1.641  -0.322  0.00  0.00    -0.286 OA
ATOM      4  C   UNL     1      -5.175   1.368   0.395  0.00  0.00    +0.158 C 
ATOM      5  C   UNL     1      -4.234   2.121  -0.557  0.00  0.00    +0.151 C 
ATOM      6  C   UNL     1      -2.771   1.751  -0.324  0.00  0.00    +0.062 C 
ATOM      7  C   UNL     1      -2.579   0.280  -0.050  0.00  0.00    +0.021 C 
ATOM      8  C   UNL     1      -3.705  -0.520   0.220  0.00  0.00    +0.138 C 
ATOM      9  C   UNL     1      -6.642   1.629   0.018  0.00  0.00    +0.046 C 
ATOM     10  C   UNL     1      -4.975   1.786   1.862  0.00  0.00    +0.046 C 
ATOM     11  C   UNL     1      -1.303  -0.333  -0.042  0.00  0.00    +0.076 A 
ATOM     12  C   UNL     1      -1.187  -1.714   0.167  0.00  0.00    +0.182 A 
ATOM     13  C   UNL     1      -3.577  -1.896   0.426  0.00  0.00    +0.076 C 
ATOM     14  C   UNL     1      -0.038   0.423  -0.233  0.00  0.00    +0.204 A 
ATOM     15  C   UNL     1      -2.322  -2.491   0.396  0.00  0.00    +0.171 C 
ATOM     16  C   UNL     1       1.211  -0.352  -0.294  0.00  0.00    +0.107 A 
ATOM     17  C   UNL     1       1.157  -1.726  -0.089  0.00  0.00    +0.154 A 
ATOM     18  C   UNL     1       2.434   0.277  -0.546  0.00  0.00    +0.139 C 
ATOM     19  C   UNL     1       3.605  -0.481  -0.592  0.00  0.00    +0.050 C 
ATOM     20  C   UNL     1       2.331  -2.482  -0.134  0.00  0.00    +0.074 C 
ATOM     21  C   UNL     1       3.553  -1.859  -0.386  0.00  0.00    +0.136 C 
ENDROOT
BRANCH   5  22
ATOM     22  O   UNL     1      -4.564   1.841  -1.921  0.00  0.00    -0.381 OA
ATOM     23  H   UNL     1      -5.492   2.072  -2.084  0.00  0.00    +0.211 HD
ENDBRANCH   5  22
BRANCH  15  24
ATOM     24  O   UNL     1      -2.222  -3.835   0.600  0.00  0.00    -0.503 OA
ATOM     25  H   UNL     1      -1.383  -4.251   0.582  0.00  0.00    +0.292 HD
ENDBRANCH  15  24
BRANCH  18  26
ATOM     26  O   UNL     1       2.525   1.622  -0.756  0.00  0.00    -0.506 OA
ATOM     27  H   UNL     1       1.754   2.153  -0.730  0.00  0.00    +0.292 HD
ENDBRANCH  18  26
BRANCH  21  28
ATOM     28  O   UNL     1       4.687  -2.614  -0.427  0.00  0.00    -0.506 OA
ATOM     29  H   UNL     1       5.514  -2.208  -0.595  0.00  0.00    +0.292 HD
ENDBRANCH  21  28
BRANCH  19  30
ATOM     30  C   UNL     1       4.919   0.180  -0.863  0.00  0.00    +0.058 C 
BRANCH  30  31
ATOM     31  C   UNL     1       5.614   0.635   0.394  0.00  0.00    -0.030 C 
ATOM     32  C   UNL     1       5.953   1.890   0.748  0.00  0.00    -0.048 C 
ATOM     33  C   UNL     1       6.648   2.274   2.023  0.00  0.00    +0.026 C 
ATOM     34  C   UNL     1       5.648   3.047  -0.166  0.00  0.00    +0.026 C 
ENDBRANCH  30  31
ENDBRANCH  19  30
TORSDOF 6
