10915390
  -OEChem-03292013303D

 32 32  0     0  0  0  0  0  0999 V2000
   -0.9274    0.0227    0.6063 S   0  0  0  0  0  0  0  0  0  0  0  0
    4.3372    1.1858    0.0149 S   0  0  0  0  0  0  0  0  0  0  0  0
   -5.4488    0.1634   -0.1653 S   0  0  0  0  0  0  0  0  0  0  0  0
   -1.6722   -1.1079    1.1416 O   0  0  0  0  0  0  0  0  0  0  0  0
   -0.8836    1.2757    1.3479 O   0  0  0  0  0  0  0  0  0  0  0  0
   -3.8509   -0.1215   -0.3561 O   0  0  0  0  0  0  0  0  0  0  0  0
    4.7988    1.2932   -1.5485 O   0  0  0  0  0  0  0  0  0  0  0  0
    3.7555    2.4681    0.3779 O   0  0  0  0  0  0  0  0  0  0  0  0
    5.4400    0.6249    0.7769 O   0  0  0  0  0  0  0  0  0  0  0  0
   -5.9741   -1.1409    0.6617 O   0  0  0  0  0  0  0  0  0  0  0  0
   -5.5860    1.3168    0.7047 O   0  0  0  0  0  0  0  0  0  0  0  0
   -6.0880    0.1529   -1.4679 O   0  0  0  0  0  0  0  0  0  0  0  0
    4.6302   -1.8127   -0.4525 N   0  0  0  0  0  0  0  0  0  0  0  0
   -1.5838    0.3965   -1.0039 C   0  0  0  0  0  0  0  0  0  0  0  0
    0.7066   -0.5082    0.2957 C   0  0  0  0  0  0  0  0  0  0  0  0
    1.7497    0.4179    0.2773 C   0  0  0  0  0  0  0  0  0  0  0  0
    3.0551   -0.0070    0.0297 C   0  0  0  0  0  0  0  0  0  0  0  0
   -3.0186    0.8808   -0.9260 C   0  0  0  0  0  0  0  0  0  0  0  0
    0.9689   -1.8589    0.0664 C   0  0  0  0  0  0  0  0  0  0  0  0
    3.3172   -1.3578   -0.1996 C   0  0  0  0  0  0  0  0  0  0  0  0
    2.2742   -2.2837   -0.1813 C   0  0  0  0  0  0  0  0  0  0  0  0
   -0.9454    1.1590   -1.4594 H   0  0  0  0  0  0  0  0  0  0  0  0
   -1.5260   -0.5276   -1.5882 H   0  0  0  0  0  0  0  0  0  0  0  0
    1.5312    1.4678    0.4475 H   0  0  0  0  0  0  0  0  0  0  0  0
   -3.0827    1.7883   -0.3159 H   0  0  0  0  0  0  0  0  0  0  0  0
   -3.3826    1.1145   -1.9322 H   0  0  0  0  0  0  0  0  0  0  0  0
    0.1712   -2.5962    0.0689 H   0  0  0  0  0  0  0  0  0  0  0  0
    2.4641   -3.3391   -0.3600 H   0  0  0  0  0  0  0  0  0  0  0  0
    5.4075   -1.1685   -0.4893 H   0  0  0  0  0  0  0  0  0  0  0  0
    4.7949   -2.7971   -0.6183 H   0  0  0  0  0  0  0  0  0  0  0  0
    4.1014    1.5980   -2.1755 H   0  0  0  0  0  0  0  0  0  0  0  0
   -5.6739   -2.0118    0.3102 H   0  0  0  0  0  0  0  0  0  0  0  0
  1  4  2  0  0  0  0
  1  5  2  0  0  0  0
  1 14  1  0  0  0  0
  1 15  1  0  0  0  0
  2  7  1  0  0  0  0
  2  8  2  0  0  0  0
  2  9  2  0  0  0  0
  2 17  1  0  0  0  0
  3  6  1  0  0  0  0
  3 10  1  0  0  0  0
  3 11  2  0  0  0  0
  3 12  2  0  0  0  0
  6 18  1  0  0  0  0
  7 31  1  0  0  0  0
 10 32  1  0  0  0  0
 13 20  1  0  0  0  0
 13 29  1  0  0  0  0
 13 30  1  0  0  0  0
 14 18  1  0  0  0  0
 14 22  1  0  0  0  0
 14 23  1  0  0  0  0
 15 16  2  0  0  0  0
 15 19  1  0  0  0  0
 16 17  1  0  0  0  0
 16 24  1  0  0  0  0
 17 20  2  0  0  0  0
 18 25  1  0  0  0  0
 18 26  1  0  0  0  0
 19 21  2  0  0  0  0
 19 27  1  0  0  0  0
 20 21  1  0  0  0  0
 21 28  1  0  0  0  0
M  END
> <PUBCHEM_COMPOUND_CID>
10915390

> <PUBCHEM_CONFORMER_RMSD>
0.8

> <PUBCHEM_CONFORMER_DIVERSEORDER>
2
6
5
21
16
25
10
22
1
34
12
13
23
17
28
26
29
14
19
31
4
18
11
3
30
32
8
33
20
7
15
9
24
27

> <PUBCHEM_MMFF94_PARTIAL_CHARGES>
28
1 1.2
10 -0.68
11 -0.65
12 -0.65
13 -0.9
14 0.11
15 -0.01
16 -0.15
17 -0.01
18 0.28
19 -0.15
2 1.49
20 0.1
21 -0.15
24 0.15
27 0.15
28 0.15
29 0.4
3 1.67
30 0.4
31 0.5
32 0.5
4 -0.65
5 -0.65
6 -0.46
7 -0.68
8 -0.65
9 -0.65

> <PUBCHEM_EFFECTIVE_ROTOR_COUNT>
6

> <PUBCHEM_PHARMACOPHORE_FEATURES>
13
1 10 acceptor
1 11 acceptor
1 12 acceptor
1 13 cation
1 13 donor
1 4 acceptor
1 5 acceptor
1 7 acceptor
1 8 acceptor
1 9 acceptor
4 2 7 8 9 anion
4 3 10 11 12 anion
6 15 16 17 19 20 21 rings

> <PUBCHEM_HEAVY_ATOM_COUNT>
21

> <PUBCHEM_ATOM_DEF_STEREO_COUNT>
0

> <PUBCHEM_ATOM_UDEF_STEREO_COUNT>
0

> <PUBCHEM_BOND_DEF_STEREO_COUNT>
0

> <PUBCHEM_BOND_UDEF_STEREO_COUNT>
0

> <PUBCHEM_ISOTOPIC_ATOM_COUNT>
0

> <PUBCHEM_COMPONENT_COUNT>
1

> <PUBCHEM_CACTVS_TAUTO_COUNT>
1

> <PUBCHEM_CONFORMER_ID>
00A68E3E00000002

> <PUBCHEM_MMFF94_ENERGY>
32.475

> <PUBCHEM_FEATURE_SELFOVERLAP>
66.109

> <PUBCHEM_SHAPE_FINGERPRINT>
11287383 113 18259703402293529739
12236239 1 17561080285046133379
12403259 415 17822570512651091965
12616971 3 18201708531662543174
12730499 353 18408890654582937354
12788726 201 17060346184582669091
13533116 47 18201999889886457154
14170010 4 18412821370804496378
14528608 73 18343584053301945357
15961568 22 17240770609520187148
17834072 33 18202281403343436391
17844677 252 18340492171160681773
1813 80 15051725396072191649
200 152 18202563943335107451
20645477 56 17968094239599346431
20645477 70 18343022142989488358
23402539 116 17167855387943581151
23402655 69 18343863320570734615
23557571 272 17313383370861444741
23559900 14 18409166597889918226
23622692 88 12035447242301330424
239999 70 18340770351670967550
312423 11 17916598518207994762
3545911 37 18409730673182253846
42630746 31 18413102858196604102
4325135 7 18409727391806316375
4340502 62 18408601482966835954
5104073 3 18261392192214227753
5281201 14 18337670793789305652
7164475 11 17773601516283161752

> <PUBCHEM_SHAPE_MULTIPOLES>
385.91
14
1.98
1.09
14.72
0.29
-0.13
-2.7
-1.71
-2.44
0.06
0.47
-0.24
0.33

> <PUBCHEM_SHAPE_SELFOVERLAP>
760.763

> <PUBCHEM_SHAPE_VOLUME>
229.8

> <PUBCHEM_COORDINATE_TYPE>
2
5
10

$$$$
