10914547
  -OEChem-03292013303D

 47 49  0     1  0  0  0  0  0999 V2000
   -0.2119   -0.8597    0.1297 O   0  0  0  0  0  0  0  0  0  0  0  0
   -1.5570    0.4541   -1.3164 O   0  0  0  0  0  0  0  0  0  0  0  0
    0.5971    1.7064    1.3544 O   0  0  0  0  0  0  0  0  0  0  0  0
   -1.2105    3.3838    0.1470 O   0  0  0  0  0  0  0  0  0  0  0  0
   -2.7090   -1.7344    1.3079 O   0  0  0  0  0  0  0  0  0  0  0  0
    5.5387   -0.9964   -0.2013 O   0  0  0  0  0  0  0  0  0  0  0  0
   -5.7793   -1.2500    0.2814 O   0  0  0  0  0  0  0  0  0  0  0  0
    3.7813   -2.2862   -0.8676 O   0  0  0  0  0  0  0  0  0  0  0  0
    1.3212    0.7361   -0.7576 C   0  0  2  0  0  0  0  0  0  0  0  0
    0.2091    1.4684    0.0026 C   0  0  1  0  0  0  0  0  0  0  0  0
   -0.9095    0.3960   -0.0340 C   0  0  2  0  0  0  0  0  0  0  0  0
    1.1660   -0.7012   -0.2604 C   0  0  1  0  0  0  0  0  0  0  0  0
    2.7437    1.2913   -0.6860 C   0  0  0  0  0  0  0  0  0  0  0  0
    2.0285   -1.0868    0.9428 C   0  0  0  0  0  0  0  0  0  0  0  0
   -1.9475    0.5552    1.0918 C   0  0  0  0  0  0  0  0  0  0  0  0
    3.4710   -0.6092    0.8480 C   0  0  2  0  0  0  0  0  0  0  0  0
    3.5508    0.8837    0.5445 C   0  0  0  0  0  0  0  0  0  0  0  0
   -0.1759    2.8074   -0.6267 C   0  0  0  0  0  0  0  0  0  0  0  0
   -3.1224   -0.4178    0.9492 C   0  0  1  0  0  0  0  0  0  0  0  0
   -3.6881   -0.3786   -0.4774 C   0  0  1  0  0  0  0  0  0  0  0  0
   -2.5674   -0.5343   -1.5063 C   0  0  0  0  0  0  0  0  0  0  0  0
    4.2449   -1.3991   -0.1666 C   0  0  0  0  0  0  0  0  0  0  0  0
   -4.7740   -1.4288   -0.6990 C   0  0  0  0  0  0  0  0  0  0  0  0
    1.0366    0.7467   -1.8209 H   0  0  0  0  0  0  0  0  0  0  0  0
    1.3549   -1.3983   -1.0842 H   0  0  0  0  0  0  0  0  0  0  0  0
    2.7352    2.3835   -0.7724 H   0  0  0  0  0  0  0  0  0  0  0  0
    3.2859    0.9293   -1.5700 H   0  0  0  0  0  0  0  0  0  0  0  0
    1.9832   -2.1755    1.0783 H   0  0  0  0  0  0  0  0  0  0  0  0
    1.5810   -0.6778    1.8586 H   0  0  0  0  0  0  0  0  0  0  0  0
   -2.3742    1.5614    1.0791 H   0  0  0  0  0  0  0  0  0  0  0  0
   -1.4707    0.3949    2.0661 H   0  0  0  0  0  0  0  0  0  0  0  0
    3.9509   -0.8060    1.8159 H   0  0  0  0  0  0  0  0  0  0  0  0
    4.5890    1.2101    0.4104 H   0  0  0  0  0  0  0  0  0  0  0  0
    3.1829    1.4361    1.4166 H   0  0  0  0  0  0  0  0  0  0  0  0
   -0.5198    2.7074   -1.6602 H   0  0  0  0  0  0  0  0  0  0  0  0
    0.6643    3.5093   -0.6198 H   0  0  0  0  0  0  0  0  0  0  0  0
   -3.9025   -0.1305    1.6642 H   0  0  0  0  0  0  0  0  0  0  0  0
   -4.1320    0.6189   -0.6056 H   0  0  0  0  0  0  0  0  0  0  0  0
   -2.1155   -1.5326   -1.4708 H   0  0  0  0  0  0  0  0  0  0  0  0
   -2.9665   -0.3981   -2.5172 H   0  0  0  0  0  0  0  0  0  0  0  0
    1.2258    2.4476    1.3634 H   0  0  0  0  0  0  0  0  0  0  0  0
   -4.3778   -2.4463   -0.6170 H   0  0  0  0  0  0  0  0  0  0  0  0
   -5.2269   -1.3115   -1.6890 H   0  0  0  0  0  0  0  0  0  0  0  0
   -0.8683    3.5130    1.0481 H   0  0  0  0  0  0  0  0  0  0  0  0
   -2.3782   -1.7007    2.2215 H   0  0  0  0  0  0  0  0  0  0  0  0
    6.0620   -1.5014   -0.8597 H   0  0  0  0  0  0  0  0  0  0  0  0
   -6.4618   -1.9231    0.1184 H   0  0  0  0  0  0  0  0  0  0  0  0
  1 11  1  0  0  0  0
  1 12  1  0  0  0  0
  2 11  1  0  0  0  0
  2 21  1  0  0  0  0
  3 10  1  0  0  0  0
  3 41  1  0  0  0  0
  4 18  1  0  0  0  0
  4 44  1  0  0  0  0
  5 19  1  0  0  0  0
  5 45  1  0  0  0  0
  6 22  1  0  0  0  0
  6 46  1  0  0  0  0
  7 23  1  0  0  0  0
  7 47  1  0  0  0  0
  8 22  2  0  0  0  0
  9 10  1  0  0  0  0
  9 12  1  0  0  0  0
  9 13  1  0  0  0  0
  9 24  1  0  0  0  0
 10 11  1  0  0  0  0
 10 18  1  0  0  0  0
 11 15  1  0  0  0  0
 12 14  1  0  0  0  0
 12 25  1  0  0  0  0
 13 17  1  0  0  0  0
 13 26  1  0  0  0  0
 13 27  1  0  0  0  0
 14 16  1  0  0  0  0
 14 28  1  0  0  0  0
 14 29  1  0  0  0  0
 15 19  1  0  0  0  0
 15 30  1  0  0  0  0
 15 31  1  0  0  0  0
 16 17  1  0  0  0  0
 16 22  1  0  0  0  0
 16 32  1  0  0  0  0
 17 33  1  0  0  0  0
 17 34  1  0  0  0  0
 18 35  1  0  0  0  0
 18 36  1  0  0  0  0
 19 20  1  0  0  0  0
 19 37  1  0  0  0  0
 20 21  1  0  0  0  0
 20 23  1  0  0  0  0
 20 38  1  0  0  0  0
 21 39  1  0  0  0  0
 21 40  1  0  0  0  0
 23 42  1  0  0  0  0
 23 43  1  0  0  0  0
M  END
> <PUBCHEM_COMPOUND_CID>
10914547

> <PUBCHEM_CONFORMER_RMSD>
0.8

> <PUBCHEM_CONFORMER_DIVERSEORDER>
2
1
5
7
3
4
6

> <PUBCHEM_MMFF94_PARTIAL_CHARGES>
22
1 -0.56
10 0.28
11 0.56
12 0.28
16 0.06
18 0.28
19 0.28
2 -0.56
21 0.28
22 0.66
23 0.28
3 -0.68
4 -0.68
41 0.4
44 0.4
45 0.4
46 0.5
47 0.4
5 -0.68
6 -0.65
7 -0.68
8 -0.57

> <PUBCHEM_EFFECTIVE_ROTOR_COUNT>
5.2

> <PUBCHEM_PHARMACOPHORE_FEATURES>
16
1 1 acceptor
1 2 acceptor
1 3 acceptor
1 3 donor
1 4 acceptor
1 4 donor
1 5 acceptor
1 5 donor
1 6 acceptor
1 7 acceptor
1 7 donor
1 8 acceptor
3 6 8 22 anion
5 1 9 10 11 12 rings
6 2 11 15 19 20 21 rings
6 9 12 13 14 16 17 rings

> <PUBCHEM_HEAVY_ATOM_COUNT>
23

> <PUBCHEM_ATOM_DEF_STEREO_COUNT>
7

> <PUBCHEM_ATOM_UDEF_STEREO_COUNT>
0

> <PUBCHEM_BOND_DEF_STEREO_COUNT>
0

> <PUBCHEM_BOND_UDEF_STEREO_COUNT>
0

> <PUBCHEM_ISOTOPIC_ATOM_COUNT>
0

> <PUBCHEM_COMPONENT_COUNT>
1

> <PUBCHEM_CACTVS_TAUTO_COUNT>
1

> <PUBCHEM_CONFORMER_ID>
00A68AF300000002

> <PUBCHEM_MMFF94_ENERGY>
68.8075

> <PUBCHEM_FEATURE_SELFOVERLAP>
81.449

> <PUBCHEM_SHAPE_FINGERPRINT>
10366900 7 18333453127710558866
11543360 7 15357705188489340462
11578080 2 17702076180310111121
12236239 1 17989208183184248683
12363563 72 18408611356975226231
12403259 327 15697994171429869462
12553582 1 18339625802651959863
12596602 18 16343416310270790658
12623949 98 17703522008114934950
12788726 201 18118675526899571153
13134695 92 18340204219231033013
13140716 1 18264200486772380970
13224815 77 18341890784115402060
13533116 47 18202002157281127395
13544653 18 18408606963154889672
13583140 156 15194996081829616426
14223421 5 18341045234051830616
15848702 151 18273217473603481015
16752209 62 17822283540068723944
16945 1 18410855503621556516
17357779 13 18337095800726565172
17492 89 18268989778902822134
1813 80 18272101486560045412
18186145 218 17458345242867313768
18222031 100 18411693313848320043
193927 3 18410586071390323926
19784866 240 18411141346506089343
200 152 18333446538776896215
20645477 70 18261671570761665662
21033648 29 13398641523725909099
21267235 1 18410017636615907590
21296965 67 18410568492046898989
221490 88 17973167511068155499
22854114 59 11527951179249191039
23175994 123 18334575763442048221
23402539 116 18410570656583503839
23557571 272 18335698317237064428
23559900 14 17895192267733547457
2871803 45 18113615677456886674
31174 14 17988348360854779656
3286 77 17704067400204320944
46194498 28 17314225747350619983
465052 167 18269843167582460855
5104073 3 18128526069269390842
5283173 99 18042392561300090877
7164475 11 18408888399788768068
7970288 3 18410853248226416006
81228 2 18264214603813067337

> <PUBCHEM_SHAPE_MULTIPOLES>
426.37
9.23
2.45
1.21
1.48
1.71
-0.03
-6.81
0.48
-0.34
0.09
0.43
-0.08
0.19

> <PUBCHEM_SHAPE_SELFOVERLAP>
902.686

> <PUBCHEM_SHAPE_VOLUME>
234.9

> <PUBCHEM_COORDINATE_TYPE>
2
5
10

$$$$
