REMARK  Name = 10922291
REMARK  4 active torsions:
REMARK  status: ('A' for Active; 'I' for Inactive)
REMARK    1  A    between atoms: C3*_2  and  O3*_15
REMARK    2  A    between atoms: C4*_3  and  C5*_17
REMARK    3  A    between atoms: C1*_5  and  N_8
REMARK    4  A    between atoms: C5*_17  and  O5*_18
REMARK                            x       y       z     vdW  Elec       q    Type
REMARK                         _______ _______ _______ _____ _____    ______ ____
ROOT
ATOM      1  O4* UNL     1       1.443  -0.215  -0.980  0.00  0.00    -0.333 OA
ATOM      2  C3* UNL     1       2.806   0.757   0.699  0.00  0.00    +0.144 C 
ATOM      3  C4* UNL     1       2.671  -0.422  -0.255  0.00  0.00    +0.173 C 
ATOM      4  C2* UNL     1       1.371   1.138   0.977  0.00  0.00    +0.085 C 
ATOM      5  C1* UNL     1       0.685   0.822  -0.342  0.00  0.00    +0.219 C 
ENDROOT
BRANCH   5   8
ATOM      6  O   UNL     1      -1.629   2.481  -0.433  0.00  0.00    -0.250 OA
ATOM      7  O   UNL     1      -4.317  -1.176   0.339  0.00  0.00    -0.268 OA
ATOM      8  N   UNL     1      -0.670   0.383  -0.172  0.00  0.00    -0.139 N 
ATOM      9  N   UNL     1      -0.825  -0.961   0.050  0.00  0.00    -0.166 NA
ATOM     10  N   UNL     1      -3.008   0.708  -0.051  0.00  0.00    -0.233 N 
ATOM     11  C   UNL     1      -1.754   1.269  -0.232  0.00  0.00    +0.331 C 
ATOM     12  C   UNL     1      -2.007  -1.444   0.213  0.00  0.00    +0.176 C 
ATOM     13  C   UNL     1      -3.242  -0.623   0.174  0.00  0.00    +0.274 C 
ATOM     14  H   UNL     1      -3.787   1.309  -0.088  0.00  0.00    +0.159 HD
ENDBRANCH   5   8
BRANCH   2  15
ATOM     15  O3* UNL     1       3.472   1.835   0.046  0.00  0.00    -0.382 OA
ATOM     16  H3* UNL     1       4.393   1.587  -0.132  0.00  0.00    +0.210 HD
ENDBRANCH   2  15
BRANCH   3  17
ATOM     17  C5* UNL     1       2.569  -1.760   0.466  0.00  0.00    +0.169 C 
BRANCH  17  18
ATOM     18  O5* UNL     1       2.435  -2.791  -0.498  0.00  0.00    -0.379 OA
ATOM     19  H5* UNL     1       2.369  -3.648  -0.048  0.00  0.00    +0.211 HD
ENDBRANCH  17  18
ENDBRANCH   3  17
TORSDOF 4
