REMARK  Name = 10926539
REMARK  2 active torsions:
REMARK  status: ('A' for Active; 'I' for Inactive)
REMARK    1  A    between atoms: C_18  and  O_25
REMARK    2  A    between atoms: C_21  and  O_27
REMARK                            x       y       z     vdW  Elec       q    Type
REMARK                         _______ _______ _______ _____ _____    ______ ____
ROOT
ATOM      1  O   UNL     1      -0.535   2.582  -0.449  0.00  0.00    -0.452 OA
ATOM      2  O   UNL     1       1.447  -1.881  -1.594  0.00  0.00    -0.294 OA
ATOM      3  O   UNL     1      -0.481  -2.914   0.078  0.00  0.00    -0.288 OA
ATOM      4  O   UNL     1      -1.839   3.472  -2.051  0.00  0.00    -0.250 OA
ATOM      5  C   UNL     1      -1.168   0.557   0.878  0.00  0.00    +0.048 C 
ATOM      6  C   UNL     1       1.202  -0.544   0.446  0.00  0.00    +0.061 C 
ATOM      7  C   UNL     1      -0.327  -0.482   0.077  0.00  0.00    +0.075 C 
ATOM      8  C   UNL     1       1.788   0.916   0.391  0.00  0.00    +0.011 C 
ATOM      9  C   UNL     1      -0.501   1.943   0.850  0.00  0.00    +0.169 C 
ATOM     10  C   UNL     1       0.979   1.902   1.258  0.00  0.00    +0.044 C 
ATOM     11  C   UNL     1      -2.565   0.678   0.212  0.00  0.00    +0.036 C 
ATOM     12  C   UNL     1       3.317   0.936   0.684  0.00  0.00    +0.003 C 
ATOM     13  C   UNL     1       1.997  -1.303  -0.655  0.00  0.00    +0.177 C 
ATOM     14  C   UNL     1      -1.385   0.155   2.366  0.00  0.00    +0.004 C 
ATOM     15  C   UNL     1       1.458  -1.224   1.810  0.00  0.00    +0.008 C 
ATOM     16  C   UNL     1      -1.068  -1.832   0.073  0.00  0.00    +0.206 C 
ATOM     17  C   UNL     1       4.048   0.117  -0.395  0.00  0.00    +0.037 C 
ATOM     18  C   UNL     1       3.517  -1.303  -0.530  0.00  0.00    +0.167 C 
ATOM     19  C   UNL     1      -2.516   1.372  -1.150  0.00  0.00    +0.114 C 
ATOM     20  C   UNL     1      -3.257  -0.675   0.057  0.00  0.00    -0.007 C 
ATOM     21  C   UNL     1      -2.565  -1.833  -0.007  0.00  0.00    +0.160 C 
ATOM     22  C   UNL     1       3.914   2.347   0.714  0.00  0.00    +0.000 C 
ATOM     23  C   UNL     1      -1.638   2.586  -1.224  0.00  0.00    +0.317 C 
ATOM     24  C   UNL     1      -4.763  -0.587   0.005  0.00  0.00    +0.030 C 
ENDROOT
BRANCH  18  25
ATOM     25  O   UNL     1       4.072  -1.903  -1.690  0.00  0.00    -0.377 OA
ATOM     26  H   UNL     1       3.736  -2.808  -1.779  0.00  0.00    +0.211 HD
ENDBRANCH  18  25
BRANCH  21  27
ATOM     27  O   UNL     1      -3.132  -3.082  -0.154  0.00  0.00    -0.503 OA
ATOM     28  H   UNL     1      -2.586  -3.842  -0.190  0.00  0.00    +0.292 HD
ENDBRANCH  21  27
TORSDOF 2
