REMARK  Name = 10927054
REMARK  3 active torsions:
REMARK  status: ('A' for Active; 'I' for Inactive)
REMARK    1  A    between atoms: C_13  and  O_25
REMARK    2  A    between atoms: C_21  and  O_27
REMARK    3  A    between atoms: C_24  and  O_29
REMARK                            x       y       z     vdW  Elec       q    Type
REMARK                         _______ _______ _______ _____ _____    ______ ____
ROOT
ATOM      1  O   UNL     1      -4.514   0.429  -1.023  0.00  0.00    -0.323 OA
ATOM      2  O   UNL     1      -3.514  -1.553  -0.058  0.00  0.00    -0.459 OA
ATOM      3  O   UNL     1       1.535   2.287  -0.426  0.00  0.00    -0.286 OA
ATOM      4  O   UNL     1       1.258  -3.007   0.246  0.00  0.00    -0.287 OA
ATOM      5  C   UNL     1      -4.701  -0.750  -0.229  0.00  0.00    +0.229 C 
ATOM      6  C   UNL     1      -3.539   1.290  -0.430  0.00  0.00    +0.147 C 
ATOM      7  C   UNL     1      -5.294  -0.368   1.141  0.00  0.00    +0.070 C 
ATOM      8  C   UNL     1      -4.050   1.813   0.916  0.00  0.00    +0.035 C 
ATOM      9  C   UNL     1      -4.448   0.680   1.862  0.00  0.00    +0.009 C 
ATOM     10  C   UNL     1      -2.260   0.511  -0.313  0.00  0.00    +0.072 C 
ATOM     11  C   UNL     1      -2.325  -0.874  -0.131  0.00  0.00    +0.142 C 
ATOM     12  C   UNL     1      -5.694  -1.632  -0.987  0.00  0.00    +0.076 C 
ATOM     13  C   UNL     1      -1.014   1.144  -0.353  0.00  0.00    +0.138 C 
ATOM     14  C   UNL     1       0.161   0.392  -0.223  0.00  0.00    +0.076 C 
ATOM     15  C   UNL     1      -1.158  -1.626   0.001  0.00  0.00    +0.040 C 
ATOM     16  C   UNL     1       0.088  -0.991  -0.048  0.00  0.00    +0.048 C 
ATOM     17  C   UNL     1       1.471   1.074  -0.271  0.00  0.00    +0.202 C 
ATOM     18  C   UNL     1       1.321  -1.794   0.091  0.00  0.00    +0.196 C 
ATOM     19  C   UNL     1       2.703   0.271  -0.131  0.00  0.00    +0.076 C 
ATOM     20  C   UNL     1       2.630  -1.112   0.043  0.00  0.00    +0.048 C 
ATOM     21  C   UNL     1       3.950   0.905  -0.175  0.00  0.00    +0.145 C 
ATOM     22  C   UNL     1       3.806  -1.862   0.173  0.00  0.00    +0.040 C 
ATOM     23  C   UNL     1       5.119   0.154  -0.045  0.00  0.00    +0.074 C 
ATOM     24  C   UNL     1       5.047  -1.226   0.129  0.00  0.00    +0.137 C 
ENDROOT
BRANCH  13  25
ATOM     25  O   UNL     1      -0.986   2.500  -0.513  0.00  0.00    -0.506 OA
ATOM     26  H   UNL     1      -1.787   2.979  -0.598  0.00  0.00    +0.292 HD
ENDBRANCH  13  25
BRANCH  21  27
ATOM     27  O   UNL     1       4.095   2.251  -0.342  0.00  0.00    -0.471 OA
ATOM     28  C   UNL     1       4.126   3.050   0.838  0.00  0.00    +0.252 C 
ENDBRANCH  21  27
BRANCH  24  29
ATOM     29  O   UNL     1       6.189  -1.956   0.256  0.00  0.00    -0.505 OA
ATOM     30  H   UNL     1       6.142  -2.884   0.372  0.00  0.00    +0.292 HD
ENDBRANCH  24  29
TORSDOF 3
