10939058
  -OEChem-03292013303D

 65 66  0     1  0  0  0  0  0999 V2000
    1.5797   -0.7759   -1.8885 O   0  0  0  0  0  0  0  0  0  0  0  0
    5.0383   -0.6476    0.8745 O   0  0  0  0  0  0  0  0  0  0  0  0
    1.4385    0.5274    2.4245 O   0  0  0  0  0  0  0  0  0  0  0  0
    2.6626    2.5341   -1.5969 O   0  0  0  0  0  0  0  0  0  0  0  0
   -7.2619    0.4882    1.3317 O   0  0  0  0  0  0  0  0  0  0  0  0
   -9.7392    0.2180    0.4262 O   0  0  0  0  0  0  0  0  0  0  0  0
    2.4218   -1.8980   -0.0590 N   0  0  0  0  0  0  0  0  0  0  0  0
    0.5245    0.6860    0.2935 N   0  0  0  0  0  0  0  0  0  0  0  0
    4.4448    0.1732   -1.2112 N   0  0  0  0  0  0  0  0  0  0  0  0
    3.1267    2.2672    0.6631 N   0  0  0  0  0  0  0  0  0  0  0  0
    3.7622   -2.0796   -0.6167 C   0  0  2  0  0  0  0  0  0  0  0  0
    4.2880   -3.3330    0.0748 C   0  0  0  0  0  0  0  0  0  0  0  0
    2.2361   -2.6955    1.1503 C   0  0  0  0  0  0  0  0  0  0  0  0
    3.5893   -3.3326    1.4309 C   0  0  0  0  0  0  0  0  0  0  0  0
    0.2359   -0.7321    0.0971 C   0  0  2  0  0  0  0  0  0  0  0  0
    1.4421   -1.1759   -0.7276 C   0  0  0  0  0  0  0  0  0  0  0  0
    4.5250   -0.8088   -0.2309 C   0  0  0  0  0  0  0  0  0  0  0  0
   -1.0612   -0.9234   -0.6721 C   0  0  0  0  0  0  0  0  0  0  0  0
   -2.3062   -0.5076    0.1150 C   0  0  0  0  0  0  0  0  0  0  0  0
   -3.6110   -0.7266   -0.6551 C   0  0  0  0  0  0  0  0  0  0  0  0
    4.7866    1.5690   -0.9633 C   0  0  2  0  0  0  0  0  0  0  0  0
   -4.8215   -0.2763    0.1700 C   0  0  0  0  0  0  0  0  0  0  0  0
    1.2029    1.1725    1.4048 C   0  0  0  0  0  0  0  0  0  0  0  0
    1.7868    2.5596    1.1633 C   0  0  1  0  0  0  0  0  0  0  0  0
    3.4322    2.2155   -0.6917 C   0  0  0  0  0  0  0  0  0  0  0  0
   -6.1386   -0.4513   -0.5850 C   0  0  0  0  0  0  0  0  0  0  0  0
    5.4695    2.1828   -2.1746 C   0  0  0  0  0  0  0  0  0  0  0  0
    1.8519    3.3768    2.4429 C   0  0  0  0  0  0  0  0  0  0  0  0
   -7.3590   -0.0035    0.2072 C   0  0  0  0  0  0  0  0  0  0  0  0
   -8.7154   -0.2061   -0.4590 C   0  0  2  0  0  0  0  0  0  0  0  0
   -8.8311    0.6033   -1.7381 C   0  0  0  0  0  0  0  0  0  0  0  0
    3.7285   -2.1945   -1.7049 H   0  0  0  0  0  0  0  0  0  0  0  0
    3.9756   -4.2211   -0.4881 H   0  0  0  0  0  0  0  0  0  0  0  0
    5.3778   -3.3551    0.1694 H   0  0  0  0  0  0  0  0  0  0  0  0
    1.9107   -2.0719    1.9859 H   0  0  0  0  0  0  0  0  0  0  0  0
    1.4667   -3.4470    0.9443 H   0  0  0  0  0  0  0  0  0  0  0  0
    4.1508   -2.7215    2.1465 H   0  0  0  0  0  0  0  0  0  0  0  0
    3.4965   -4.3355    1.8581 H   0  0  0  0  0  0  0  0  0  0  0  0
    0.1784   -1.2300    1.0655 H   0  0  0  0  0  0  0  0  0  0  0  0
   -1.1555   -1.9807   -0.9520 H   0  0  0  0  0  0  0  0  0  0  0  0
   -1.0356   -0.3600   -1.6144 H   0  0  0  0  0  0  0  0  0  0  0  0
   -2.3429   -1.0741    1.0538 H   0  0  0  0  0  0  0  0  0  0  0  0
   -2.2277    0.5518    0.3877 H   0  0  0  0  0  0  0  0  0  0  0  0
    0.3903    1.3018   -0.5037 H   0  0  0  0  0  0  0  0  0  0  0  0
    3.9779   -0.0457   -2.0869 H   0  0  0  0  0  0  0  0  0  0  0  0
   -3.5788   -0.1655   -1.5967 H   0  0  0  0  0  0  0  0  0  0  0  0
   -3.7140   -1.7875   -0.9122 H   0  0  0  0  0  0  0  0  0  0  0  0
    5.4369    1.6473   -0.0859 H   0  0  0  0  0  0  0  0  0  0  0  0
   -4.8591   -0.8461    1.1069 H   0  0  0  0  0  0  0  0  0  0  0  0
   -4.7013    0.7778    0.4503 H   0  0  0  0  0  0  0  0  0  0  0  0
    1.2109    3.0967    0.4024 H   0  0  0  0  0  0  0  0  0  0  0  0
    3.8165    1.9422    1.3348 H   0  0  0  0  0  0  0  0  0  0  0  0
   -6.2770   -1.5066   -0.8451 H   0  0  0  0  0  0  0  0  0  0  0  0
   -6.0956    0.1327   -1.5099 H   0  0  0  0  0  0  0  0  0  0  0  0
    5.6686    3.2468   -2.0088 H   0  0  0  0  0  0  0  0  0  0  0  0
    6.4217    1.6808   -2.3766 H   0  0  0  0  0  0  0  0  0  0  0  0
    4.8540    2.0960   -3.0773 H   0  0  0  0  0  0  0  0  0  0  0  0
    0.8483    3.5404    2.8491 H   0  0  0  0  0  0  0  0  0  0  0  0
    2.4466    2.8774    3.2162 H   0  0  0  0  0  0  0  0  0  0  0  0
    2.3114    4.3530    2.2546 H   0  0  0  0  0  0  0  0  0  0  0  0
   -8.8587   -1.2724   -0.6613 H   0  0  0  0  0  0  0  0  0  0  0  0
   -8.1540    0.2365   -2.5149 H   0  0  0  0  0  0  0  0  0  0  0  0
   -8.6018    1.6594   -1.5561 H   0  0  0  0  0  0  0  0  0  0  0  0
   -9.8540    0.5624   -2.1280 H   0  0  0  0  0  0  0  0  0  0  0  0
   -9.7192   -0.3711    1.1997 H   0  0  0  0  0  0  0  0  0  0  0  0
  1 16  2  0  0  0  0
  2 17  2  0  0  0  0
  3 23  2  0  0  0  0
  4 25  2  0  0  0  0
  5 29  2  0  0  0  0
  6 30  1  0  0  0  0
  6 65  1  0  0  0  0
  7 11  1  0  0  0  0
  7 13  1  0  0  0  0
  7 16  1  0  0  0  0
  8 15  1  0  0  0  0
  8 23  1  0  0  0  0
  8 44  1  0  0  0  0
  9 17  1  0  0  0  0
  9 21  1  0  0  0  0
  9 45  1  0  0  0  0
 10 24  1  0  0  0  0
 10 25  1  0  0  0  0
 10 52  1  0  0  0  0
 11 12  1  0  0  0  0
 11 17  1  0  0  0  0
 11 32  1  0  0  0  0
 12 14  1  0  0  0  0
 12 33  1  0  0  0  0
 12 34  1  0  0  0  0
 13 14  1  0  0  0  0
 13 35  1  0  0  0  0
 13 36  1  0  0  0  0
 14 37  1  0  0  0  0
 14 38  1  0  0  0  0
 15 16  1  0  0  0  0
 15 18  1  0  0  0  0
 15 39  1  0  0  0  0
 18 19  1  0  0  0  0
 18 40  1  0  0  0  0
 18 41  1  0  0  0  0
 19 20  1  0  0  0  0
 19 42  1  0  0  0  0
 19 43  1  0  0  0  0
 20 22  1  0  0  0  0
 20 46  1  0  0  0  0
 20 47  1  0  0  0  0
 21 25  1  0  0  0  0
 21 27  1  0  0  0  0
 21 48  1  0  0  0  0
 22 26  1  0  0  0  0
 22 49  1  0  0  0  0
 22 50  1  0  0  0  0
 23 24  1  0  0  0  0
 24 28  1  0  0  0  0
 24 51  1  0  0  0  0
 26 29  1  0  0  0  0
 26 53  1  0  0  0  0
 26 54  1  0  0  0  0
 27 55  1  0  0  0  0
 27 56  1  0  0  0  0
 27 57  1  0  0  0  0
 28 58  1  0  0  0  0
 28 59  1  0  0  0  0
 28 60  1  0  0  0  0
 29 30  1  0  0  0  0
 30 31  1  0  0  0  0
 30 61  1  0  0  0  0
 31 62  1  0  0  0  0
 31 63  1  0  0  0  0
 31 64  1  0  0  0  0
M  END
> <PUBCHEM_COMPOUND_CID>
10939058

> <PUBCHEM_CONFORMER_RMSD>
1

> <PUBCHEM_CONFORMER_DIVERSEORDER>
1
195
218
193
240
258
75
222
88
68
300
100
329
334
304
69
27
99
281
23
183
123
301
35
127
80
152
247
29
158
54
131
245
177
257
86
175
338
73
84
47
93
157
217
213
141
39
163
256
53
5
20
248
126
113
111
264
225
286
194
340
89
112
319
239
109
297
220
132
287
58
341
291
98
172
227
140
76
48
124
107
106
323
71
312
57
209
49
22
180
203
102
64
205
296
104
210
332
160
204
77
159
45
165
18
65
38
228
147
9
337
55
221
343
164
310
202
208
146
105
198
246
336
226
233
249
149
108
229
66
238
321
128
327
36
85
103
309
145
74
133
3
153
243
181
46
117
28
269
167
162
174
254
307
342
115
96
276
17
192
21
120
189
282
129
320
279
51
41
179
169
272
333
255
305
206
8
144
259
42
317
176
187
185
326
161
262
40
261
275
231
313
25
294
316
148
265
190
67
182
31
70
72
306
216
253
139
166
151
136
52
142
290
331
197
13
94
234
78
32
171
295
170
37
223
79
235
250
24
59
252
311
82
116
274
90
199
92
60
237
155
201
219
14
344
178
318
95
298
278
236
283
251
110
63
268
303
328
191
224
270
156
330
284
122
154
289
91
26
214
285
302
273
244
215
315
173
143
118
207
56
280
292
266
12
277
19
241
119
44
125
263
138
271
121
168
211
62
87
137
6
325
293
186
83
212
101
150
200
260
130
43
30
335
135
345
7
314
322
267
288
2
232
184
4
299
188
324
33
230
242
81
10
61
339
34
50
11
196
308
15
134
16
97
114

> <PUBCHEM_MMFF94_PARTIAL_CHARGES>
26
1 -0.57
10 -0.73
11 0.36
13 0.3
15 0.36
16 0.57
17 0.57
2 -0.57
21 0.36
23 0.57
24 0.36
25 0.57
26 0.06
29 0.45
3 -0.57
30 0.34
4 -0.57
44 0.37
45 0.37
5 -0.57
52 0.37
6 -0.68
65 0.4
7 -0.66
8 -0.73
9 -0.73

> <PUBCHEM_EFFECTIVE_ROTOR_COUNT>
8.8

> <PUBCHEM_PHARMACOPHORE_FEATURES>
12
1 1 acceptor
1 10 donor
1 2 acceptor
1 3 acceptor
1 4 acceptor
1 5 acceptor
1 6 acceptor
1 6 donor
1 8 donor
1 9 donor
5 18 19 20 22 26 hydrophobe
5 7 11 12 13 14 rings

> <PUBCHEM_HEAVY_ATOM_COUNT>
31

> <PUBCHEM_ATOM_DEF_STEREO_COUNT>
5

> <PUBCHEM_ATOM_UDEF_STEREO_COUNT>
0

> <PUBCHEM_BOND_DEF_STEREO_COUNT>
0

> <PUBCHEM_BOND_UDEF_STEREO_COUNT>
0

> <PUBCHEM_ISOTOPIC_ATOM_COUNT>
0

> <PUBCHEM_COMPONENT_COUNT>
1

> <PUBCHEM_CACTVS_TAUTO_COUNT>
40

> <PUBCHEM_CONFORMER_ID>
00A6EAB200000001

> <PUBCHEM_MMFF94_ENERGY>
66.1891

> <PUBCHEM_FEATURE_SELFOVERLAP>
60.91

> <PUBCHEM_SHAPE_FINGERPRINT>
10165383 225 18113904905471857996
10411042 1 17972876952753175970
10675989 125 18200030793273616416
11578080 2 17968954117832943898
11828532 37 13973678477523038639
13533116 47 18410009927655792635
13878862 14 18339623604393342405
14170010 4 18273208699211830499
14400156 413 18187356623728972805
14747281 78 16226626190428399092
15183329 4 17632585963703645617
15439362 3 17696185186514997616
15484559 13 17918001594125061542
1577012 14 17989211435234134353
15840311 113 18060694009975060752
16120349 18 18260546736639708991
21344244 78 18198046003081318786
23522609 53 18128561326587741361
23559900 14 18260267473724279187
255183 451 18126294034785211526
3004659 81 17275386517323179491
3411729 13 16987417880536135754
376196 1 16481887864512880576
4073 2 17968384558441909651
513532 50 16415192429653209472
57527306 92 18130792291847201236
58260988 587 17749395896957765806
6086070 43 17703231844819706307
70251023 43 18126292939610598794

> <PUBCHEM_SHAPE_MULTIPOLES>
582.83
21.53
3.51
1.87
78.45
0.06
0.31
-1.44
-5.51
-8.48
1.24
-1.56
-1.25
-1.29

> <PUBCHEM_SHAPE_SELFOVERLAP>
1178.36

> <PUBCHEM_SHAPE_VOLUME>
338.8

> <PUBCHEM_COORDINATE_TYPE>
2
5
10

$$$$
