10938482
  -OEChem-03292013303D

 59 61  0     1  0  0  0  0  0999 V2000
    0.3317   -2.8800    0.2937 O   0  0  0  0  0  0  0  0  0  0  0  0
   -2.3626   -2.2878    0.3270 O   0  0  0  0  0  0  0  0  0  0  0  0
   -1.2422    2.9715   -1.3415 O   0  0  0  0  0  0  0  0  0  0  0  0
    2.7778    0.5028    0.0209 O   0  0  0  0  0  0  0  0  0  0  0  0
   -4.3181   -0.1392    0.6485 O   0  0  0  0  0  0  0  0  0  0  0  0
    1.7766   -4.6794    0.4084 O   0  0  0  0  0  0  0  0  0  0  0  0
    3.1667    2.5210   -1.0255 O   0  0  0  0  0  0  0  0  0  0  0  0
   -5.6582    0.7350   -1.0178 O   0  0  0  0  0  0  0  0  0  0  0  0
   -0.2836    0.8499   -0.5226 C   0  0  1  0  0  0  0  0  0  0  0  0
   -0.6819   -0.6609   -0.3236 C   0  0  1  0  0  0  0  0  0  0  0  0
    0.5484   -1.4742    0.1249 C   0  0  2  0  0  0  0  0  0  0  0  0
   -1.9944   -0.9023    0.4784 C   0  0  1  0  0  0  0  0  0  0  0  0
    0.9464    0.9363   -1.5033 C   0  0  0  0  0  0  0  0  0  0  0  0
   -1.4983    1.5801   -1.1669 C   0  0  1  0  0  0  0  0  0  0  0  0
    1.6105   -1.4055   -0.9604 C   0  0  1  0  0  0  0  0  0  0  0  0
    2.1342    0.0136   -1.1481 C   0  0  2  0  0  0  0  0  0  0  0  0
   -3.1388   -0.0740   -0.1528 C   0  0  2  0  0  0  0  0  0  0  0  0
   -2.7934    1.3958   -0.3699 C   0  0  0  0  0  0  0  0  0  0  0  0
    0.1193    1.5757    0.7887 C   0  0  0  0  0  0  0  0  0  0  0  0
   -1.8788   -0.7045    1.9932 C   0  0  0  0  0  0  0  0  0  0  0  0
    2.4550   -2.5403   -0.5107 C   0  0  0  0  0  0  0  0  0  0  0  0
    1.5350   -3.5210    0.1236 C   0  0  0  0  0  0  0  0  0  0  0  0
    3.7716   -2.7329   -0.5977 C   0  0  0  0  0  0  0  0  0  0  0  0
    3.2543    1.7860   -0.0507 C   0  0  0  0  0  0  0  0  0  0  0  0
   -5.4001    0.5360    0.1616 C   0  0  0  0  0  0  0  0  0  0  0  0
    3.9222    2.1607    1.2607 C   0  0  0  0  0  0  0  0  0  0  0  0
   -6.2515    1.0124    1.2991 C   0  0  0  0  0  0  0  0  0  0  0  0
    5.3958    1.7742    1.2165 C   0  0  0  0  0  0  0  0  0  0  0  0
    3.7564    3.6511    1.5462 C   0  0  0  0  0  0  0  0  0  0  0  0
   -0.9237   -1.0534   -1.3264 H   0  0  0  0  0  0  0  0  0  0  0  0
    0.9152   -1.1032    1.0898 H   0  0  0  0  0  0  0  0  0  0  0  0
    1.2091    1.9822   -1.6532 H   0  0  0  0  0  0  0  0  0  0  0  0
    0.5934    0.6092   -2.4931 H   0  0  0  0  0  0  0  0  0  0  0  0
   -1.6733    1.1692   -2.1704 H   0  0  0  0  0  0  0  0  0  0  0  0
    1.1759   -1.7278   -1.9200 H   0  0  0  0  0  0  0  0  0  0  0  0
    2.8635    0.0185   -1.9686 H   0  0  0  0  0  0  0  0  0  0  0  0
   -3.3817   -0.5306   -1.1233 H   0  0  0  0  0  0  0  0  0  0  0  0
   -2.7468    1.9280    0.5881 H   0  0  0  0  0  0  0  0  0  0  0  0
   -3.5810    1.9285   -0.9149 H   0  0  0  0  0  0  0  0  0  0  0  0
    0.6247    2.5232    0.5698 H   0  0  0  0  0  0  0  0  0  0  0  0
   -0.7418    1.8512    1.3984 H   0  0  0  0  0  0  0  0  0  0  0  0
    0.7804    0.9867    1.4262 H   0  0  0  0  0  0  0  0  0  0  0  0
   -1.8038    0.3411    2.2886 H   0  0  0  0  0  0  0  0  0  0  0  0
   -2.7532   -1.1183    2.5110 H   0  0  0  0  0  0  0  0  0  0  0  0
   -1.0190   -1.2448    2.4020 H   0  0  0  0  0  0  0  0  0  0  0  0
   -3.2474   -2.4077    0.7131 H   0  0  0  0  0  0  0  0  0  0  0  0
   -0.5906    3.0684   -2.0557 H   0  0  0  0  0  0  0  0  0  0  0  0
    4.4119   -1.9921   -1.0643 H   0  0  0  0  0  0  0  0  0  0  0  0
    4.2431   -3.6286   -0.2080 H   0  0  0  0  0  0  0  0  0  0  0  0
    3.4227    1.6114    2.0685 H   0  0  0  0  0  0  0  0  0  0  0  0
   -5.6753    1.6902    1.9339 H   0  0  0  0  0  0  0  0  0  0  0  0
   -6.6118    0.1570    1.8759 H   0  0  0  0  0  0  0  0  0  0  0  0
   -7.1147    1.5551    0.9035 H   0  0  0  0  0  0  0  0  0  0  0  0
    5.8913    2.0107    2.1636 H   0  0  0  0  0  0  0  0  0  0  0  0
    5.9214    2.3022    0.4130 H   0  0  0  0  0  0  0  0  0  0  0  0
    5.5108    0.7004    1.0325 H   0  0  0  0  0  0  0  0  0  0  0  0
    4.1820    3.9102    2.5212 H   0  0  0  0  0  0  0  0  0  0  0  0
    2.6969    3.9293    1.5534 H   0  0  0  0  0  0  0  0  0  0  0  0
    4.2529    4.2631    0.7852 H   0  0  0  0  0  0  0  0  0  0  0  0
  1 11  1  0  0  0  0
  1 22  1  0  0  0  0
  2 12  1  0  0  0  0
  2 46  1  0  0  0  0
  3 14  1  0  0  0  0
  3 47  1  0  0  0  0
  4 16  1  0  0  0  0
  4 24  1  0  0  0  0
  5 17  1  0  0  0  0
  5 25  1  0  0  0  0
  6 22  2  0  0  0  0
  7 24  2  0  0  0  0
  8 25  2  0  0  0  0
  9 10  1  0  0  0  0
  9 13  1  0  0  0  0
  9 14  1  0  0  0  0
  9 19  1  0  0  0  0
 10 11  1  0  0  0  0
 10 12  1  0  0  0  0
 10 30  1  0  0  0  0
 11 15  1  0  0  0  0
 11 31  1  0  0  0  0
 12 17  1  0  0  0  0
 12 20  1  0  0  0  0
 13 16  1  0  0  0  0
 13 32  1  0  0  0  0
 13 33  1  0  0  0  0
 14 18  1  0  0  0  0
 14 34  1  0  0  0  0
 15 16  1  0  0  0  0
 15 21  1  0  0  0  0
 15 35  1  0  0  0  0
 16 36  1  0  0  0  0
 17 18  1  0  0  0  0
 17 37  1  0  0  0  0
 18 38  1  0  0  0  0
 18 39  1  0  0  0  0
 19 40  1  0  0  0  0
 19 41  1  0  0  0  0
 19 42  1  0  0  0  0
 20 43  1  0  0  0  0
 20 44  1  0  0  0  0
 20 45  1  0  0  0  0
 21 22  1  0  0  0  0
 21 23  2  0  0  0  0
 23 48  1  0  0  0  0
 23 49  1  0  0  0  0
 24 26  1  0  0  0  0
 25 27  1  0  0  0  0
 26 28  1  0  0  0  0
 26 29  1  0  0  0  0
 26 50  1  0  0  0  0
 27 51  1  0  0  0  0
 27 52  1  0  0  0  0
 27 53  1  0  0  0  0
 28 54  1  0  0  0  0
 28 55  1  0  0  0  0
 28 56  1  0  0  0  0
 29 57  1  0  0  0  0
 29 58  1  0  0  0  0
 29 59  1  0  0  0  0
M  END
> <PUBCHEM_COMPOUND_CID>
10938482

> <PUBCHEM_CONFORMER_RMSD>
0.8

> <PUBCHEM_CONFORMER_DIVERSEORDER>
1
5
4
2
3

> <PUBCHEM_MMFF94_PARTIAL_CHARGES>
25
1 -0.43
11 0.28
12 0.28
14 0.28
15 0.14
16 0.28
17 0.28
2 -0.68
21 -0.12
22 0.71
23 -0.3
24 0.66
25 0.66
26 0.06
27 0.06
3 -0.68
4 -0.43
46 0.4
47 0.4
48 0.15
49 0.15
5 -0.43
6 -0.57
7 -0.57
8 -0.57

> <PUBCHEM_EFFECTIVE_ROTOR_COUNT>
6.4

> <PUBCHEM_PHARMACOPHORE_FEATURES>
11
1 2 acceptor
1 2 donor
1 3 acceptor
1 3 donor
1 6 acceptor
1 7 acceptor
1 8 acceptor
3 26 28 29 hydrophobe
5 1 11 15 21 22 rings
6 9 10 11 13 15 16 rings
6 9 10 12 14 17 18 rings

> <PUBCHEM_HEAVY_ATOM_COUNT>
29

> <PUBCHEM_ATOM_DEF_STEREO_COUNT>
8

> <PUBCHEM_ATOM_UDEF_STEREO_COUNT>
0

> <PUBCHEM_BOND_DEF_STEREO_COUNT>
0

> <PUBCHEM_BOND_UDEF_STEREO_COUNT>
0

> <PUBCHEM_ISOTOPIC_ATOM_COUNT>
0

> <PUBCHEM_COMPONENT_COUNT>
1

> <PUBCHEM_CACTVS_TAUTO_COUNT>
1

> <PUBCHEM_CONFORMER_ID>
00A6E87200000001

> <PUBCHEM_MMFF94_ENERGY>
100.2058

> <PUBCHEM_FEATURE_SELFOVERLAP>
55.91

> <PUBCHEM_SHAPE_FINGERPRINT>
10074138 170 17832963316001200250
10165383 225 18338807801078181156
10366900 7 18116169774048578646
10411042 1 17760089518979294843
10906281 52 18041575735692717565
11370993 70 18268988851015143792
11578080 2 18200881772486547467
12035758 1 18337936906543925746
12403259 226 17901386693053922375
12422481 6 17968365823171701825
13140716 1 18409450305954463778
13533116 47 18340776940366492601
13540713 4 17970058942846812293
13955234 65 18411983520593835627
14178342 30 18265058122747504511
14223421 5 18335984168853917628
14739800 52 17775563118015334441
14787075 74 17342096249221311658
14790565 3 17974586984611240709
15081414 286 18334024878210523853
15230672 131 18337390570141241980
15420108 30 18271237326208202407
15475509 84 17839755768041436969
15840311 113 18128552475024193273
15927050 60 18269834371605743038
16728300 4 17607209157861608880
16945 1 18261956228346046679
16994733 274 16056307432048129008
17980427 23 17532651454158990172
1979834 28 18261683639962879481
21033648 29 18197496440409239552
21452121 103 18410853248315027976
21859007 373 17532917317383332077
22149856 69 18190486955814740107
22182313 1 17895746293293775429
23419403 2 17898551104095063406
23559900 14 18187938247930553983
2748010 2 18190202219761034550
350125 39 18264497195428111908
4058900 60 18269850863900397224
4340502 62 18342180002934147121
495365 180 18410016532761735834
5104073 3 18409738357084884771
58807428 26 18336540620627308522
5895379 119 16484464763016706145
59755656 215 18411139117581450244
70251023 43 17772491005006653567
7364860 26 18338800013901286974
9896288 288 17545595017680613384
9981440 41 18264486350873248603

> <PUBCHEM_SHAPE_MULTIPOLES>
549.85
10.04
4.45
1.42
10.44
3.07
0.16
-6.28
3.03
-6.24
0.76
-0.07
-0.74
1.69

> <PUBCHEM_SHAPE_SELFOVERLAP>
1160.42

> <PUBCHEM_SHAPE_VOLUME>
305.7

> <PUBCHEM_COORDINATE_TYPE>
2
5
10

$$$$
