10939646
  -OEChem-03292013303D

 59 63  0     1  0  0  0  0  0999 V2000
    1.1644    0.4119   -0.1293 O   0  0  0  0  0  0  0  0  0  0  0  0
   -3.4386   -1.1772   -0.3627 O   0  0  0  0  0  0  0  0  0  0  0  0
   -1.3590   -2.9156    0.3902 O   0  0  0  0  0  0  0  0  0  0  0  0
   -3.1506    1.2405    1.6844 O   0  0  0  0  0  0  0  0  0  0  0  0
   -0.7678    4.8681   -0.2164 O   0  0  0  0  0  0  0  0  0  0  0  0
    1.6287    4.3695   -1.1053 O   0  0  0  0  0  0  0  0  0  0  0  0
   -5.6529   -0.7177   -0.5259 O   0  0  0  0  0  0  0  0  0  0  0  0
   -1.0700   -0.6106    1.1497 C   0  0  2  0  0  0  0  0  0  0  0  0
   -1.0927   -1.5875   -0.0735 C   0  0  2  0  0  0  0  0  0  0  0  0
   -2.1826   -1.2317   -1.0744 C   0  0  1  0  0  0  0  0  0  0  0  0
   -0.9699    0.8337    0.7734 C   0  0  0  0  0  0  0  0  0  0  0  0
    0.1677    1.3180    0.1263 C   0  0  0  0  0  0  0  0  0  0  0  0
   -0.0148   -0.9966    2.2018 C   0  0  0  0  0  0  0  0  0  0  0  0
   -2.2540   -2.2478   -2.2062 C   0  0  0  0  0  0  0  0  0  0  0  0
    2.0096    0.8039   -1.2223 C   0  0  1  0  0  0  0  0  0  0  0  0
    0.2566    2.6742   -0.2012 C   0  0  0  0  0  0  0  0  0  0  0  0
   -2.0271    1.6972    1.0622 C   0  0  0  0  0  0  0  0  0  0  0  0
    2.6138    2.1857   -0.9794 C   0  0  0  0  0  0  0  0  0  0  0  0
    1.5004    3.1868   -0.8118 C   0  0  0  0  0  0  0  0  0  0  0  0
   -0.8014    3.5402    0.0857 C   0  0  0  0  0  0  0  0  0  0  0  0
   -1.9448    3.0460    0.7146 C   0  0  0  0  0  0  0  0  0  0  0  0
   -0.2625   -0.6859    3.5147 C   0  0  0  0  0  0  0  0  0  0  0  0
    1.1234   -1.6334    1.7773 C   0  0  0  0  0  0  0  0  0  0  0  0
    3.0907   -0.2427   -1.3909 C   0  0  0  0  0  0  0  0  0  0  0  0
   -3.4763   -1.9821   -3.0174 C   0  0  0  0  0  0  0  0  0  0  0  0
   -4.6010   -1.0549   -1.0578 C   0  0  0  0  0  0  0  0  0  0  0  0
   -4.5541   -1.3914   -2.4929 C   0  0  0  0  0  0  0  0  0  0  0  0
    0.6935   -1.0358    4.4683 C   0  0  0  0  0  0  0  0  0  0  0  0
    2.0794   -1.9834    2.7310 C   0  0  0  0  0  0  0  0  0  0  0  0
    2.8619   -1.3572   -2.1976 C   0  0  0  0  0  0  0  0  0  0  0  0
    4.3149   -0.0917   -0.7399 C   0  0  0  0  0  0  0  0  0  0  0  0
    1.8643   -1.6845    4.0765 C   0  0  0  0  0  0  0  0  0  0  0  0
    3.8577   -2.3214   -2.3532 C   0  0  0  0  0  0  0  0  0  0  0  0
    5.3107   -1.0559   -0.8957 C   0  0  0  0  0  0  0  0  0  0  0  0
    5.0821   -2.1707   -1.7024 C   0  0  0  0  0  0  0  0  0  0  0  0
   -2.0194   -0.7982    1.6712 H   0  0  0  0  0  0  0  0  0  0  0  0
   -0.1465   -1.6180   -0.6194 H   0  0  0  0  0  0  0  0  0  0  0  0
   -1.9976   -0.2334   -1.4917 H   0  0  0  0  0  0  0  0  0  0  0  0
   -1.3608   -2.1636   -2.8354 H   0  0  0  0  0  0  0  0  0  0  0  0
   -2.3130   -3.2810   -1.8463 H   0  0  0  0  0  0  0  0  0  0  0  0
    1.4028    0.8268   -2.1401 H   0  0  0  0  0  0  0  0  0  0  0  0
    3.2443    2.4922   -1.8213 H   0  0  0  0  0  0  0  0  0  0  0  0
    3.1837    2.2541   -0.0466 H   0  0  0  0  0  0  0  0  0  0  0  0
   -2.7728    3.7136    0.9424 H   0  0  0  0  0  0  0  0  0  0  0  0
   -2.2299   -2.9110    0.8230 H   0  0  0  0  0  0  0  0  0  0  0  0
   -1.1711   -0.1808    3.8267 H   0  0  0  0  0  0  0  0  0  0  0  0
    1.3364   -1.9065    0.7530 H   0  0  0  0  0  0  0  0  0  0  0  0
   -3.4810   -2.2834   -4.0601 H   0  0  0  0  0  0  0  0  0  0  0  0
   -5.4421   -1.2128   -3.0879 H   0  0  0  0  0  0  0  0  0  0  0  0
    0.5261   -0.8030    5.5159 H   0  0  0  0  0  0  0  0  0  0  0  0
    2.9900   -2.4914    2.4267 H   0  0  0  0  0  0  0  0  0  0  0  0
   -3.7734    1.9784    1.7996 H   0  0  0  0  0  0  0  0  0  0  0  0
    1.9105   -1.4874   -2.7066 H   0  0  0  0  0  0  0  0  0  0  0  0
    4.5378    0.7391   -0.0811 H   0  0  0  0  0  0  0  0  0  0  0  0
    2.6084   -1.9577    4.8190 H   0  0  0  0  0  0  0  0  0  0  0  0
   -1.5983    5.2869    0.0673 H   0  0  0  0  0  0  0  0  0  0  0  0
    3.6792   -3.1903   -2.9799 H   0  0  0  0  0  0  0  0  0  0  0  0
    6.2622   -0.9427   -0.3842 H   0  0  0  0  0  0  0  0  0  0  0  0
    5.8568   -2.9224   -1.8221 H   0  0  0  0  0  0  0  0  0  0  0  0
  1 12  1  0  0  0  0
  1 15  1  0  0  0  0
  2 10  1  0  0  0  0
  2 26  1  0  0  0  0
  3  9  1  0  0  0  0
  3 45  1  0  0  0  0
  4 17  1  0  0  0  0
  4 52  1  0  0  0  0
  5 20  1  0  0  0  0
  5 56  1  0  0  0  0
  6 19  2  0  0  0  0
  7 26  2  0  0  0  0
  8  9  1  0  0  0  0
  8 11  1  0  0  0  0
  8 13  1  0  0  0  0
  8 36  1  0  0  0  0
  9 10  1  0  0  0  0
  9 37  1  0  0  0  0
 10 14  1  0  0  0  0
 10 38  1  0  0  0  0
 11 12  1  0  0  0  0
 11 17  2  0  0  0  0
 12 16  2  0  0  0  0
 13 22  2  0  0  0  0
 13 23  1  0  0  0  0
 14 25  1  0  0  0  0
 14 39  1  0  0  0  0
 14 40  1  0  0  0  0
 15 18  1  0  0  0  0
 15 24  1  0  0  0  0
 15 41  1  0  0  0  0
 16 19  1  0  0  0  0
 16 20  1  0  0  0  0
 17 21  1  0  0  0  0
 18 19  1  0  0  0  0
 18 42  1  0  0  0  0
 18 43  1  0  0  0  0
 20 21  2  0  0  0  0
 21 44  1  0  0  0  0
 22 28  1  0  0  0  0
 22 46  1  0  0  0  0
 23 29  2  0  0  0  0
 23 47  1  0  0  0  0
 24 30  2  0  0  0  0
 24 31  1  0  0  0  0
 25 27  2  0  0  0  0
 25 48  1  0  0  0  0
 26 27  1  0  0  0  0
 27 49  1  0  0  0  0
 28 32  2  0  0  0  0
 28 50  1  0  0  0  0
 29 32  1  0  0  0  0
 29 51  1  0  0  0  0
 30 33  1  0  0  0  0
 30 53  1  0  0  0  0
 31 34  2  0  0  0  0
 31 54  1  0  0  0  0
 32 55  1  0  0  0  0
 33 35  2  0  0  0  0
 33 57  1  0  0  0  0
 34 35  1  0  0  0  0
 34 58  1  0  0  0  0
 35 59  1  0  0  0  0
M  END
> <PUBCHEM_COMPOUND_CID>
10939646

> <PUBCHEM_CONFORMER_RMSD>
1

> <PUBCHEM_CONFORMER_DIVERSEORDER>
1
16
4
6
19
9
20
8
15
5
10
18
7
11
17
14
3
13
12
2

> <PUBCHEM_MMFF94_PARTIAL_CHARGES>
51
1 -0.36
10 0.28
11 -0.14
12 0.08
13 -0.14
14 0.14
15 0.42
16 0.09
17 0.08
18 0.06
19 0.42
2 -0.43
20 0.08
21 -0.15
22 -0.15
23 -0.15
24 -0.14
25 -0.29
26 0.71
27 -0.14
28 -0.15
29 -0.15
3 -0.68
30 -0.15
31 -0.15
32 -0.15
33 -0.15
34 -0.15
35 -0.15
4 -0.53
44 0.15
45 0.4
46 0.15
47 0.15
48 0.15
49 0.15
5 -0.53
50 0.15
51 0.15
52 0.45
53 0.15
54 0.15
55 0.15
56 0.45
57 0.15
58 0.15
59 0.15
6 -0.57
7 -0.57
8 0.29
9 0.28

> <PUBCHEM_EFFECTIVE_ROTOR_COUNT>
6.2

> <PUBCHEM_PHARMACOPHORE_FEATURES>
12
1 1 acceptor
1 3 acceptor
1 3 donor
1 4 donor
1 5 donor
1 6 acceptor
1 7 acceptor
6 1 12 15 16 18 19 rings
6 11 12 16 17 20 21 rings
6 13 22 23 28 29 32 rings
6 2 10 14 25 26 27 rings
6 24 30 31 33 34 35 rings

> <PUBCHEM_HEAVY_ATOM_COUNT>
35

> <PUBCHEM_ATOM_DEF_STEREO_COUNT>
4

> <PUBCHEM_ATOM_UDEF_STEREO_COUNT>
0

> <PUBCHEM_BOND_DEF_STEREO_COUNT>
0

> <PUBCHEM_BOND_UDEF_STEREO_COUNT>
0

> <PUBCHEM_ISOTOPIC_ATOM_COUNT>
0

> <PUBCHEM_COMPONENT_COUNT>
1

> <PUBCHEM_CACTVS_TAUTO_COUNT>
21

> <PUBCHEM_CONFORMER_ID>
00A6ECFE00000001

> <PUBCHEM_MMFF94_ENERGY>
113.7852

> <PUBCHEM_FEATURE_SELFOVERLAP>
60.929

> <PUBCHEM_SHAPE_FINGERPRINT>
10165383 225 8466178197953868939
10721379 63 17460845523935284687
11578080 2 17131826573270040456
11720765 8 18058432365928385845
11763715 3 17900231162204706402
12035759 4 18336825295381015501
12156800 1 17981292652604045004
12422481 6 17484283766413665883
12788726 201 18337664213793841439
13636023 20 17199667712051147044
14004853 49 17259878751321810629
14068700 675 17418380203338562438
14114206 34 17751100049760138692
15324884 4 15956935366140921385
15361156 5 17903109693206830054
15968369 26 16906893088786829575
1813 80 17830969712489278691
20600515 1 17908664583925439243
21987440 362 16159276644228464348
376196 1 17470430198580937069
513532 50 18053917792289697711
57527452 28 16299483103486684736
9925002 15 17538815041503324744
9981440 41 17403179686781191048

> <PUBCHEM_SHAPE_MULTIPOLES>
679.2
8.07
4.55
4.03
0.16
6
5.3
-6.55
-7.17
-0.68
-2.26
1.41
-3.25
-1.91

> <PUBCHEM_SHAPE_SELFOVERLAP>
1510.387

> <PUBCHEM_SHAPE_VOLUME>
357.5

> <PUBCHEM_COORDINATE_TYPE>
2
5
10

$$$$
