REMARK  Name = 10938482
REMARK  7 active torsions:
REMARK  status: ('A' for Active; 'I' for Inactive)
REMARK    1  A    between atoms: C_6  and  O_18
REMARK    2  A    between atoms: C_8  and  O_20
REMARK    3  A    between atoms: C_10  and  O_22
REMARK    4  A    between atoms: C_11  and  O_28
REMARK    5  A    between atoms: O_22  and  C_24
REMARK    6  A    between atoms: C_24  and  C_25
REMARK    7  A    between atoms: O_28  and  C_30
REMARK                            x       y       z     vdW  Elec       q    Type
REMARK                         _______ _______ _______ _____ _____    ______ ____
ROOT
ATOM      1  O   UNL     1       0.332  -2.880   0.294  0.00  0.00    -0.449 OA
ATOM      2  O   UNL     1       1.777  -4.679   0.408  0.00  0.00    -0.245 OA
ATOM      3  C   UNL     1      -0.284   0.850  -0.523  0.00  0.00    +0.034 C 
ATOM      4  C   UNL     1      -0.682  -0.661  -0.324  0.00  0.00    +0.071 C 
ATOM      5  C   UNL     1       0.548  -1.474   0.125  0.00  0.00    +0.179 C 
ATOM      6  C   UNL     1      -1.994  -0.902   0.478  0.00  0.00    +0.128 C 
ATOM      7  C   UNL     1       0.946   0.936  -1.503  0.00  0.00    +0.047 C 
ATOM      8  C   UNL     1      -1.498   1.580  -1.167  0.00  0.00    +0.114 C 
ATOM      9  C   UNL     1       1.611  -1.405  -0.960  0.00  0.00    +0.109 C 
ATOM     10  C   UNL     1       2.134   0.014  -1.148  0.00  0.00    +0.177 C 
ATOM     11  C   UNL     1      -3.139  -0.074  -0.153  0.00  0.00    +0.195 C 
ATOM     12  C   UNL     1      -2.793   1.396  -0.370  0.00  0.00    +0.075 C 
ATOM     13  C   UNL     1       0.119   1.576   0.789  0.00  0.00    +0.003 C 
ATOM     14  C   UNL     1      -1.879  -0.705   1.993  0.00  0.00    +0.033 C 
ATOM     15  C   UNL     1       2.455  -2.540  -0.511  0.00  0.00    +0.060 C 
ATOM     16  C   UNL     1       1.535  -3.521   0.124  0.00  0.00    +0.337 C 
ATOM     17  C   UNL     1       3.772  -2.733  -0.598  0.00  0.00    +0.002 C 
ENDROOT
BRANCH   6  18
ATOM     18  O   UNL     1      -2.363  -2.288   0.327  0.00  0.00    -0.383 OA
ATOM     19  H   UNL     1      -2.457  -2.496  -0.616  0.00  0.00    +0.210 HD
ENDBRANCH   6  18
BRANCH   8  20
ATOM     20  O   UNL     1      -1.242   2.971  -1.341  0.00  0.00    -0.384 OA
ATOM     21  H   UNL     1      -0.422   3.088  -1.846  0.00  0.00    +0.210 HD
ENDBRANCH   8  20
BRANCH  10  22
ATOM     22  O   UNL     1       2.778   0.503   0.021  0.00  0.00    -0.452 OA
BRANCH  22  24
ATOM     23  O   UNL     1       3.167   2.521  -1.026  0.00  0.00    -0.250 OA
ATOM     24  C   UNL     1       3.254   1.786  -0.051  0.00  0.00    +0.316 C 
BRANCH  24  25
ATOM     25  C   UNL     1       3.922   2.161   1.261  0.00  0.00    +0.099 C 
ATOM     26  C   UNL     1       5.396   1.774   1.216  0.00  0.00    +0.012 C 
ATOM     27  C   UNL     1       3.756   3.651   1.546  0.00  0.00    +0.012 C 
ENDBRANCH  24  25
ENDBRANCH  22  24
ENDBRANCH  10  22
BRANCH  11  28
ATOM     28  O   UNL     1      -4.318  -0.139   0.648  0.00  0.00    -0.450 OA
BRANCH  28  30
ATOM     29  O   UNL     1      -5.658   0.735  -1.018  0.00  0.00    -0.250 OA
ATOM     30  C   UNL     1      -5.400   0.536   0.162  0.00  0.00    +0.318 C 
ATOM     31  C   UNL     1      -6.252   1.012   1.299  0.00  0.00    +0.121 C 
ENDBRANCH  28  30
ENDBRANCH  11  28
TORSDOF 7
