REMARK  Name = 10939058
REMARK  8 active torsions:
REMARK  status: ('A' for Active; 'I' for Inactive)
REMARK    1  A    between atoms: C_13  and  C_25
REMARK    2  A    between atoms: C_25  and  C_26
REMARK    3  A    between atoms: C_26  and  C_27
REMARK    4  A    between atoms: C_27  and  C_28
REMARK    5  A    between atoms: C_28  and  C_29
REMARK    6  A    between atoms: C_29  and  C_31
REMARK    7  A    between atoms: C_31  and  C_32
REMARK    8  A    between atoms: C_32  and  O_34
REMARK                            x       y       z     vdW  Elec       q    Type
REMARK                         _______ _______ _______ _____ _____    ______ ____
ROOT
ATOM      1  O   UNK A   4       1.580  -0.776  -1.889  0.00  0.00    -0.273 OA
ATOM      2  O   PRO A   1       5.038  -0.648   0.875  0.00  0.00    -0.273 OA
ATOM      3  O   ALA A   3       1.438   0.527   2.425  0.00  0.00    -0.273 OA
ATOM      4  O   ALA A   2       2.663   2.534  -1.597  0.00  0.00    -0.273 OA
ATOM      5  N   PRO A   1       2.422  -1.898  -0.059  0.00  0.00    -0.272 N 
ATOM      6  N   UNK A   4       0.524   0.686   0.293  0.00  0.00    -0.297 N 
ATOM      7  N   ALA A   2       4.445   0.173  -1.211  0.00  0.00    -0.297 N 
ATOM      8  N   ALA A   3       3.127   2.267   0.663  0.00  0.00    -0.297 N 
ATOM      9  CA  PRO A   1       3.762  -2.080  -0.617  0.00  0.00    +0.152 C 
ATOM     10  CB  PRO A   1       4.288  -3.333   0.075  0.00  0.00    +0.031 C 
ATOM     11  CD  PRO A   1       2.236  -2.696   1.150  0.00  0.00    +0.094 C 
ATOM     12  CG  PRO A   1       3.589  -3.333   1.431  0.00  0.00    +0.024 C 
ATOM     13  C   UNK A   4       0.236  -0.732   0.097  0.00  0.00    +0.149 C 
ATOM     14  C   UNK A   4       1.442  -1.176  -0.728  0.00  0.00    +0.244 C 
ATOM     15  C   PRO A   1       4.525  -0.809  -0.231  0.00  0.00    +0.241 C 
ATOM     16  CA  ALA A   2       4.787   1.569  -0.963  0.00  0.00    +0.149 C 
ATOM     17  C   ALA A   3       1.203   1.173   1.405  0.00  0.00    +0.241 C 
ATOM     18  CA  ALA A   3       1.787   2.560   1.163  0.00  0.00    +0.149 C 
ATOM     19  C   ALA A   2       3.432   2.216  -0.692  0.00  0.00    +0.241 C 
ATOM     20  CB  ALA A   2       5.470   2.183  -2.175  0.00  0.00    +0.031 C 
ATOM     21  CB  ALA A   3       1.852   3.377   2.443  0.00  0.00    +0.031 C 
ATOM     22  H   UNK A   4       0.225   1.326  -0.392  0.00  0.00    +0.150 HD
ATOM     23  H   ALA A   2       4.144  -0.085  -2.112  0.00  0.00    +0.150 HD
ATOM     24  H   ALA A   3       3.846   2.099   1.314  0.00  0.00    +0.150 HD
ENDROOT
BRANCH  13  25
ATOM     25  C   UNK A   4      -1.061  -0.923  -0.672  0.00  0.00    +0.029 C 
BRANCH  25  26
ATOM     26  C   UNK A   4      -2.306  -0.508   0.115  0.00  0.00    +0.002 C 
BRANCH  26  27
ATOM     27  C   UNK A   4      -3.611  -0.727  -0.655  0.00  0.00    +0.001 C 
BRANCH  27  28
ATOM     28  C   UNK A   4      -4.822  -0.276   0.170  0.00  0.00    +0.008 C 
BRANCH  28  29
ATOM     29  C   UNK A   4      -6.139  -0.451  -0.585  0.00  0.00    +0.067 C 
BRANCH  29  31
ATOM     30  O   UNK A   4      -7.262   0.488   1.332  0.00  0.00    -0.294 OA
ATOM     31  C   UNK A   4      -7.359  -0.004   0.207  0.00  0.00    +0.177 C 
BRANCH  31  32
ATOM     32  C   UNK A   4      -8.715  -0.206  -0.459  0.00  0.00    +0.167 C 
ATOM     33  C   UNK A   4      -8.831   0.603  -1.738  0.00  0.00    +0.040 C 
BRANCH  32  34
ATOM     34  O   UNK A   4      -9.739   0.218   0.426  0.00  0.00    -0.377 OA
ATOM     35  H   UNK A   4      -9.683  -0.288   1.252  0.00  0.00    +0.211 HD
ENDBRANCH  32  34
ENDBRANCH  31  32
ENDBRANCH  29  31
ENDBRANCH  28  29
ENDBRANCH  27  28
ENDBRANCH  26  27
ENDBRANCH  25  26
ENDBRANCH  13  25
TORSDOF 8
