REMARK  Name = 10938426
REMARK  5 active torsions:
REMARK  status: ('A' for Active; 'I' for Inactive)
REMARK    1  A    between atoms: C_10  and  O_29
REMARK    2  A    between atoms: C_11  and  O_23
REMARK    3  A    between atoms: C_13  and  O_25
REMARK    4  A    between atoms: C_14  and  O_27
REMARK    5  A    between atoms: O_29  and  C_31
REMARK                            x       y       z     vdW  Elec       q    Type
REMARK                         _______ _______ _______ _____ _____    ______ ____
ROOT
ATOM      1  O   UNL     1       0.256   2.136  -0.911  0.00  0.00    -0.448 OA
ATOM      2  O   UNL     1      -1.425   3.295  -1.930  0.00  0.00    -0.250 OA
ATOM      3  O   UNL     1       1.177  -4.732  -0.958  0.00  0.00    -0.289 OA
ATOM      4  C   UNL     1      -0.886   0.986   0.778  0.00  0.00    +0.053 C 
ATOM      5  C   UNL     1      -1.046  -0.431   0.134  0.00  0.00    +0.036 C 
ATOM      6  C   UNL     1       0.197  -1.403   0.276  0.00  0.00    +0.041 C 
ATOM      7  C   UNL     1       0.451   1.625   0.416  0.00  0.00    +0.209 C 
ATOM      8  C   UNL     1      -1.880   1.968   0.078  0.00  0.00    +0.105 C 
ATOM      9  C   UNL     1       1.468  -0.636  -0.288  0.00  0.00    +0.065 C 
ATOM     10  C   UNL     1       1.677   0.706   0.462  0.00  0.00    +0.212 C 
ATOM     11  C   UNL     1      -2.479  -0.993   0.367  0.00  0.00    +0.137 C 
ATOM     12  C   UNL     1      -3.239   1.351  -0.359  0.00  0.00    +0.040 C 
ATOM     13  C   UNL     1      -3.550   0.106   0.488  0.00  0.00    +0.138 C 
ATOM     14  C   UNL     1      -0.005  -2.655  -0.635  0.00  0.00    +0.172 C 
ATOM     15  C   UNL     1      -1.048   1.028   2.312  0.00  0.00    +0.004 C 
ATOM     16  C   UNL     1      -1.038   2.549  -1.044  0.00  0.00    +0.317 C 
ATOM     17  C   UNL     1       0.436  -1.876   1.735  0.00  0.00    +0.003 C 
ATOM     18  C   UNL     1       2.689  -1.564  -0.378  0.00  0.00    -0.038 C 
ATOM     19  C   UNL     1      -3.406   1.069  -1.863  0.00  0.00    +0.003 C 
ATOM     20  C   UNL     1       1.236  -3.522  -0.740  0.00  0.00    +0.199 C 
ATOM     21  C   UNL     1       2.562  -2.883  -0.599  0.00  0.00    +0.032 C 
ATOM     22  C   UNL     1       4.080  -0.999  -0.281  0.00  0.00    +0.027 C 
ENDROOT
BRANCH  11  23
ATOM     23  O   UNL     1      -2.561  -1.792   1.542  0.00  0.00    -0.382 OA
ATOM     24  H   UNL     1      -1.897  -2.498   1.499  0.00  0.00    +0.210 HD
ENDBRANCH  11  23
BRANCH  13  25
ATOM     25  O   UNL     1      -4.814  -0.459   0.134  0.00  0.00    -0.382 OA
ATOM     26  H   UNL     1      -4.984  -1.241   0.683  0.00  0.00    +0.210 HD
ENDBRANCH  13  25
BRANCH  14  27
ATOM     27  O   UNL     1      -1.035  -3.505  -0.152  0.00  0.00    -0.377 OA
ATOM     28  H   UNL     1      -1.858  -2.998  -0.065  0.00  0.00    +0.211 HD
ENDBRANCH  14  27
BRANCH  10  29
ATOM     29  O   UNL     1       2.747   1.451  -0.127  0.00  0.00    -0.448 OA
BRANCH  29  31
ATOM     30  O   UNL     1       2.860   2.931   1.643  0.00  0.00    -0.250 OA
ATOM     31  C   UNL     1       3.020   2.649   0.464  0.00  0.00    +0.318 C 
ATOM     32  C   UNL     1       3.559   3.601  -0.561  0.00  0.00    +0.121 C 
ENDBRANCH  29  31
ENDBRANCH  10  29
TORSDOF 5
