REMARK  Name = 10939646
REMARK  8 active torsions:
REMARK  status: ('A' for Active; 'I' for Inactive)
REMARK    1  A    between atoms: C_3  and  C_22
REMARK    2  A    between atoms: C_5  and  C_12
REMARK    3  A    between atoms: C_7  and  O_18
REMARK    4  A    between atoms: C_10  and  O_20
REMARK    5  A    between atoms: C_22  and  C_23
REMARK    6  A    between atoms: C_22  and  C_29
REMARK    7  A    between atoms: C_29  and  C_32
REMARK    8  A    between atoms: C_29  and  O_37
REMARK                            x       y       z     vdW  Elec       q    Type
REMARK                         _______ _______ _______ _____ _____    ______ ____
ROOT
ATOM      1  O   UNL     1       1.164   0.412  -0.129  0.00  0.00    -0.474 OA
ATOM      2  O   UNL     1       1.629   4.370  -1.105  0.00  0.00    -0.291 OA
ATOM      3  C   UNL     1      -0.970   0.834   0.773  0.00  0.00    +0.052 C 
ATOM      4  C   UNL     1       0.168   1.318   0.126  0.00  0.00    +0.144 C 
ATOM      5  C   UNL     1       2.010   0.804  -1.222  0.00  0.00    +0.196 C 
ATOM      6  C   UNL     1       0.257   2.674  -0.201  0.00  0.00    +0.102 C 
ATOM      7  C   UNL     1      -2.027   1.697   1.062  0.00  0.00    +0.136 C 
ATOM      8  C   UNL     1       2.614   2.186  -0.979  0.00  0.00    +0.117 C 
ATOM      9  C   UNL     1       1.500   3.187  -0.812  0.00  0.00    +0.183 C 
ATOM     10  C   UNL     1      -0.801   3.540   0.086  0.00  0.00    +0.142 C 
ATOM     11  C   UNL     1      -1.945   3.046   0.715  0.00  0.00    +0.073 C 
ENDROOT
BRANCH   5  12
ATOM     12  C   UNL     1       3.091  -0.243  -1.391  0.00  0.00    +0.018 C 
ATOM     13  C   UNL     1       2.862  -1.357  -2.198  0.00  0.00    -0.001 C 
ATOM     14  C   UNL     1       4.315  -0.092  -0.740  0.00  0.00    -0.001 C 
ATOM     15  C   UNL     1       3.858  -2.321  -2.353  0.00  0.00    -0.000 C 
ATOM     16  C   UNL     1       5.311  -1.056  -0.896  0.00  0.00    -0.000 C 
ATOM     17  C   UNL     1       5.082  -2.171  -1.702  0.00  0.00    -0.000 C 
ENDBRANCH   5  12
BRANCH   7  18
ATOM     18  O   UNL     1      -3.151   1.240   1.684  0.00  0.00    -0.506 OA
ATOM     19  H   UNL     1      -3.219   0.337   1.923  0.00  0.00    +0.292 HD
ENDBRANCH   7  18
BRANCH  10  20
ATOM     20  O   UNL     1      -0.768   4.868  -0.216  0.00  0.00    -0.505 OA
ATOM     21  H   UNL     1      -0.016   5.234  -0.639  0.00  0.00    +0.292 HD
ENDBRANCH  10  20
BRANCH   3  22
ATOM     22  C   UNL     1      -1.070  -0.611   1.150  0.00  0.00    +0.081 C 
BRANCH  22  23
ATOM     23  C   UNL     1      -0.015  -0.997   2.202  0.00  0.00    -0.016 C 
ATOM     24  C   UNL     1      -0.263  -0.686   3.515  0.00  0.00    -0.004 C 
ATOM     25  C   UNL     1       1.123  -1.633   1.777  0.00  0.00    -0.004 C 
ATOM     26  C   UNL     1       0.694  -1.036   4.468  0.00  0.00    -0.000 C 
ATOM     27  C   UNL     1       2.079  -1.983   2.731  0.00  0.00    -0.000 C 
ATOM     28  C   UNL     1       1.864  -1.685   4.077  0.00  0.00    -0.000 C 
ENDBRANCH  22  23
BRANCH  22  29
ATOM     29  C   UNL     1      -1.093  -1.587  -0.073  0.00  0.00    +0.159 C 
BRANCH  29  32
ATOM     30  O   UNL     1      -3.439  -1.177  -0.363  0.00  0.00    -0.446 OA
ATOM     31  O   UNL     1      -5.653  -0.718  -0.526  0.00  0.00    -0.245 OA
ATOM     32  C   UNL     1      -2.183  -1.232  -1.074  0.00  0.00    +0.201 C 
ATOM     33  C   UNL     1      -2.254  -2.248  -2.206  0.00  0.00    +0.072 C 
ATOM     34  C   UNL     1      -3.476  -1.982  -3.017  0.00  0.00    -0.016 C 
ATOM     35  C   UNL     1      -4.601  -1.055  -1.058  0.00  0.00    +0.341 C 
ATOM     36  C   UNL     1      -4.554  -1.391  -2.493  0.00  0.00    +0.077 C 
ENDBRANCH  29  32
BRANCH  29  37
ATOM     37  O   UNL     1      -1.359  -2.916   0.390  0.00  0.00    -0.380 OA
ATOM     38  H   UNL     1      -0.681  -3.176   1.033  0.00  0.00    +0.211 HD
ENDBRANCH  29  37
ENDBRANCH  22  29
ENDBRANCH   3  22
TORSDOF 8
