10938426
  -OEChem-03292013303D

 57 60  0     1  0  0  0  0  0999 V2000
    0.2561    2.1363   -0.9114 O   0  0  0  0  0  0  0  0  0  0  0  0
    2.7473    1.4510   -0.1268 O   0  0  0  0  0  0  0  0  0  0  0  0
   -2.5609   -1.7921    1.5417 O   0  0  0  0  0  0  0  0  0  0  0  0
   -4.8140   -0.4593    0.1337 O   0  0  0  0  0  0  0  0  0  0  0  0
   -1.0352   -3.5045   -0.1517 O   0  0  0  0  0  0  0  0  0  0  0  0
   -1.4249    3.2949   -1.9298 O   0  0  0  0  0  0  0  0  0  0  0  0
    1.1766   -4.7318   -0.9581 O   0  0  0  0  0  0  0  0  0  0  0  0
    2.8604    2.9309    1.6434 O   0  0  0  0  0  0  0  0  0  0  0  0
   -0.8864    0.9856    0.7783 C   0  0  1  0  0  0  0  0  0  0  0  0
   -1.0460   -0.4310    0.1337 C   0  0  1  0  0  0  0  0  0  0  0  0
    0.1971   -1.4035    0.2755 C   0  0  2  0  0  0  0  0  0  0  0  0
    0.4506    1.6250    0.4156 C   0  0  1  0  0  0  0  0  0  0  0  0
   -1.8803    1.9676    0.0777 C   0  0  2  0  0  0  0  0  0  0  0  0
    1.4676   -0.6358   -0.2882 C   0  0  1  0  0  0  0  0  0  0  0  0
    1.6770    0.7058    0.4617 C   0  0  1  0  0  0  0  0  0  0  0  0
   -2.4793   -0.9927    0.3672 C   0  0  2  0  0  0  0  0  0  0  0  0
   -3.2386    1.3512   -0.3589 C   0  0  2  0  0  0  0  0  0  0  0  0
   -3.5505    0.1064    0.4877 C   0  0  1  0  0  0  0  0  0  0  0  0
   -0.0054   -2.6548   -0.6352 C   0  0  1  0  0  0  0  0  0  0  0  0
   -1.0478    1.0279    2.3117 C   0  0  0  0  0  0  0  0  0  0  0  0
   -1.0384    2.5485   -1.0439 C   0  0  0  0  0  0  0  0  0  0  0  0
    0.4358   -1.8760    1.7346 C   0  0  0  0  0  0  0  0  0  0  0  0
    2.6886   -1.5640   -0.3782 C   0  0  0  0  0  0  0  0  0  0  0  0
   -3.4062    1.0690   -1.8625 C   0  0  0  0  0  0  0  0  0  0  0  0
    1.2362   -3.5220   -0.7403 C   0  0  0  0  0  0  0  0  0  0  0  0
    2.5617   -2.8831   -0.5985 C   0  0  0  0  0  0  0  0  0  0  0  0
    4.0799   -0.9994   -0.2811 C   0  0  0  0  0  0  0  0  0  0  0  0
    3.0202    2.6491    0.4635 C   0  0  0  0  0  0  0  0  0  0  0  0
    3.5587    3.6010   -0.5612 C   0  0  0  0  0  0  0  0  0  0  0  0
   -1.0423   -0.2299   -0.9486 H   0  0  0  0  0  0  0  0  0  0  0  0
    0.6042    2.5068    1.0492 H   0  0  0  0  0  0  0  0  0  0  0  0
   -2.0857    2.8120    0.7502 H   0  0  0  0  0  0  0  0  0  0  0  0
    1.2684   -0.3649   -1.3376 H   0  0  0  0  0  0  0  0  0  0  0  0
    1.9483    0.4893    1.5018 H   0  0  0  0  0  0  0  0  0  0  0  0
   -2.7365   -1.6508   -0.4718 H   0  0  0  0  0  0  0  0  0  0  0  0
   -4.0163    2.0943   -0.1299 H   0  0  0  0  0  0  0  0  0  0  0  0
   -3.6625    0.4092    1.5349 H   0  0  0  0  0  0  0  0  0  0  0  0
   -0.2722   -2.3429   -1.6528 H   0  0  0  0  0  0  0  0  0  0  0  0
   -0.1218    0.7700    2.8308 H   0  0  0  0  0  0  0  0  0  0  0  0
   -1.2999    2.0386    2.6541 H   0  0  0  0  0  0  0  0  0  0  0  0
   -1.8260    0.3626    2.6872 H   0  0  0  0  0  0  0  0  0  0  0  0
    0.6599   -1.0581    2.4155 H   0  0  0  0  0  0  0  0  0  0  0  0
   -0.4153   -2.4210    2.1459 H   0  0  0  0  0  0  0  0  0  0  0  0
    1.2864   -2.5610    1.8123 H   0  0  0  0  0  0  0  0  0  0  0  0
   -3.4202    1.9996   -2.4375 H   0  0  0  0  0  0  0  0  0  0  0  0
   -2.6147    0.4315   -2.2636 H   0  0  0  0  0  0  0  0  0  0  0  0
   -4.3619    0.5765   -2.0708 H   0  0  0  0  0  0  0  0  0  0  0  0
    3.4241   -3.5365   -0.6831 H   0  0  0  0  0  0  0  0  0  0  0  0
   -3.4694   -2.1337    1.6031 H   0  0  0  0  0  0  0  0  0  0  0  0
   -5.4834    0.2399    0.2267 H   0  0  0  0  0  0  0  0  0  0  0  0
    4.2352   -0.5124    0.6865 H   0  0  0  0  0  0  0  0  0  0  0  0
    4.2623   -0.2839   -1.0887 H   0  0  0  0  0  0  0  0  0  0  0  0
    4.8496   -1.7750   -0.3681 H   0  0  0  0  0  0  0  0  0  0  0  0
   -1.2122   -4.1726   -0.8360 H   0  0  0  0  0  0  0  0  0  0  0  0
    2.8112    3.7695   -1.3404 H   0  0  0  0  0  0  0  0  0  0  0  0
    4.4800    3.2002   -0.9913 H   0  0  0  0  0  0  0  0  0  0  0  0
    3.7852    4.5581   -0.0830 H   0  0  0  0  0  0  0  0  0  0  0  0
  1 12  1  0  0  0  0
  1 21  1  0  0  0  0
  2 15  1  0  0  0  0
  2 28  1  0  0  0  0
  3 16  1  0  0  0  0
  3 49  1  0  0  0  0
  4 18  1  0  0  0  0
  4 50  1  0  0  0  0
  5 19  1  0  0  0  0
  5 54  1  0  0  0  0
  6 21  2  0  0  0  0
  7 25  2  0  0  0  0
  8 28  2  0  0  0  0
  9 10  1  0  0  0  0
  9 12  1  0  0  0  0
  9 13  1  0  0  0  0
  9 20  1  0  0  0  0
 10 11  1  0  0  0  0
 10 16  1  0  0  0  0
 10 30  1  0  0  0  0
 11 14  1  0  0  0  0
 11 19  1  0  0  0  0
 11 22  1  0  0  0  0
 12 15  1  0  0  0  0
 12 31  1  0  0  0  0
 13 17  1  0  0  0  0
 13 21  1  0  0  0  0
 13 32  1  0  0  0  0
 14 15  1  0  0  0  0
 14 23  1  0  0  0  0
 14 33  1  0  0  0  0
 15 34  1  0  0  0  0
 16 18  1  0  0  0  0
 16 35  1  0  0  0  0
 17 18  1  0  0  0  0
 17 24  1  0  0  0  0
 17 36  1  0  0  0  0
 18 37  1  0  0  0  0
 19 25  1  0  0  0  0
 19 38  1  0  0  0  0
 20 39  1  0  0  0  0
 20 40  1  0  0  0  0
 20 41  1  0  0  0  0
 22 42  1  0  0  0  0
 22 43  1  0  0  0  0
 22 44  1  0  0  0  0
 23 26  2  0  0  0  0
 23 27  1  0  0  0  0
 24 45  1  0  0  0  0
 24 46  1  0  0  0  0
 24 47  1  0  0  0  0
 25 26  1  0  0  0  0
 26 48  1  0  0  0  0
 27 51  1  0  0  0  0
 27 52  1  0  0  0  0
 27 53  1  0  0  0  0
 28 29  1  0  0  0  0
 29 55  1  0  0  0  0
 29 56  1  0  0  0  0
 29 57  1  0  0  0  0
M  END
> <PUBCHEM_COMPOUND_CID>
10938426

> <PUBCHEM_CONFORMER_RMSD>
0.8

> <PUBCHEM_CONFORMER_DIVERSEORDER>
1
3
2

> <PUBCHEM_MMFF94_PARTIAL_CHARGES>
26
1 -0.43
12 0.28
13 0.06
14 0.14
15 0.28
16 0.28
18 0.28
19 0.34
2 -0.43
21 0.66
23 -0.28
25 0.49
26 -0.14
27 0.14
28 0.66
29 0.06
3 -0.68
4 -0.68
48 0.15
49 0.4
5 -0.68
50 0.4
54 0.4
6 -0.57
7 -0.57
8 -0.57

> <PUBCHEM_EFFECTIVE_ROTOR_COUNT>
3.2

> <PUBCHEM_PHARMACOPHORE_FEATURES>
13
1 3 acceptor
1 3 donor
1 4 acceptor
1 4 donor
1 5 acceptor
1 5 donor
1 6 acceptor
1 7 acceptor
1 8 acceptor
5 1 9 12 13 21 rings
6 11 14 19 23 25 26 rings
6 9 10 11 12 14 15 rings
6 9 10 13 16 17 18 rings

> <PUBCHEM_HEAVY_ATOM_COUNT>
29

> <PUBCHEM_ATOM_DEF_STEREO_COUNT>
11

> <PUBCHEM_ATOM_UDEF_STEREO_COUNT>
0

> <PUBCHEM_BOND_DEF_STEREO_COUNT>
0

> <PUBCHEM_BOND_UDEF_STEREO_COUNT>
0

> <PUBCHEM_ISOTOPIC_ATOM_COUNT>
0

> <PUBCHEM_COMPONENT_COUNT>
1

> <PUBCHEM_CACTVS_TAUTO_COUNT>
26

> <PUBCHEM_CONFORMER_ID>
00A6E83A00000001

> <PUBCHEM_MMFF94_ENERGY>
116.2833

> <PUBCHEM_FEATURE_SELFOVERLAP>
66.333

> <PUBCHEM_SHAPE_FINGERPRINT>
10165383 225 18126295361375912328
10863032 1 18340772645040598097
10930396 42 17905569305092714994
10967382 1 18340493244575562022
1100329 8 18343302604543847042
11115154 58 16908580453089750101
11578080 2 16445582741750145534
12156800 1 17403489718652010231
12403259 226 18191872223272947079
12422481 6 17903376023437927355
12553582 1 17620769283968581090
12788726 201 16464726141101033288
13004483 165 16540146690801394736
13140716 1 18409737282678298707
138480 1 18196659484252583294
13911987 19 18266754476469282836
14223421 5 18408889537648619960
14659021 117 16826149937300232902
14790565 3 17978525444163111201
16945 1 18198075697914944963
19591789 44 18340493382072278006
19930381 70 18267868281073037948
20691752 17 17894911785574998265
20739085 24 18048067260969465059
20775438 99 17687980351569364773
20905425 154 18117275848248986035
22182313 1 18260261954475051917
2334 1 18337394966583708640
23419403 2 17901709025949057962
23559900 14 18339918199846152552
238 59 18120064248570982861
2748010 2 18335709376630015569
3380486 145 17833572105834473328
350125 39 18411706521405557200
5265222 85 17977112576776067764
57527585 103 17322156292620175578
6287921 2 18337121085457908701
70251023 43 16829239568846348271
9709674 26 17762620590255899638
9925002 15 17039512960050229013

> <PUBCHEM_SHAPE_MULTIPOLES>
549.85
5.98
5.16
1.5
1.83
0.14
0.32
-0.36
-1.11
-4.49
-1.09
0.74
-0.43
1.54

> <PUBCHEM_SHAPE_SELFOVERLAP>
1188.611

> <PUBCHEM_SHAPE_VOLUME>
295.2

> <PUBCHEM_COORDINATE_TYPE>
2
5
10

$$$$
