REMARK  Name = 10948946
REMARK  5 active torsions:
REMARK  status: ('A' for Active; 'I' for Inactive)
REMARK    1  A    between atoms: C_3  and  O_22
REMARK    2  A    between atoms: C_4  and  C_27
REMARK    3  A    between atoms: C_11  and  O_24
REMARK    4  A    between atoms: C_18  and  O_30
REMARK    5  A    between atoms: C_27  and  O_28
REMARK                            x       y       z     vdW  Elec       q    Type
REMARK                         _______ _______ _______ _____ _____    ______ ____
ROOT
ATOM      1  O   UNL     1       1.414  -2.700   0.698  0.00  0.00    -0.287 OA
ATOM      2  O   UNL     1       2.657   2.372  -0.428  0.00  0.00    -0.286 OA
ATOM      3  C   UNL     1      -4.224   0.727   0.289  0.00  0.00    +0.102 C 
ATOM      4  C   UNL     1      -3.171  -0.341   0.682  0.00  0.00    +0.146 C 
ATOM      5  C   UNL     1      -3.754   2.114   0.750  0.00  0.00    +0.033 C 
ATOM      6  C   UNL     1      -1.730   0.081   0.435  0.00  0.00    -0.011 C 
ATOM      7  C   UNL     1      -2.436   2.501   0.084  0.00  0.00    +0.032 C 
ATOM      8  C   UNL     1      -1.390   1.421   0.181  0.00  0.00    +0.008 C 
ATOM      9  C   UNL     1      -5.593   0.409   0.904  0.00  0.00    +0.030 C 
ATOM     10  C   UNL     1      -0.696  -0.871   0.538  0.00  0.00    -0.000 C 
ATOM     11  C   UNL     1      -0.045   1.773  -0.030  0.00  0.00    +0.132 C 
ATOM     12  C   UNL     1       0.642  -0.510   0.340  0.00  0.00    +0.045 C 
ATOM     13  C   UNL     1       0.967   0.812   0.049  0.00  0.00    +0.075 C 
ATOM     14  C   UNL     1       1.699  -1.537   0.441  0.00  0.00    +0.196 C 
ATOM     15  C   UNL     1       2.373   1.210  -0.169  0.00  0.00    +0.202 C 
ATOM     16  C   UNL     1       3.431   0.184  -0.069  0.00  0.00    +0.076 C 
ATOM     17  C   UNL     1       3.106  -1.141   0.227  0.00  0.00    +0.045 C 
ATOM     18  C   UNL     1       4.768   0.547  -0.271  0.00  0.00    +0.137 C 
ATOM     19  C   UNL     1       4.119  -2.104   0.320  0.00  0.00    +0.003 C 
ATOM     20  C   UNL     1       5.774  -0.415  -0.177  0.00  0.00    +0.037 C 
ATOM     21  C   UNL     1       5.450  -1.738   0.118  0.00  0.00    +0.003 C 
ENDROOT
BRANCH   3  22
ATOM     22  O   UNL     1      -4.380   0.746  -1.134  0.00  0.00    -0.386 OA
ATOM     23  H   UNL     1      -3.527   0.945  -1.550  0.00  0.00    +0.210 HD
ENDBRANCH   3  22
BRANCH  11  24
ATOM     24  O   UNL     1       0.239   3.080  -0.317  0.00  0.00    -0.506 OA
ATOM     25  H   UNL     1      -0.453   3.710  -0.365  0.00  0.00    +0.292 HD
ENDBRANCH  11  24
BRANCH   4  27
ATOM     26  O   UNL     1      -3.783  -2.674   0.589  0.00  0.00    -0.250 OA
ATOM     27  C   UNL     1      -3.493  -1.642  -0.002  0.00  0.00    +0.323 C 
BRANCH  27  28
ATOM     28  O   UNL     1      -3.409  -1.480  -1.353  0.00  0.00    -0.444 OA
ATOM     29  C   UNL     1      -3.693  -2.646  -2.132  0.00  0.00    +0.256 C 
ENDBRANCH  27  28
ENDBRANCH   4  27
BRANCH  18  30
ATOM     30  O   UNL     1       5.157   1.821  -0.562  0.00  0.00    -0.505 OA
ATOM     31  H   UNL     1       4.517   2.501  -0.635  0.00  0.00    +0.292 HD
ENDBRANCH  18  30
TORSDOF 5
