REMARK  Name = 10948384
REMARK  13 active torsions:
REMARK  status: ('A' for Active; 'I' for Inactive)
REMARK    1  A    between atoms: C_1  and  C_26
REMARK    2  A    between atoms: C_3  and  O_9
REMARK    3  A    between atoms: C_5  and  O_7
REMARK    4  A    between atoms: O_9  and  C_11
REMARK    5  A    between atoms: C_10  and  C_16
REMARK    6  A    between atoms: C_16  and  CA_17
REMARK    7  A    between atoms: CA_17  and  N_18
REMARK    8  A    between atoms: CA_17  and  C_23
REMARK    9  A    between atoms: C_23  and  O_24
REMARK   10  A    between atoms: C_26  and  CA_27
REMARK   11  A    between atoms: CA_27  and  N_28
REMARK   12  A    between atoms: CA_27  and  C_33
REMARK   13  A    between atoms: C_33  and  O_34
REMARK                            x       y       z     vdW  Elec       q    Type
REMARK                         _______ _______ _______ _____ _____    ______ ____
ROOT
ATOM      1  C   UNL     1       3.249  -0.645  -0.320  0.00  0.00    -0.021 C 
ATOM      2  C   UNL     1       2.307   0.278  -0.777  0.00  0.00    +0.036 C 
ATOM      3  C   UNL     1       2.316   1.562  -0.261  0.00  0.00    +0.178 C 
ATOM      4  C   UNL     1       4.184  -0.268   0.644  0.00  0.00    -0.001 C 
ATOM      5  C   UNL     1       3.235   1.953   0.696  0.00  0.00    +0.168 C 
ATOM      6  C   UNL     1       4.176   1.031   1.153  0.00  0.00    +0.039 C 
ENDROOT
BRANCH   5   7
ATOM      7  O   UNL     1       3.237   3.219   1.201  0.00  0.00    -0.503 OA
ATOM      8  H   UNL     1       2.608   3.844   0.900  0.00  0.00    +0.292 HD
ENDBRANCH   5   7
BRANCH   3   9
ATOM      9  O   UNL     1       1.375   2.468  -0.722  0.00  0.00    -0.450 OA
BRANCH   9  11
ATOM     10  C   UNL     1      -2.613   1.538  -0.182  0.00  0.00    -0.024 C 
ATOM     11  C   UNL     1       0.061   2.162  -0.544  0.00  0.00    +0.145 C 
ATOM     12  C   UNL     1      -2.192   2.028  -1.407  0.00  0.00    -0.001 C 
ATOM     13  C   UNL     1      -1.726   1.353   0.866  0.00  0.00    -0.001 C 
ATOM     14  C   UNL     1      -0.845   2.342  -1.589  0.00  0.00    +0.037 C 
ATOM     15  C   UNL     1      -0.380   1.667   0.684  0.00  0.00    +0.037 C 
BRANCH  10  16
ATOM     16  C   UNL     1      -4.072   1.198   0.016  0.00  0.00    +0.015 C 
BRANCH  16  17
ATOM     17  CA  UNL     1      -4.401  -0.258  -0.349  0.00  0.00    +0.040 C 
BRANCH  17  18
ATOM     18  N   UNL     1      -5.833  -0.393  -0.601  0.00  0.00    +0.389 N 
ATOM     19  H1  UNL     1      -6.107   0.237  -1.355  0.00  0.00    -0.088 HD
ATOM     20  H2  UNL     1      -6.351  -0.156   0.245  0.00  0.00    -0.088 HD
ATOM     21  H3  UNL     1      -6.042  -1.355  -0.870  0.00  0.00    -0.088 HD
ENDBRANCH  17  18
BRANCH  17  23
ATOM     22  OXT UNL     1      -4.827  -1.525   1.687  0.00  0.00    -0.253 OA
ATOM     23  C   UNL     1      -4.065  -1.220   0.778  0.00  0.00    +0.293 C 
BRANCH  23  24
ATOM     24  O   UNL     1      -2.819  -1.746   0.655  0.00  0.00    -0.482 OA
ATOM     25  H   UNL     1      -2.268  -1.485  -0.057  0.00  0.00    +0.295 HD
ENDBRANCH  23  24
ENDBRANCH  17  23
ENDBRANCH  16  17
ENDBRANCH  10  16
ENDBRANCH   9  11
ENDBRANCH   3   9
BRANCH   1  26
ATOM     26  C   UNL     1       3.257  -2.033  -0.864  0.00  0.00    +0.015 C 
BRANCH  26  27
ATOM     27  CA  UNL     1       2.368  -3.013  -0.067  0.00  0.00    +0.040 C 
BRANCH  27  28
ATOM     28  N   UNL     1       2.427  -4.350  -0.655  0.00  0.00    +0.389 N 
ATOM     29  H1  UNL     1       3.393  -4.675  -0.665  0.00  0.00    -0.088 HD
ATOM     30  H2  UNL     1       2.070  -4.317  -1.610  0.00  0.00    -0.088 HD
ATOM     31  H3  UNL     1       1.858  -4.990  -0.102  0.00  0.00    -0.088 HD
ENDBRANCH  27  28
BRANCH  27  33
ATOM     32  OXT UNL     1       0.094  -2.932  -0.936  0.00  0.00    -0.253 OA
ATOM     33  C   UNL     1       0.908  -2.595  -0.086  0.00  0.00    +0.293 C 
BRANCH  33  34
ATOM     34  O   UNL     1       0.580  -1.818   0.980  0.00  0.00    -0.482 OA
ATOM     35  H   UNL     1       1.234  -1.583   1.607  0.00  0.00    +0.295 HD
ENDBRANCH  33  34
ENDBRANCH  27  33
ENDBRANCH  26  27
ENDBRANCH   1  26
TORSDOF 13
