10948946
  -OEChem-03292013303D

 46 49  0     1  0  0  0  0  0999 V2000
   -4.3799    0.7457   -1.1340 O   0  0  0  0  0  0  0  0  0  0  0  0
   -3.4093   -1.4795   -1.3532 O   0  0  0  0  0  0  0  0  0  0  0  0
    0.2386    3.0804   -0.3165 O   0  0  0  0  0  0  0  0  0  0  0  0
   -3.7833   -2.6738    0.5885 O   0  0  0  0  0  0  0  0  0  0  0  0
    1.4143   -2.7001    0.6977 O   0  0  0  0  0  0  0  0  0  0  0  0
    2.6573    2.3722   -0.4285 O   0  0  0  0  0  0  0  0  0  0  0  0
    5.1571    1.8214   -0.5618 O   0  0  0  0  0  0  0  0  0  0  0  0
   -4.2237    0.7266    0.2895 C   0  0  1  0  0  0  0  0  0  0  0  0
   -3.1708   -0.3412    0.6825 C   0  0  2  0  0  0  0  0  0  0  0  0
   -3.7539    2.1139    0.7495 C   0  0  0  0  0  0  0  0  0  0  0  0
   -1.7296    0.0805    0.4351 C   0  0  0  0  0  0  0  0  0  0  0  0
   -2.4355    2.5011    0.0835 C   0  0  0  0  0  0  0  0  0  0  0  0
   -1.3896    1.4214    0.1806 C   0  0  0  0  0  0  0  0  0  0  0  0
   -5.5928    0.4095    0.9045 C   0  0  0  0  0  0  0  0  0  0  0  0
   -0.6964   -0.8706    0.5383 C   0  0  0  0  0  0  0  0  0  0  0  0
   -0.0453    1.7733   -0.0300 C   0  0  0  0  0  0  0  0  0  0  0  0
   -3.4934   -1.6422   -0.0022 C   0  0  0  0  0  0  0  0  0  0  0  0
    0.6421   -0.5097    0.3396 C   0  0  0  0  0  0  0  0  0  0  0  0
    0.9670    0.8119    0.0489 C   0  0  0  0  0  0  0  0  0  0  0  0
    1.6994   -1.5370    0.4410 C   0  0  0  0  0  0  0  0  0  0  0  0
    2.3728    1.2095   -0.1693 C   0  0  0  0  0  0  0  0  0  0  0  0
    3.4314    0.1843   -0.0687 C   0  0  0  0  0  0  0  0  0  0  0  0
    3.1064   -1.1412    0.2268 C   0  0  0  0  0  0  0  0  0  0  0  0
    4.7683    0.5473   -0.2708 C   0  0  0  0  0  0  0  0  0  0  0  0
    4.1185   -2.1041    0.3200 C   0  0  0  0  0  0  0  0  0  0  0  0
   -3.6930   -2.6462   -2.1320 C   0  0  0  0  0  0  0  0  0  0  0  0
    5.7737   -0.4154   -0.1768 C   0  0  0  0  0  0  0  0  0  0  0  0
    5.4496   -1.7382    0.1179 C   0  0  0  0  0  0  0  0  0  0  0  0
   -3.2448   -0.5121    1.7664 H   0  0  0  0  0  0  0  0  0  0  0  0
   -3.6374    2.1261    1.8412 H   0  0  0  0  0  0  0  0  0  0  0  0
   -4.5013    2.8753    0.4934 H   0  0  0  0  0  0  0  0  0  0  0  0
   -2.0814    3.4210    0.5644 H   0  0  0  0  0  0  0  0  0  0  0  0
   -2.6047    2.7273   -0.9765 H   0  0  0  0  0  0  0  0  0  0  0  0
   -6.3338    1.1592    0.6035 H   0  0  0  0  0  0  0  0  0  0  0  0
   -5.9775   -0.5553    0.5563 H   0  0  0  0  0  0  0  0  0  0  0  0
   -5.5479    0.3891    1.9983 H   0  0  0  0  0  0  0  0  0  0  0  0
   -0.9462   -1.9017    0.7792 H   0  0  0  0  0  0  0  0  0  0  0  0
   -4.9029   -0.0288   -1.4007 H   0  0  0  0  0  0  0  0  0  0  0  0
    1.1469    3.1767   -0.6382 H   0  0  0  0  0  0  0  0  0  0  0  0
    3.8916   -3.1421    0.5484 H   0  0  0  0  0  0  0  0  0  0  0  0
   -2.9775   -3.4402   -1.8982 H   0  0  0  0  0  0  0  0  0  0  0  0
   -3.5924   -2.3822   -3.1880 H   0  0  0  0  0  0  0  0  0  0  0  0
   -4.7182   -2.9823   -1.9499 H   0  0  0  0  0  0  0  0  0  0  0  0
    6.8169   -0.1515   -0.3306 H   0  0  0  0  0  0  0  0  0  0  0  0
    6.2342   -2.4859    0.1904 H   0  0  0  0  0  0  0  0  0  0  0  0
    6.1237    1.8535   -0.6621 H   0  0  0  0  0  0  0  0  0  0  0  0
  1  8  1  0  0  0  0
  1 38  1  0  0  0  0
  2 17  1  0  0  0  0
  2 26  1  0  0  0  0
  3 16  1  0  0  0  0
  3 39  1  0  0  0  0
  4 17  2  0  0  0  0
  5 20  2  0  0  0  0
  6 21  2  0  0  0  0
  7 24  1  0  0  0  0
  7 46  1  0  0  0  0
  8  9  1  0  0  0  0
  8 10  1  0  0  0  0
  8 14  1  0  0  0  0
  9 11  1  0  0  0  0
  9 17  1  0  0  0  0
  9 29  1  0  0  0  0
 10 12  1  0  0  0  0
 10 30  1  0  0  0  0
 10 31  1  0  0  0  0
 11 13  1  0  0  0  0
 11 15  2  0  0  0  0
 12 13  1  0  0  0  0
 12 32  1  0  0  0  0
 12 33  1  0  0  0  0
 13 16  2  0  0  0  0
 14 34  1  0  0  0  0
 14 35  1  0  0  0  0
 14 36  1  0  0  0  0
 15 18  1  0  0  0  0
 15 37  1  0  0  0  0
 16 19  1  0  0  0  0
 18 19  2  0  0  0  0
 18 20  1  0  0  0  0
 19 21  1  0  0  0  0
 20 23  1  0  0  0  0
 21 22  1  0  0  0  0
 22 23  2  0  0  0  0
 22 24  1  0  0  0  0
 23 25  1  0  0  0  0
 24 27  2  0  0  0  0
 25 28  2  0  0  0  0
 25 40  1  0  0  0  0
 26 41  1  0  0  0  0
 26 42  1  0  0  0  0
 26 43  1  0  0  0  0
 27 28  1  0  0  0  0
 27 44  1  0  0  0  0
 28 45  1  0  0  0  0
M  END
> <PUBCHEM_COMPOUND_CID>
10948946

> <PUBCHEM_CONFORMER_RMSD>
0.6

> <PUBCHEM_CONFORMER_DIVERSEORDER>
3
2
6
4
5
1

> <PUBCHEM_MMFF94_PARTIAL_CHARGES>
33
1 -0.68
11 -0.14
12 0.14
13 -0.14
15 -0.15
16 0.08
17 0.66
18 0.09
19 0.09
2 -0.43
20 0.4
21 0.4
22 0.09
23 0.09
24 0.08
25 -0.15
26 0.28
27 -0.15
28 -0.15
3 -0.53
37 0.15
38 0.4
39 0.45
4 -0.57
40 0.15
44 0.15
45 0.15
46 0.45
5 -0.57
6 -0.57
7 -0.53
8 0.28
9 0.2

> <PUBCHEM_EFFECTIVE_ROTOR_COUNT>
2.8

> <PUBCHEM_PHARMACOPHORE_FEATURES>
11
1 1 acceptor
1 1 donor
1 3 donor
1 4 acceptor
1 5 acceptor
1 6 acceptor
1 7 donor
6 11 13 15 16 18 19 rings
6 18 19 20 21 22 23 rings
6 22 23 24 25 27 28 rings
6 8 9 10 11 12 13 rings

> <PUBCHEM_HEAVY_ATOM_COUNT>
28

> <PUBCHEM_ATOM_DEF_STEREO_COUNT>
2

> <PUBCHEM_ATOM_UDEF_STEREO_COUNT>
0

> <PUBCHEM_BOND_DEF_STEREO_COUNT>
0

> <PUBCHEM_BOND_UDEF_STEREO_COUNT>
0

> <PUBCHEM_ISOTOPIC_ATOM_COUNT>
0

> <PUBCHEM_COMPONENT_COUNT>
1

> <PUBCHEM_CACTVS_TAUTO_COUNT>
76

> <PUBCHEM_CONFORMER_ID>
00A7115200000003

> <PUBCHEM_MMFF94_ENERGY>
91.0124

> <PUBCHEM_FEATURE_SELFOVERLAP>
55.884

> <PUBCHEM_SHAPE_FINGERPRINT>
10062212 137 18413387657198485403
10616163 171 18412547608834883215
10622 236 18199726150921635791
11135609 12 17678193774357954819
11578080 2 16445306759988945310
11607047 403 16765318880893386578
12107183 9 17689155608707414688
12236239 1 18272937115639695993
12553582 1 18335128761755914827
12788726 201 18196646307277173553
13140716 1 18411422799543759601
13167823 11 18411700976323073210
13224815 77 18334575737239578450
13583140 156 14405186157718185279
14341114 176 18408893914262492608
14790565 3 18408893914595009792
15196674 1 18408608063172926288
15219462 58 15913046443921318874
15250474 111 18341884195493925022
15788980 27 18187368722440127114
17349148 13 17967250897285829272
17492 89 18265616657342962739
17857418 61 18411132524616545200
1813 80 17095532764100438476
19141452 34 18273497849416372647
19591789 44 18409450310464987898
200 152 18343301427079002561
20028762 73 18341609283649378654
20511986 3 18336252458149323096
20775438 99 16545479270667882439
21033648 29 15647047179349427710
21267235 1 18336276647278338851
21421861 104 17752485352553556858
21709351 56 18408039624024551534
221490 88 18262807374910461834
22393880 68 18408882906640991150
23402539 116 18409446994681884298
23559900 14 18411131459212111112
23622692 118 18130213978294498175
24771293 8 18341323496989447272
3004659 81 18113904823761983560
335352 9 18409169883544966397
34797466 226 17060624412585553160
34934 24 18335983060936991091
350125 39 18409453552828154057
3633792 109 18264200323922547093
4073 2 18041289845853260114
4214541 1 18410014290820475465
46194498 28 17169543241266048615
463206 1 18410014372414200523
5104073 3 18410575072305757160
59755656 215 18335705983896255526
70251023 43 17766264754933904191
7970288 3 17981042234953674503
9709674 26 18262245507499795722

> <PUBCHEM_SHAPE_MULTIPOLES>
535.14
12.22
3.15
1.01
5.51
0.11
0.38
2.24
0.49
-1.02
0.5
-1.12
0.55
-1.63

> <PUBCHEM_SHAPE_SELFOVERLAP>
1203.057

> <PUBCHEM_SHAPE_VOLUME>
278.4

> <PUBCHEM_COORDINATE_TYPE>
2
5
10

$$$$
