REMARK  Name = 10948757
REMARK  9 active torsions:
REMARK  status: ('A' for Active; 'I' for Inactive)
REMARK    1  A    between atoms: C_3  and  C_7
REMARK    2  A    between atoms: C_4  and  C_20
REMARK    3  A    between atoms: C_7  and  C_8
REMARK    4  A    between atoms: C_7  and  O_18
REMARK    5  A    between atoms: C_11  and  O_14
REMARK    6  A    between atoms: C_13  and  O_16
REMARK    7  A    between atoms: C_20  and  C_21
REMARK    8  A    between atoms: C_24  and  O_27
REMARK    9  A    between atoms: C_26  and  O_29
REMARK                            x       y       z     vdW  Elec       q    Type
REMARK                         _______ _______ _______ _____ _____    ______ ____
ROOT
ATOM      1  O   UNL     1       0.606   3.512   1.022  0.00  0.00    -0.448 OA
ATOM      2  O   UNL     1      -1.170   4.559   0.021  0.00  0.00    -0.250 OA
ATOM      3  C   UNL     1       0.224   1.316   0.294  0.00  0.00    +0.086 C 
ATOM      4  C   UNL     1      -1.040   2.133   0.048  0.00  0.00    +0.110 C 
ATOM      5  C   UNL     1       0.966   2.157   1.314  0.00  0.00    +0.212 C 
ATOM      6  C   UNL     1      -0.575   3.539   0.332  0.00  0.00    +0.317 C 
ENDROOT
BRANCH   3   7
ATOM      7  C   UNL     1       1.043   1.163  -0.990  0.00  0.00    +0.137 C 
BRANCH   7   8
ATOM      8  C   UNL     1       2.353   0.444  -0.752  0.00  0.00    +0.008 C 
ATOM      9  C   UNL     1       2.336  -0.830  -0.211  0.00  0.00    +0.038 C 
ATOM     10  C   UNL     1       3.540   1.076  -1.079  0.00  0.00    +0.001 C 
ATOM     11  C   UNL     1       3.544  -1.493   0.009  0.00  0.00    +0.172 C 
ATOM     12  C   UNL     1       4.748   0.413  -0.859  0.00  0.00    +0.040 C 
ATOM     13  C   UNL     1       4.750  -0.871  -0.316  0.00  0.00    +0.168 C 
BRANCH  11  14
ATOM     14  O   UNL     1       3.533  -2.747   0.540  0.00  0.00    -0.468 OA
ATOM     15  C   UNL     1       3.586  -2.849   1.962  0.00  0.00    +0.253 C 
ENDBRANCH  11  14
BRANCH  13  16
ATOM     16  O   UNL     1       5.935  -1.508  -0.106  0.00  0.00    -0.503 OA
ATOM     17  H   UNL     1       5.946  -2.371   0.259  0.00  0.00    +0.292 HD
ENDBRANCH  13  16
ENDBRANCH   7   8
BRANCH   7  18
ATOM     18  O   UNL     1       0.287   0.441  -1.963  0.00  0.00    -0.380 OA
ATOM     19  H   UNL     1      -0.555   0.896  -2.121  0.00  0.00    +0.211 HD
ENDBRANCH   7  18
ENDBRANCH   3   7
BRANCH   4  20
ATOM     20  C   UNL     1      -2.178   1.768   0.991  0.00  0.00    +0.038 C 
BRANCH  20  21
ATOM     21  C   UNL     1      -2.978   0.596   0.481  0.00  0.00    -0.018 C 
ATOM     22  C   UNL     1      -2.607  -0.691   0.841  0.00  0.00    +0.036 C 
ATOM     23  C   UNL     1      -4.072   0.824  -0.340  0.00  0.00    -0.001 C 
ATOM     24  C   UNL     1      -3.347  -1.775   0.369  0.00  0.00    +0.172 C 
ATOM     25  C   UNL     1      -4.812  -0.260  -0.812  0.00  0.00    +0.039 C 
ATOM     26  C   UNL     1      -4.450  -1.559  -0.458  0.00  0.00    +0.168 C 
BRANCH  24  27
ATOM     27  O   UNL     1      -2.983  -3.039   0.722  0.00  0.00    -0.468 OA
ATOM     28  C   UNL     1      -2.058  -3.710  -0.132  0.00  0.00    +0.253 C 
ENDBRANCH  24  27
BRANCH  26  29
ATOM     29  O   UNL     1      -5.181  -2.609  -0.925  0.00  0.00    -0.503 OA
ATOM     30  H   UNL     1      -4.944  -3.485  -0.692  0.00  0.00    +0.292 HD
ENDBRANCH  26  29
ENDBRANCH  20  21
ENDBRANCH   4  20
TORSDOF 9
