REMARK  Name = 10947076
REMARK  7 active torsions:
REMARK  status: ('A' for Active; 'I' for Inactive)
REMARK    1  A    between atoms: C_3  and  C_11
REMARK    2  A    between atoms: C_8  and  O_25
REMARK    3  A    between atoms: C_9  and  O_27
REMARK    4  A    between atoms: C_12  and  O_17
REMARK    5  A    between atoms: C_13  and  O_19
REMARK    6  A    between atoms: C_16  and  C_22
REMARK    7  A    between atoms: C_22  and  O_23
REMARK                            x       y       z     vdW  Elec       q    Type
REMARK                         _______ _______ _______ _____ _____    ______ ____
ROOT
ATOM      1  O   UNL     1      -0.936  -1.953  -0.788  0.00  0.00    -0.440 OA
ATOM      2  O   UNL     1      -2.697  -2.904   0.368  0.00  0.00    -0.245 OA
ATOM      3  C   UNL     1      -0.520  -0.623  -1.208  0.00  0.00    +0.220 C 
ATOM      4  C   UNL     1      -1.578   0.240  -0.631  0.00  0.00    +0.034 C 
ATOM      5  C   UNL     1      -2.514  -0.545   0.015  0.00  0.00    +0.109 C 
ATOM      6  C   UNL     1      -2.113  -1.940  -0.085  0.00  0.00    +0.345 C 
ATOM      7  C   UNL     1      -1.733   1.614  -0.683  0.00  0.00    +0.037 C 
ATOM      8  C   UNL     1      -3.627  -0.016   0.642  0.00  0.00    +0.143 C 
ATOM      9  C   UNL     1      -2.849   2.179  -0.059  0.00  0.00    +0.137 C 
ATOM     10  C   UNL     1      -3.789   1.369   0.600  0.00  0.00    +0.073 C 
ENDROOT
BRANCH   3  11
ATOM     11  C   UNL     1       0.842  -0.367  -0.666  0.00  0.00    +0.089 C 
ATOM     12  C   UNL     1       1.914  -0.133  -1.533  0.00  0.00    +0.136 C 
ATOM     13  C   UNL     1       1.060  -0.360   0.716  0.00  0.00    +0.136 C 
ATOM     14  C   UNL     1       3.191   0.106  -1.024  0.00  0.00    +0.043 C 
ATOM     15  C   UNL     1       2.337  -0.120   1.224  0.00  0.00    +0.043 C 
ATOM     16  C   UNL     1       3.402   0.113   0.354  0.00  0.00    +0.081 C 
BRANCH  12  17
ATOM     17  O   UNL     1       1.726  -0.135  -2.883  0.00  0.00    -0.506 OA
ATOM     18  H   UNL     1       0.873  -0.295  -3.237  0.00  0.00    +0.292 HD
ENDBRANCH  12  17
BRANCH  13  19
ATOM     19  O   UNL     1       0.031  -0.584   1.581  0.00  0.00    -0.506 OA
ATOM     20  H   UNL     1      -0.831  -0.746   1.251  0.00  0.00    +0.292 HD
ENDBRANCH  13  19
BRANCH  16  22
ATOM     21  O   UNL     1       5.032   0.391   2.083  0.00  0.00    -0.245 OA
ATOM     22  C   UNL     1       4.733   0.363   0.885  0.00  0.00    +0.338 C 
BRANCH  22  23
ATOM     23  O   UNL     1       5.654   0.569  -0.096  0.00  0.00    -0.477 OA
ATOM     24  H   UNL     1       5.394   0.541  -0.996  0.00  0.00    +0.295 HD
ENDBRANCH  22  23
ENDBRANCH  16  22
ENDBRANCH   3  11
BRANCH   8  25
ATOM     25  O   UNL     1      -4.537  -0.795   1.277  0.00  0.00    -0.505 OA
ATOM     26  H   UNL     1      -4.422  -1.724   1.301  0.00  0.00    +0.292 HD
ENDBRANCH   8  25
BRANCH   9  27
ATOM     27  O   UNL     1      -3.028   3.530  -0.090  0.00  0.00    -0.505 OA
ATOM     28  H   UNL     1      -2.405   4.075  -0.527  0.00  0.00    +0.292 HD
ENDBRANCH   9  27
TORSDOF 7
