REMARK  Name = 10949906
REMARK  7 active torsions:
REMARK  status: ('A' for Active; 'I' for Inactive)
REMARK    1  A    between atoms: C_6  and  C_15
REMARK    2  A    between atoms: C_8  and  C_26
REMARK    3  A    between atoms: C_18  and  O_21
REMARK    4  A    between atoms: C_20  and  O_23
REMARK    5  A    between atoms: C_26  and  C_27
REMARK    6  A    between atoms: C_30  and  O_33
REMARK    7  A    between atoms: C_32  and  O_35
REMARK                            x       y       z     vdW  Elec       q    Type
REMARK                         _______ _______ _______ _____ _____    ______ ____
ROOT
ATOM      1  O   UNL     1       3.261  -2.570   0.648  0.00  0.00    -0.267 OA
ATOM      2  O   UNL     1       0.275  -5.935  -0.492  0.00  0.00    -0.247 OA
ATOM      3  N   UNL     1      -0.946  -1.382  -0.719  0.00  0.00    -0.337 N 
ATOM      4  N   UNL     1      -0.459  -3.757  -0.650  0.00  0.00    -0.293 N 
ATOM      5  N   UNL     1       1.755  -4.245   0.073  0.00  0.00    -0.274 N 
ATOM      6  C   UNL     1       1.016  -0.565  -0.027  0.00  0.00    +0.026 A 
ATOM      7  C   UNL     1       1.097  -1.977  -0.057  0.00  0.00    +0.090 A 
ATOM      8  C   UNL     1      -0.258  -0.224  -0.441  0.00  0.00    +0.097 A 
ATOM      9  C   UNL     1      -0.121  -2.440  -0.485  0.00  0.00    +0.126 A 
ATOM     10  C   UNL     1       2.149  -2.910   0.259  0.00  0.00    +0.264 A 
ATOM     11  C   UNL     1       0.501  -4.730  -0.367  0.00  0.00    +0.328 A 
ATOM     12  H   UNL     1      -1.877  -1.436  -1.034  0.00  0.00    +0.167 HD
ATOM     13  H   UNL     1      -1.357  -4.011  -0.962  0.00  0.00    +0.172 HD
ATOM     14  H   UNL     1       2.435  -4.928   0.274  0.00  0.00    +0.173 HD
ENDROOT
BRANCH   6  15
ATOM     15  C   UNL     1       2.008   0.404   0.345  0.00  0.00    +0.005 C 
ATOM     16  C   UNL     1       2.875   0.921  -0.617  0.00  0.00    +0.040 C 
ATOM     17  C   UNL     1       2.104   0.827   1.671  0.00  0.00    +0.003 C 
ATOM     18  C   UNL     1       3.837   1.863  -0.254  0.00  0.00    +0.172 C 
ATOM     19  C   UNL     1       3.067   1.768   2.034  0.00  0.00    +0.040 C 
ATOM     20  C   UNL     1       3.934   2.287   1.071  0.00  0.00    +0.168 C 
BRANCH  18  21
ATOM     21  O   UNL     1       4.678   2.361  -1.203  0.00  0.00    -0.468 OA
ATOM     22  C   UNL     1       4.254   3.534  -1.894  0.00  0.00    +0.253 C 
ENDBRANCH  18  21
BRANCH  20  23
ATOM     23  O   UNL     1       4.870   3.206   1.438  0.00  0.00    -0.503 OA
ATOM     24  H   UNL     1       5.456   3.559   0.797  0.00  0.00    +0.292 HD
ENDBRANCH  20  23
ENDBRANCH   6  15
BRANCH   8  26
ATOM     25  O   UNL     1      -0.143   2.072  -0.875  0.00  0.00    -0.285 OA
ATOM     26  C   UNL     1      -0.843   1.075  -0.584  0.00  0.00    +0.211 C 
BRANCH  26  27
ATOM     27  C   UNL     1      -2.314   1.341  -0.402  0.00  0.00    +0.044 C 
ATOM     28  C   UNL     1      -3.010   0.548   0.471  0.00  0.00    +0.043 C 
ATOM     29  C   UNL     1      -2.880   2.362  -1.119  0.00  0.00    +0.007 C 
ATOM     30  C   UNL     1      -4.372   0.794   0.640  0.00  0.00    +0.172 C 
ATOM     31  C   UNL     1      -4.242   2.608  -0.950  0.00  0.00    +0.040 C 
ATOM     32  C   UNL     1      -4.989   1.824  -0.070  0.00  0.00    +0.168 C 
BRANCH  30  33
ATOM     33  O   UNL     1      -5.091   0.021   1.502  0.00  0.00    -0.468 OA
ATOM     34  C   UNL     1      -5.696  -1.155   0.969  0.00  0.00    +0.253 C 
ENDBRANCH  30  33
BRANCH  32  35
ATOM     35  O   UNL     1      -6.319   2.074   0.085  0.00  0.00    -0.503 OA
ATOM     36  H   UNL     1      -6.827   1.552   0.674  0.00  0.00    +0.292 HD
ENDBRANCH  32  35
ENDBRANCH  26  27
ENDBRANCH   8  26
TORSDOF 7
