10948757
  -OEChem-03292013303D

 49 51  0     1  0  0  0  0  0999 V2000
    0.6057    3.5120    1.0216 O   0  0  0  0  0  0  0  0  0  0  0  0
    0.2871    0.4407   -1.9629 O   0  0  0  0  0  0  0  0  0  0  0  0
   -1.1698    4.5592    0.0210 O   0  0  0  0  0  0  0  0  0  0  0  0
    3.5326   -2.7472    0.5400 O   0  0  0  0  0  0  0  0  0  0  0  0
   -2.9832   -3.0392    0.7216 O   0  0  0  0  0  0  0  0  0  0  0  0
    5.9354   -1.5079   -0.1061 O   0  0  0  0  0  0  0  0  0  0  0  0
   -5.1809   -2.6092   -0.9252 O   0  0  0  0  0  0  0  0  0  0  0  0
    0.2237    1.3160    0.2941 C   0  0  1  0  0  0  0  0  0  0  0  0
   -1.0403    2.1330    0.0482 C   0  0  1  0  0  0  0  0  0  0  0  0
    1.0433    1.1627   -0.9903 C   0  0  1  0  0  0  0  0  0  0  0  0
    0.9657    2.1573    1.3136 C   0  0  0  0  0  0  0  0  0  0  0  0
   -2.1780    1.7675    0.9913 C   0  0  0  0  0  0  0  0  0  0  0  0
   -0.5746    3.5386    0.3321 C   0  0  0  0  0  0  0  0  0  0  0  0
    2.3526    0.4442   -0.7518 C   0  0  0  0  0  0  0  0  0  0  0  0
   -2.9776    0.5963    0.4810 C   0  0  0  0  0  0  0  0  0  0  0  0
    2.3362   -0.8303   -0.2111 C   0  0  0  0  0  0  0  0  0  0  0  0
    3.5402    1.0761   -1.0792 C   0  0  0  0  0  0  0  0  0  0  0  0
   -2.6067   -0.6909    0.8406 C   0  0  0  0  0  0  0  0  0  0  0  0
   -4.0719    0.8243   -0.3401 C   0  0  0  0  0  0  0  0  0  0  0  0
    3.5438   -1.4930    0.0085 C   0  0  0  0  0  0  0  0  0  0  0  0
    4.7477    0.4133   -0.8594 C   0  0  0  0  0  0  0  0  0  0  0  0
   -3.3470   -1.7748    0.3686 C   0  0  0  0  0  0  0  0  0  0  0  0
   -4.8122   -0.2596   -0.8123 C   0  0  0  0  0  0  0  0  0  0  0  0
    4.7496   -0.8712   -0.3156 C   0  0  0  0  0  0  0  0  0  0  0  0
   -4.4498   -1.5591   -0.4579 C   0  0  0  0  0  0  0  0  0  0  0  0
    3.5863   -2.8491    1.9617 C   0  0  0  0  0  0  0  0  0  0  0  0
   -2.0579   -3.7096   -0.1320 C   0  0  0  0  0  0  0  0  0  0  0  0
   -0.0008    0.3267    0.6991 H   0  0  0  0  0  0  0  0  0  0  0  0
   -1.3609    2.0891   -0.9989 H   0  0  0  0  0  0  0  0  0  0  0  0
    1.2385    2.1502   -1.4274 H   0  0  0  0  0  0  0  0  0  0  0  0
    0.6329    1.9374    2.3345 H   0  0  0  0  0  0  0  0  0  0  0  0
    2.0537    2.0649    1.2938 H   0  0  0  0  0  0  0  0  0  0  0  0
   -2.8572    2.6220    1.1184 H   0  0  0  0  0  0  0  0  0  0  0  0
   -1.8112    1.5545    2.0041 H   0  0  0  0  0  0  0  0  0  0  0  0
    0.8822    0.1997   -2.6932 H   0  0  0  0  0  0  0  0  0  0  0  0
    1.4030   -1.3309    0.0314 H   0  0  0  0  0  0  0  0  0  0  0  0
    3.5520    2.0761   -1.5025 H   0  0  0  0  0  0  0  0  0  0  0  0
   -1.7593   -0.8674    1.4968 H   0  0  0  0  0  0  0  0  0  0  0  0
   -4.3610    1.8323   -0.6238 H   0  0  0  0  0  0  0  0  0  0  0  0
    5.6836    0.9033   -1.1138 H   0  0  0  0  0  0  0  0  0  0  0  0
   -5.6697   -0.0849   -1.4564 H   0  0  0  0  0  0  0  0  0  0  0  0
    5.7514   -2.3994    0.2368 H   0  0  0  0  0  0  0  0  0  0  0  0
   -4.8167   -3.4302   -0.5516 H   0  0  0  0  0  0  0  0  0  0  0  0
    2.6979   -2.3932    2.4102 H   0  0  0  0  0  0  0  0  0  0  0  0
    4.4904   -2.3717    2.3521 H   0  0  0  0  0  0  0  0  0  0  0  0
    3.6076   -3.9092    2.2285 H   0  0  0  0  0  0  0  0  0  0  0  0
   -2.4560   -3.7928   -1.1481 H   0  0  0  0  0  0  0  0  0  0  0  0
   -1.8944   -4.7159    0.2632 H   0  0  0  0  0  0  0  0  0  0  0  0
   -1.1000   -3.1796   -0.1470 H   0  0  0  0  0  0  0  0  0  0  0  0
  1 11  1  0  0  0  0
  1 13  1  0  0  0  0
  2 10  1  0  0  0  0
  2 35  1  0  0  0  0
  3 13  2  0  0  0  0
  4 20  1  0  0  0  0
  4 26  1  0  0  0  0
  5 22  1  0  0  0  0
  5 27  1  0  0  0  0
  6 24  1  0  0  0  0
  6 42  1  0  0  0  0
  7 25  1  0  0  0  0
  7 43  1  0  0  0  0
  8  9  1  0  0  0  0
  8 10  1  0  0  0  0
  8 11  1  0  0  0  0
  8 28  1  0  0  0  0
  9 12  1  0  0  0  0
  9 13  1  0  0  0  0
  9 29  1  0  0  0  0
 10 14  1  0  0  0  0
 10 30  1  0  0  0  0
 11 31  1  0  0  0  0
 11 32  1  0  0  0  0
 12 15  1  0  0  0  0
 12 33  1  0  0  0  0
 12 34  1  0  0  0  0
 14 16  2  0  0  0  0
 14 17  1  0  0  0  0
 15 18  2  0  0  0  0
 15 19  1  0  0  0  0
 16 20  1  0  0  0  0
 16 36  1  0  0  0  0
 17 21  2  0  0  0  0
 17 37  1  0  0  0  0
 18 22  1  0  0  0  0
 18 38  1  0  0  0  0
 19 23  2  0  0  0  0
 19 39  1  0  0  0  0
 20 24  2  0  0  0  0
 21 24  1  0  0  0  0
 21 40  1  0  0  0  0
 22 25  2  0  0  0  0
 23 25  1  0  0  0  0
 23 41  1  0  0  0  0
 26 44  1  0  0  0  0
 26 45  1  0  0  0  0
 26 46  1  0  0  0  0
 27 47  1  0  0  0  0
 27 48  1  0  0  0  0
 27 49  1  0  0  0  0
M  END
> <PUBCHEM_COMPOUND_CID>
10948757

> <PUBCHEM_CONFORMER_RMSD>
0.8

> <PUBCHEM_CONFORMER_DIVERSEORDER>
1
18
164
166
129
105
73
86
147
122
127
101
54
152
33
156
97
72
92
42
17
165
22
138
141
59
89
118
117
23
30
61
16
136
57
66
79
125
155
128
24
29
112
126
119
85
100
55
163
131
15
158
74
114
36
154
137
43
150
21
5
87
123
58
95
90
133
62
113
31
56
146
35
153
88
63
169
98
143
27
28
121
6
111
76
102
139
19
99
149
53
12
124
159
160
25
93
168
80
26
7
107
38
9
134
157
161
44
8
91
50
51
20
109
2
142
170
46
32
106
49
104
10
103
52
40
41
4
135
108
116
96
167
75
162
14
70
78
82
45
148
65
94
81
115
67
83
48
69
77
120
110
64
47
145
3
39
34
132
13
37
60
151
130
68
11
140
84
144
71

> <PUBCHEM_MMFF94_PARTIAL_CHARGES>
35
1 -0.43
10 0.42
11 0.28
12 0.14
13 0.66
14 -0.14
15 -0.14
16 -0.15
17 -0.15
18 -0.15
19 -0.15
2 -0.68
20 0.08
21 -0.15
22 0.08
23 -0.15
24 0.08
25 0.08
26 0.28
27 0.28
3 -0.57
35 0.4
36 0.15
37 0.15
38 0.15
39 0.15
4 -0.36
40 0.15
41 0.15
42 0.45
43 0.45
5 -0.36
6 -0.53
7 -0.53
9 0.06

> <PUBCHEM_EFFECTIVE_ROTOR_COUNT>
6.8

> <PUBCHEM_PHARMACOPHORE_FEATURES>
10
1 2 acceptor
1 2 donor
1 3 acceptor
1 4 acceptor
1 5 acceptor
1 6 donor
1 7 donor
5 1 8 9 11 13 rings
6 14 16 17 20 21 24 rings
6 15 18 19 22 23 25 rings

> <PUBCHEM_HEAVY_ATOM_COUNT>
27

> <PUBCHEM_ATOM_DEF_STEREO_COUNT>
3

> <PUBCHEM_ATOM_UDEF_STEREO_COUNT>
0

> <PUBCHEM_BOND_DEF_STEREO_COUNT>
0

> <PUBCHEM_BOND_UDEF_STEREO_COUNT>
0

> <PUBCHEM_ISOTOPIC_ATOM_COUNT>
0

> <PUBCHEM_COMPONENT_COUNT>
1

> <PUBCHEM_CACTVS_TAUTO_COUNT>
16

> <PUBCHEM_CONFORMER_ID>
00A7109500000001

> <PUBCHEM_MMFF94_ENERGY>
92.9799

> <PUBCHEM_FEATURE_SELFOVERLAP>
50.748

> <PUBCHEM_SHAPE_FINGERPRINT>
10483366 6 18266725897957868269
10622 236 17898557692649339610
11056379 131 18125455124365668660
11513181 2 17983859986385982926
11552529 35 18194682562625566264
12553582 1 18341349850032484403
12633257 1 18130519543510546553
12788726 201 18267020557333631946
12969540 37 17977385263120237725
13004483 165 18335697187607976417
13631057 29 18411422787428711292
14251757 5 18335701607234669699
14394314 77 18411422787096870025
14787075 74 18339652238940564116
14790565 3 17908432355466341825
14866123 147 18270405967391349017
14931854 50 18334011709424186559
15250474 111 18191022309854697898
15352361 1 18413110588731464055
20511986 3 18260537922981701806
20775438 99 17049324933714899535
20775530 9 18336264634629728323
21033648 29 16056879091915521163
22113638 7 18271521009083011575
23559900 14 18196365043207501409
255183 313 17982470200010678713
3004659 81 18186799171301456262
3027735 51 17979066090450798773
339767 52 18334850606794484410
392239 28 18412826915369970856
4280585 95 18410284835342859752
46194498 28 17242733336659689277
463206 1 18335429022677257931
6669772 16 17335069335139757924

> <PUBCHEM_SHAPE_MULTIPOLES>
514.56
10.74
4.77
1.28
3.2
1.22
0.11
-9.07
-1.95
-1.9
1.46
0.53
-0.11
-1.47

> <PUBCHEM_SHAPE_SELFOVERLAP>
1109.172

> <PUBCHEM_SHAPE_VOLUME>
284.7

> <PUBCHEM_COORDINATE_TYPE>
2
5
10

$$$$
