10950142
  -OEChem-03292013303D

 54 58  0     1  0  0  0  0  0999 V2000
    5.1886    2.1470    0.3651 O   0  0  0  0  0  0  0  0  0  0  0  0
    4.7391   -1.3058    1.0179 O   0  0  0  0  0  0  0  0  0  0  0  0
    1.1500    3.1386   -0.4194 O   0  0  0  0  0  0  0  0  0  0  0  0
    6.5391    0.6041    1.2787 O   0  0  0  0  0  0  0  0  0  0  0  0
   -5.0290    1.9489   -0.1971 O   0  0  0  0  0  0  0  0  0  0  0  0
    0.5070    0.9291   -0.1935 N   0  0  0  0  0  0  0  0  0  0  0  0
   -0.4730   -2.5192    0.1123 N   0  0  0  0  0  0  0  0  0  0  0  0
   -3.8080    1.3263    0.0966 N   0  0  0  0  0  0  0  0  0  0  0  0
   -6.2752    5.3478    0.4492 N   0  0  0  0  0  0  0  0  0  0  0  0
    4.6083   -0.2259    0.0903 C   0  0  2  0  0  0  0  0  0  0  0  0
    3.1701    0.2071    0.0143 C   0  0  0  0  0  0  0  0  0  0  0  0
    0.8459   -0.4049   -0.0373 C   0  0  0  0  0  0  0  0  0  0  0  0
   -0.9581    1.0968   -0.2836 C   0  0  0  0  0  0  0  0  0  0  0  0
    2.8683    1.5076   -0.1503 C   0  0  0  0  0  0  0  0  0  0  0  0
   -1.4449   -0.3095   -0.1633 C   0  0  0  0  0  0  0  0  0  0  0  0
   -0.3810   -1.1886   -0.0192 C   0  0  0  0  0  0  0  0  0  0  0  0
    2.1185   -0.7972    0.0626 C   0  0  0  0  0  0  0  0  0  0  0  0
    1.4339    1.9529   -0.2671 C   0  0  0  0  0  0  0  0  0  0  0  0
    5.1340   -0.6779   -1.2742 C   0  0  0  0  0  0  0  0  0  0  0  0
    3.9377    2.5423   -0.2392 C   0  0  0  0  0  0  0  0  0  0  0  0
    5.5190    0.8643    0.6433 C   0  0  0  0  0  0  0  0  0  0  0  0
   -2.7207   -0.8215   -0.1755 C   0  0  0  0  0  0  0  0  0  0  0  0
   -2.8798   -2.2108   -0.0417 C   0  0  0  0  0  0  0  0  0  0  0  0
   -1.7223   -3.0276    0.1009 C   0  0  0  0  0  0  0  0  0  0  0  0
    6.5732   -1.1429   -1.1822 C   0  0  0  0  0  0  0  0  0  0  0  0
   -3.8425    0.0984   -0.3292 C   0  0  0  0  0  0  0  0  0  0  0  0
   -4.1568   -2.7941   -0.0465 C   0  0  0  0  0  0  0  0  0  0  0  0
   -1.9049   -4.4003    0.2324 C   0  0  0  0  0  0  0  0  0  0  0  0
   -4.3043   -4.1719    0.0877 C   0  0  0  0  0  0  0  0  0  0  0  0
   -3.1784   -4.9744    0.2267 C   0  0  0  0  0  0  0  0  0  0  0  0
   -4.9675    3.2858    0.2762 C   0  0  0  0  0  0  0  0  0  0  0  0
   -6.2862    3.9755   -0.0351 C   0  0  0  0  0  0  0  0  0  0  0  0
   -1.1992    1.5548   -1.2475 H   0  0  0  0  0  0  0  0  0  0  0  0
   -1.2703    1.7376    0.5463 H   0  0  0  0  0  0  0  0  0  0  0  0
    2.3799   -1.8439    0.1703 H   0  0  0  0  0  0  0  0  0  0  0  0
    5.0620    0.1279   -2.0150 H   0  0  0  0  0  0  0  0  0  0  0  0
    4.5338   -1.5185   -1.6454 H   0  0  0  0  0  0  0  0  0  0  0  0
    4.1356    2.8083   -1.2827 H   0  0  0  0  0  0  0  0  0  0  0  0
    3.6308    3.4523    0.2866 H   0  0  0  0  0  0  0  0  0  0  0  0
    7.2644   -0.3157   -0.9963 H   0  0  0  0  0  0  0  0  0  0  0  0
    6.7198   -1.9073   -0.4133 H   0  0  0  0  0  0  0  0  0  0  0  0
    6.8725   -1.5874   -2.1383 H   0  0  0  0  0  0  0  0  0  0  0  0
    4.3505   -1.0292    1.8659 H   0  0  0  0  0  0  0  0  0  0  0  0
   -4.7554   -0.2732   -0.8248 H   0  0  0  0  0  0  0  0  0  0  0  0
   -5.0678   -2.2110   -0.1370 H   0  0  0  0  0  0  0  0  0  0  0  0
   -1.0408   -5.0531    0.3434 H   0  0  0  0  0  0  0  0  0  0  0  0
   -5.2947   -4.6174    0.0870 H   0  0  0  0  0  0  0  0  0  0  0  0
   -3.2874   -6.0499    0.3325 H   0  0  0  0  0  0  0  0  0  0  0  0
   -4.7856    3.2771    1.3581 H   0  0  0  0  0  0  0  0  0  0  0  0
   -4.1369    3.8063   -0.2163 H   0  0  0  0  0  0  0  0  0  0  0  0
   -6.4722    3.9638   -1.1149 H   0  0  0  0  0  0  0  0  0  0  0  0
   -7.1165    3.4270    0.4238 H   0  0  0  0  0  0  0  0  0  0  0  0
   -5.4993    5.8551    0.0252 H   0  0  0  0  0  0  0  0  0  0  0  0
   -6.0988    5.3560    1.4532 H   0  0  0  0  0  0  0  0  0  0  0  0
  1 20  1  0  0  0  0
  1 21  1  0  0  0  0
  2 10  1  0  0  0  0
  2 43  1  0  0  0  0
  3 18  2  0  0  0  0
  4 21  2  0  0  0  0
  5  8  1  0  0  0  0
  5 31  1  0  0  0  0
  6 12  1  0  0  0  0
  6 13  1  0  0  0  0
  6 18  1  0  0  0  0
  7 16  2  0  0  0  0
  7 24  1  0  0  0  0
  8 26  2  0  0  0  0
  9 32  1  0  0  0  0
  9 53  1  0  0  0  0
  9 54  1  0  0  0  0
 10 11  1  0  0  0  0
 10 19  1  0  0  0  0
 10 21  1  0  0  0  0
 11 14  2  0  0  0  0
 11 17  1  0  0  0  0
 12 16  1  0  0  0  0
 12 17  2  0  0  0  0
 13 15  1  0  0  0  0
 13 33  1  0  0  0  0
 13 34  1  0  0  0  0
 14 18  1  0  0  0  0
 14 20  1  0  0  0  0
 15 16  1  0  0  0  0
 15 22  2  0  0  0  0
 17 35  1  0  0  0  0
 19 25  1  0  0  0  0
 19 36  1  0  0  0  0
 19 37  1  0  0  0  0
 20 38  1  0  0  0  0
 20 39  1  0  0  0  0
 22 23  1  0  0  0  0
 22 26  1  0  0  0  0
 23 24  1  0  0  0  0
 23 27  2  0  0  0  0
 24 28  2  0  0  0  0
 25 40  1  0  0  0  0
 25 41  1  0  0  0  0
 25 42  1  0  0  0  0
 26 44  1  0  0  0  0
 27 29  1  0  0  0  0
 27 45  1  0  0  0  0
 28 30  1  0  0  0  0
 28 46  1  0  0  0  0
 29 30  2  0  0  0  0
 29 47  1  0  0  0  0
 30 48  1  0  0  0  0
 31 32  1  0  0  0  0
 31 49  1  0  0  0  0
 31 50  1  0  0  0  0
 32 51  1  0  0  0  0
 32 52  1  0  0  0  0
M  END
> <PUBCHEM_COMPOUND_CID>
10950142

> <PUBCHEM_CONFORMER_RMSD>
0.8

> <PUBCHEM_CONFORMER_DIVERSEORDER>
1
6
7
2
5
8
3
10
4
9

> <PUBCHEM_MMFF94_PARTIAL_CHARGES>
38
1 -0.43
10 0.48
11 -0.14
12 0.08
13 0.44
14 -0.12
15 -0.14
16 0.34
17 -0.15
18 0.62
2 -0.68
20 0.42
21 0.66
22 0.09
24 0.31
26 0.3
27 -0.15
28 -0.15
29 -0.15
3 -0.57
30 -0.15
31 0.28
32 0.27
35 0.15
4 -0.57
43 0.4
44 0.06
45 0.15
46 0.15
47 0.15
48 0.15
5 -0.22
53 0.36
54 0.36
6 -0.47
7 -0.62
8 -0.51
9 -0.99

> <PUBCHEM_EFFECTIVE_ROTOR_COUNT>
5.8

> <PUBCHEM_PHARMACOPHORE_FEATURES>
14
1 2 acceptor
1 2 donor
1 25 hydrophobe
1 3 acceptor
1 4 acceptor
1 7 acceptor
1 8 acceptor
1 9 cation
1 9 donor
5 6 12 13 15 16 rings
6 1 10 11 14 20 21 rings
6 23 24 27 28 29 30 rings
6 6 11 12 14 17 18 rings
6 7 15 16 22 23 24 rings

> <PUBCHEM_HEAVY_ATOM_COUNT>
32

> <PUBCHEM_ATOM_DEF_STEREO_COUNT>
1

> <PUBCHEM_ATOM_UDEF_STEREO_COUNT>
0

> <PUBCHEM_BOND_DEF_STEREO_COUNT>
1

> <PUBCHEM_BOND_UDEF_STEREO_COUNT>
0

> <PUBCHEM_ISOTOPIC_ATOM_COUNT>
0

> <PUBCHEM_COMPONENT_COUNT>
1

> <PUBCHEM_CACTVS_TAUTO_COUNT>
1

> <PUBCHEM_CONFORMER_ID>
00A715FE00000001

> <PUBCHEM_MMFF94_ENERGY>
87.6304

> <PUBCHEM_FEATURE_SELFOVERLAP>
71.297

> <PUBCHEM_SHAPE_FINGERPRINT>
10050765 1 18338237180365799644
10411042 1 17905888433625975027
10675989 125 17837494055600889921
10940486 97 18261117386879207285
11136131 41 17756990009175385553
11763715 3 17614024184328320727
12107183 9 18263070029604635138
12293681 160 17773592720543684937
12925494 130 18339359673793851315
13248334 5 17617940228462126459
138480 1 17113255543505635287
14347332 77 18194400228344530535
14790565 3 18194401087485351313
15131766 46 15287640025696200535
15196674 1 18337670940187419454
15230672 131 18263367984740664446
15361156 5 18119262902390312854
15400415 2 18266458698783283049
15419008 42 18059866008604750070
15420108 30 18263636286967333787
15439362 3 18125439709627569519
15890870 6 18266742381678814213
15927050 60 18339923702364689567
16087824 20 18338796824044001975
17492 89 18195250142548841366
17844677 252 18265055906591846034
1813 80 17096918273548009638
19301679 30 18120665883517255395
19319366 153 18055348034323433489
20715895 44 18341048497810530000
21033648 29 18341603794243273001
21130935 74 18337379535979817082
21267235 1 18192153917804907058
21307412 95 18057064423276578070
23559900 14 18194676201262231171
23845131 108 18263085406378279963
3004659 81 18043248149298494302
32027 91 18199757955913851334
335352 9 18410575042082957460
350125 39 18193557993926431355
3534868 343 17613445862481478981
38695281 34 18265615386512275249
4058900 60 18124604076864978729
4073 2 18411136965960979842
4144715 1 18337960081586126274
4214541 1 18264485255429786110
5104073 3 18269552900648998450
5385378 56 17977953384937255633
6058803 2 18115303509536267940
6698420 124 18129390306641267305
77188 2 17689999364303539015
9709674 26 17974855282944648322
9896288 288 18334020493265277403

> <PUBCHEM_SHAPE_MULTIPOLES>
609.27
15.42
6.39
0.81
9.37
0.51
-0.02
9.53
0.65
-16.54
0.62
1
-0.07
0.28

> <PUBCHEM_SHAPE_SELFOVERLAP>
1356.934

> <PUBCHEM_SHAPE_VOLUME>
322.8

> <PUBCHEM_COORDINATE_TYPE>
2
5
10

$$$$
