REMARK  Name = 10959436
REMARK  7 active torsions:
REMARK  status: ('A' for Active; 'I' for Inactive)
REMARK    1  A    between atoms: C_2  and  C_10
REMARK    2  A    between atoms: C_3  and  C_20
REMARK    3  A    between atoms: C_6  and  O_28
REMARK    4  A    between atoms: C_9  and  C_31
REMARK    5  A    between atoms: C_13  and  O_16
REMARK    6  A    between atoms: C_14  and  O_18
REMARK    7  A    between atoms: C_25  and  O_26
REMARK                            x       y       z     vdW  Elec       q    Type
REMARK                         _______ _______ _______ _____ _____    ______ ____
ROOT
ATOM      1  O   UNL     1      -0.645   1.864   0.891  0.00  0.00    -0.474 OA
ATOM      2  C   UNL     1      -0.015  -0.119  -0.397  0.00  0.00    +0.095 C 
ATOM      3  C   UNL     1       0.412   0.879   0.714  0.00  0.00    +0.196 C 
ATOM      4  C   UNL     1      -1.486   0.127  -0.382  0.00  0.00    +0.053 C 
ATOM      5  C   UNL     1      -1.758   1.275   0.348  0.00  0.00    +0.138 C 
ATOM      6  C   UNL     1      -2.506  -0.559  -1.022  0.00  0.00    +0.133 C 
ATOM      7  C   UNL     1      -3.040   1.775   0.478  0.00  0.00    +0.040 C 
ATOM      8  C   UNL     1      -3.812  -0.078  -0.893  0.00  0.00    +0.040 C 
ATOM      9  C   UNL     1      -4.077   1.082  -0.148  0.00  0.00    +0.048 C 
ENDROOT
BRANCH   2  10
ATOM     10  C   UNL     1       0.427  -1.539  -0.130  0.00  0.00    -0.008 C 
ATOM     11  C   UNL     1       1.205  -2.217  -1.069  0.00  0.00    +0.033 C 
ATOM     12  C   UNL     1       0.056  -2.174   1.056  0.00  0.00    +0.033 C 
ATOM     13  C   UNL     1       0.464  -3.485   1.303  0.00  0.00    +0.136 C 
ATOM     14  C   UNL     1       1.613  -3.528  -0.822  0.00  0.00    +0.136 C 
ATOM     15  C   UNL     1       1.242  -4.162   0.364  0.00  0.00    +0.073 C 
BRANCH  13  16
ATOM     16  O   UNL     1       0.102  -4.104   2.460  0.00  0.00    -0.505 OA
ATOM     17  H   UNL     1      -0.420  -3.650   3.091  0.00  0.00    +0.292 HD
ENDBRANCH  13  16
BRANCH  14  18
ATOM     18  O   UNL     1       2.373  -4.188  -1.738  0.00  0.00    -0.505 OA
ATOM     19  H   UNL     1       2.622  -3.762  -2.534  0.00  0.00    +0.292 HD
ENDBRANCH  14  18
ENDBRANCH   2  10
BRANCH   3  20
ATOM     20  C   UNL     1       1.722   1.567   0.400  0.00  0.00    +0.018 C 
ATOM     21  C   UNL     1       2.921   1.028   0.866  0.00  0.00    +0.002 C 
ATOM     22  C   UNL     1       1.730   2.739  -0.356  0.00  0.00    +0.002 C 
ATOM     23  C   UNL     1       4.129   1.663   0.576  0.00  0.00    +0.036 C 
ATOM     24  C   UNL     1       2.938   3.373  -0.646  0.00  0.00    +0.036 C 
ATOM     25  C   UNL     1       4.137   2.835  -0.180  0.00  0.00    +0.134 C 
BRANCH  25  26
ATOM     26  O   UNL     1       5.316   3.454  -0.463  0.00  0.00    -0.506 OA
ATOM     27  H   UNL     1       6.122   3.092  -0.150  0.00  0.00    +0.292 HD
ENDBRANCH  25  26
ENDBRANCH   3  20
BRANCH   6  28
ATOM     28  O   UNL     1      -2.260  -1.663  -1.773  0.00  0.00    -0.506 OA
ATOM     29  H   UNL     1      -1.384  -1.985  -1.859  0.00  0.00    +0.292 HD
ENDBRANCH   6  28
BRANCH   9  31
ATOM     30  O   UNL     1      -5.744   2.586   0.598  0.00  0.00    -0.283 OA
ATOM     31  C   UNL     1      -5.442   1.570  -0.035  0.00  0.00    +0.234 C 
ENDBRANCH   9  31
TORSDOF 7
