REMARK  Name = 10950300
REMARK  12 active torsions:
REMARK  status: ('A' for Active; 'I' for Inactive)
REMARK    1  A    between atoms: C_1  and  C_9
REMARK    2  A    between atoms: C_2  and  C_26
REMARK    3  A    between atoms: C_4  and  O_22
REMARK    4  A    between atoms: C_5  and  O_24
REMARK    5  A    between atoms: C_14  and  O_18
REMARK    6  A    between atoms: C_16  and  O_20
REMARK    7  A    between atoms: C_26  and  C_28
REMARK    8  A    between atoms: C_27  and  C_30
REMARK    9  A    between atoms: C_30  and  C_31
REMARK   10  A    between atoms: C_31  and  C_32
REMARK   11  A    between atoms: C_32  and  C_33
REMARK   12  A    between atoms: C_33  and  O_36
REMARK                            x       y       z     vdW  Elec       q    Type
REMARK                         _______ _______ _______ _____ _____    ______ ____
ROOT
ATOM      1  C   UNL     1      -2.261   1.032  -0.250  0.00  0.00    +0.017 C 
ATOM      2  C   UNL     1      -3.115   0.062   0.259  0.00  0.00    +0.018 C 
ATOM      3  C   UNL     1      -2.734   1.932  -1.205  0.00  0.00    +0.002 C 
ATOM      4  C   UNL     1      -4.433  -0.025  -0.172  0.00  0.00    +0.163 C 
ATOM      5  C   UNL     1      -4.905   0.875  -1.127  0.00  0.00    +0.167 C 
ATOM      6  C   UNL     1      -4.056   1.853  -1.644  0.00  0.00    +0.040 C 
ENDROOT
BRANCH   1   9
ATOM      7  O   UNL     1      -0.024   1.588  -0.895  0.00  0.00    -0.474 OA
ATOM      8  O   UNL     1       1.094   2.408   2.966  0.00  0.00    -0.291 OA
ATOM      9  C   UNL     1      -0.823   1.140   0.211  0.00  0.00    +0.196 C 
ATOM     10  C   UNL     1      -0.695   2.091   1.400  0.00  0.00    +0.117 C 
ATOM     11  C   UNL     1       0.751   2.168   1.815  0.00  0.00    +0.183 C 
ATOM     12  C   UNL     1       1.743   2.009   0.732  0.00  0.00    +0.103 C 
ATOM     13  C   UNL     1       1.298   1.750  -0.568  0.00  0.00    +0.148 C 
ATOM     14  C   UNL     1       3.108   2.159   0.993  0.00  0.00    +0.142 C 
ATOM     15  C   UNL     1       2.217   1.673  -1.614  0.00  0.00    +0.074 C 
ATOM     16  C   UNL     1       3.580   1.824  -1.356  0.00  0.00    +0.140 C 
ATOM     17  C   UNL     1       4.024   2.061  -0.055  0.00  0.00    +0.073 C 
BRANCH  14  18
ATOM     18  O   UNL     1       3.595   2.408   2.240  0.00  0.00    -0.505 OA
ATOM     19  H   UNL     1       3.007   2.480   2.967  0.00  0.00    +0.292 HD
ENDBRANCH  14  18
BRANCH  16  20
ATOM     20  O   UNL     1       4.478   1.738  -2.375  0.00  0.00    -0.505 OA
ATOM     21  H   UNL     1       4.181   1.578  -3.250  0.00  0.00    +0.292 HD
ENDBRANCH  16  20
ENDBRANCH   1   9
BRANCH   4  22
ATOM     22  O   UNL     1      -5.267  -0.980   0.329  0.00  0.00    -0.503 OA
ATOM     23  H   UNL     1      -4.954  -1.586   0.971  0.00  0.00    +0.292 HD
ENDBRANCH   4  22
BRANCH   5  24
ATOM     24  O   UNL     1      -6.194   0.810  -1.565  0.00  0.00    -0.503 OA
ATOM     25  H   UNL     1      -6.771   0.156  -1.223  0.00  0.00    +0.292 HD
ENDBRANCH   5  24
BRANCH   2  26
ATOM     26  C   UNL     1      -2.607  -0.913   1.290  0.00  0.00    +0.055 C 
BRANCH  26  28
ATOM     27  C   UNL     1      -1.051  -2.946   1.174  0.00  0.00    -0.048 C 
ATOM     28  C   UNL     1      -2.026  -2.158   0.679  0.00  0.00    -0.030 C 
ATOM     29  C   UNL     1      -0.408  -2.612   2.495  0.00  0.00    +0.026 C 
BRANCH  27  30
ATOM     30  C   UNL     1      -0.524  -4.190   0.494  0.00  0.00    +0.022 C 
BRANCH  30  31
ATOM     31  C   UNL     1       0.987  -4.113   0.242  0.00  0.00    +0.007 C 
BRANCH  31  32
ATOM     32  C   UNL     1       1.340  -2.899  -0.628  0.00  0.00    +0.027 C 
BRANCH  32  33
ATOM     33  C   UNL     1       2.847  -2.732  -0.909  0.00  0.00    +0.088 C 
ATOM     34  C   UNL     1       3.602  -2.576   0.415  0.00  0.00    +0.029 C 
ATOM     35  C   UNL     1       3.425  -3.905  -1.704  0.00  0.00    +0.029 C 
BRANCH  33  36
ATOM     36  O   UNL     1       3.035  -1.534  -1.666  0.00  0.00    -0.387 OA
ATOM     37  H   UNL     1       2.673  -0.781  -1.174  0.00  0.00    +0.210 HD
ENDBRANCH  33  36
ENDBRANCH  32  33
ENDBRANCH  31  32
ENDBRANCH  30  31
ENDBRANCH  27  30
ENDBRANCH  26  28
ENDBRANCH   2  26
TORSDOF 12
