REMARK  Name = 10958149
REMARK  11 active torsions:
REMARK  status: ('A' for Active; 'I' for Inactive)
REMARK    1  A    between atoms: C_1  and  C_16
REMARK    2  A    between atoms: C_2  and  C_5
REMARK    3  A    between atoms: C_7  and  C_12
REMARK    4  A    between atoms: C_15  and  C_17
REMARK    5  A    between atoms: C_17  and  C_18
REMARK    6  A    between atoms: C_18  and  C_19
REMARK    7  A    between atoms: C_19  and  C_20
REMARK    8  A    between atoms: C_20  and  C_21
REMARK    9  A    between atoms: C_21  and  C_22
REMARK   10  A    between atoms: C_22  and  C_24
REMARK   11  A    between atoms: C_24  and  O_25
REMARK                            x       y       z     vdW  Elec       q    Type
REMARK                         _______ _______ _______ _____ _____    ______ ____
ROOT
ATOM      1  C   UNL     1      -1.318   0.550   0.510  0.00  0.00    +0.003 C 
ATOM      2  C   UNL     1      -2.328   1.213  -0.072  0.00  0.00    +0.038 C 
ENDROOT
BRANCH   2   5
ATOM      3  O   UNL     1      -3.833  -0.529   0.467  0.00  0.00    -0.450 OA
ATOM      4  O   UNL     1      -6.970   1.364  -1.262  0.00  0.00    -0.286 OA
ATOM      5  C   UNL     1      -3.671   0.709  -0.133  0.00  0.00    +0.149 C 
ATOM      6  C   UNL     1      -4.671   1.382  -0.720  0.00  0.00    +0.080 C 
ATOM      7  C   UNL     1      -6.173  -0.540  -0.088  0.00  0.00    +0.130 C 
ATOM      8  C   UNL     1      -6.027   0.784  -0.736  0.00  0.00    +0.206 C 
ATOM      9  C   UNL     1      -5.087  -1.095   0.459  0.00  0.00    +0.187 C 
BRANCH   7  12
ATOM     10  O   UNL     1      -7.517  -2.372   0.536  0.00  0.00    -0.270 OA
ATOM     11  N   UNL     1      -8.490  -0.615  -0.604  0.00  0.00    -0.325 N 
ATOM     12  C   UNL     1      -7.436  -1.273  -0.012  0.00  0.00    +0.249 C 
ATOM     13  H   UNL     1      -9.386  -1.024  -0.607  0.00  0.00    +0.145 HD
ATOM     14  H   UNL     1      -8.348   0.264  -1.024  0.00  0.00    +0.145 HD
ENDBRANCH   7  12
ENDBRANCH   2   5
BRANCH   1  16
ATOM     15  C   UNL     1       1.046   0.406   1.146  0.00  0.00    -0.026 C 
ATOM     16  C   UNL     1       0.032   1.065   0.565  0.00  0.00    -0.004 C 
BRANCH  15  17
ATOM     17  C   UNL     1       2.450   0.932   1.211  0.00  0.00    +0.026 C 
BRANCH  17  18
ATOM     18  C   UNL     1       3.437  -0.039   0.559  0.00  0.00    +0.005 C 
BRANCH  18  19
ATOM     19  C   UNL     1       4.865   0.512   0.595  0.00  0.00    +0.000 C 
BRANCH  19  20
ATOM     20  C   UNL     1       5.845  -0.445  -0.087  0.00  0.00    +0.001 C 
BRANCH  20  21
ATOM     21  C   UNL     1       7.300   0.026  -0.018  0.00  0.00    +0.012 C 
BRANCH  21  22
ATOM     22  C   UNL     1       8.285  -0.962  -0.633  0.00  0.00    +0.109 C 
BRANCH  22  24
ATOM     23  O   UNL     1      10.000   0.630  -0.015  0.00  0.00    -0.250 OA
ATOM     24  C   UNL     1       9.688  -0.424  -0.549  0.00  0.00    +0.314 C 
BRANCH  24  25
ATOM     25  O   UNL     1      10.573  -1.279  -1.119  0.00  0.00    -0.480 OA
ATOM     26  H   UNL     1      10.270  -2.073  -1.513  0.00  0.00    +0.295 HD
ENDBRANCH  24  25
ENDBRANCH  22  24
ENDBRANCH  21  22
ENDBRANCH  20  21
ENDBRANCH  19  20
ENDBRANCH  18  19
ENDBRANCH  17  18
ENDBRANCH  15  17
ENDBRANCH   1  16
TORSDOF 11
