REMARK  Name = 1095
REMARK  8 active torsions:
REMARK  status: ('A' for Active; 'I' for Inactive)
REMARK    1  A    between atoms: C_1  and  O_7
REMARK    2  A    between atoms: C_2  and  O_9
REMARK    3  A    between atoms: C_3  and  O_15
REMARK    4  A    between atoms: C_5  and  C_12
REMARK    5  A    between atoms: C_12  and  O_13
REMARK    6  A    between atoms: O_15  and  P_16
REMARK    7  A    between atoms: P_16  and  O_18
REMARK    8  A    between atoms: P_16  and  O_20
REMARK                            x       y       z     vdW  Elec       q    Type
REMARK                         _______ _______ _______ _____ _____    ______ ____
ROOT
ATOM      1  C   UNL     1      -0.125  -2.064  -0.434  0.00  0.00    +0.169 C 
ATOM      2  C   UNL     1      -1.150  -1.952   0.702  0.00  0.00    +0.145 C 
ATOM      3  C   UNL     1       0.614  -0.739  -0.698  0.00  0.00    +0.177 C 
ATOM      4  C   UNL     1      -2.146  -0.803   0.481  0.00  0.00    +0.064 C 
ATOM      5  C   UNL     1      -1.504   0.433  -0.077  0.00  0.00    +0.054 C 
ATOM      6  C   UNL     1      -0.266   0.474  -0.589  0.00  0.00    +0.008 C 
ENDROOT
BRANCH   1   7
ATOM      7  O   UNL     1      -0.814  -2.466  -1.618  0.00  0.00    -0.379 OA
ATOM      8  H   UNL     1      -1.280  -3.300  -1.453  0.00  0.00    +0.211 HD
ENDBRANCH   1   7
BRANCH   2   9
ATOM      9  O   UNL     1      -0.485  -1.784   1.952  0.00  0.00    -0.382 OA
ATOM     10  H   UNL     1       0.142  -2.511   2.086  0.00  0.00    +0.210 HD
ENDBRANCH   2   9
BRANCH   5  12
ATOM     11  O   UNL     1      -1.768   2.791   0.066  0.00  0.00    -0.245 OA
ATOM     12  C   UNL     1      -2.265   1.685  -0.042  0.00  0.00    +0.334 C 
BRANCH  12  13
ATOM     13  O   UNL     1      -3.583   1.416  -0.148  0.00  0.00    -0.477 OA
ATOM     14  H   UNL     1      -3.876   0.530  -0.229  0.00  0.00    +0.295 HD
ENDBRANCH  12  13
ENDBRANCH   5  12
BRANCH   3  15
ATOM     15  O   UNL     1       1.675  -0.579   0.240  0.00  0.00    -0.269 OA
BRANCH  15  16
ATOM     16  P   UNL     1       2.647   0.701   0.083  0.00  0.00    +0.473 P 
ATOM     17  O   UNL     1       1.964   2.035   0.174  0.00  0.00    -0.227 OA
BRANCH  16  18
ATOM     18  O   UNL     1       3.433   0.421  -1.302  0.00  0.00    -0.303 OA
ATOM     19  H   UNL     1       3.840  -0.459  -1.271  0.00  0.00    +0.222 HD
ENDBRANCH  16  18
BRANCH  16  20
ATOM     20  O   UNL     1       3.773   0.432   1.211  0.00  0.00    -0.303 OA
ATOM     21  H   UNL     1       4.160  -0.448   1.078  0.00  0.00    +0.222 HD
ENDBRANCH  16  20
ENDBRANCH  15  16
ENDBRANCH   3  15
TORSDOF 8
