REMARK  Name = 109515
REMARK  5 active torsions:
REMARK  status: ('A' for Active; 'I' for Inactive)
REMARK    1  A    between atoms: N_1  and  N_2
REMARK    2  A    between atoms: N_1  and  C_5
REMARK    3  A    between atoms: N_2  and  C_19
REMARK    4  A    between atoms: C_6  and  S_13
REMARK    5  A    between atoms: C_20  and  O_27
REMARK                            x       y       z     vdW  Elec       q    Type
REMARK                         _______ _______ _______ _____ _____    ______ ____
ROOT
ATOM      1  N   UNL     1       0.807  -0.510  -0.570  0.00  0.00    -0.128 NA
ENDROOT
BRANCH   1   4
ATOM      2  C   UNL     1      -1.609  -0.721  -0.216  0.00  0.00    +0.017 C 
ATOM      3  C   UNL     1      -2.724  -1.557   0.027  0.00  0.00    +0.003 C 
ATOM      4  C   UNL     1      -0.332  -1.294  -0.329  0.00  0.00    +0.089 C 
ATOM      5  C   UNL     1      -4.176   0.394   0.014  0.00  0.00    +0.112 C 
ATOM      6  C   UNL     1      -4.001  -0.984   0.140  0.00  0.00    +0.019 C 
ATOM      7  C   UNL     1      -1.804   0.665  -0.340  0.00  0.00    +0.003 C 
ATOM      8  C   UNL     1      -3.080   1.217  -0.225  0.00  0.00    +0.019 C 
ATOM      9  C   UNL     1      -2.529  -2.943   0.151  0.00  0.00    +0.000 C 
ATOM     10  C   UNL     1      -0.157  -2.672  -0.203  0.00  0.00    +0.018 C 
ATOM     11  C   UNL     1      -1.254  -3.495   0.036  0.00  0.00    +0.001 C 
BRANCH   5  12
ATOM     12  S   UNL     1      -5.772   1.088   0.158  0.00  0.00    +0.042 S 
ATOM     13  O   UNL     1      -6.378   1.090  -1.361  0.00  0.00    -0.065 OA
ATOM     14  O   UNL     1      -6.591   0.173   0.940  0.00  0.00    -0.065 OA
ATOM     15  O   UNL     1      -5.598   2.470   0.576  0.00  0.00    -0.065 OA
ENDBRANCH   5  12
ENDBRANCH   1   4
BRANCH   1  16
ATOM     16  N   UNL     1       1.310  -0.147   0.518  0.00  0.00    -0.125 NA
BRANCH  16  19
ATOM     17  C   UNL     1       3.721   0.051   0.165  0.00  0.00    +0.020 C 
ATOM     18  C   UNL     1       4.845   0.875  -0.079  0.00  0.00    +0.001 C 
ATOM     19  C   UNL     1       2.450   0.638   0.276  0.00  0.00    +0.123 C 
ATOM     20  C   UNL     1       2.289   2.018   0.148  0.00  0.00    +0.150 C 
ATOM     21  C   UNL     1       4.665   2.263  -0.205  0.00  0.00    +0.003 C 
ATOM     22  C   UNL     1       3.901  -1.336   0.291  0.00  0.00    +0.001 C 
ATOM     23  C   UNL     1       6.116   0.289  -0.190  0.00  0.00    +0.000 C 
ATOM     24  C   UNL     1       3.395   2.829  -0.092  0.00  0.00    +0.038 C 
ATOM     25  C   UNL     1       5.171  -1.902   0.178  0.00  0.00    +0.000 C 
ATOM     26  C   UNL     1       6.277  -1.091  -0.062  0.00  0.00    +0.000 C 
BRANCH  20  27
ATOM     27  O   UNL     1       1.058   2.593   0.254  0.00  0.00    -0.504 OA
ATOM     28  H   UNL     1       0.305   2.060   0.415  0.00  0.00    +0.292 HD
ENDBRANCH  20  27
ENDBRANCH  16  19
ENDBRANCH   1  16
TORSDOF 5
