10969484
  -OEChem-03292013303D

 36 38  0     0  0  0  0  0  0999 V2000
    1.3664   -2.7380   -1.3325 S   0  0  0  0  0  0  0  0  0  0  0  0
    3.9731   -2.3130   -1.3627 O   0  0  0  0  0  0  0  0  0  0  0  0
   -3.3774   -1.2535    1.9500 O   0  0  0  0  0  0  0  0  0  0  0  0
    5.3215    3.0802   -0.6760 O   0  0  0  0  0  0  0  0  0  0  0  0
    5.7029    1.8525    1.1954 O   0  0  0  0  0  0  0  0  0  0  0  0
    2.6504   -0.8995   -0.0195 N   0  0  0  0  0  0  0  0  0  0  0  0
    1.2915   -0.7169    0.3249 C   0  0  0  0  0  0  0  0  0  0  0  0
    3.7059   -0.0611    0.5114 C   0  0  0  0  0  0  0  0  0  0  0  0
    0.4458   -1.6332   -0.3003 C   0  0  0  0  0  0  0  0  0  0  0  0
    0.7750    0.2462    1.1835 C   0  0  0  0  0  0  0  0  0  0  0  0
    2.9009   -1.9442   -0.9064 C   0  0  0  0  0  0  0  0  0  0  0  0
   -1.4484   -0.6492    0.7733 C   0  0  0  0  0  0  0  0  0  0  0  0
   -0.9239   -1.6139   -0.0880 C   0  0  0  0  0  0  0  0  0  0  0  0
    3.9663    1.1560   -0.3664 C   0  0  0  0  0  0  0  0  0  0  0  0
   -0.6044    0.2748    1.4049 C   0  0  0  0  0  0  0  0  0  0  0  0
   -2.8813   -0.6016    1.0194 C   0  0  0  0  0  0  0  0  0  0  0  0
   -3.8103    0.2169    0.1833 C   0  0  0  0  0  0  0  0  0  0  0  0
    5.0794    2.0361    0.1594 C   0  0  0  0  0  0  0  0  0  0  0  0
   -3.2870    0.9503   -0.8558 C   0  0  0  0  0  0  0  0  0  0  0  0
   -5.1518    0.2042    0.4867 C   0  0  0  0  0  0  0  0  0  0  0  0
   -4.1545    1.7148   -1.6361 C   0  0  0  0  0  0  0  0  0  0  0  0
   -6.0194    0.9684   -0.2937 C   0  0  0  0  0  0  0  0  0  0  0  0
   -5.5206    1.7238   -1.3550 C   0  0  0  0  0  0  0  0  0  0  0  0
    3.4872    0.2221    1.5467 H   0  0  0  0  0  0  0  0  0  0  0  0
    4.6229   -0.6630    0.5549 H   0  0  0  0  0  0  0  0  0  0  0  0
    1.4032    0.9777    1.6794 H   0  0  0  0  0  0  0  0  0  0  0  0
   -1.5731   -2.3325   -0.5797 H   0  0  0  0  0  0  0  0  0  0  0  0
    3.0597    1.7675   -0.4371 H   0  0  0  0  0  0  0  0  0  0  0  0
    4.2402    0.8305   -1.3769 H   0  0  0  0  0  0  0  0  0  0  0  0
   -1.0172    1.0260    2.0744 H   0  0  0  0  0  0  0  0  0  0  0  0
   -2.2317    0.9686   -1.1048 H   0  0  0  0  0  0  0  0  0  0  0  0
   -5.5631   -0.3752    1.3071 H   0  0  0  0  0  0  0  0  0  0  0  0
   -3.7667    2.3031   -2.4626 H   0  0  0  0  0  0  0  0  0  0  0  0
   -7.0833    0.9758   -0.0751 H   0  0  0  0  0  0  0  0  0  0  0  0
   -6.1961    2.3189   -1.9624 H   0  0  0  0  0  0  0  0  0  0  0  0
    6.0445    3.6539   -0.3435 H   0  0  0  0  0  0  0  0  0  0  0  0
  1  9  1  0  0  0  0
  1 11  1  0  0  0  0
  2 11  2  0  0  0  0
  3 16  2  0  0  0  0
  4 18  1  0  0  0  0
  4 36  1  0  0  0  0
  5 18  2  0  0  0  0
  6  7  1  0  0  0  0
  6  8  1  0  0  0  0
  6 11  1  0  0  0  0
  7  9  2  0  0  0  0
  7 10  1  0  0  0  0
  8 14  1  0  0  0  0
  8 24  1  0  0  0  0
  8 25  1  0  0  0  0
  9 13  1  0  0  0  0
 10 15  2  0  0  0  0
 10 26  1  0  0  0  0
 12 13  2  0  0  0  0
 12 15  1  0  0  0  0
 12 16  1  0  0  0  0
 13 27  1  0  0  0  0
 14 18  1  0  0  0  0
 14 28  1  0  0  0  0
 14 29  1  0  0  0  0
 15 30  1  0  0  0  0
 16 17  1  0  0  0  0
 17 19  2  0  0  0  0
 17 20  1  0  0  0  0
 19 21  1  0  0  0  0
 19 31  1  0  0  0  0
 20 22  2  0  0  0  0
 20 32  1  0  0  0  0
 21 23  2  0  0  0  0
 21 33  1  0  0  0  0
 22 23  1  0  0  0  0
 22 34  1  0  0  0  0
 23 35  1  0  0  0  0
M  END
> <PUBCHEM_COMPOUND_CID>
10969484

> <PUBCHEM_CONFORMER_RMSD>
0.8

> <PUBCHEM_CONFORMER_DIVERSEORDER>
1
5
12
10
4
8
11
9
2
7
3
6

> <PUBCHEM_MMFF94_PARTIAL_CHARGES>
32
1 -0.24
10 -0.15
11 0.77
12 0.09
13 -0.15
14 0.06
15 -0.15
16 0.4
17 0.09
18 0.66
19 -0.15
2 -0.57
20 -0.15
21 -0.15
22 -0.15
23 -0.15
26 0.15
27 0.15
3 -0.57
30 0.15
31 0.15
32 0.15
33 0.15
34 0.15
35 0.15
36 0.5
4 -0.65
5 -0.57
6 -0.48
7 0.12
8 0.3
9 0.1

> <PUBCHEM_EFFECTIVE_ROTOR_COUNT>
5

> <PUBCHEM_PHARMACOPHORE_FEATURES>
7
1 3 acceptor
1 4 acceptor
1 5 acceptor
3 4 5 18 anion
5 1 6 7 9 11 rings
6 17 19 20 21 22 23 rings
6 7 9 10 12 13 15 rings

> <PUBCHEM_HEAVY_ATOM_COUNT>
23

> <PUBCHEM_ATOM_DEF_STEREO_COUNT>
0

> <PUBCHEM_ATOM_UDEF_STEREO_COUNT>
0

> <PUBCHEM_BOND_DEF_STEREO_COUNT>
0

> <PUBCHEM_BOND_UDEF_STEREO_COUNT>
0

> <PUBCHEM_ISOTOPIC_ATOM_COUNT>
0

> <PUBCHEM_COMPONENT_COUNT>
1

> <PUBCHEM_CACTVS_TAUTO_COUNT>
1

> <PUBCHEM_CONFORMER_ID>
00A7618C00000001

> <PUBCHEM_MMFF94_ENERGY>
61.3801

> <PUBCHEM_FEATURE_SELFOVERLAP>
35.643

> <PUBCHEM_SHAPE_FINGERPRINT>
10319926 262 17530686506868892338
10498660 4 18059581351352203712
10763959 59 18260554450643955484
12236239 1 16200143245813393211
12403259 118 17970062447355333576
12403259 415 18334586715424173107
12422481 6 17967525818259108268
12596602 18 14490477520842304765
12633257 1 12901550147833889072
12769317 202 18343297098205785368
12969540 114 17988360468129833072
13103583 49 10881676837424415989
13257819 101 18335131016497694284
13402501 40 18260260850194145165
13540713 5 17130162904797868754
13583140 156 18186807945804046170
13760787 5 17774732973724756555
13911987 19 18130511928248758881
14251764 38 18336264531466442092
14341114 328 14635164369692297685
14739800 52 17603851291635824409
15081414 286 18411146826478599264
15238133 3 16226049955143955500
15961568 22 18113901580381960340
17980427 23 17749669713548677015
1813 80 14907885056023222369
18222031 100 14620789388518829099
200 152 17273974636592158331
20612939 158 18131354063866317887
20645477 70 18130511820801100151
20715895 44 18335133159707765844
21033648 29 18113345201543053347
212916 134 17022625256084981363
21315764 268 17821999878943610525
21859007 373 18041831797658589716
23557571 272 17750255654815850611
23559900 14 17749965336132550278
268830 7 18200044923651878883
2838139 119 18260817233237302068
2916195 48 18040431084243237129
328310 1195 18409161104162678652
33382 64 11023831699252307284
341906 21 17240771648769909263
34797466 226 18411419484540786733
4371632 12 16555916822315870008
46194498 28 18199749150633951423
5104073 3 17313382263224489497
53917941 68 17844797286747252398
56633871 153 12757417371909667512
6327066 14 18269271438847885012
633830 44 17631193912419600051
7237137 82 17774152552145075311
960060 61 17346595253212491849

> <PUBCHEM_SHAPE_MULTIPOLES>
448.72
13.61
2.77
1.5
2.19
0.22
-0.04
10.98
2.39
-4.32
1.21
0.81
-0.12
2.43

> <PUBCHEM_SHAPE_SELFOVERLAP>
965.995

> <PUBCHEM_SHAPE_VOLUME>
248.8

> <PUBCHEM_COORDINATE_TYPE>
2
5
10

$$$$
