REMARK  Name = 10960040
REMARK  7 active torsions:
REMARK  status: ('A' for Active; 'I' for Inactive)
REMARK    1  A    between atoms: C_2  and  C_9
REMARK    2  A    between atoms: C_3  and  C_18
REMARK    3  A    between atoms: C_5  and  C_25
REMARK    4  A    between atoms: C_10  and  C_13
REMARK    5  A    between atoms: C_13  and  O_14
REMARK    6  A    between atoms: C_20  and  C_22
REMARK    7  A    between atoms: C_25  and  O_26
REMARK                            x       y       z     vdW  Elec       q    Type
REMARK                         _______ _______ _______ _____ _____    ______ ____
ROOT
ATOM      1  N   UNL     1      -2.673   0.169  -0.079  0.00  0.00    -0.397 NA
ATOM      2  C   UNL     1      -0.733  -1.173   0.449  0.00  0.00    +0.135 C 
ATOM      3  C   UNL     1      -1.356   0.038   0.196  0.00  0.00    +0.149 C 
ATOM      4  C   UNL     1      -1.512  -2.325   0.417  0.00  0.00    -0.009 C 
ATOM      5  C   UNL     1      -3.398  -0.972  -0.101  0.00  0.00    +0.206 C 
ATOM      6  C   UNL     1      -2.871  -2.230   0.138  0.00  0.00    +0.035 C 
ENDROOT
BRANCH   2   9
ATOM      7  S   UNL     1       1.188  -1.184   2.376  0.00  0.00    -0.078 S 
ATOM      8  N   UNL     1       1.621  -1.448  -0.158  0.00  0.00    -0.396 NA
ATOM      9  C   UNL     1       0.678  -1.280   0.741  0.00  0.00    +0.145 C 
ATOM     10  C   UNL     1       2.843  -1.507   0.483  0.00  0.00    +0.195 C 
ATOM     11  C   UNL     1       2.810  -1.383   1.857  0.00  0.00    +0.130 C 
BRANCH  10  13
ATOM     12  O   UNL     1       5.199  -1.754   0.211  0.00  0.00    -0.242 OA
ATOM     13  C   UNL     1       4.050  -1.688  -0.273  0.00  0.00    +0.368 C 
BRANCH  13  14
ATOM     14  O   UNL     1       3.810  -1.786  -1.624  0.00  0.00    -0.440 OA
ATOM     15  C   UNL     1       4.938  -1.970  -2.486  0.00  0.00    +0.256 C 
ENDBRANCH  13  14
ENDBRANCH  10  13
ENDBRANCH   2   9
BRANCH   3  18
ATOM     16  O   UNL     1      -0.169   3.422   0.435  0.00  0.00    -0.442 OA
ATOM     17  N   UNL     1       0.688   1.405  -0.122  0.00  0.00    -0.364 NA
ATOM     18  C   UNL     1      -0.631   1.282   0.208  0.00  0.00    +0.182 C 
ATOM     19  C   UNL     1      -1.161   2.495   0.547  0.00  0.00    +0.269 C 
ATOM     20  C   UNL     1       0.906   2.691   0.030  0.00  0.00    +0.314 C 
BRANCH  20  22
ATOM     21  O   UNL     1       2.340   4.585  -0.043  0.00  0.00    -0.285 OA
ATOM     22  C   UNL     1       2.146   3.349  -0.192  0.00  0.00    +0.239 C 
ATOM     23  C   UNL     1       3.373   2.546  -0.649  0.00  0.00    +0.084 C 
ENDBRANCH  20  22
ENDBRANCH   3  18
BRANCH   5  25
ATOM     24  O   UNL     1      -5.623  -1.748  -0.460  0.00  0.00    -0.242 OA
ATOM     25  C   UNL     1      -4.811  -0.814  -0.398  0.00  0.00    +0.371 C 
BRANCH  25  26
ATOM     26  O   UNL     1      -5.141   0.498  -0.602  0.00  0.00    -0.440 OA
ATOM     27  C   UNL     1      -6.511   0.783  -0.903  0.00  0.00    +0.256 C 
ENDBRANCH  25  26
ENDBRANCH   5  25
TORSDOF 7
