REMARK  Name = 10969484
REMARK  6 active torsions:
REMARK  status: ('A' for Active; 'I' for Inactive)
REMARK    1  A    between atoms: N_3  and  C_19
REMARK    2  A    between atoms: C_8  and  C_12
REMARK    3  A    between atoms: C_12  and  C_13
REMARK    4  A    between atoms: C_19  and  C_20
REMARK    5  A    between atoms: C_20  and  C_22
REMARK    6  A    between atoms: C_22  and  O_23
REMARK                            x       y       z     vdW  Elec       q    Type
REMARK                         _______ _______ _______ _____ _____    ______ ____
ROOT
ATOM      1  S   UNL     1       1.366  -2.738  -1.333  0.00  0.00    -0.026 S 
ATOM      2  O   UNL     1       3.973  -2.313  -1.363  0.00  0.00    -0.259 OA
ATOM      3  N   UNL     1       2.650  -0.899  -0.019  0.00  0.00    -0.289 N 
ATOM      4  C   UNL     1       1.292  -0.717   0.325  0.00  0.00    +0.069 A 
ATOM      5  C   UNL     1       0.446  -1.633  -0.300  0.00  0.00    +0.050 A 
ATOM      6  C   UNL     1       0.775   0.246   1.183  0.00  0.00    +0.018 C 
ATOM      7  C   UNL     1       2.901  -1.944  -0.906  0.00  0.00    +0.292 A 
ATOM      8  C   UNL     1      -1.448  -0.649   0.773  0.00  0.00    +0.040 C 
ATOM      9  C   UNL     1      -0.924  -1.614  -0.088  0.00  0.00    +0.011 C 
ATOM     10  C   UNL     1      -0.604   0.275   1.405  0.00  0.00    +0.005 C 
ENDROOT
BRANCH   8  12
ATOM     11  O   UNL     1      -3.377  -1.254   1.950  0.00  0.00    -0.287 OA
ATOM     12  C   UNL     1      -2.881  -0.602   1.019  0.00  0.00    +0.196 C 
BRANCH  12  13
ATOM     13  C   UNL     1      -3.810   0.217   0.183  0.00  0.00    +0.039 C 
ATOM     14  C   UNL     1      -3.287   0.950  -0.856  0.00  0.00    +0.003 C 
ATOM     15  C   UNL     1      -5.152   0.204   0.487  0.00  0.00    +0.003 C 
ATOM     16  C   UNL     1      -4.154   1.715  -1.636  0.00  0.00    +0.000 C 
ATOM     17  C   UNL     1      -6.019   0.968  -0.294  0.00  0.00    +0.000 C 
ATOM     18  C   UNL     1      -5.521   1.724  -1.355  0.00  0.00    +0.000 C 
ENDBRANCH  12  13
ENDBRANCH   8  12
BRANCH   3  19
ATOM     19  C   UNL     1       3.706  -0.061   0.511  0.00  0.00    +0.121 C 
BRANCH  19  20
ATOM     20  C   UNL     1       3.966   1.156  -0.366  0.00  0.00    +0.134 C 
BRANCH  20  22
ATOM     21  O   UNL     1       5.703   1.853   1.195  0.00  0.00    -0.250 OA
ATOM     22  C   UNL     1       5.079   2.036   0.159  0.00  0.00    +0.316 C 
BRANCH  22  23
ATOM     23  O   UNL     1       5.322   3.080  -0.676  0.00  0.00    -0.480 OA
ATOM     24  H   UNL     1       4.817   3.180  -1.460  0.00  0.00    +0.295 HD
ENDBRANCH  22  23
ENDBRANCH  20  22
ENDBRANCH  19  20
ENDBRANCH   3  19
TORSDOF 6
