REMARK  Name = 10972400
REMARK  6 active torsions:
REMARK  status: ('A' for Active; 'I' for Inactive)
REMARK    1  A    between atoms: C_3  and  C_23
REMARK    2  A    between atoms: C_4  and  O_33
REMARK    3  A    between atoms: C_13  and  O_35
REMARK    4  A    between atoms: C_18  and  O_37
REMARK    5  A    between atoms: C_24  and  O_29
REMARK    6  A    between atoms: C_26  and  O_31
REMARK                            x       y       z     vdW  Elec       q    Type
REMARK                         _______ _______ _______ _____ _____    ______ ____
ROOT
ATOM      1  O   UNL     1       0.138  -1.922  -0.042  0.00  0.00    -0.286 OA
ATOM      2  O   UNL     1       1.586   3.211   0.262  0.00  0.00    -0.286 OA
ATOM      3  C   UNL     1      -2.873   1.009   0.255  0.00  0.00    +0.038 C 
ATOM      4  C   UNL     1      -1.913   0.002   0.155  0.00  0.00    +0.135 C 
ATOM      5  C   UNL     1      -0.553   0.331   0.135  0.00  0.00    +0.075 C 
ATOM      6  C   UNL     1      -2.480   2.344   0.334  0.00  0.00    +0.001 C 
ATOM      7  C   UNL     1      -0.159   1.668   0.213  0.00  0.00    +0.045 C 
ATOM      8  C   UNL     1      -1.126   2.676   0.313  0.00  0.00    +0.003 C 
ATOM      9  C   UNL     1       1.889  -0.379   0.008  0.00  0.00    +0.045 C 
ATOM     10  C   UNL     1       0.457  -0.742   0.029  0.00  0.00    +0.199 C 
ATOM     11  C   UNL     1       2.282   0.956   0.086  0.00  0.00    +0.076 C 
ATOM     12  C   UNL     1       1.273   2.030   0.192  0.00  0.00    +0.199 C 
ATOM     13  C   UNL     1       3.643   1.286   0.065  0.00  0.00    +0.137 C 
ATOM     14  C   UNL     1       2.856  -1.388  -0.092  0.00  0.00    +0.006 C 
ATOM     15  C   UNL     1       4.623   0.284  -0.035  0.00  0.00    +0.036 C 
ATOM     16  C   UNL     1       4.224  -1.070  -0.115  0.00  0.00    +0.037 C 
ATOM     17  C   UNL     1       5.992   0.599  -0.058  0.00  0.00    -0.001 C 
ATOM     18  C   UNL     1       5.206  -2.070  -0.215  0.00  0.00    +0.133 C 
ATOM     19  C   UNL     1       6.954  -0.407  -0.158  0.00  0.00    -0.019 C 
ATOM     20  C   UNL     1       6.561  -1.739  -0.237  0.00  0.00    +0.032 C 
ATOM     21  C   UNL     1       8.403  -0.054  -0.180  0.00  0.00    +0.031 C 
ENDROOT
BRANCH   3  23
ATOM     22  O   UNL     1      -4.530  -0.585   0.929  0.00  0.00    -0.352 OA
ATOM     23  C   UNL     1      -4.349   0.678   0.279  0.00  0.00    +0.143 C 
ATOM     24  C   UNL     1      -6.407   0.229  -1.090  0.00  0.00    +0.142 C 
ATOM     25  C   UNL     1      -4.934   0.628  -1.134  0.00  0.00    +0.066 C 
ATOM     26  C   UNL     1      -6.598  -1.051  -0.273  0.00  0.00    +0.164 C 
ATOM     27  C   UNL     1      -5.909  -0.932   1.093  0.00  0.00    +0.145 C 
ATOM     28  C   UNL     1      -5.953  -2.240   1.876  0.00  0.00    +0.035 C 
BRANCH  24  29
ATOM     29  O   UNL     1      -6.875   0.005  -2.418  0.00  0.00    -0.382 OA
ATOM     30  H   UNL     1      -6.757   0.812  -2.942  0.00  0.00    +0.210 HD
ENDBRANCH  24  29
BRANCH  26  31
ATOM     31  O   UNL     1      -7.997  -1.265  -0.105  0.00  0.00    -0.380 OA
ATOM     32  H   UNL     1      -8.420  -1.338  -0.975  0.00  0.00    +0.211 HD
ENDBRANCH  26  31
ENDBRANCH   3  23
BRANCH   4  33
ATOM     33  O   UNL     1      -2.348  -1.290   0.082  0.00  0.00    -0.506 OA
ATOM     34  H   UNL     1      -3.266  -1.478   0.098  0.00  0.00    +0.292 HD
ENDBRANCH   4  33
BRANCH  13  35
ATOM     35  O   UNL     1       4.048   2.591   0.143  0.00  0.00    -0.505 OA
ATOM     36  H   UNL     1       3.412   3.275   0.210  0.00  0.00    +0.292 HD
ENDBRANCH  13  35
BRANCH  18  37
ATOM     37  O   UNL     1       4.870  -3.391  -0.294  0.00  0.00    -0.506 OA
ATOM     38  H   UNL     1       3.969  -3.647  -0.282  0.00  0.00    +0.292 HD
ENDBRANCH  18  37
TORSDOF 6
