10971969
  -OEChem-03292013303D

 64 65  0     1  0  0  0  0  0999 V2000
   -1.0256   -0.7481    1.0275 O   0  0  0  0  0  0  0  0  0  0  0  0
   -3.0247   -0.1166    0.0172 O   0  0  0  0  0  0  0  0  0  0  0  0
    0.8317    3.9200    0.8816 O   0  0  0  0  0  0  0  0  0  0  0  0
    0.8802   -1.2170    2.2845 O   0  0  0  0  0  0  0  0  0  0  0  0
    3.0528   -0.2614   -0.1516 O   0  0  0  0  0  0  0  0  0  0  0  0
   -3.9562    2.8067   -0.3630 O   0  0  0  0  0  0  0  0  0  0  0  0
   -2.8311   -2.1225   -1.1047 O   0  0  0  0  0  0  0  0  0  0  0  0
    5.1980    0.3846    0.3971 O   0  0  0  0  0  0  0  0  0  0  0  0
   -1.2701    1.5035    0.2837 C   0  0  2  0  0  0  0  0  0  0  0  0
    0.2315    1.6461    0.4184 C   0  0  0  0  0  0  0  0  0  0  0  0
    0.6211    2.9804   -0.1591 C   0  0  1  0  0  0  0  0  0  0  0  0
   -1.6096    0.0428   -0.0135 C   0  0  1  0  0  0  0  0  0  0  0  0
   -1.6191    2.5415   -0.7553 C   0  0  0  0  0  0  0  0  0  0  0  0
    1.0229    0.6102    0.7463 C   0  0  0  0  0  0  0  0  0  0  0  0
   -0.5834    3.3711   -0.9669 C   0  0  0  0  0  0  0  0  0  0  0  0
    0.4070   -0.7490    1.0237 C   0  0  2  0  0  0  0  0  0  0  0  0
   -2.9677    2.6483   -1.3703 C   0  0  0  0  0  0  0  0  0  0  0  0
    2.5237    0.6785    0.7635 C   0  0  0  0  0  0  0  0  0  0  0  0
   -3.5078   -1.2549   -0.5698 C   0  0  0  0  0  0  0  0  0  0  0  0
    1.4843    5.0915    0.4074 C   0  0  0  0  0  0  0  0  0  0  0  0
   -5.0195   -1.2552   -0.4884 C   0  0  0  0  0  0  0  0  0  0  0  0
   -5.6250   -2.6674   -0.5047 C   0  0  0  0  0  0  0  0  0  0  0  0
    0.7294   -2.6235    2.4041 C   0  0  0  0  0  0  0  0  0  0  0  0
    4.4222   -0.3116   -0.2433 C   0  0  0  0  0  0  0  0  0  0  0  0
    4.8248   -1.3326   -1.2860 C   0  0  0  0  0  0  0  0  0  0  0  0
    6.2196   -1.9289   -1.0406 C   0  0  0  0  0  0  0  0  0  0  0  0
   -7.1521   -2.5832   -0.4693 C   0  0  0  0  0  0  0  0  0  0  0  0
   -5.1255   -3.5042    0.6757 C   0  0  0  0  0  0  0  0  0  0  0  0
    6.2948   -2.6376    0.3142 C   0  0  0  0  0  0  0  0  0  0  0  0
    6.5736   -2.9114   -2.1585 C   0  0  0  0  0  0  0  0  0  0  0  0
   -1.7382    1.8035    1.2321 H   0  0  0  0  0  0  0  0  0  0  0  0
    1.4991    2.8856   -0.8090 H   0  0  0  0  0  0  0  0  0  0  0  0
   -1.2132   -0.2651   -0.9919 H   0  0  0  0  0  0  0  0  0  0  0  0
   -0.6075    4.2164   -1.6406 H   0  0  0  0  0  0  0  0  0  0  0  0
    0.7306   -1.4341    0.2284 H   0  0  0  0  0  0  0  0  0  0  0  0
   -3.0283    3.5105   -2.0430 H   0  0  0  0  0  0  0  0  0  0  0  0
   -3.1951    1.7506   -1.9535 H   0  0  0  0  0  0  0  0  0  0  0  0
    2.8815    0.4473    1.7744 H   0  0  0  0  0  0  0  0  0  0  0  0
    2.8890    1.6789    0.5084 H   0  0  0  0  0  0  0  0  0  0  0  0
    1.6545    5.7530    1.2614 H   0  0  0  0  0  0  0  0  0  0  0  0
    0.8657    5.6263   -0.3189 H   0  0  0  0  0  0  0  0  0  0  0  0
    2.4554    4.8421   -0.0316 H   0  0  0  0  0  0  0  0  0  0  0  0
   -5.3934   -0.6690   -1.3356 H   0  0  0  0  0  0  0  0  0  0  0  0
   -5.3196   -0.7453    0.4357 H   0  0  0  0  0  0  0  0  0  0  0  0
   -4.8175    2.8510   -0.8122 H   0  0  0  0  0  0  0  0  0  0  0  0
   -5.3291   -3.1743   -1.4318 H   0  0  0  0  0  0  0  0  0  0  0  0
   -0.3217   -2.9144    2.3160 H   0  0  0  0  0  0  0  0  0  0  0  0
    1.3297   -3.1409    1.6490 H   0  0  0  0  0  0  0  0  0  0  0  0
    1.0884   -2.9230    3.3926 H   0  0  0  0  0  0  0  0  0  0  0  0
    4.7877   -0.8365   -2.2625 H   0  0  0  0  0  0  0  0  0  0  0  0
    4.0824   -2.1405   -1.2870 H   0  0  0  0  0  0  0  0  0  0  0  0
    6.9616   -1.1204   -1.0445 H   0  0  0  0  0  0  0  0  0  0  0  0
   -7.5289   -2.0119   -1.3243 H   0  0  0  0  0  0  0  0  0  0  0  0
   -7.5980   -3.5826   -0.5135 H   0  0  0  0  0  0  0  0  0  0  0  0
   -7.5037   -2.0953    0.4462 H   0  0  0  0  0  0  0  0  0  0  0  0
   -5.3614   -3.0222    1.6308 H   0  0  0  0  0  0  0  0  0  0  0  0
   -5.5973   -4.4929    0.6737 H   0  0  0  0  0  0  0  0  0  0  0  0
   -4.0439   -3.6624    0.6354 H   0  0  0  0  0  0  0  0  0  0  0  0
    7.2808   -3.0933    0.4561 H   0  0  0  0  0  0  0  0  0  0  0  0
    5.5445   -3.4324    0.3876 H   0  0  0  0  0  0  0  0  0  0  0  0
    6.1361   -1.9455    1.1462 H   0  0  0  0  0  0  0  0  0  0  0  0
    7.5793   -3.3199   -2.0134 H   0  0  0  0  0  0  0  0  0  0  0  0
    6.5535   -2.4131   -3.1334 H   0  0  0  0  0  0  0  0  0  0  0  0
    5.8688   -3.7494   -2.1911 H   0  0  0  0  0  0  0  0  0  0  0  0
  1 12  1  0  0  0  0
  1 16  1  0  0  0  0
  2 12  1  0  0  0  0
  2 19  1  0  0  0  0
  3 11  1  0  0  0  0
  3 20  1  0  0  0  0
  4 16  1  0  0  0  0
  4 23  1  0  0  0  0
  5 18  1  0  0  0  0
  5 24  1  0  0  0  0
  6 17  1  0  0  0  0
  6 45  1  0  0  0  0
  7 19  2  0  0  0  0
  8 24  2  0  0  0  0
  9 10  1  0  0  0  0
  9 12  1  0  0  0  0
  9 13  1  0  0  0  0
  9 31  1  0  0  0  0
 10 11  1  0  0  0  0
 10 14  2  0  0  0  0
 11 15  1  0  0  0  0
 11 32  1  0  0  0  0
 12 33  1  0  0  0  0
 13 15  2  0  0  0  0
 13 17  1  0  0  0  0
 14 16  1  0  0  0  0
 14 18  1  0  0  0  0
 15 34  1  0  0  0  0
 16 35  1  0  0  0  0
 17 36  1  0  0  0  0
 17 37  1  0  0  0  0
 18 38  1  0  0  0  0
 18 39  1  0  0  0  0
 19 21  1  0  0  0  0
 20 40  1  0  0  0  0
 20 41  1  0  0  0  0
 20 42  1  0  0  0  0
 21 22  1  0  0  0  0
 21 43  1  0  0  0  0
 21 44  1  0  0  0  0
 22 27  1  0  0  0  0
 22 28  1  0  0  0  0
 22 46  1  0  0  0  0
 23 47  1  0  0  0  0
 23 48  1  0  0  0  0
 23 49  1  0  0  0  0
 24 25  1  0  0  0  0
 25 26  1  0  0  0  0
 25 50  1  0  0  0  0
 25 51  1  0  0  0  0
 26 29  1  0  0  0  0
 26 30  1  0  0  0  0
 26 52  1  0  0  0  0
 27 53  1  0  0  0  0
 27 54  1  0  0  0  0
 27 55  1  0  0  0  0
 28 56  1  0  0  0  0
 28 57  1  0  0  0  0
 28 58  1  0  0  0  0
 29 59  1  0  0  0  0
 29 60  1  0  0  0  0
 29 61  1  0  0  0  0
 30 62  1  0  0  0  0
 30 63  1  0  0  0  0
 30 64  1  0  0  0  0
M  END
> <PUBCHEM_COMPOUND_CID>
10971969

> <PUBCHEM_CONFORMER_RMSD>
1.2

> <PUBCHEM_CONFORMER_DIVERSEORDER>
1
13
9
6
4
12
10
14
7
2
3
5
11
8

> <PUBCHEM_MMFF94_PARTIAL_CHARGES>
26
1 -0.56
10 -0.28
11 0.56
12 0.56
13 -0.28
14 -0.28
15 -0.29
16 0.7
17 0.42
18 0.42
19 0.66
2 -0.43
20 0.28
21 0.06
23 0.28
24 0.66
25 0.06
3 -0.56
34 0.15
4 -0.56
45 0.4
5 -0.43
6 -0.68
7 -0.57
8 -0.57
9 0.28

> <PUBCHEM_EFFECTIVE_ROTOR_COUNT>
12.8

> <PUBCHEM_PHARMACOPHORE_FEATURES>
11
1 1 acceptor
1 3 acceptor
1 4 acceptor
1 6 acceptor
1 6 donor
1 7 acceptor
1 8 acceptor
3 22 27 28 hydrophobe
3 26 29 30 hydrophobe
5 9 10 11 13 15 rings
6 1 9 10 12 14 16 rings

> <PUBCHEM_HEAVY_ATOM_COUNT>
30

> <PUBCHEM_ATOM_DEF_STEREO_COUNT>
4

> <PUBCHEM_ATOM_UDEF_STEREO_COUNT>
0

> <PUBCHEM_BOND_DEF_STEREO_COUNT>
0

> <PUBCHEM_BOND_UDEF_STEREO_COUNT>
0

> <PUBCHEM_ISOTOPIC_ATOM_COUNT>
0

> <PUBCHEM_COMPONENT_COUNT>
1

> <PUBCHEM_CACTVS_TAUTO_COUNT>
1

> <PUBCHEM_CONFORMER_ID>
00A76B4100000001

> <PUBCHEM_MMFF94_ENERGY>
49.3503

> <PUBCHEM_FEATURE_SELFOVERLAP>
55.953

> <PUBCHEM_SHAPE_FINGERPRINT>
10190108 129 18041575676222013281
10411042 1 18411698798484458380
10693767 8 18267015236254969039
13140716 1 17682660063535846681
13540713 4 18267845307409873645
13782708 43 17989483017804481638
14068700 675 18261396611962344132
14347332 77 18336543799151540522
14790565 3 17762896563638473401
15081414 286 17902221540961864909
15324884 4 17985514859086651432
17909252 39 18194968667018145153
20028762 73 16750994538059946891
20775438 99 17761763362002098830
21307412 95 18269832026210299373
21641784 216 17385996256873448789
23379529 103 18267868465815290711
23536364 44 18188195551227033263
24771750 20 17322684427436956580
2838139 119 13840252719585587342
70251023 43 18338233877245298785

> <PUBCHEM_SHAPE_MULTIPOLES>
570.43
14.62
5.81
1.56
5.11
5.32
0.34
-22.12
-7.02
-1.57
-0.28
1.33
-1.06
2.11

> <PUBCHEM_SHAPE_SELFOVERLAP>
1158.393

> <PUBCHEM_SHAPE_VOLUME>
331.2

> <PUBCHEM_COORDINATE_TYPE>
2
5
10

$$$$
