REMARK  Name = 10970661
REMARK  8 active torsions:
REMARK  status: ('A' for Active; 'I' for Inactive)
REMARK    1  A    between atoms: C_4  and  C_10
REMARK    2  A    between atoms: C_5  and  C_23
REMARK    3  A    between atoms: C_10  and  C_11
REMARK    4  A    between atoms: C_14  and  O_19
REMARK    5  A    between atoms: C_15  and  O_21
REMARK    6  A    between atoms: C_16  and  O_17
REMARK    7  A    between atoms: C_23  and  C_24
REMARK    8  A    between atoms: C_29  and  O_30
REMARK                            x       y       z     vdW  Elec       q    Type
REMARK                         _______ _______ _______ _____ _____    ______ ____
ROOT
ATOM      1  N   UNL     1      -0.600   3.121  -0.399  0.00  0.00    -0.266 N 
ATOM      2  N   UNL     1       1.562   2.624  -0.277  0.00  0.00    -0.380 NA
ATOM      3  N   UNL     1       0.814   4.179  -1.952  0.00  0.00    -0.321 N 
ATOM      4  C   UNL     1      -0.478   2.228   0.629  0.00  0.00    +0.129 C 
ATOM      5  C   UNL     1       0.843   1.964   0.657  0.00  0.00    +0.112 C 
ATOM      6  C   UNL     1       0.651   3.328  -0.912  0.00  0.00    +0.235 C 
ATOM      7  C   UNL     1      -1.832   3.729  -0.850  0.00  0.00    +0.116 C 
ATOM      8  H   UNL     1       0.036   4.644  -2.335  0.00  0.00    +0.146 HD
ATOM      9  H   UNL     1       1.712   4.332  -2.326  0.00  0.00    +0.146 HD
ENDROOT
BRANCH   4  10
ATOM     10  C   UNL     1      -1.620   1.759   1.434  0.00  0.00    +0.053 C 
BRANCH  10  11
ATOM     11  C   UNL     1      -2.301   0.508   0.895  0.00  0.00    -0.014 C 
ATOM     12  C   UNL     1      -1.854  -0.727   1.316  0.00  0.00    +0.036 C 
ATOM     13  C   UNL     1      -3.345   0.649   0.004  0.00  0.00    +0.036 C 
ATOM     14  C   UNL     1      -3.969  -0.497  -0.489  0.00  0.00    +0.171 C 
ATOM     15  C   UNL     1      -2.478  -1.873   0.823  0.00  0.00    +0.171 C 
ATOM     16  C   UNL     1      -3.535  -1.758  -0.080  0.00  0.00    +0.205 C 
BRANCH  16  17
ATOM     17  O   UNL     1      -4.146  -2.879  -0.560  0.00  0.00    -0.465 OA
ATOM     18  C   UNL     1      -3.331  -3.800  -1.281  0.00  0.00    +0.253 C 
ENDBRANCH  16  17
BRANCH  14  19
ATOM     19  O   UNL     1      -5.000  -0.371  -1.371  0.00  0.00    -0.503 OA
ATOM     20  H   UNL     1      -5.284   0.480  -1.640  0.00  0.00    +0.292 HD
ENDBRANCH  14  19
BRANCH  15  21
ATOM     21  O   UNL     1      -2.045  -3.099   1.232  0.00  0.00    -0.503 OA
ATOM     22  H   UNL     1      -1.334  -3.166   1.838  0.00  0.00    +0.292 HD
ENDBRANCH  15  21
ENDBRANCH  10  11
ENDBRANCH   4  10
BRANCH   5  23
ATOM     23  C   UNL     1       1.567   1.028   1.606  0.00  0.00    +0.082 C 
BRANCH  23  24
ATOM     24  C   UNL     1       2.559   0.138   0.938  0.00  0.00    -0.015 C 
ATOM     25  C   UNL     1       3.882   0.554   0.792  0.00  0.00    -0.001 C 
ATOM     26  C   UNL     1       2.164  -1.111   0.460  0.00  0.00    -0.001 C 
ATOM     27  C   UNL     1       4.810  -0.279   0.168  0.00  0.00    +0.037 C 
ATOM     28  C   UNL     1       3.092  -1.944  -0.165  0.00  0.00    +0.037 C 
ATOM     29  C   UNL     1       4.415  -1.528  -0.311  0.00  0.00    +0.139 C 
BRANCH  29  30
ATOM     30  O   UNL     1       5.322  -2.340  -0.920  0.00  0.00    -0.471 OA
ATOM     31  C   UNL     1       4.851  -3.604  -1.386  0.00  0.00    +0.252 C 
ENDBRANCH  29  30
ENDBRANCH  23  24
ENDBRANCH   5  23
TORSDOF 8
