REMARK  Name = 10971969
REMARK  13 active torsions:
REMARK  status: ('A' for Active; 'I' for Inactive)
REMARK    1  A    between atoms: C_4  and  O_10
REMARK    2  A    between atoms: C_5  and  O_14
REMARK    3  A    between atoms: C_6  and  C_21
REMARK    4  A    between atoms: C_7  and  C_24
REMARK    5  A    between atoms: C_9  and  O_12
REMARK    6  A    between atoms: O_14  and  C_16
REMARK    7  A    between atoms: C_16  and  C_17
REMARK    8  A    between atoms: C_17  and  C_18
REMARK    9  A    between atoms: C_21  and  O_22
REMARK   10  A    between atoms: C_24  and  O_25
REMARK   11  A    between atoms: O_25  and  C_27
REMARK   12  A    between atoms: C_27  and  C_28
REMARK   13  A    between atoms: C_28  and  C_29
REMARK                            x       y       z     vdW  Elec       q    Type
REMARK                         _______ _______ _______ _____ _____    ______ ____
ROOT
ATOM      1  O   UNL     1      -1.026  -0.748   1.028  0.00  0.00    -0.292 OA
ATOM      2  C   UNL     1      -1.270   1.504   0.284  0.00  0.00    +0.093 C 
ATOM      3  C   UNL     1       0.232   1.646   0.418  0.00  0.00    -0.012 C 
ATOM      4  C   UNL     1       0.621   2.980  -0.159  0.00  0.00    +0.134 C 
ATOM      5  C   UNL     1      -1.610   0.043  -0.013  0.00  0.00    +0.296 C 
ATOM      6  C   UNL     1      -1.619   2.542  -0.755  0.00  0.00    +0.042 C 
ATOM      7  C   UNL     1       1.023   0.610   0.746  0.00  0.00    +0.049 C 
ATOM      8  C   UNL     1      -0.583   3.371  -0.967  0.00  0.00    +0.037 C 
ATOM      9  C   UNL     1       0.407  -0.749   1.024  0.00  0.00    +0.261 C 
ENDROOT
BRANCH   4  10
ATOM     10  O   UNL     1       0.832   3.920   0.882  0.00  0.00    -0.350 OA
ATOM     11  C   UNL     1       1.484   5.091   0.407  0.00  0.00    +0.174 C 
ENDBRANCH   4  10
BRANCH   9  12
ATOM     12  O   UNL     1       0.880  -1.217   2.284  0.00  0.00    -0.325 OA
ATOM     13  C   UNL     1       0.729  -2.623   2.404  0.00  0.00    +0.177 C 
ENDBRANCH   9  12
BRANCH   5  14
ATOM     14  O   UNL     1      -3.025  -0.117   0.017  0.00  0.00    -0.424 OA
BRANCH  14  16
ATOM     15  O   UNL     1      -2.831  -2.123  -1.105  0.00  0.00    -0.250 OA
ATOM     16  C   UNL     1      -3.508  -1.255  -0.570  0.00  0.00    +0.319 C 
BRANCH  16  17
ATOM     17  C   UNL     1      -5.019  -1.255  -0.488  0.00  0.00    +0.110 C 
BRANCH  17  18
ATOM     18  C   UNL     1      -5.625  -2.667  -0.505  0.00  0.00    +0.011 C 
ATOM     19  C   UNL     1      -7.152  -2.583  -0.469  0.00  0.00    +0.001 C 
ATOM     20  C   UNL     1      -5.125  -3.504   0.676  0.00  0.00    +0.001 C 
ENDBRANCH  17  18
ENDBRANCH  16  17
ENDBRANCH  14  16
ENDBRANCH   5  14
BRANCH   6  21
ATOM     21  C   UNL     1      -2.968   2.648  -1.370  0.00  0.00    +0.138 C 
BRANCH  21  22
ATOM     22  O   UNL     1      -3.956   2.807  -0.363  0.00  0.00    -0.382 OA
ATOM     23  H   UNL     1      -4.831   2.875  -0.776  0.00  0.00    +0.210 HD
ENDBRANCH  21  22
ENDBRANCH   6  21
BRANCH   7  24
ATOM     24  C   UNL     1       2.524   0.678   0.763  0.00  0.00    +0.235 C 
BRANCH  24  25
ATOM     25  O   UNL     1       3.053  -0.261  -0.152  0.00  0.00    -0.444 OA
BRANCH  25  27
ATOM     26  O   UNL     1       5.198   0.385   0.397  0.00  0.00    -0.250 OA
ATOM     27  C   UNL     1       4.422  -0.312  -0.243  0.00  0.00    +0.317 C 
BRANCH  27  28
ATOM     28  C   UNL     1       4.825  -1.333  -1.286  0.00  0.00    +0.110 C 
BRANCH  28  29
ATOM     29  C   UNL     1       6.220  -1.929  -1.041  0.00  0.00    +0.011 C 
ATOM     30  C   UNL     1       6.295  -2.638   0.314  0.00  0.00    +0.001 C 
ATOM     31  C   UNL     1       6.574  -2.911  -2.159  0.00  0.00    +0.001 C 
ENDBRANCH  28  29
ENDBRANCH  27  28
ENDBRANCH  25  27
ENDBRANCH  24  25
ENDBRANCH   7  24
TORSDOF 13
