REMARK  Name = 10977679
REMARK  5 active torsions:
REMARK  status: ('A' for Active; 'I' for Inactive)
REMARK    1  A    between atoms: CA_5  and  N_10
REMARK    2  A    between atoms: CA_7  and  C_15
REMARK    3  A    between atoms: C_8  and  C_18
REMARK    4  A    between atoms: C_15  and  O_16
REMARK    5  A    between atoms: C_18  and  O_19
REMARK                            x       y       z     vdW  Elec       q    Type
REMARK                         _______ _______ _______ _____ _____    ______ ____
ROOT
ATOM      1  S   UNL     1      -0.893  -2.437   0.473  0.00  0.00    -0.118 S 
ATOM      2  O   UNL     1      -2.703   1.802  -0.151  0.00  0.00    -0.277 OA
ATOM      3  N   UNL     1      -1.069   0.106  -0.270  0.00  0.00    -0.249 N 
ATOM      4  C   UNL     1      -1.470  -1.213  -0.725  0.00  0.00    +0.117 C 
ATOM      5  CA  UNL     1      -2.925  -0.723  -0.559  0.00  0.00    +0.043 C 
ATOM      6  C   UNL     1      -2.292   0.677  -0.314  0.00  0.00    +0.212 C 
ATOM      7  CA  UNL     1       0.208   0.439   0.050  0.00  0.00    +0.126 C 
ATOM      8  C   UNL     1       1.156  -0.507   0.249  0.00  0.00    +0.016 C 
ATOM      9  C   UNL     1       0.865  -2.006   0.233  0.00  0.00    +0.085 C 
ENDROOT
BRANCH   5  10
ATOM     10  N   UNL     1      -3.480  -1.303   0.659  0.00  0.00    +0.389 N 
ATOM     11  H1  UNL     1      -3.881  -2.217   0.448  0.00  0.00    -0.088 HD
ATOM     12  H2  UNL     1      -4.207  -0.689   1.027  0.00  0.00    -0.088 HD
ATOM     13  H3  UNL     1      -2.740  -1.408   1.353  0.00  0.00    -0.088 HD
ENDBRANCH   5  10
BRANCH   7  15
ATOM     14  OXT UNL     1       0.362   2.464   1.286  0.00  0.00    -0.244 OA
ATOM     15  C   UNL     1       0.498   1.868   0.236  0.00  0.00    +0.351 C 
BRANCH  15  16
ATOM     16  O   UNL     1       0.931   2.391  -0.928  0.00  0.00    -0.476 OA
ATOM     17  H   UNL     1       1.003   1.848  -1.688  0.00  0.00    +0.295 HD
ENDBRANCH  15  16
ENDBRANCH   7  15
BRANCH   8  18
ATOM     18  C   UNL     1       2.612  -0.216   0.528  0.00  0.00    +0.167 C 
BRANCH  18  19
ATOM     19  O   UNL     1       3.406  -0.791  -0.488  0.00  0.00    -0.347 OA
ATOM     20  C   UNL     1       4.794  -0.549  -0.279  0.00  0.00    +0.175 C 
ENDBRANCH  18  19
ENDBRANCH   8  18
TORSDOF 5
