10982906
  -OEChem-03292013303D

 51 54  0     1  0  0  0  0  0999 V2000
   -4.2902    0.6614   -1.3830 O   0  0  0  0  0  0  0  0  0  0  0  0
   -5.3178    0.2027    2.0763 O   0  0  0  0  0  0  0  0  0  0  0  0
   -4.1427   -2.0997   -0.5146 O   0  0  0  0  0  0  0  0  0  0  0  0
   -7.2843    1.6161    0.3949 O   0  0  0  0  0  0  0  0  0  0  0  0
   -0.6188    1.9325    0.5359 O   0  0  0  0  0  0  0  0  0  0  0  0
    3.2265   -1.5294    0.0989 O   0  0  0  0  0  0  0  0  0  0  0  0
    5.9620   -1.6394    0.2652 O   0  0  0  0  0  0  0  0  0  0  0  0
    1.1969   -2.5773    0.1474 O   0  0  0  0  0  0  0  0  0  0  0  0
    7.4851    0.6650    0.0007 O   0  0  0  0  0  0  0  0  0  0  0  0
   -2.9204    0.9486   -1.2272 N   0  0  0  0  0  0  0  0  0  0  0  0
   -0.1852   -0.2261   -0.2845 N   0  0  0  0  0  0  0  0  0  0  0  0
   -4.6450   -0.1214    0.8539 C   0  0  2  0  0  0  0  0  0  0  0  0
   -5.0496    0.9188   -0.1993 C   0  0  2  0  0  0  0  0  0  0  0  0
   -5.0583   -1.5572    0.4350 C   0  0  1  0  0  0  0  0  0  0  0  0
   -3.1383    0.0053    1.0912 C   0  0  0  0  0  0  0  0  0  0  0  0
   -6.5463    0.8527   -0.5583 C   0  0  1  0  0  0  0  0  0  0  0  0
   -6.4351   -1.6189   -0.1638 C   0  0  0  0  0  0  0  0  0  0  0  0
   -7.1060   -0.5402   -0.5878 C   0  0  0  0  0  0  0  0  0  0  0  0
   -2.4170    0.6044   -0.0855 C   0  0  0  0  0  0  0  0  0  0  0  0
   -0.9588    0.8481    0.0915 C   0  0  0  0  0  0  0  0  0  0  0  0
    1.1766   -0.2300   -0.2096 C   0  0  0  0  0  0  0  0  0  0  0  0
    1.8835    0.8980   -0.3419 C   0  0  0  0  0  0  0  0  0  0  0  0
    3.3347    0.8728   -0.2589 C   0  0  0  0  0  0  0  0  0  0  0  0
    1.8356   -1.5374    0.0238 C   0  0  0  0  0  0  0  0  0  0  0  0
    3.9738   -0.3432   -0.0398 C   0  0  0  0  0  0  0  0  0  0  0  0
    5.3611   -0.4372    0.0507 C   0  0  0  0  0  0  0  0  0  0  0  0
    4.1094    2.0277   -0.3910 C   0  0  0  0  0  0  0  0  0  0  0  0
    6.1263    0.7194   -0.0822 C   0  0  0  0  0  0  0  0  0  0  0  0
    5.5023    1.9492   -0.3024 C   0  0  0  0  0  0  0  0  0  0  0  0
    6.8775   -2.0944   -0.7301 C   0  0  0  0  0  0  0  0  0  0  0  0
    8.0624    0.8288    1.2945 C   0  0  0  0  0  0  0  0  0  0  0  0
   -4.8261    1.9361    0.1538 H   0  0  0  0  0  0  0  0  0  0  0  0
   -5.0547   -2.2081    1.3187 H   0  0  0  0  0  0  0  0  0  0  0  0
   -2.6783   -0.9520    1.3584 H   0  0  0  0  0  0  0  0  0  0  0  0
   -2.9463    0.6703    1.9441 H   0  0  0  0  0  0  0  0  0  0  0  0
   -6.7097    1.3044   -1.5442 H   0  0  0  0  0  0  0  0  0  0  0  0
   -6.9027   -2.5963   -0.2462 H   0  0  0  0  0  0  0  0  0  0  0  0
   -8.1065   -0.6687   -0.9920 H   0  0  0  0  0  0  0  0  0  0  0  0
   -5.1096    1.1250    2.3037 H   0  0  0  0  0  0  0  0  0  0  0  0
   -3.3714   -2.4355   -0.0281 H   0  0  0  0  0  0  0  0  0  0  0  0
   -6.9873    2.5395    0.3255 H   0  0  0  0  0  0  0  0  0  0  0  0
   -0.6452   -1.1199   -0.4392 H   0  0  0  0  0  0  0  0  0  0  0  0
    1.4394    1.8621   -0.5603 H   0  0  0  0  0  0  0  0  0  0  0  0
    3.6439    2.9951   -0.5627 H   0  0  0  0  0  0  0  0  0  0  0  0
    6.0960    2.8536   -0.4073 H   0  0  0  0  0  0  0  0  0  0  0  0
    7.9006   -1.8329   -0.4463 H   0  0  0  0  0  0  0  0  0  0  0  0
    6.6421   -1.6937   -1.7224 H   0  0  0  0  0  0  0  0  0  0  0  0
    6.8080   -3.1851   -0.7775 H   0  0  0  0  0  0  0  0  0  0  0  0
    7.8210    1.8167    1.6994 H   0  0  0  0  0  0  0  0  0  0  0  0
    7.7113    0.0471    1.9757 H   0  0  0  0  0  0  0  0  0  0  0  0
    9.1483    0.7460    1.1978 H   0  0  0  0  0  0  0  0  0  0  0  0
  1 10  1  0  0  0  0
  1 13  1  0  0  0  0
  2 12  1  0  0  0  0
  2 39  1  0  0  0  0
  3 14  1  0  0  0  0
  3 40  1  0  0  0  0
  4 16  1  0  0  0  0
  4 41  1  0  0  0  0
  5 20  2  0  0  0  0
  6 24  1  0  0  0  0
  6 25  1  0  0  0  0
  7 26  1  0  0  0  0
  7 30  1  0  0  0  0
  8 24  2  0  0  0  0
  9 28  1  0  0  0  0
  9 31  1  0  0  0  0
 10 19  2  0  0  0  0
 11 20  1  0  0  0  0
 11 21  1  0  0  0  0
 11 42  1  0  0  0  0
 12 13  1  0  0  0  0
 12 14  1  0  0  0  0
 12 15  1  0  0  0  0
 13 16  1  0  0  0  0
 13 32  1  0  0  0  0
 14 17  1  0  0  0  0
 14 33  1  0  0  0  0
 15 19  1  0  0  0  0
 15 34  1  0  0  0  0
 15 35  1  0  0  0  0
 16 18  1  0  0  0  0
 16 36  1  0  0  0  0
 17 18  2  0  0  0  0
 17 37  1  0  0  0  0
 18 38  1  0  0  0  0
 19 20  1  0  0  0  0
 21 22  2  0  0  0  0
 21 24  1  0  0  0  0
 22 23  1  0  0  0  0
 22 43  1  0  0  0  0
 23 25  2  0  0  0  0
 23 27  1  0  0  0  0
 25 26  1  0  0  0  0
 26 28  2  0  0  0  0
 27 29  2  0  0  0  0
 27 44  1  0  0  0  0
 28 29  1  0  0  0  0
 29 45  1  0  0  0  0
 30 46  1  0  0  0  0
 30 47  1  0  0  0  0
 30 48  1  0  0  0  0
 31 49  1  0  0  0  0
 31 50  1  0  0  0  0
 31 51  1  0  0  0  0
M  END
> <PUBCHEM_COMPOUND_CID>
10982906

> <PUBCHEM_CONFORMER_RMSD>
0.8

> <PUBCHEM_CONFORMER_DIVERSEORDER>
1
15
13
26
34
32
4
35
6
37
42
25
39
11
28
43
33
21
40
12
14
20
41
5
8
29
7
18
38
24
10
16
31
23
27
30
3
22
17
36
9
2
19

> <PUBCHEM_MMFF94_PARTIAL_CHARGES>
40
1 -0.22
10 -0.51
11 -0.54
12 0.28
13 0.28
14 0.42
15 0.06
16 0.42
17 -0.29
18 -0.29
19 0.39
2 -0.68
20 0.63
21 0.12
22 -0.18
23 0.03
24 0.71
25 0.08
26 0.08
27 -0.15
28 0.08
29 -0.15
3 -0.68
30 0.28
31 0.28
37 0.15
38 0.15
39 0.4
4 -0.68
40 0.4
41 0.4
42 0.37
43 0.15
44 0.15
45 0.15
5 -0.57
6 -0.23
7 -0.36
8 -0.57
9 -0.36

> <PUBCHEM_EFFECTIVE_ROTOR_COUNT>
5.8

> <PUBCHEM_PHARMACOPHORE_FEATURES>
16
1 10 acceptor
1 11 donor
1 2 acceptor
1 2 donor
1 3 acceptor
1 3 donor
1 4 acceptor
1 4 donor
1 5 acceptor
1 7 acceptor
1 8 acceptor
1 9 acceptor
6 1 10 12 13 15 19 rings
6 12 13 14 16 17 18 rings
6 23 25 26 27 28 29 rings
6 6 21 22 23 24 25 rings

> <PUBCHEM_HEAVY_ATOM_COUNT>
31

> <PUBCHEM_ATOM_DEF_STEREO_COUNT>
4

> <PUBCHEM_ATOM_UDEF_STEREO_COUNT>
0

> <PUBCHEM_BOND_DEF_STEREO_COUNT>
0

> <PUBCHEM_BOND_UDEF_STEREO_COUNT>
0

> <PUBCHEM_ISOTOPIC_ATOM_COUNT>
0

> <PUBCHEM_COMPONENT_COUNT>
1

> <PUBCHEM_CACTVS_TAUTO_COUNT>
2

> <PUBCHEM_CONFORMER_ID>
00A795FA00000001

> <PUBCHEM_MMFF94_ENERGY>
121.6183

> <PUBCHEM_FEATURE_SELFOVERLAP>
81.309

> <PUBCHEM_SHAPE_FINGERPRINT>
10 15 18040432227068521832
10050765 1 18051131397828094412
10299344 5 18343865524358137623
10835480 77 18261665970731213853
11135926 11 18408877426226311743
11315181 36 17632859733551050121
11524674 6 17275384326737385223
11719270 70 18341891879374903814
12166972 35 18259990379240054156
12236239 1 17988926651977363296
12516196 113 18131350812818915017
13533116 47 16950554433758558010
13631057 29 18128815421232413679
13782708 43 17822289055302967874
13885169 127 18409448060066090261
14170010 4 18410856560721419124
14849402 71 17845652676787550808
14856354 85 16558747940720149749
14933364 13 18335138691393294421
15183329 4 18412549807947497824
15419008 47 17458340836331842964
1577012 14 17775015561171648704
17093844 174 18408884032392219977
17844677 252 18408327670301757701
18927931 339 16732707160255805857
19489759 90 16443062807307433981
20028762 73 18343585123145266174
21130935 74 18272373044863990306
21267235 1 18341336596486108526
21623969 137 18410579487015340814
22224240 67 18410289229442244714
23522609 53 18056228909676058784
23559900 14 18338792433822281249
3004659 81 18187363220550006696
335352 9 18409172122082387628
4073 2 17894918480854110506
4325135 7 18408039636872471575
59755656 215 17894914001451146714
99344 41 18411416211507298650

> <PUBCHEM_SHAPE_MULTIPOLES>
575.18
23.81
2.13
1
4.1
0.7
-0.23
-0.09
-1.3
1.25
0.18
-0.76
-0.12
0.32

> <PUBCHEM_SHAPE_SELFOVERLAP>
1256.906

> <PUBCHEM_SHAPE_VOLUME>
306.9

> <PUBCHEM_COORDINATE_TYPE>
2
5
10

$$$$
