10982824
  -OEChem-03292013303D

 64 65  0     1  0  0  0  0  0999 V2000
    0.7378    0.9309    0.2803 O   0  0  0  0  0  0  0  0  0  0  0  0
    2.8951    0.0547    0.3232 O   0  0  0  0  0  0  0  0  0  0  0  0
   -1.3832   -3.5800    0.8252 O   0  0  0  0  0  0  0  0  0  0  0  0
   -0.6008    1.4883   -1.5724 O   0  0  0  0  0  0  0  0  0  0  0  0
   -3.4556    0.1470    0.0930 O   0  0  0  0  0  0  0  0  0  0  0  0
    3.6212   -2.8378    1.0984 O   0  0  0  0  0  0  0  0  0  0  0  0
    3.3298    1.6297   -1.3048 O   0  0  0  0  0  0  0  0  0  0  0  0
   -5.3048   -0.3816   -1.1802 O   0  0  0  0  0  0  0  0  0  0  0  0
    1.0128   -1.4377    0.3460 C   0  0  2  0  0  0  0  0  0  0  0  0
   -0.4468   -1.5502   -0.0401 C   0  0  0  0  0  0  0  0  0  0  0  0
   -0.7431   -3.0023   -0.3005 C   0  0  1  0  0  0  0  0  0  0  0  0
    1.5809   -0.1260   -0.1959 C   0  0  1  0  0  0  0  0  0  0  0  0
    1.5974   -2.7346   -0.1586 C   0  0  0  0  0  0  0  0  0  0  0  0
   -1.1955   -0.4760   -0.3422 C   0  0  0  0  0  0  0  0  0  0  0  0
    0.6227   -3.6027   -0.4792 C   0  0  0  0  0  0  0  0  0  0  0  0
   -0.5869    0.9106   -0.2684 C   0  0  1  0  0  0  0  0  0  0  0  0
    3.0585   -3.0022   -0.1952 C   0  0  0  0  0  0  0  0  0  0  0  0
   -2.6207   -0.5549   -0.8080 C   0  0  0  0  0  0  0  0  0  0  0  0
    3.6721    0.9715   -0.3320 C   0  0  0  0  0  0  0  0  0  0  0  0
   -1.9425   -4.8508    0.5164 C   0  0  0  0  0  0  0  0  0  0  0  0
    5.0408    1.0170    0.3133 C   0  0  0  0  0  0  0  0  0  0  0  0
    5.7503    2.3676    0.1303 C   0  0  0  0  0  0  0  0  0  0  0  0
   -0.4836    2.9016   -1.5126 C   0  0  0  0  0  0  0  0  0  0  0  0
   -4.7952    0.1597   -0.2086 C   0  0  0  0  0  0  0  0  0  0  0  0
   -5.5409    0.9784    0.8237 C   0  0  0  0  0  0  0  0  0  0  0  0
   -5.0077    2.4134    0.9564 C   0  0  0  0  0  0  0  0  0  0  0  0
    7.1415    2.3189    0.7647 C   0  0  0  0  0  0  0  0  0  0  0  0
    4.9412    3.5126    0.7450 C   0  0  0  0  0  0  0  0  0  0  0  0
   -5.1181    3.1761   -0.3662 C   0  0  0  0  0  0  0  0  0  0  0  0
   -5.7766    3.1590    2.0489 C   0  0  0  0  0  0  0  0  0  0  0  0
    1.0855   -1.4401    1.4432 H   0  0  0  0  0  0  0  0  0  0  0  0
   -1.3344   -3.1249   -1.2155 H   0  0  0  0  0  0  0  0  0  0  0  0
    1.6046   -0.1304   -1.2952 H   0  0  0  0  0  0  0  0  0  0  0  0
    0.7953   -4.6111   -0.8286 H   0  0  0  0  0  0  0  0  0  0  0  0
   -1.2067    1.5145    0.4063 H   0  0  0  0  0  0  0  0  0  0  0  0
    3.2651   -4.0252   -0.5273 H   0  0  0  0  0  0  0  0  0  0  0  0
    3.5558   -2.3165   -0.8882 H   0  0  0  0  0  0  0  0  0  0  0  0
   -2.9671   -1.5920   -0.8681 H   0  0  0  0  0  0  0  0  0  0  0  0
   -2.7043   -0.1157   -1.8094 H   0  0  0  0  0  0  0  0  0  0  0  0
   -2.4543   -5.2210    1.4091 H   0  0  0  0  0  0  0  0  0  0  0  0
   -1.1670   -5.5726    0.2452 H   0  0  0  0  0  0  0  0  0  0  0  0
   -2.6785   -4.7637   -0.2891 H   0  0  0  0  0  0  0  0  0  0  0  0
    5.6370    0.2091   -0.1260 H   0  0  0  0  0  0  0  0  0  0  0  0
    4.9286    0.8113    1.3853 H   0  0  0  0  0  0  0  0  0  0  0  0
    4.5762   -3.0022    1.0177 H   0  0  0  0  0  0  0  0  0  0  0  0
    5.8671    2.5694   -0.9419 H   0  0  0  0  0  0  0  0  0  0  0  0
   -1.3378    3.3372   -0.9847 H   0  0  0  0  0  0  0  0  0  0  0  0
    0.4519    3.1967   -1.0277 H   0  0  0  0  0  0  0  0  0  0  0  0
   -0.4786    3.2878   -2.5355 H   0  0  0  0  0  0  0  0  0  0  0  0
   -5.4757    0.4463    1.7801 H   0  0  0  0  0  0  0  0  0  0  0  0
   -6.5998    0.9921    0.5375 H   0  0  0  0  0  0  0  0  0  0  0  0
   -3.9499    2.3863    1.2458 H   0  0  0  0  0  0  0  0  0  0  0  0
    7.7449    1.5231    0.3155 H   0  0  0  0  0  0  0  0  0  0  0  0
    7.6715    3.2652    0.6132 H   0  0  0  0  0  0  0  0  0  0  0  0
    7.0823    2.1324    1.8425 H   0  0  0  0  0  0  0  0  0  0  0  0
    4.7611    3.3420    1.8120 H   0  0  0  0  0  0  0  0  0  0  0  0
    5.4788    4.4617    0.6433 H   0  0  0  0  0  0  0  0  0  0  0  0
    3.9715    3.6365    0.2544 H   0  0  0  0  0  0  0  0  0  0  0  0
   -4.7681    4.2073   -0.2485 H   0  0  0  0  0  0  0  0  0  0  0  0
   -6.1541    3.2097   -0.7206 H   0  0  0  0  0  0  0  0  0  0  0  0
   -4.5065    2.7114   -1.1462 H   0  0  0  0  0  0  0  0  0  0  0  0
   -5.3870    4.1747    2.1749 H   0  0  0  0  0  0  0  0  0  0  0  0
   -5.6814    2.6435    3.0104 H   0  0  0  0  0  0  0  0  0  0  0  0
   -6.8424    3.2323    1.8072 H   0  0  0  0  0  0  0  0  0  0  0  0
  1 12  1  0  0  0  0
  1 16  1  0  0  0  0
  2 12  1  0  0  0  0
  2 19  1  0  0  0  0
  3 11  1  0  0  0  0
  3 20  1  0  0  0  0
  4 16  1  0  0  0  0
  4 23  1  0  0  0  0
  5 18  1  0  0  0  0
  5 24  1  0  0  0  0
  6 17  1  0  0  0  0
  6 45  1  0  0  0  0
  7 19  2  0  0  0  0
  8 24  2  0  0  0  0
  9 10  1  0  0  0  0
  9 12  1  0  0  0  0
  9 13  1  0  0  0  0
  9 31  1  0  0  0  0
 10 11  1  0  0  0  0
 10 14  2  0  0  0  0
 11 15  1  0  0  0  0
 11 32  1  0  0  0  0
 12 33  1  0  0  0  0
 13 15  2  0  0  0  0
 13 17  1  0  0  0  0
 14 16  1  0  0  0  0
 14 18  1  0  0  0  0
 15 34  1  0  0  0  0
 16 35  1  0  0  0  0
 17 36  1  0  0  0  0
 17 37  1  0  0  0  0
 18 38  1  0  0  0  0
 18 39  1  0  0  0  0
 19 21  1  0  0  0  0
 20 40  1  0  0  0  0
 20 41  1  0  0  0  0
 20 42  1  0  0  0  0
 21 22  1  0  0  0  0
 21 43  1  0  0  0  0
 21 44  1  0  0  0  0
 22 27  1  0  0  0  0
 22 28  1  0  0  0  0
 22 46  1  0  0  0  0
 23 47  1  0  0  0  0
 23 48  1  0  0  0  0
 23 49  1  0  0  0  0
 24 25  1  0  0  0  0
 25 26  1  0  0  0  0
 25 50  1  0  0  0  0
 25 51  1  0  0  0  0
 26 29  1  0  0  0  0
 26 30  1  0  0  0  0
 26 52  1  0  0  0  0
 27 53  1  0  0  0  0
 27 54  1  0  0  0  0
 27 55  1  0  0  0  0
 28 56  1  0  0  0  0
 28 57  1  0  0  0  0
 28 58  1  0  0  0  0
 29 59  1  0  0  0  0
 29 60  1  0  0  0  0
 29 61  1  0  0  0  0
 30 62  1  0  0  0  0
 30 63  1  0  0  0  0
 30 64  1  0  0  0  0
M  END
> <PUBCHEM_COMPOUND_CID>
10982824

> <PUBCHEM_CONFORMER_RMSD>
1.2

> <PUBCHEM_CONFORMER_DIVERSEORDER>
1
3
10
7
9
13
15
6
14
8
11
5
2
12
4

> <PUBCHEM_MMFF94_PARTIAL_CHARGES>
26
1 -0.56
10 -0.28
11 0.56
12 0.56
13 -0.28
14 -0.28
15 -0.29
16 0.7
17 0.42
18 0.42
19 0.66
2 -0.43
20 0.28
21 0.06
23 0.28
24 0.66
25 0.06
3 -0.56
34 0.15
4 -0.56
45 0.4
5 -0.43
6 -0.68
7 -0.57
8 -0.57
9 0.28

> <PUBCHEM_EFFECTIVE_ROTOR_COUNT>
12.8

> <PUBCHEM_PHARMACOPHORE_FEATURES>
11
1 1 acceptor
1 3 acceptor
1 4 acceptor
1 6 acceptor
1 6 donor
1 7 acceptor
1 8 acceptor
3 22 27 28 hydrophobe
3 26 29 30 hydrophobe
5 9 10 11 13 15 rings
6 1 9 10 12 14 16 rings

> <PUBCHEM_HEAVY_ATOM_COUNT>
30

> <PUBCHEM_ATOM_DEF_STEREO_COUNT>
4

> <PUBCHEM_ATOM_UDEF_STEREO_COUNT>
0

> <PUBCHEM_BOND_DEF_STEREO_COUNT>
0

> <PUBCHEM_BOND_UDEF_STEREO_COUNT>
0

> <PUBCHEM_ISOTOPIC_ATOM_COUNT>
0

> <PUBCHEM_COMPONENT_COUNT>
1

> <PUBCHEM_CACTVS_TAUTO_COUNT>
1

> <PUBCHEM_CONFORMER_ID>
00A795A800000001

> <PUBCHEM_MMFF94_ENERGY>
47.9343

> <PUBCHEM_FEATURE_SELFOVERLAP>
55.949

> <PUBCHEM_SHAPE_FINGERPRINT>
10050765 1 18411699919972972466
10493431 412 18410294743795182845
10906281 52 18115321067458006964
11135609 201 18272097097815547729
12422481 6 17749387031496920973
12788726 201 17561089090003755000
13140716 1 18119526797959892156
14790565 3 18339643339219297861
15840311 113 18197789812793467153
15927050 60 18412263952025933566
17913733 40 18410009897048293692
20739085 24 18116446846926183461
21236236 1 18194396929746200718
21424621 283 18343586252220193320
3411729 13 18411704248750354320
350125 39 18265334993587559942
5104073 3 18335146337131115219
636775 72 18057597879779800488
79837 15 18263934396283810107
9896288 288 18192434297749885914

> <PUBCHEM_SHAPE_MULTIPOLES>
570.43
13.9
5.92
1.19
2.25
4.31
-0.02
-18.47
-4.52
0.06
-1.26
-0.94
-0.79
-0.72

> <PUBCHEM_SHAPE_SELFOVERLAP>
1158.602

> <PUBCHEM_SHAPE_VOLUME>
331.1

> <PUBCHEM_COORDINATE_TYPE>
2
5
10

$$$$
