REMARK  Name = 10982461
REMARK  8 active torsions:
REMARK  status: ('A' for Active; 'I' for Inactive)
REMARK    1  A    between atoms: C_5  and  C_8
REMARK    2  A    between atoms: C_6  and  C_20
REMARK    3  A    between atoms: C_8  and  C_9
REMARK    4  A    between atoms: C_10  and  O_15
REMARK    5  A    between atoms: C_12  and  O_17
REMARK    6  A    between atoms: C_20  and  C_21
REMARK    7  A    between atoms: C_22  and  O_27
REMARK    8  A    between atoms: C_24  and  O_29
REMARK                            x       y       z     vdW  Elec       q    Type
REMARK                         _______ _______ _______ _____ _____    ______ ____
ROOT
ATOM      1  N   UNL     1       0.740   1.219  -0.628  0.00  0.00    -0.080 NA
ATOM      2  N   UNL     1      -0.590   1.235  -0.659  0.00  0.00    -0.080 NA
ATOM      3  N   UNL     1       0.732   3.178   0.738  0.00  0.00    -0.080 NA
ATOM      4  N   UNL     1      -0.598   3.194   0.708  0.00  0.00    -0.080 NA
ATOM      5  C   UNL     1       1.350   2.191   0.069  0.00  0.00    +0.118 C 
ATOM      6  C   UNL     1      -1.161   2.221   0.012  0.00  0.00    +0.118 C 
ENDROOT
BRANCH   5   8
ATOM      7  O   UNL     1       3.440   3.232   0.211  0.00  0.00    -0.276 OA
ATOM      8  C   UNL     1       2.797   2.173   0.104  0.00  0.00    +0.260 C 
BRANCH   8   9
ATOM      9  C   UNL     1       3.591   0.906   0.014  0.00  0.00    +0.052 C 
ATOM     10  C   UNL     1       3.778  -1.428   0.427  0.00  0.00    +0.173 C 
ATOM     11  C   UNL     1       3.038  -0.249   0.509  0.00  0.00    +0.044 C 
ATOM     12  C   UNL     1       5.050  -1.415  -0.147  0.00  0.00    +0.172 C 
ATOM     13  C   UNL     1       4.840   0.957  -0.557  0.00  0.00    +0.007 C 
ATOM     14  C   UNL     1       5.580  -0.222  -0.639  0.00  0.00    +0.040 C 
BRANCH  10  15
ATOM     15  O   UNL     1       3.250  -2.587   0.911  0.00  0.00    -0.468 OA
ATOM     16  C   UNL     1       1.945  -2.515   1.482  0.00  0.00    +0.253 C 
ENDBRANCH  10  15
BRANCH  12  17
ATOM     17  O   UNL     1       5.782  -2.560  -0.233  0.00  0.00    -0.468 OA
ATOM     18  C   UNL     1       5.620  -3.346  -1.411  0.00  0.00    +0.253 C 
ENDBRANCH  12  17
ENDBRANCH   8   9
ENDBRANCH   5   8
BRANCH   6  20
ATOM     19  O   UNL     1      -3.211   3.347   0.051  0.00  0.00    -0.276 OA
ATOM     20  C   UNL     1      -2.655   2.241  -0.026  0.00  0.00    +0.260 C 
BRANCH  20  21
ATOM     21  C   UNL     1      -3.448   1.029  -0.149  0.00  0.00    +0.052 C 
ATOM     22  C   UNL     1      -3.728  -1.338   0.248  0.00  0.00    +0.173 C 
ATOM     23  C   UNL     1      -2.967  -0.175   0.367  0.00  0.00    +0.044 C 
ATOM     24  C   UNL     1      -4.969  -1.298  -0.388  0.00  0.00    +0.172 C 
ATOM     25  C   UNL     1      -4.689   1.069  -0.785  0.00  0.00    +0.007 C 
ATOM     26  C   UNL     1      -5.449  -0.095  -0.905  0.00  0.00    +0.040 C 
BRANCH  22  27
ATOM     27  O   UNL     1      -3.248  -2.507   0.756  0.00  0.00    -0.468 OA
ATOM     28  C   UNL     1      -2.459  -3.317  -0.113  0.00  0.00    +0.253 C 
ENDBRANCH  22  27
BRANCH  24  29
ATOM     29  O   UNL     1      -5.721  -2.427  -0.510  0.00  0.00    -0.468 OA
ATOM     30  C   UNL     1      -6.640  -2.711   0.542  0.00  0.00    +0.253 C 
ENDBRANCH  24  29
ENDBRANCH  20  21
ENDBRANCH   6  20
TORSDOF 8
