REMARK  Name = 10981927
REMARK  11 active torsions:
REMARK  status: ('A' for Active; 'I' for Inactive)
REMARK    1  A    between atoms: O_1  and  C_5
REMARK    2  A    between atoms: O_1  and  C_17
REMARK    3  A    between atoms: C_3  and  O_10
REMARK    4  A    between atoms: C_4  and  O_8
REMARK    5  A    between atoms: C_6  and  O_12
REMARK    6  A    between atoms: C_7  and  C_14
REMARK    7  A    between atoms: C_14  and  O_15
REMARK    8  A    between atoms: C_17  and  C_22
REMARK    9  A    between atoms: C_20  and  C_27
REMARK   10  A    between atoms: C_28  and  C_29
REMARK   11  A    between atoms: C_29  and  O_31
REMARK                            x       y       z     vdW  Elec       q    Type
REMARK                         _______ _______ _______ _____ _____    ______ ____
ROOT
ATOM      1  O   UNL     1      -0.525  -1.193  -0.099  0.00  0.00    -0.324 OA
ENDROOT
BRANCH   1   5
ATOM      2  O   UNL     1      -2.259   0.297  -0.565  0.00  0.00    -0.326 OA
ATOM      3  C   UNL     1      -2.673  -1.627   0.859  0.00  0.00    +0.196 C 
ATOM      4  C   UNL     1      -4.179  -1.399   0.734  0.00  0.00    +0.172 C 
ATOM      5  C   UNL     1      -1.924  -1.073  -0.354  0.00  0.00    +0.266 C 
ATOM      6  C   UNL     1      -4.490   0.048   0.349  0.00  0.00    +0.169 C 
ATOM      7  C   UNL     1      -3.646   0.484  -0.851  0.00  0.00    +0.176 C 
BRANCH   4   8
ATOM      8  O   UNL     1      -4.806  -1.667   1.989  0.00  0.00    -0.379 OA
ATOM      9  H   UNL     1      -4.622  -2.582   2.254  0.00  0.00    +0.211 HD
ENDBRANCH   4   8
BRANCH   3  10
ATOM     10  O   UNL     1      -2.411  -3.027   0.944  0.00  0.00    -0.378 OA
ATOM     11  H   UNL     1      -2.879  -3.397   1.709  0.00  0.00    +0.211 HD
ENDBRANCH   3  10
BRANCH   6  12
ATOM     12  O   UNL     1      -5.872   0.161   0.020  0.00  0.00    -0.379 OA
ATOM     13  H   UNL     1      -6.409  -0.115   0.779  0.00  0.00    +0.211 HD
ENDBRANCH   6  12
BRANCH   7  14
ATOM     14  C   UNL     1      -3.853   1.959  -1.180  0.00  0.00    +0.169 C 
BRANCH  14  15
ATOM     15  O   UNL     1      -3.037   2.292  -2.288  0.00  0.00    -0.379 OA
ATOM     16  H   UNL     1      -3.158   3.229  -2.509  0.00  0.00    +0.211 HD
ENDBRANCH  14  15
ENDBRANCH   7  14
ENDBRANCH   1   5
BRANCH   1  17
ATOM     17  C   UNL     1       0.249  -0.702  -1.175  0.00  0.00    +0.167 C 
BRANCH  17  22
ATOM     18  O   UNL     1       4.676  -2.375  -2.101  0.00  0.00    -0.291 OA
ATOM     19  C   UNL     1       3.465  -0.839   1.001  0.00  0.00    +0.015 C 
ATOM     20  C   UNL     1       2.206  -0.138   0.392  0.00  0.00    +0.043 C 
ATOM     21  C   UNL     1       4.522  -1.067  -0.098  0.00  0.00    +0.070 C 
ATOM     22  C   UNL     1       1.711  -0.853  -0.854  0.00  0.00    -0.008 C 
ATOM     23  C   UNL     1       4.095   0.001   2.134  0.00  0.00    +0.001 C 
ATOM     24  C   UNL     1       3.061  -2.198   1.627  0.00  0.00    +0.001 C 
ATOM     25  C   UNL     1       3.955  -1.742  -1.330  0.00  0.00    +0.173 C 
ATOM     26  C   UNL     1       2.513  -1.592  -1.638  0.00  0.00    +0.032 C 
BRANCH  20  27
ATOM     27  C   UNL     1       2.426   1.319   0.080  0.00  0.00    -0.024 C 
ATOM     28  C   UNL     1       1.744   2.318   0.658  0.00  0.00    -0.002 C 
BRANCH  28  29
ATOM     29  C   UNL     1       1.966   3.768   0.345  0.00  0.00    +0.132 C 
ATOM     30  C   UNL     1       0.683   4.432  -0.137  0.00  0.00    +0.037 C 
BRANCH  29  31
ATOM     31  O   UNL     1       2.406   4.413   1.537  0.00  0.00    -0.380 OA
ATOM     32  H   UNL     1       3.224   3.994   1.849  0.00  0.00    +0.211 HD
ENDBRANCH  29  31
ENDBRANCH  28  29
ENDBRANCH  20  27
ENDBRANCH  17  22
ENDBRANCH   1  17
TORSDOF 11
