REMARK  Name = 10982906
REMARK  7 active torsions:
REMARK  status: ('A' for Active; 'I' for Inactive)
REMARK    1  A    between atoms: N_2  and  C_7
REMARK    2  A    between atoms: C_3  and  C_29
REMARK    3  A    between atoms: C_12  and  O_16
REMARK    4  A    between atoms: C_14  and  O_18
REMARK    5  A    between atoms: C_22  and  O_30
REMARK    6  A    between atoms: C_24  and  O_32
REMARK    7  A    between atoms: C_26  and  O_34
REMARK                            x       y       z     vdW  Elec       q    Type
REMARK                         _______ _______ _______ _____ _____    ______ ____
ROOT
ATOM      1  O   UNL     1      -0.619   1.933   0.536  0.00  0.00    -0.268 OA
ATOM      2  N   UNL     1      -0.185  -0.226  -0.284  0.00  0.00    -0.274 N 
ATOM      3  C   UNL     1      -0.959   0.848   0.091  0.00  0.00    +0.267 C 
ATOM      4  H   UNL     1      -0.637  -1.032  -0.624  0.00  0.00    +0.155 HD
ENDROOT
BRANCH   2   7
ATOM      5  O   UNL     1       3.227  -1.529   0.099  0.00  0.00    -0.417 OA
ATOM      6  O   UNL     1       1.197  -2.577   0.147  0.00  0.00    -0.243 OA
ATOM      7  C   UNL     1       1.177  -0.230  -0.210  0.00  0.00    +0.128 C 
ATOM      8  C   UNL     1       1.883   0.898  -0.342  0.00  0.00    +0.024 C 
ATOM      9  C   UNL     1       3.335   0.873  -0.259  0.00  0.00    +0.039 C 
ATOM     10  C   UNL     1       1.836  -1.537   0.024  0.00  0.00    +0.360 C 
ATOM     11  C   UNL     1       3.974  -0.343  -0.040  0.00  0.00    +0.185 C 
ATOM     12  C   UNL     1       5.361  -0.437   0.051  0.00  0.00    +0.207 C 
ATOM     13  C   UNL     1       4.109   2.028  -0.391  0.00  0.00    +0.006 C 
ATOM     14  C   UNL     1       6.126   0.719  -0.082  0.00  0.00    +0.175 C 
ATOM     15  C   UNL     1       5.502   1.949  -0.302  0.00  0.00    +0.040 C 
BRANCH  12  16
ATOM     16  O   UNL     1       5.962  -1.639   0.265  0.00  0.00    -0.465 OA
ATOM     17  C   UNL     1       6.878  -2.094  -0.730  0.00  0.00    +0.253 C 
ENDBRANCH  12  16
BRANCH  14  18
ATOM     18  O   UNL     1       7.485   0.665   0.001  0.00  0.00    -0.468 OA
ATOM     19  C   UNL     1       8.062   0.829   1.294  0.00  0.00    +0.253 C 
ENDBRANCH  14  18
ENDBRANCH   2   7
BRANCH   3  29
ATOM     20  O   UNL     1      -4.290   0.661  -1.383  0.00  0.00    -0.376 OA
ATOM     21  N   UNL     1      -2.920   0.949  -1.227  0.00  0.00    -0.083 NA
ATOM     22  C   UNL     1      -4.645  -0.121   0.854  0.00  0.00    +0.164 C 
ATOM     23  C   UNL     1      -5.050   0.919  -0.199  0.00  0.00    +0.254 C 
ATOM     24  C   UNL     1      -5.058  -1.557   0.435  0.00  0.00    +0.161 C 
ATOM     25  C   UNL     1      -3.138   0.005   1.091  0.00  0.00    +0.087 C 
ATOM     26  C   UNL     1      -6.546   0.853  -0.558  0.00  0.00    +0.177 C 
ATOM     27  C   UNL     1      -6.435  -1.619  -0.164  0.00  0.00    +0.003 C 
ATOM     28  C   UNL     1      -7.106  -0.540  -0.588  0.00  0.00    +0.004 C 
ATOM     29  C   UNL     1      -2.417   0.604  -0.086  0.00  0.00    +0.153 C 
BRANCH  22  30
ATOM     30  O   UNL     1      -5.318   0.203   2.076  0.00  0.00    -0.380 OA
ATOM     31  H   UNL     1      -6.276   0.128   1.947  0.00  0.00    +0.211 HD
ENDBRANCH  22  30
BRANCH  24  32
ATOM     32  O   UNL     1      -4.143  -2.100  -0.515  0.00  0.00    -0.378 OA
ATOM     33  H   UNL     1      -3.244  -2.071  -0.150  0.00  0.00    +0.211 HD
ENDBRANCH  24  32
BRANCH  26  34
ATOM     34  O   UNL     1      -7.284   1.616   0.395  0.00  0.00    -0.376 OA
ATOM     35  H   UNL     1      -6.934   2.520   0.426  0.00  0.00    +0.211 HD
ENDBRANCH  26  34
ENDBRANCH   3  29
TORSDOF 7
