REMARK  Name = 10982781
REMARK  13 active torsions:
REMARK  status: ('A' for Active; 'I' for Inactive)
REMARK    1  A    between atoms: N_2  and  C_5
REMARK    2  A    between atoms: C_3  and  C_23
REMARK    3  A    between atoms: C_5  and  C_8
REMARK    4  A    between atoms: C_5  and  C_19
REMARK    5  A    between atoms: C_14  and  O_17
REMARK    6  A    between atoms: C_19  and  C_20
REMARK    7  A    between atoms: C_23  and  O_24
REMARK    8  A    between atoms: C_23  and  C_26
REMARK    9  A    between atoms: C_26  and  O_27
REMARK   10  A    between atoms: C_26  and  C_29
REMARK   11  A    between atoms: C_29  and  N_30
REMARK   12  A    between atoms: C_29  and  C_34
REMARK   13  A    between atoms: C_34  and  C_37
REMARK                            x       y       z     vdW  Elec       q    Type
REMARK                         _______ _______ _______ _____ _____    ______ ____
ROOT
ATOM      1  O   UNL     1       1.179  -2.054  -2.281  0.00  0.00    -0.272 OA
ATOM      2  N   UNL     1       0.320  -1.583  -0.175  0.00  0.00    -0.300 N 
ATOM      3  C   UNL     1       1.294  -1.560  -1.162  0.00  0.00    +0.252 C 
ATOM      4  H   UNL     1       0.520  -1.155   0.689  0.00  0.00    +0.150 HD
ENDROOT
BRANCH   2   5
ATOM      5  C   UNL     1      -0.973  -2.203  -0.352  0.00  0.00    +0.112 C 
BRANCH   5   8
ATOM      6  O   UNL     1      -2.041  -0.623   1.097  0.00  0.00    -0.447 OA
ATOM      7  O   UNL     1      -2.968   0.804   2.591  0.00  0.00    -0.245 OA
ATOM      8  C   UNL     1      -2.065  -1.148  -0.250  0.00  0.00    +0.191 C 
ATOM      9  C   UNL     1      -1.843  -0.021  -1.248  0.00  0.00    +0.072 C 
ATOM     10  C   UNL     1      -2.896   1.017  -1.006  0.00  0.00    -0.009 C 
ATOM     11  C   UNL     1      -3.355   1.238   0.299  0.00  0.00    +0.105 C 
ATOM     12  C   UNL     1      -2.789   0.464   1.429  0.00  0.00    +0.344 C 
ATOM     13  C   UNL     1      -3.398   1.796  -2.054  0.00  0.00    -0.004 C 
ATOM     14  C   UNL     1      -4.321   2.218   0.550  0.00  0.00    +0.140 C 
ATOM     15  C   UNL     1      -4.364   2.771  -1.804  0.00  0.00    +0.003 C 
ATOM     16  C   UNL     1      -4.826   2.979  -0.505  0.00  0.00    +0.037 C 
BRANCH  14  17
ATOM     17  O   UNL     1      -4.811   2.463   1.797  0.00  0.00    -0.505 OA
ATOM     18  H   UNL     1      -4.495   1.972   2.530  0.00  0.00    +0.292 HD
ENDBRANCH  14  17
ENDBRANCH   5   8
BRANCH   5  19
ATOM     19  C   UNL     1      -1.204  -3.323   0.676  0.00  0.00    +0.023 C 
BRANCH  19  20
ATOM     20  C   UNL     1      -0.117  -4.418   0.703  0.00  0.00    +0.002 C 
ATOM     21  C   UNL     1      -0.437  -5.435   1.803  0.00  0.00    +0.000 C 
ATOM     22  C   UNL     1       0.021  -5.139  -0.639  0.00  0.00    +0.000 C 
ENDBRANCH  19  20
ENDBRANCH   5  19
ENDBRANCH   2   5
BRANCH   3  23
ATOM     23  C   UNL     1       2.561  -0.835  -0.716  0.00  0.00    +0.212 C 
BRANCH  23  24
ATOM     24  O   UNL     1       3.497  -0.955  -1.778  0.00  0.00    -0.374 OA
ATOM     25  H   UNL     1       4.321  -0.505  -1.535  0.00  0.00    +0.211 HD
ENDBRANCH  23  24
BRANCH  23  26
ATOM     26  C   UNL     1       2.278   0.645  -0.400  0.00  0.00    +0.127 C 
BRANCH  26  27
ATOM     27  O   UNL     1       1.639   0.752   0.873  0.00  0.00    -0.384 OA
ATOM     28  H   UNL     1       0.852   0.185   0.888  0.00  0.00    +0.210 HD
ENDBRANCH  26  27
BRANCH  26  29
ATOM     29  C   UNL     1       3.525   1.554  -0.401  0.00  0.00    -0.024 C 
BRANCH  29  30
ATOM     30  N   UNL     1       3.121   2.950  -0.050  0.00  0.00    +0.384 N 
ATOM     31  H   UNL     1       2.414   3.276  -0.709  0.00  0.00    -0.089 HD
ATOM     32  H   UNL     1       3.936   3.562  -0.096  0.00  0.00    -0.089 HD
ATOM     33  H   UNL     1       2.738   2.966   0.896  0.00  0.00    -0.089 HD
ENDBRANCH  29  30
BRANCH  29  34
ATOM     34  C   UNL     1       4.586   1.098   0.607  0.00  0.00    +0.095 C 
BRANCH  34  37
ATOM     35  O   UNL     1       6.212   2.602  -0.274  0.00  0.00    -0.246 OA
ATOM     36  O   UNL     1       6.340   1.966   1.915  0.00  0.00    -0.246 OA
ATOM     37  C   UNL     1       5.833   1.980   0.755  0.00  0.00    +0.363 C 
ENDBRANCH  34  37
ENDBRANCH  29  34
ENDBRANCH  26  29
ENDBRANCH  23  26
ENDBRANCH   3  23
TORSDOF 13
