REMARK  Name = 10982824
REMARK  13 active torsions:
REMARK  status: ('A' for Active; 'I' for Inactive)
REMARK    1  A    between atoms: C_4  and  O_10
REMARK    2  A    between atoms: C_5  and  O_14
REMARK    3  A    between atoms: C_6  and  C_21
REMARK    4  A    between atoms: C_7  and  C_24
REMARK    5  A    between atoms: C_9  and  O_12
REMARK    6  A    between atoms: O_14  and  C_16
REMARK    7  A    between atoms: C_16  and  C_17
REMARK    8  A    between atoms: C_17  and  C_18
REMARK    9  A    between atoms: C_21  and  O_22
REMARK   10  A    between atoms: C_24  and  O_25
REMARK   11  A    between atoms: O_25  and  C_27
REMARK   12  A    between atoms: C_27  and  C_28
REMARK   13  A    between atoms: C_28  and  C_29
REMARK                            x       y       z     vdW  Elec       q    Type
REMARK                         _______ _______ _______ _____ _____    ______ ____
ROOT
ATOM      1  O   UNL     1       0.738   0.931   0.280  0.00  0.00    -0.292 OA
ATOM      2  C   UNL     1       1.013  -1.438   0.346  0.00  0.00    +0.093 C 
ATOM      3  C   UNL     1      -0.447  -1.550  -0.040  0.00  0.00    -0.012 C 
ATOM      4  C   UNL     1      -0.743  -3.002  -0.300  0.00  0.00    +0.134 C 
ATOM      5  C   UNL     1       1.581  -0.126  -0.196  0.00  0.00    +0.296 C 
ATOM      6  C   UNL     1       1.597  -2.735  -0.159  0.00  0.00    +0.042 C 
ATOM      7  C   UNL     1      -1.196  -0.476  -0.342  0.00  0.00    +0.049 C 
ATOM      8  C   UNL     1       0.623  -3.603  -0.479  0.00  0.00    +0.037 C 
ATOM      9  C   UNL     1      -0.587   0.911  -0.268  0.00  0.00    +0.261 C 
ENDROOT
BRANCH   4  10
ATOM     10  O   UNL     1      -1.383  -3.580   0.825  0.00  0.00    -0.350 OA
ATOM     11  C   UNL     1      -1.942  -4.851   0.516  0.00  0.00    +0.174 C 
ENDBRANCH   4  10
BRANCH   9  12
ATOM     12  O   UNL     1      -0.601   1.488  -1.572  0.00  0.00    -0.325 OA
ATOM     13  C   UNL     1      -0.484   2.902  -1.513  0.00  0.00    +0.177 C 
ENDBRANCH   9  12
BRANCH   5  14
ATOM     14  O   UNL     1       2.895   0.055   0.323  0.00  0.00    -0.424 OA
BRANCH  14  16
ATOM     15  O   UNL     1       3.330   1.630  -1.305  0.00  0.00    -0.250 OA
ATOM     16  C   UNL     1       3.672   0.972  -0.332  0.00  0.00    +0.319 C 
BRANCH  16  17
ATOM     17  C   UNL     1       5.041   1.017   0.313  0.00  0.00    +0.110 C 
BRANCH  17  18
ATOM     18  C   UNL     1       5.750   2.368   0.130  0.00  0.00    +0.011 C 
ATOM     19  C   UNL     1       7.141   2.319   0.765  0.00  0.00    +0.001 C 
ATOM     20  C   UNL     1       4.941   3.513   0.745  0.00  0.00    +0.001 C 
ENDBRANCH  17  18
ENDBRANCH  16  17
ENDBRANCH  14  16
ENDBRANCH   5  14
BRANCH   6  21
ATOM     21  C   UNL     1       3.058  -3.002  -0.195  0.00  0.00    +0.138 C 
BRANCH  21  22
ATOM     22  O   UNL     1       3.621  -2.838   1.098  0.00  0.00    -0.382 OA
ATOM     23  H   UNL     1       4.574  -3.015   1.061  0.00  0.00    +0.210 HD
ENDBRANCH  21  22
ENDBRANCH   6  21
BRANCH   7  24
ATOM     24  C   UNL     1      -2.621  -0.555  -0.808  0.00  0.00    +0.235 C 
BRANCH  24  25
ATOM     25  O   UNL     1      -3.456   0.147   0.093  0.00  0.00    -0.444 OA
BRANCH  25  27
ATOM     26  O   UNL     1      -5.305  -0.382  -1.180  0.00  0.00    -0.250 OA
ATOM     27  C   UNL     1      -4.795   0.160  -0.209  0.00  0.00    +0.317 C 
BRANCH  27  28
ATOM     28  C   UNL     1      -5.541   0.978   0.824  0.00  0.00    +0.110 C 
BRANCH  28  29
ATOM     29  C   UNL     1      -5.008   2.413   0.956  0.00  0.00    +0.011 C 
ATOM     30  C   UNL     1      -5.118   3.176  -0.366  0.00  0.00    +0.001 C 
ATOM     31  C   UNL     1      -5.777   3.159   2.049  0.00  0.00    +0.001 C 
ENDBRANCH  28  29
ENDBRANCH  27  28
ENDBRANCH  25  27
ENDBRANCH  24  25
ENDBRANCH   7  24
TORSDOF 13
