10992053
  -OEChem-03292013303D

 44 46  0     1  0  0  0  0  0999 V2000
    0.1834   -0.5800    1.0721 S   0  0  1  0  0  0  0  0  0  0  0  0
    5.5560    1.4651    0.8121 O   0  0  0  0  0  0  0  0  0  0  0  0
    0.2801   -2.0815    1.0514 O   0  0  0  0  0  0  0  0  0  0  0  0
    2.2438   -2.2196   -1.2894 O   0  5  0  0  0  0  0  0  0  0  0  0
   -7.2441    0.0914   -0.2480 O   0  0  0  0  0  0  0  0  0  0  0  0
    3.0242   -1.3286   -0.7838 N   0  3  0  0  0  0  0  0  0  0  0  0
   -2.5960   -0.8521    0.9689 N   0  0  0  0  0  0  0  0  0  0  0  0
   -1.7834    0.8499   -0.2071 N   0  0  0  0  0  0  0  0  0  0  0  0
    2.5190   -0.1822   -0.3205 C   0  0  0  0  0  0  0  0  0  0  0  0
    1.0349    0.0254   -0.4098 C   0  0  0  0  0  0  0  0  0  0  0  0
    3.3436    0.7843    0.2255 C   0  0  0  0  0  0  0  0  0  0  0  0
    4.7116    0.5351    0.2810 C   0  0  0  0  0  0  0  0  0  0  0  0
    5.2181   -0.6657   -0.2071 C   0  0  0  0  0  0  0  0  0  0  0  0
   -1.4834   -0.1606    0.5778 C   0  0  0  0  0  0  0  0  0  0  0  0
   -3.6867   -0.2474    0.3986 C   0  0  0  0  0  0  0  0  0  0  0  0
    4.3370   -1.5944   -0.7426 C   0  0  0  0  0  0  0  0  0  0  0  0
   -3.1533    0.8118   -0.3303 C   0  0  0  0  0  0  0  0  0  0  0  0
    2.7870    2.0686    0.7452 C   0  0  0  0  0  0  0  0  0  0  0  0
    6.6769   -0.9690   -0.1656 C   0  0  0  0  0  0  0  0  0  0  0  0
   -5.0524   -0.5276    0.4559 C   0  0  0  0  0  0  0  0  0  0  0  0
   -4.0191    1.6518   -1.0508 C   0  0  0  0  0  0  0  0  0  0  0  0
   -5.8995    0.3187   -0.2670 C   0  0  0  0  0  0  0  0  0  0  0  0
   -5.3942    1.3896   -1.0078 C   0  0  0  0  0  0  0  0  0  0  0  0
    6.0984    2.4324   -0.0836 C   0  0  0  0  0  0  0  0  0  0  0  0
   -7.7019   -1.0155    0.5249 C   0  0  0  0  0  0  0  0  0  0  0  0
    0.7997    1.0854   -0.5484 H   0  0  0  0  0  0  0  0  0  0  0  0
    0.6128   -0.4818   -1.2849 H   0  0  0  0  0  0  0  0  0  0  0  0
    4.6372   -2.5510   -1.1458 H   0  0  0  0  0  0  0  0  0  0  0  0
   -2.6138   -1.6647    1.5707 H   0  0  0  0  0  0  0  0  0  0  0  0
    3.5063    2.6264    1.3534 H   0  0  0  0  0  0  0  0  0  0  0  0
    2.4873    2.7154   -0.0859 H   0  0  0  0  0  0  0  0  0  0  0  0
    1.9267    1.8969    1.3993 H   0  0  0  0  0  0  0  0  0  0  0  0
    6.8625   -2.0443   -0.2642 H   0  0  0  0  0  0  0  0  0  0  0  0
    7.1947   -0.4599   -0.9842 H   0  0  0  0  0  0  0  0  0  0  0  0
    7.1185   -0.6589    0.7873 H   0  0  0  0  0  0  0  0  0  0  0  0
   -5.3792   -1.3724    1.0480 H   0  0  0  0  0  0  0  0  0  0  0  0
   -3.6362    2.4865   -1.6294 H   0  0  0  0  0  0  0  0  0  0  0  0
   -6.0727    2.0337   -1.5622 H   0  0  0  0  0  0  0  0  0  0  0  0
    6.7176    1.9521   -0.8471 H   0  0  0  0  0  0  0  0  0  0  0  0
    6.7268    3.1167    0.4931 H   0  0  0  0  0  0  0  0  0  0  0  0
    5.3019    3.0113   -0.5615 H   0  0  0  0  0  0  0  0  0  0  0  0
   -7.3198   -1.9653    0.1355 H   0  0  0  0  0  0  0  0  0  0  0  0
   -8.7922   -1.0479    0.4281 H   0  0  0  0  0  0  0  0  0  0  0  0
   -7.4812   -0.8833    1.5896 H   0  0  0  0  0  0  0  0  0  0  0  0
  1  3  2  0  0  0  0
  1 10  1  0  0  0  0
  1 14  1  0  0  0  0
  2 12  1  0  0  0  0
  2 24  1  0  0  0  0
  4  6  1  0  0  0  0
  5 22  1  0  0  0  0
  5 25  1  0  0  0  0
  6  9  2  0  0  0  0
  6 16  1  0  0  0  0
  7 14  1  0  0  0  0
  7 15  1  0  0  0  0
  7 29  1  0  0  0  0
  8 14  2  0  0  0  0
  8 17  1  0  0  0  0
  9 10  1  0  0  0  0
  9 11  1  0  0  0  0
 10 26  1  0  0  0  0
 10 27  1  0  0  0  0
 11 12  2  0  0  0  0
 11 18  1  0  0  0  0
 12 13  1  0  0  0  0
 13 16  2  0  0  0  0
 13 19  1  0  0  0  0
 15 17  2  0  0  0  0
 15 20  1  0  0  0  0
 16 28  1  0  0  0  0
 17 21  1  0  0  0  0
 18 30  1  0  0  0  0
 18 31  1  0  0  0  0
 18 32  1  0  0  0  0
 19 33  1  0  0  0  0
 19 34  1  0  0  0  0
 19 35  1  0  0  0  0
 20 22  2  0  0  0  0
 20 36  1  0  0  0  0
 21 23  2  0  0  0  0
 21 37  1  0  0  0  0
 22 23  1  0  0  0  0
 23 38  1  0  0  0  0
 24 39  1  0  0  0  0
 24 40  1  0  0  0  0
 24 41  1  0  0  0  0
 25 42  1  0  0  0  0
 25 43  1  0  0  0  0
 25 44  1  0  0  0  0
M  CHG  2   4  -1   6   1
M  END
> <PUBCHEM_COMPOUND_CID>
10992053

> <PUBCHEM_CONFORMER_RMSD>
0.8

> <PUBCHEM_CONFORMER_DIVERSEORDER>
1
30
15
22
21
24
12
31
2
28
3
16
6
19
14
9
29
5
27
25
8
17
10
7
18
11
26
13
4
23
20

> <PUBCHEM_MMFF94_PARTIAL_CHARGES>
30
1 0.3
10 0.34
11 -0.14
12 0.08
13 -0.14
14 0.2
15 -0.15
16 -0.06
17 0.23
18 0.14
19 0.14
2 -0.36
20 -0.15
21 -0.15
22 0.08
23 -0.15
24 0.28
25 0.28
28 0.15
29 0.27
3 -0.5
36 0.15
37 0.15
38 0.15
4 -0.75
5 -0.36
6 0.57
7 0.03
8 -0.57
9 -0.05

> <PUBCHEM_EFFECTIVE_ROTOR_COUNT>
5

> <PUBCHEM_PHARMACOPHORE_FEATURES>
9
1 2 acceptor
1 3 acceptor
1 4 anion
1 5 acceptor
1 7 donor
3 7 8 14 cation
5 7 8 14 15 17 rings
6 15 17 20 21 22 23 rings
6 6 9 11 12 13 16 rings

> <PUBCHEM_HEAVY_ATOM_COUNT>
25

> <PUBCHEM_ATOM_DEF_STEREO_COUNT>
0

> <PUBCHEM_ATOM_UDEF_STEREO_COUNT>
1

> <PUBCHEM_BOND_DEF_STEREO_COUNT>
0

> <PUBCHEM_BOND_UDEF_STEREO_COUNT>
0

> <PUBCHEM_ISOTOPIC_ATOM_COUNT>
0

> <PUBCHEM_COMPONENT_COUNT>
1

> <PUBCHEM_CACTVS_TAUTO_COUNT>
2

> <PUBCHEM_CONFORMER_ID>
00A7B9B500000001

> <PUBCHEM_MMFF94_ENERGY>
81.8629

> <PUBCHEM_FEATURE_SELFOVERLAP>
45.778

> <PUBCHEM_SHAPE_FINGERPRINT>
10 15 18188205502914275120
10299344 5 17275103942840265271
10411042 1 17983865476609337542
10595046 47 18060421292067557121
10670039 82 17313663746226612493
11646440 116 18187092736859421297
11719270 70 18201716228929921398
12166972 35 17967818249391539813
12236239 1 16487258755032537257
12403259 415 18334018293692732352
12516196 113 18409448089946232133
12596602 18 14851902377411934596
12730499 353 18413389830383462850
13402501 40 18334855017609800716
13533116 47 17418095386550266894
14170010 4 18343300383913730408
14251764 18 12612750216116617935
14294032 229 16444179800122220485
14933364 13 18410575076527123821
15183329 4 18335420127789081240
15419008 47 18334572434679714733
15537594 2 14836402510940586631
17844677 252 18343026549330580161
1813 80 13973961000102582322
18335252 98 18341335586995142699
18608769 82 18261675969504691115
19489759 90 17530685390498953373
200 152 17561363946092658592
20157964 124 18342740728279021458
20645477 70 18130792209382933862
21033648 29 18262511602293954952
21267235 1 17988368079334017174
21315764 268 18040427781223684300
21521721 280 18201442501593846755
21623969 137 18060425703136451767
220451 1 16702300157372801557
221357 26 18341611490608064240
23035841 295 13183022908283358621
23424782 7 18338518642457491459
23516275 137 17130733646619420799
23522609 53 16271382901715362321
23559900 14 18341327898228197249
2916195 48 18260826007681121816
3004659 81 18259984856286241808
335352 9 18272376369980469854
34797466 226 18343305859527333055
3545911 37 18413107264273757151
4073 2 18261959647092963779
4098825 35 18201159858713222129
4325135 7 18060700589321905415
46194498 28 18271527507257202076
5104073 3 17749952134035663601
59755656 215 18114464474400280634
59755656 520 17530961397587411379

> <PUBCHEM_SHAPE_MULTIPOLES>
479.92
19.67
2
1.02
13.44
0.35
0.02
1.8
1.08
-2.29
0.15
0.08
-0.12
2.05

> <PUBCHEM_SHAPE_SELFOVERLAP>
1026.151

> <PUBCHEM_SHAPE_VOLUME>
270.6

> <PUBCHEM_COORDINATE_TYPE>
2
5
10

$$$$
