10992619
  -OEChem-03292013303D

 48 50  0     1  0  0  0  0  0999 V2000
    2.7857   -2.4042    0.3928 O   0  0  0  0  0  0  0  0  0  0  0  0
    3.3075   -0.4652    2.2748 O   0  0  0  0  0  0  0  0  0  0  0  0
    1.2126    1.7914    0.3702 O   0  0  0  0  0  0  0  0  0  0  0  0
    4.2669   -1.2044   -1.8986 O   0  0  0  0  0  0  0  0  0  0  0  0
    0.3760   -1.3338   -0.4570 O   0  0  0  0  0  0  0  0  0  0  0  0
    0.0639    0.9521    2.1798 O   0  0  0  0  0  0  0  0  0  0  0  0
   -0.7643   -1.0140   -2.4312 O   0  0  0  0  0  0  0  0  0  0  0  0
    2.7095   -1.0329   -0.0209 C   0  0  1  0  0  0  0  0  0  0  0  0
    2.3830   -0.1669    1.2210 C   0  0  2  0  0  0  0  0  0  0  0  0
    4.0930   -0.6459   -0.5965 C   0  0  2  0  0  0  0  0  0  0  0  0
    2.4440    1.3443    0.9299 C   0  0  1  0  0  0  0  0  0  0  0  0
    1.5902   -0.9539   -1.0728 C   0  0  0  0  0  0  0  0  0  0  0  0
    4.2950    0.8396   -0.6895 C   0  0  0  0  0  0  0  0  0  0  0  0
    3.5435    1.7270   -0.0215 C   0  0  0  0  0  0  0  0  0  0  0  0
    0.0994    1.5279    1.1034 C   0  0  0  0  0  0  0  0  0  0  0  0
   -0.7354   -1.3220   -1.2498 C   0  0  0  0  0  0  0  0  0  0  0  0
   -1.1112    2.0409    0.4139 C   0  0  0  0  0  0  0  0  0  0  0  0
   -1.9397   -1.7375   -0.4870 C   0  0  0  0  0  0  0  0  0  0  0  0
   -2.3433    1.8638    1.0096 C   0  0  0  0  0  0  0  0  0  0  0  0
   -0.9668    2.6791   -0.8010 C   0  0  0  0  0  0  0  0  0  0  0  0
   -3.1684   -1.2251   -0.8498 C   0  0  0  0  0  0  0  0  0  0  0  0
   -1.7928   -2.6234    0.5606 C   0  0  0  0  0  0  0  0  0  0  0  0
   -3.4807    2.3460    0.3619 C   0  0  0  0  0  0  0  0  0  0  0  0
   -2.1044    3.1614   -1.4484 C   0  0  0  0  0  0  0  0  0  0  0  0
   -4.2999   -1.6155   -0.1335 C   0  0  0  0  0  0  0  0  0  0  0  0
   -2.9242   -3.0139    1.2768 C   0  0  0  0  0  0  0  0  0  0  0  0
   -3.3613    2.9947   -0.8670 C   0  0  0  0  0  0  0  0  0  0  0  0
   -4.1778   -2.5098    0.9297 C   0  0  0  0  0  0  0  0  0  0  0  0
    1.4392   -0.5399    1.6116 H   0  0  0  0  0  0  0  0  0  0  0  0
    4.8948   -1.0619    0.0260 H   0  0  0  0  0  0  0  0  0  0  0  0
    2.6172    1.9003    1.8609 H   0  0  0  0  0  0  0  0  0  0  0  0
    1.7870   -1.6664   -1.8832 H   0  0  0  0  0  0  0  0  0  0  0  0
    1.5007    0.0480   -1.5050 H   0  0  0  0  0  0  0  0  0  0  0  0
    5.0962    1.2055   -1.3259 H   0  0  0  0  0  0  0  0  0  0  0  0
    3.7448    2.7872   -0.1508 H   0  0  0  0  0  0  0  0  0  0  0  0
    1.9176   -2.6557    0.7521 H   0  0  0  0  0  0  0  0  0  0  0  0
    3.0221    0.0283    3.0627 H   0  0  0  0  0  0  0  0  0  0  0  0
    4.1847   -2.1697   -1.8126 H   0  0  0  0  0  0  0  0  0  0  0  0
   -2.4544    1.3592    1.9645 H   0  0  0  0  0  0  0  0  0  0  0  0
   -0.0097    2.8288   -1.2902 H   0  0  0  0  0  0  0  0  0  0  0  0
   -3.2755   -0.5258   -1.6737 H   0  0  0  0  0  0  0  0  0  0  0  0
   -0.8299   -3.0388    0.8425 H   0  0  0  0  0  0  0  0  0  0  0  0
   -4.4597    2.2146    0.8136 H   0  0  0  0  0  0  0  0  0  0  0  0
   -2.0122    3.6657   -2.4060 H   0  0  0  0  0  0  0  0  0  0  0  0
   -5.2755   -1.2217   -0.4028 H   0  0  0  0  0  0  0  0  0  0  0  0
   -2.8299   -3.7123    2.1033 H   0  0  0  0  0  0  0  0  0  0  0  0
   -4.2471    3.3690   -1.3717 H   0  0  0  0  0  0  0  0  0  0  0  0
   -5.0587   -2.8139    1.4874 H   0  0  0  0  0  0  0  0  0  0  0  0
  1  8  1  0  0  0  0
  1 36  1  0  0  0  0
  2  9  1  0  0  0  0
  2 37  1  0  0  0  0
  3 11  1  0  0  0  0
  3 15  1  0  0  0  0
  4 10  1  0  0  0  0
  4 38  1  0  0  0  0
  5 12  1  0  0  0  0
  5 16  1  0  0  0  0
  6 15  2  0  0  0  0
  7 16  2  0  0  0  0
  8  9  1  0  0  0  0
  8 10  1  0  0  0  0
  8 12  1  0  0  0  0
  9 11  1  0  0  0  0
  9 29  1  0  0  0  0
 10 13  1  0  0  0  0
 10 30  1  0  0  0  0
 11 14  1  0  0  0  0
 11 31  1  0  0  0  0
 12 32  1  0  0  0  0
 12 33  1  0  0  0  0
 13 14  2  0  0  0  0
 13 34  1  0  0  0  0
 14 35  1  0  0  0  0
 15 17  1  0  0  0  0
 16 18  1  0  0  0  0
 17 19  2  0  0  0  0
 17 20  1  0  0  0  0
 18 21  2  0  0  0  0
 18 22  1  0  0  0  0
 19 23  1  0  0  0  0
 19 39  1  0  0  0  0
 20 24  2  0  0  0  0
 20 40  1  0  0  0  0
 21 25  1  0  0  0  0
 21 41  1  0  0  0  0
 22 26  2  0  0  0  0
 22 42  1  0  0  0  0
 23 27  2  0  0  0  0
 23 43  1  0  0  0  0
 24 27  1  0  0  0  0
 24 44  1  0  0  0  0
 25 28  2  0  0  0  0
 25 45  1  0  0  0  0
 26 28  1  0  0  0  0
 26 46  1  0  0  0  0
 27 47  1  0  0  0  0
 28 48  1  0  0  0  0
M  END
> <PUBCHEM_COMPOUND_CID>
10992619

> <PUBCHEM_CONFORMER_RMSD>
1

> <PUBCHEM_CONFORMER_DIVERSEORDER>
1
116
6
49
95
115
79
94
27
18
83
82
119
76
51
43
93
26
54
62
44
67
89
74
50
20
39
66
31
69
111
84
35
97
105
53
29
42
64
56
100
106
5
109
110
80
102
15
57
34
45
4
60
108
91
36
113
85
75
25
88
68
16
98
101
32
33
19
87
104
81
7
90
107
71
63
86
21
114
38
78
11
58
70
37
118
52
28
92
2
8
72
103
77
17
9
23
30
22
48
117
99
96
46
47
59
65
73
41
61
3
40
12
120
10
14
24
13
112
55

> <PUBCHEM_MMFF94_PARTIAL_CHARGES>
43
1 -0.68
10 0.42
11 0.42
12 0.28
13 -0.29
14 -0.29
15 0.63
16 0.63
17 0.09
18 0.09
19 -0.15
2 -0.68
20 -0.15
21 -0.15
22 -0.15
23 -0.15
24 -0.15
25 -0.15
26 -0.15
27 -0.15
28 -0.15
3 -0.43
34 0.15
35 0.15
36 0.4
37 0.4
38 0.4
39 0.15
4 -0.68
40 0.15
41 0.15
42 0.15
43 0.15
44 0.15
45 0.15
46 0.15
47 0.15
48 0.15
5 -0.43
6 -0.57
7 -0.57
8 0.28
9 0.28

> <PUBCHEM_EFFECTIVE_ROTOR_COUNT>
7.8

> <PUBCHEM_PHARMACOPHORE_FEATURES>
11
1 1 acceptor
1 1 donor
1 2 acceptor
1 2 donor
1 4 acceptor
1 4 donor
1 6 acceptor
1 7 acceptor
6 17 19 20 23 24 27 rings
6 18 21 22 25 26 28 rings
6 8 9 10 11 13 14 rings

> <PUBCHEM_HEAVY_ATOM_COUNT>
28

> <PUBCHEM_ATOM_DEF_STEREO_COUNT>
4

> <PUBCHEM_ATOM_UDEF_STEREO_COUNT>
0

> <PUBCHEM_BOND_DEF_STEREO_COUNT>
0

> <PUBCHEM_BOND_UDEF_STEREO_COUNT>
0

> <PUBCHEM_ISOTOPIC_ATOM_COUNT>
0

> <PUBCHEM_COMPONENT_COUNT>
1

> <PUBCHEM_CACTVS_TAUTO_COUNT>
1

> <PUBCHEM_CONFORMER_ID>
00A7BBEB00000001

> <PUBCHEM_MMFF94_ENERGY>
82.1643

> <PUBCHEM_FEATURE_SELFOVERLAP>
55.835

> <PUBCHEM_SHAPE_FINGERPRINT>
104564 63 18271243923435756721
10688039 33 18263085577491331783
10759866 29 18336831896840733958
11582403 64 15867425413499462037
12156800 1 16551776997891916489
12293681 4 18044661046987712242
12422481 6 18127716936016665867
12553582 1 18124021588487785299
12714826 92 18343581871268680977
12788726 201 18334572481728318865
13140716 1 18271800160566167864
13402501 40 18343585131934790053
13583140 156 17824279106502558280
13726171 33 18340780307458147888
14363568 33 17690010350333977705
14790565 3 17116071946329820865
17357779 13 18271799181371575103
18603816 31 13685756991446503204
22182313 1 17988918977477369488
22907989 373 18411976975211739973
23227448 37 18335989683465695540
23559900 14 18127974096967709806
23566358 2 18130796672291667980
3052486 1 18261398836602474021
3298306 158 17832693583534102701
35225 105 18265614282278509583
469060 322 18189627192290777825
9981440 41 16120992838970888033

> <PUBCHEM_SHAPE_MULTIPOLES>
535.14
8.07
4.09
1.74
3.02
1.27
0.01
-2.34
-0.32
-4.71
-0.13
0.48
-0.14
1.16

> <PUBCHEM_SHAPE_SELFOVERLAP>
1158.781

> <PUBCHEM_SHAPE_VOLUME>
288.8

> <PUBCHEM_COORDINATE_TYPE>
2
5
10

$$$$
