REMARK  Name = 10992619
REMARK  10 active torsions:
REMARK  status: ('A' for Active; 'I' for Inactive)
REMARK    1  A    between atoms: C_1  and  O_7
REMARK    2  A    between atoms: C_1  and  C_22
REMARK    3  A    between atoms: C_2  and  O_9
REMARK    4  A    between atoms: C_3  and  O_11
REMARK    5  A    between atoms: C_4  and  O_13
REMARK    6  A    between atoms: O_13  and  C_15
REMARK    7  A    between atoms: C_15  and  C_16
REMARK    8  A    between atoms: C_22  and  O_23
REMARK    9  A    between atoms: O_23  and  C_25
REMARK   10  A    between atoms: C_25  and  C_26
REMARK                            x       y       z     vdW  Elec       q    Type
REMARK                         _______ _______ _______ _____ _____    ______ ____
ROOT
ATOM      1  C   UNL     1       2.709  -1.033  -0.021  0.00  0.00    +0.185 C 
ATOM      2  C   UNL     1       2.383  -0.167   1.221  0.00  0.00    +0.186 C 
ATOM      3  C   UNL     1       4.093  -0.646  -0.597  0.00  0.00    +0.163 C 
ATOM      4  C   UNL     1       2.444   1.344   0.930  0.00  0.00    +0.220 C 
ATOM      5  C   UNL     1       4.295   0.840  -0.690  0.00  0.00    +0.004 C 
ATOM      6  C   UNL     1       3.543   1.727  -0.021  0.00  0.00    +0.017 C 
ENDROOT
BRANCH   1   7
ATOM      7  O   UNL     1       2.786  -2.404   0.393  0.00  0.00    -0.378 OA
ATOM      8  H   UNL     1       3.483  -2.502   1.060  0.00  0.00    +0.211 HD
ENDBRANCH   1   7
BRANCH   2   9
ATOM      9  O   UNL     1       3.308  -0.465   2.275  0.00  0.00    -0.378 OA
ATOM     10  H   UNL     1       3.280  -1.415   2.470  0.00  0.00    +0.211 HD
ENDBRANCH   2   9
BRANCH   3  11
ATOM     11  O   UNL     1       4.267  -1.204  -1.899  0.00  0.00    -0.377 OA
ATOM     12  H   UNL     1       4.140  -2.165  -1.858  0.00  0.00    +0.211 HD
ENDBRANCH   3  11
BRANCH   4  13
ATOM     13  O   UNL     1       1.213   1.791   0.370  0.00  0.00    -0.442 OA
BRANCH  13  15
ATOM     14  O   UNL     1       0.064   0.952   2.180  0.00  0.00    -0.245 OA
ATOM     15  C   UNL     1       0.099   1.528   1.103  0.00  0.00    +0.341 C 
BRANCH  15  16
ATOM     16  C   UNL     1      -1.111   2.041   0.414  0.00  0.00    +0.076 C 
ATOM     17  C   UNL     1      -2.343   1.864   1.010  0.00  0.00    +0.006 C 
ATOM     18  C   UNL     1      -0.967   2.679  -0.801  0.00  0.00    +0.006 C 
ATOM     19  C   UNL     1      -3.481   2.346   0.362  0.00  0.00    +0.000 C 
ATOM     20  C   UNL     1      -2.104   3.161  -1.448  0.00  0.00    +0.000 C 
ATOM     21  C   UNL     1      -3.361   2.995  -0.867  0.00  0.00    +0.000 C 
ENDBRANCH  15  16
ENDBRANCH  13  15
ENDBRANCH   4  13
BRANCH   1  22
ATOM     22  C   UNL     1       1.590  -0.954  -1.073  0.00  0.00    +0.241 C 
BRANCH  22  23
ATOM     23  O   UNL     1       0.376  -1.334  -0.457  0.00  0.00    -0.443 OA
BRANCH  23  25
ATOM     24  O   UNL     1      -0.764  -1.014  -2.431  0.00  0.00    -0.245 OA
ATOM     25  C   UNL     1      -0.735  -1.322  -1.250  0.00  0.00    +0.341 C 
BRANCH  25  26
ATOM     26  C   UNL     1      -1.940  -1.738  -0.487  0.00  0.00    +0.076 C 
ATOM     27  C   UNL     1      -3.168  -1.225  -0.850  0.00  0.00    +0.006 C 
ATOM     28  C   UNL     1      -1.793  -2.623   0.561  0.00  0.00    +0.006 C 
ATOM     29  C   UNL     1      -4.300  -1.615  -0.134  0.00  0.00    +0.000 C 
ATOM     30  C   UNL     1      -2.924  -3.014   1.277  0.00  0.00    +0.000 C 
ATOM     31  C   UNL     1      -4.178  -2.510   0.930  0.00  0.00    +0.000 C 
ENDBRANCH  25  26
ENDBRANCH  23  25
ENDBRANCH  22  23
ENDBRANCH   1  22
TORSDOF 10
