REMARK  Name = 10992053
REMARK  5 active torsions:
REMARK  status: ('A' for Active; 'I' for Inactive)
REMARK    1  A    between atoms: S_1  and  C_5
REMARK    2  A    between atoms: S_1  and  C_16
REMARK    3  A    between atoms: C_10  and  O_14
REMARK    4  A    between atoms: C_16  and  C_19
REMARK    5  A    between atoms: C_21  and  O_26
REMARK                            x       y       z     vdW  Elec       q    Type
REMARK                         _______ _______ _______ _____ _____    ______ ____
ROOT
ATOM      1  S   UNL     1       0.183  -0.580   1.072  0.00  0.00    +0.085 S 
ATOM      2  O   UNL     1       0.280  -2.082   1.051  0.00  0.00    -0.252 OA
ENDROOT
BRANCH   1   5
ATOM      3  N   UNL     1      -2.596  -0.852   0.969  0.00  0.00    -0.307 N 
ATOM      4  N   UNL     1      -1.783   0.850  -0.207  0.00  0.00    -0.307 N 
ATOM      5  C   UNL     1      -1.483  -0.161   0.578  0.00  0.00    +0.226 C 
ATOM      6  C   UNL     1      -3.687  -0.247   0.399  0.00  0.00    +0.063 C 
ATOM      7  C   UNL     1      -3.153   0.812  -0.330  0.00  0.00    +0.060 C 
ATOM      8  C   UNL     1      -5.052  -0.528   0.456  0.00  0.00    +0.052 C 
ATOM      9  C   UNL     1      -4.019   1.652  -1.051  0.00  0.00    +0.019 C 
ATOM     10  C   UNL     1      -5.899   0.319  -0.267  0.00  0.00    +0.140 C 
ATOM     11  C   UNL     1      -5.394   1.390  -1.008  0.00  0.00    +0.038 C 
ATOM     12  H   UNL     1      -2.611  -1.643   1.555  0.00  0.00    +0.149 HD
ATOM     13  H   UNL     1      -1.163   1.494  -0.618  0.00  0.00    +0.149 HD
BRANCH  10  14
ATOM     14  O   UNL     1      -7.244   0.091  -0.248  0.00  0.00    -0.471 OA
ATOM     15  C   UNL     1      -7.702  -1.016   0.525  0.00  0.00    +0.252 C 
ENDBRANCH  10  14
ENDBRANCH   1   5
BRANCH   1  16
ATOM     16  C   UNL     1       1.035   0.025  -0.410  0.00  0.00    +0.142 C 
BRANCH  16  19
ATOM     17  O   UNL     1       2.244  -2.220  -1.289  0.00  0.00    -0.164 OA
ATOM     18  N   UNL     1       3.024  -1.329  -0.784  0.00  0.00    -0.132 N 
ATOM     19  C   UNL     1       2.519  -0.182  -0.321  0.00  0.00    +0.092 C 
ATOM     20  C   UNL     1       3.344   0.784   0.226  0.00  0.00    +0.028 C 
ATOM     21  C   UNL     1       4.712   0.535   0.281  0.00  0.00    +0.133 C 
ATOM     22  C   UNL     1       5.218  -0.666  -0.207  0.00  0.00    +0.032 C 
ATOM     23  C   UNL     1       4.337  -1.594  -0.743  0.00  0.00    +0.120 C 
ATOM     24  C   UNL     1       2.787   2.069   0.745  0.00  0.00    +0.036 C 
ATOM     25  C   UNL     1       6.677  -0.969  -0.166  0.00  0.00    +0.036 C 
BRANCH  21  26
ATOM     26  O   UNL     1       5.556   1.465   0.812  0.00  0.00    -0.472 OA
ATOM     27  C   UNL     1       6.098   2.432  -0.084  0.00  0.00    +0.252 C 
ENDBRANCH  21  26
ENDBRANCH  16  19
ENDBRANCH   1  16
TORSDOF 5
