REMARK  Name = 11000013
REMARK  4 active torsions:
REMARK  status: ('A' for Active; 'I' for Inactive)
REMARK    1  A    between atoms: N_2  and  C1*_13
REMARK    2  A    between atoms: C3*_15  and  O3*_17
REMARK    3  A    between atoms: C4*_16  and  C5*_19
REMARK    4  A    between atoms: C5*_19  and  O5*_20
REMARK                            x       y       z     vdW  Elec       q    Type
REMARK                         _______ _______ _______ _____ _____    ______ ____
ROOT
ATOM      1  O   UNL     1      -0.286  -3.307  -0.099  0.00  0.00    -0.252 OA
ATOM      2  N   UNL     1      -0.056  -0.968   0.270  0.00  0.00    -0.207 N 
ATOM      3  N   UNL     1      -2.106  -1.800  -0.227  0.00  0.00    -0.278 N 
ATOM      4  N   UNL     1      -0.741   1.400   0.474  0.00  0.00    -0.231 NA
ATOM      5  N   UNL     1      -3.123   1.742   0.080  0.00  0.00    -0.232 NA
ATOM      6  C   UNL     1      -0.969   0.102   0.250  0.00  0.00    +0.139 C 
ATOM      7  C   UNL     1      -0.747  -2.177  -0.028  0.00  0.00    +0.311 C 
ATOM      8  C   UNL     1      -2.208  -0.425  -0.053  0.00  0.00    +0.182 C 
ATOM      9  C   UNL     1      -3.277   0.418  -0.134  0.00  0.00    +0.125 C 
ATOM     10  C   UNL     1      -1.859   2.156   0.372  0.00  0.00    +0.253 C 
ATOM     11  H   UNL     1      -2.846  -2.410  -0.449  0.00  0.00    +0.152 HD
ATOM     12  N   UNL     1      -4.551  -0.101  -0.443  0.00  0.00    -0.345 N 
ATOM     13  H   UNL     1      -5.327   0.502  -0.502  0.00  0.00    +0.143 HD
ATOM     14  H   UNL     1      -4.665  -1.066  -0.599  0.00  0.00    +0.143 HD
ENDROOT
BRANCH   2  16
ATOM     15  O4* UNL     1       1.663   0.504   0.865  0.00  0.00    -0.335 OA
ATOM     16  C1* UNL     1       1.347  -0.859   0.545  0.00  0.00    +0.203 C 
ATOM     17  C2* UNL     1       2.213  -1.259  -0.638  0.00  0.00    +0.083 C 
ATOM     18  C3* UNL     1       3.413  -0.353  -0.486  0.00  0.00    +0.144 C 
ATOM     19  C4* UNL     1       2.814   0.917   0.102  0.00  0.00    +0.173 C 
BRANCH  18  20
ATOM     20  O3* UNL     1       4.336  -0.927   0.437  0.00  0.00    -0.382 OA
ATOM     21  H3* UNL     1       4.713  -1.736   0.056  0.00  0.00    +0.210 HD
ENDBRANCH  18  20
BRANCH  19  22
ATOM     22  C5* UNL     1       2.342   1.898  -0.963  0.00  0.00    +0.169 C 
BRANCH  22  23
ATOM     23  O5* UNL     1       1.792   3.039  -0.323  0.00  0.00    -0.379 OA
ATOM     24  H5* UNL     1       1.489   3.671  -0.993  0.00  0.00    +0.211 HD
ENDBRANCH  22  23
ENDBRANCH  19  22
ENDBRANCH   2  16
TORSDOF 4
