REMARK  Name = 11000760
REMARK  5 active torsions:
REMARK  status: ('A' for Active; 'I' for Inactive)
REMARK    1  A    between atoms: C_9  and  O_17
REMARK    2  A    between atoms: C_10  and  O_19
REMARK    3  A    between atoms: C_11  and  O_21
REMARK    4  A    between atoms: C_12  and  O_23
REMARK    5  A    between atoms: C_16  and  O_25
REMARK                            x       y       z     vdW  Elec       q    Type
REMARK                         _______ _______ _______ _____ _____    ______ ____
ROOT
ATOM      1  O   UNL     1      -0.325  -1.543   0.000  0.00  0.00    -0.450 OA
ATOM      2  O   UNL     1      -0.381   2.548   0.001  0.00  0.00    -0.286 OA
ATOM      3  C   UNL     1       0.903   0.567   0.000  0.00  0.00    +0.076 A 
ATOM      4  C   UNL     1       0.846  -0.826   0.000  0.00  0.00    +0.185 A 
ATOM      5  C   UNL     1       2.135   1.227   0.000  0.00  0.00    +0.021 A 
ATOM      6  C   UNL     1      -1.600   0.540   0.000  0.00  0.00    +0.107 A 
ATOM      7  C   UNL     1      -0.357   1.326   0.000  0.00  0.00    +0.204 A 
ATOM      8  C   UNL     1      -1.512  -0.852   0.000  0.00  0.00    +0.154 A 
ATOM      9  C   UNL     1       2.030  -1.567   0.000  0.00  0.00    +0.206 A 
ATOM     10  C   UNL     1       3.314   0.482   0.000  0.00  0.00    +0.167 A 
ATOM     11  C   UNL     1       3.262  -0.912   0.000  0.00  0.00    +0.205 A 
ATOM     12  C   UNL     1      -2.846   1.173   0.000  0.00  0.00    +0.143 C 
ATOM     13  C   UNL     1       2.261   2.718   0.000  0.00  0.00    +0.035 C 
ATOM     14  C   UNL     1      -2.679  -1.618   0.000  0.00  0.00    +0.074 C 
ATOM     15  C   UNL     1      -4.008   0.402   0.000  0.00  0.00    +0.073 C 
ATOM     16  C   UNL     1      -3.925  -0.991   0.000  0.00  0.00    +0.140 C 
ENDROOT
BRANCH   9  17
ATOM     17  O   UNL     1       1.987  -2.930   0.000  0.00  0.00    -0.501 OA
ATOM     18  H   UNL     1       1.161  -3.373   0.000  0.00  0.00    +0.292 HD
ENDBRANCH   9  17
BRANCH  10  19
ATOM     19  O   UNL     1       4.527   1.108   0.000  0.00  0.00    -0.503 OA
ATOM     20  H   UNL     1       4.571   2.044   0.000  0.00  0.00    +0.292 HD
ENDBRANCH  10  19
BRANCH  11  21
ATOM     21  O   UNL     1       4.417  -1.637  -0.001  0.00  0.00    -0.501 OA
ATOM     22  H   UNL     1       4.383  -2.574  -0.001  0.00  0.00    +0.292 HD
ENDBRANCH  11  21
BRANCH  12  23
ATOM     23  O   UNL     1      -2.986   2.527  -0.001  0.00  0.00    -0.505 OA
ATOM     24  H   UNL     1      -2.227   3.077  -0.001  0.00  0.00    +0.292 HD
ENDBRANCH  12  23
BRANCH  16  25
ATOM     25  O   UNL     1      -5.063  -1.739   0.000  0.00  0.00    -0.505 OA
ATOM     26  H   UNL     1      -5.008  -2.675   0.000  0.00  0.00    +0.292 HD
ENDBRANCH  16  25
TORSDOF 5
