11000013
  -OEChem-03292013303D

 32 34  0     1  0  0  0  0  0999 V2000
    1.6634    0.5038    0.8648 O   0  0  0  0  0  0  0  0  0  0  0  0
    4.3356   -0.9275    0.4367 O   0  0  0  0  0  0  0  0  0  0  0  0
    1.7925    3.0388   -0.3229 O   0  0  0  0  0  0  0  0  0  0  0  0
   -0.2857   -3.3070   -0.0993 O   0  0  0  0  0  0  0  0  0  0  0  0
   -0.0556   -0.9679    0.2697 N   0  0  0  0  0  0  0  0  0  0  0  0
   -2.1056   -1.8003   -0.2269 N   0  0  0  0  0  0  0  0  0  0  0  0
   -0.7409    1.4003    0.4740 N   0  0  0  0  0  0  0  0  0  0  0  0
   -3.1229    1.7422    0.0795 N   0  0  0  0  0  0  0  0  0  0  0  0
   -4.5511   -0.1010   -0.4428 N   0  0  0  0  0  0  0  0  0  0  0  0
    1.3471   -0.8586    0.5452 C   0  0  1  0  0  0  0  0  0  0  0  0
    2.2132   -1.2592   -0.6379 C   0  0  0  0  0  0  0  0  0  0  0  0
    3.4130   -0.3529   -0.4864 C   0  0  1  0  0  0  0  0  0  0  0  0
    2.8139    0.9167    0.1023 C   0  0  1  0  0  0  0  0  0  0  0  0
    2.3422    1.8984   -0.9625 C   0  0  0  0  0  0  0  0  0  0  0  0
   -0.9686    0.1019    0.2502 C   0  0  0  0  0  0  0  0  0  0  0  0
   -0.7465   -2.1766   -0.0277 C   0  0  0  0  0  0  0  0  0  0  0  0
   -2.2081   -0.4248   -0.0535 C   0  0  0  0  0  0  0  0  0  0  0  0
   -3.2771    0.4178   -0.1341 C   0  0  0  0  0  0  0  0  0  0  0  0
   -1.8589    2.1558    0.3719 C   0  0  0  0  0  0  0  0  0  0  0  0
    1.5777   -1.4800    1.4184 H   0  0  0  0  0  0  0  0  0  0  0  0
    1.7029   -1.0410   -1.5842 H   0  0  0  0  0  0  0  0  0  0  0  0
    2.4546   -2.3265   -0.6203 H   0  0  0  0  0  0  0  0  0  0  0  0
    3.9489   -0.1819   -1.4249 H   0  0  0  0  0  0  0  0  0  0  0  0
    3.4969    1.4152    0.7990 H   0  0  0  0  0  0  0  0  0  0  0  0
    1.5608    1.4636   -1.5939 H   0  0  0  0  0  0  0  0  0  0  0  0
    3.1768    2.2204   -1.5929 H   0  0  0  0  0  0  0  0  0  0  0  0
    4.6507   -1.7627    0.0510 H   0  0  0  0  0  0  0  0  0  0  0  0
   -2.8733   -2.4194   -0.4552 H   0  0  0  0  0  0  0  0  0  0  0  0
    1.4979    3.6459   -1.0231 H   0  0  0  0  0  0  0  0  0  0  0  0
   -1.7351    3.2189    0.5425 H   0  0  0  0  0  0  0  0  0  0  0  0
   -4.6075   -0.9521   -0.9882 H   0  0  0  0  0  0  0  0  0  0  0  0
   -5.3188    0.5565   -0.4994 H   0  0  0  0  0  0  0  0  0  0  0  0
  1 10  1  0  0  0  0
  1 13  1  0  0  0  0
  2 12  1  0  0  0  0
  2 27  1  0  0  0  0
  3 14  1  0  0  0  0
  3 29  1  0  0  0  0
  4 16  2  0  0  0  0
  5 10  1  0  0  0  0
  5 15  1  0  0  0  0
  5 16  1  0  0  0  0
  6 16  1  0  0  0  0
  6 17  1  0  0  0  0
  6 28  1  0  0  0  0
  7 15  2  0  0  0  0
  7 19  1  0  0  0  0
  8 18  1  0  0  0  0
  8 19  2  0  0  0  0
  9 18  1  0  0  0  0
  9 31  1  0  0  0  0
  9 32  1  0  0  0  0
 10 11  1  0  0  0  0
 10 20  1  0  0  0  0
 11 12  1  0  0  0  0
 11 21  1  0  0  0  0
 11 22  1  0  0  0  0
 12 13  1  0  0  0  0
 12 23  1  0  0  0  0
 13 14  1  0  0  0  0
 13 24  1  0  0  0  0
 14 25  1  0  0  0  0
 14 26  1  0  0  0  0
 15 17  1  0  0  0  0
 17 18  2  0  0  0  0
 19 30  1  0  0  0  0
M  END
> <PUBCHEM_COMPOUND_CID>
11000013

> <PUBCHEM_CONFORMER_RMSD>
0.6

> <PUBCHEM_CONFORMER_DIVERSEORDER>
1
8
16
11
13
7
10
17
12
5
6
15
3
4
14
2
9

> <PUBCHEM_MMFF94_PARTIAL_CHARGES>
24
1 -0.56
10 0.58
12 0.28
13 0.28
14 0.28
15 0.43
16 0.69
17 0.12
18 0.41
19 0.47
2 -0.68
27 0.4
28 0.37
29 0.4
3 -0.68
30 0.15
31 0.4
32 0.4
4 -0.57
5 -0.48
6 -0.55
7 -0.62
8 -0.62
9 -0.9

> <PUBCHEM_EFFECTIVE_ROTOR_COUNT>
3

> <PUBCHEM_PHARMACOPHORE_FEATURES>
13
1 1 acceptor
1 2 acceptor
1 2 donor
1 3 acceptor
1 3 donor
1 4 acceptor
1 6 donor
1 9 cation
1 9 donor
3 7 8 19 cation
5 1 10 11 12 13 rings
5 5 6 15 16 17 rings
6 7 8 15 17 18 19 rings

> <PUBCHEM_HEAVY_ATOM_COUNT>
19

> <PUBCHEM_ATOM_DEF_STEREO_COUNT>
3

> <PUBCHEM_ATOM_UDEF_STEREO_COUNT>
0

> <PUBCHEM_BOND_DEF_STEREO_COUNT>
0

> <PUBCHEM_BOND_UDEF_STEREO_COUNT>
0

> <PUBCHEM_ISOTOPIC_ATOM_COUNT>
0

> <PUBCHEM_COMPONENT_COUNT>
1

> <PUBCHEM_CACTVS_TAUTO_COUNT>
6

> <PUBCHEM_CONFORMER_ID>
00A7D8CD00000001

> <PUBCHEM_MMFF94_ENERGY>
64.8912

> <PUBCHEM_FEATURE_SELFOVERLAP>
66.091

> <PUBCHEM_SHAPE_FINGERPRINT>
10608611 8 18341611572491608448
10967382 1 18339081488571866946
12173636 292 18411415146223014621
12654903 92 18409449163682579788
13140716 1 18339084890449729427
13380535 76 18341894060891158038
13583140 156 17240480299869016155
14250199 8 18410296934023061365
14790565 3 18340778113293803001
15196674 1 18411136926615515441
15442244 35 18408884036412549186
15536298 74 18341613745777046396
15775835 57 18040720242583793286
16945 1 18339654403092131514
17802600 8 18335415746901443868
1813 80 16879624866243471466
18186145 218 18411136896750957789
20510252 161 18343304811808436211
20645476 183 18260827111519592819
20905425 154 17908713065563365844
21267235 1 18411145714044717586
21501502 16 18267024036557893270
21524375 3 18260830362830869915
22094290 62 18407761439098251780
2334 1 18123470737394017731
23402539 116 18270389495732410430
23557571 272 17914333730529121106
23559900 14 18201438112896808376
2748010 2 16538473251035660755
3060560 45 18338230449397276791
352729 6 18411987991654985227
537710 114 18412265073259687329
58051976 378 18341327804139706799
6333272 397 18408887338968288075
69090 78 18342735217329792927
7364860 26 17909548359293221687
74978 22 18336267933164221894
7832392 63 18409168822608838396
81228 2 18052807341517713339
9709674 26 18343588447064467622
9981440 41 17540816526919226624

> <PUBCHEM_SHAPE_MULTIPOLES>
342.63
6.4
2.9
0.77
0.51
0.08
-0.03
-0.91
-0.66
-0.07
-0.24
-0.26
-0.09
-0.43

> <PUBCHEM_SHAPE_SELFOVERLAP>
745.604

> <PUBCHEM_SHAPE_VOLUME>
183.1

> <PUBCHEM_COORDINATE_TYPE>
2
5
10

$$$$
