REMARK  Name = 11015986
REMARK  8 active torsions:
REMARK  status: ('A' for Active; 'I' for Inactive)
REMARK    1  A    between atoms: C_2  and  O_21
REMARK    2  A    between atoms: C_6  and  O_23
REMARK    3  A    between atoms: O_23  and  C_29
REMARK    4  A    between atoms: C_25  and  O_30
REMARK    5  A    between atoms: C_26  and  O_32
REMARK    6  A    between atoms: C_27  and  O_34
REMARK    7  A    between atoms: C_28  and  C_36
REMARK    8  A    between atoms: C_36  and  O_37
REMARK                            x       y       z     vdW  Elec       q    Type
REMARK                         _______ _______ _______ _____ _____    ______ ____
ROOT
ATOM      1  O   UNL     1       0.457  -0.949   1.729  0.00  0.00    -0.450 OA
ATOM      2  C   UNL     1       4.021   1.857  -0.819  0.00  0.00    +0.111 C 
ATOM      3  C   UNL     1       5.089   0.808  -0.472  0.00  0.00    +0.029 C 
ATOM      4  C   UNL     1       3.794   2.831   0.355  0.00  0.00    +0.034 C 
ATOM      5  C   UNL     1       5.388  -0.162  -1.627  0.00  0.00    +0.003 C 
ATOM      6  C   UNL     1      -1.000   0.863   1.214  0.00  0.00    +0.176 C 
ATOM      7  C   UNL     1       2.383   3.456   0.377  0.00  0.00    +0.029 C 
ATOM      8  C   UNL     1       5.984  -1.494  -1.132  0.00  0.00    +0.005 C 
ATOM      9  C   UNL     1       1.220   2.540   0.706  0.00  0.00    -0.019 C 
ATOM     10  C   UNL     1       0.295   0.385   1.387  0.00  0.00    +0.179 C 
ATOM     11  C   UNL     1       4.999  -2.680  -1.135  0.00  0.00    +0.026 C 
ATOM     12  C   UNL     1      -1.190   2.178   0.789  0.00  0.00    +0.040 C 
ATOM     13  C   UNL     1       1.392   1.240   1.192  0.00  0.00    +0.036 C 
ATOM     14  C   UNL     1      -0.091   3.004   0.524  0.00  0.00    -0.001 C 
ATOM     15  C   UNL     1       3.732  -2.430  -0.357  0.00  0.00    -0.022 C 
ATOM     16  C   UNL     1       1.477  -1.582   1.044  0.00  0.00    +0.145 C 
ATOM     17  C   UNL     1       2.541  -2.144  -1.040  0.00  0.00    -0.001 C 
ATOM     18  C   UNL     1       3.743  -2.396   1.045  0.00  0.00    -0.001 C 
ATOM     19  C   UNL     1       1.411  -1.726  -0.344  0.00  0.00    +0.037 C 
ATOM     20  C   UNL     1       2.613  -1.980   1.750  0.00  0.00    +0.037 C 
ENDROOT
BRANCH   2  21
ATOM     21  O   UNL     1       4.410   2.595  -1.975  0.00  0.00    -0.384 OA
ATOM     22  H   UNL     1       4.553   1.984  -2.715  0.00  0.00    +0.210 HD
ENDBRANCH   2  21
BRANCH   6  23
ATOM     23  O   UNL     1      -2.079   0.062   1.426  0.00  0.00    -0.447 OA
BRANCH  23  29
ATOM     24  O   UNL     1      -3.950   0.825   0.260  0.00  0.00    -0.316 OA
ATOM     25  C   UNL     1      -4.617  -1.838  -0.583  0.00  0.00    +0.173 C 
ATOM     26  C   UNL     1      -5.591  -0.667  -0.719  0.00  0.00    +0.169 C 
ATOM     27  C   UNL     1      -3.565  -1.562   0.491  0.00  0.00    +0.210 C 
ATOM     28  C   UNL     1      -4.833   0.656  -0.851  0.00  0.00    +0.177 C 
ATOM     29  C   UNL     1      -2.939  -0.178   0.313  0.00  0.00    +0.318 C 
BRANCH  25  30
ATOM     30  O   UNL     1      -5.370  -2.998  -0.223  0.00  0.00    -0.379 OA
ATOM     31  H   UNL     1      -6.038  -3.174  -0.904  0.00  0.00    +0.211 HD
ENDBRANCH  25  30
BRANCH  26  32
ATOM     32  O   UNL     1      -6.404  -0.861  -1.873  0.00  0.00    -0.379 OA
ATOM     33  H   UNL     1      -6.885  -1.700  -1.792  0.00  0.00    +0.211 HD
ENDBRANCH  26  32
BRANCH  27  34
ATOM     34  O   UNL     1      -2.527  -2.537   0.400  0.00  0.00    -0.377 OA
ATOM     35  H   UNL     1      -2.906  -3.423   0.511  0.00  0.00    +0.211 HD
ENDBRANCH  27  34
BRANCH  28  36
ATOM     36  C   UNL     1      -5.781   1.851  -0.870  0.00  0.00    +0.169 C 
BRANCH  36  37
ATOM     37  O   UNL     1      -5.013   3.035  -0.983  0.00  0.00    -0.379 OA
ATOM     38  H   UNL     1      -5.604   3.804  -0.996  0.00  0.00    +0.211 HD
ENDBRANCH  36  37
ENDBRANCH  28  36
ENDBRANCH  23  29
ENDBRANCH   6  23
TORSDOF 8
