REMARK  Name = 11014705
REMARK  3 active torsions:
REMARK  status: ('A' for Active; 'I' for Inactive)
REMARK    1  A    between atoms: C_6  and  O_27
REMARK    2  A    between atoms: C_6  and  C_29
REMARK    3  A    between atoms: C_20  and  N_26
REMARK                            x       y       z     vdW  Elec       q    Type
REMARK                         _______ _______ _______ _____ _____    ______ ____
ROOT
ATOM      1  O   UNL     1      -5.295  -0.428   0.425  0.00  0.00    -0.442 OA
ATOM      2  O   UNL     1      -2.451  -3.514  -0.133  0.00  0.00    -0.270 OA
ATOM      3  O   UNL     1      -5.575   1.666   1.182  0.00  0.00    -0.247 OA
ATOM      4  N   UNL     1      -0.709  -1.997  -0.053  0.00  0.00    -0.249 N 
ATOM      5  N   UNL     1       1.991   0.380   0.023  0.00  0.00    -0.403 NA
ATOM      6  C   UNL     1      -3.520   1.217  -0.005  0.00  0.00    +0.196 C 
ATOM      7  C   UNL     1      -2.549   0.069   0.003  0.00  0.00    +0.017 C 
ATOM      8  C   UNL     1      -0.267  -0.685  -0.012  0.00  0.00    +0.084 C 
ATOM      9  C   UNL     1      -3.005  -1.196  -0.051  0.00  0.00    +0.074 C 
ATOM     10  C   UNL     1       0.429  -2.939  -0.077  0.00  0.00    +0.127 C 
ATOM     11  C   UNL     1      -1.120   0.342   0.011  0.00  0.00    +0.016 C 
ATOM     12  C   UNL     1       1.603  -2.017  -0.048  0.00  0.00    +0.025 C 
ATOM     13  C   UNL     1       1.190  -0.693  -0.010  0.00  0.00    +0.142 C 
ATOM     14  C   UNL     1      -2.044  -2.356  -0.082  0.00  0.00    +0.252 C 
ATOM     15  C   UNL     1      -4.465  -1.489  -0.098  0.00  0.00    +0.239 C 
ATOM     16  C   UNL     1      -4.869   0.845   0.600  0.00  0.00    +0.346 C 
ATOM     17  C   UNL     1       2.952  -2.282  -0.053  0.00  0.00    -0.015 C 
ATOM     18  C   UNL     1       3.842  -1.196  -0.020  0.00  0.00    +0.098 C 
ATOM     19  C   UNL     1       3.316   0.126   0.018  0.00  0.00    +0.139 C 
ATOM     20  C   UNL     1       4.217   1.186   0.050  0.00  0.00    +0.169 C 
ATOM     21  C   UNL     1       5.231  -1.402  -0.024  0.00  0.00    -0.015 C 
ATOM     22  C   UNL     1       5.598   0.975   0.046  0.00  0.00    +0.026 C 
ATOM     23  C   UNL     1       6.105  -0.319   0.009  0.00  0.00    -0.002 C 
ENDROOT
BRANCH  20  26
ATOM     24  O   UNL     1       4.588   3.461   0.117  0.00  0.00    -0.126 OA
ATOM     25  O   UNL     1       2.514   2.741   0.092  0.00  0.00    -0.126 OA
ATOM     26  N   UNL     1       3.749   2.532   0.088  0.00  0.00    +0.060 N 
ENDBRANCH  20  26
BRANCH   6  27
ATOM     27  O   UNL     1      -3.032   2.268   0.831  0.00  0.00    -0.373 OA
ATOM     28  H   UNL     1      -2.166   2.563   0.507  0.00  0.00    +0.211 HD
ENDBRANCH   6  27
BRANCH   6  29
ATOM     29  C   UNL     1      -3.734   1.764  -1.417  0.00  0.00    +0.042 C 
ATOM     30  C   UNL     1      -4.688   2.942  -1.413  0.00  0.00    +0.003 C 
ENDBRANCH   6  29
TORSDOF 3
