REMARK  Name = 11016431
REMARK  8 active torsions:
REMARK  status: ('A' for Active; 'I' for Inactive)
REMARK    1  A    between atoms: C_3  and  C_22
REMARK    2  A    between atoms: C_6  and  O_18
REMARK    3  A    between atoms: C_8  and  O_20
REMARK    4  A    between atoms: C_22  and  C_25
REMARK    5  A    between atoms: C_25  and  C_26
REMARK    6  A    between atoms: C_26  and  C_27
REMARK    7  A    between atoms: C_27  and  C_28
REMARK    8  A    between atoms: C_28  and  C_32
REMARK                            x       y       z     vdW  Elec       q    Type
REMARK                         _______ _______ _______ _____ _____    ______ ____
ROOT
ATOM      1  O   UNL     1       1.980  -1.150  -0.967  0.00  0.00    -0.445 OA
ATOM      2  O   UNL     1       3.711  -1.122  -2.497  0.00  0.00    -0.245 OA
ATOM      3  C   UNL     1       2.644  -2.104  -0.114  0.00  0.00    +0.194 C 
ATOM      4  C   UNL     1       2.360   0.659   1.538  0.00  0.00    +0.051 C 
ATOM      5  C   UNL     1       3.677  -1.445   0.786  0.00  0.00    -0.008 C 
ATOM      6  C   UNL     1       2.777   2.080   1.070  0.00  0.00    +0.146 C 
ATOM      7  C   UNL     1       3.547  -0.285   1.463  0.00  0.00    -0.029 C 
ATOM      8  C   UNL     1       1.630   3.113   0.970  0.00  0.00    +0.164 C 
ATOM      9  C   UNL     1       1.812   0.644   2.970  0.00  0.00    +0.007 C 
ATOM     10  C   UNL     1       4.964  -2.227   0.904  0.00  0.00    +0.030 C 
ATOM     11  C   UNL     1       0.510   2.662   0.071  0.00  0.00    +0.001 C 
ATOM     12  C   UNL     1       2.617  -0.748  -2.097  0.00  0.00    +0.341 C 
ATOM     13  C   UNL     1       0.265   3.099  -1.176  0.00  0.00    -0.028 C 
ATOM     14  C   UNL     1      -0.818   2.529  -2.051  0.00  0.00    +0.030 C 
ATOM     15  C   UNL     1      -0.246   1.639  -3.164  0.00  0.00    +0.031 C 
ATOM     16  C   UNL     1       1.842   0.308  -2.782  0.00  0.00    +0.077 C 
ATOM     17  C   UNL     1       0.526   0.480  -2.594  0.00  0.00    -0.019 C 
ENDROOT
BRANCH   6  18
ATOM     18  O   UNL     1       3.743   2.603   1.993  0.00  0.00    -0.381 OA
ATOM     19  H   UNL     1       4.479   1.977   2.079  0.00  0.00    +0.210 HD
ENDBRANCH   6  18
BRANCH   8  20
ATOM     20  O   UNL     1       2.175   4.358   0.518  0.00  0.00    -0.347 OA
ATOM     21  C   UNL     1       1.186   5.374   0.507  0.00  0.00    +0.175 C 
ENDBRANCH   8  20
BRANCH   3  22
ATOM     22  C   UNL     1       1.572  -2.821   0.702  0.00  0.00    +0.102 C 
ATOM     23  C   UNL     1       2.201  -3.885   1.597  0.00  0.00    +0.012 C 
BRANCH  22  25
ATOM     24  O   UNL     1       0.824  -3.860  -1.346  0.00  0.00    -0.296 OA
ATOM     25  C   UNL     1       0.526  -3.431  -0.231  0.00  0.00    +0.154 C 
BRANCH  25  26
ATOM     26  C   UNL     1      -0.893  -3.526   0.313  0.00  0.00    +0.065 C 
BRANCH  26  27
ATOM     27  C   UNL     1      -1.764  -2.320  -0.038  0.00  0.00    +0.008 C 
BRANCH  27  28
ATOM     28  C   UNL     1      -3.180  -2.438   0.529  0.00  0.00    +0.001 C 
BRANCH  28  32
ATOM     29  O   UNL     1      -3.718   2.386   0.224  0.00  0.00    -0.275 OA
ATOM     30  O   UNL     1      -7.509  -0.232   0.310  0.00  0.00    -0.275 OA
ATOM     31  N   UNL     1      -5.594   1.048   0.241  0.00  0.00    -0.255 N 
ATOM     32  C   UNL     1      -4.028  -1.222   0.168  0.00  0.00    +0.018 C 
ATOM     33  C   UNL     1      -3.394   0.060   0.697  0.00  0.00    +0.086 C 
ATOM     34  C   UNL     1      -5.436  -1.350   0.742  0.00  0.00    +0.086 C 
ATOM     35  C   UNL     1      -4.226   1.272   0.348  0.00  0.00    +0.228 C 
ATOM     36  C   UNL     1      -6.284  -0.149   0.395  0.00  0.00    +0.228 C 
ATOM     37  H   UNL     1      -6.144   1.837   0.031  0.00  0.00    +0.158 HD
ENDBRANCH  28  32
ENDBRANCH  27  28
ENDBRANCH  26  27
ENDBRANCH  25  26
ENDBRANCH  22  25
ENDBRANCH   3  22
TORSDOF 8
