REMARK  Name = 11015818
REMARK  14 active torsions:
REMARK  status: ('A' for Active; 'I' for Inactive)
REMARK    1  A    between atoms: C_1  and  C_2
REMARK    2  A    between atoms: C_1  and  O_14
REMARK    3  A    between atoms: C_1  and  C_21
REMARK    4  A    between atoms: C_2  and  C_4
REMARK    5  A    between atoms: C_4  and  O_5
REMARK    6  A    between atoms: C_4  and  C_7
REMARK    7  A    between atoms: C_8  and  C_9
REMARK    8  A    between atoms: C_10  and  C_11
REMARK    9  A    between atoms: O_14  and  P_15
REMARK   10  A    between atoms: P_15  and  O_17
REMARK   11  A    between atoms: P_15  and  O_19
REMARK   12  A    between atoms: C_21  and  C_22
REMARK   13  A    between atoms: C_22  and  C_23
REMARK   14  A    between atoms: C_23  and  C_27
REMARK                            x       y       z     vdW  Elec       q    Type
REMARK                         _______ _______ _______ _____ _____    ______ ____
ROOT
ATOM      1  C   UNL     1      -2.211   1.004  -0.228  0.00  0.00    +0.129 C 
ENDROOT
BRANCH   1   2
ATOM      2  C   UNL     1      -1.918   1.230  -1.739  0.00  0.00    +0.059 C 
ATOM      3  C   UNL     1      -2.810   2.361  -2.285  0.00  0.00    +0.005 C 
BRANCH   2   4
ATOM      4  C   UNL     1      -0.432   1.503  -2.100  0.00  0.00    +0.135 C 
BRANCH   4   5
ATOM      5  O   UNL     1      -0.271   1.540  -3.517  0.00  0.00    -0.380 OA
ATOM      6  H   UNL     1      -0.651   0.737  -3.907  0.00  0.00    +0.211 HD
ENDBRANCH   4   5
BRANCH   4   7
ATOM      7  C   UNL     1       0.146   2.737  -1.450  0.00  0.00    +0.003 C 
ATOM      8  C   UNL     1       1.200   2.776  -0.618  0.00  0.00    -0.002 C 
BRANCH   8   9
ATOM      9  C   UNL     1       1.941   1.597  -0.227  0.00  0.00    -0.000 C 
ATOM     10  C   UNL     1       2.994   1.638   0.604  0.00  0.00    -0.000 C 
BRANCH  10  11
ATOM     11  C   UNL     1       3.485   2.868   1.185  0.00  0.00    -0.005 C 
ATOM     12  C   UNL     1       4.525   3.005   2.022  0.00  0.00    -0.026 C 
ATOM     13  C   UNL     1       5.061   4.255   2.642  0.00  0.00    +0.031 C 
ENDBRANCH  10  11
ENDBRANCH   8   9
ENDBRANCH   4   7
ENDBRANCH   2   4
ENDBRANCH   1   2
BRANCH   1  14
ATOM     14  O   UNL     1      -3.612   0.740  -0.099  0.00  0.00    -0.276 OA
BRANCH  14  15
ATOM     15  P   UNL     1      -4.216   0.565   1.385  0.00  0.00    +0.473 P 
ATOM     16  O   UNL     1      -3.626  -0.557   2.188  0.00  0.00    -0.228 OA
BRANCH  15  17
ATOM     17  O   UNL     1      -4.015   2.038   2.019  0.00  0.00    -0.303 OA
ATOM     18  H   UNL     1      -4.425   2.699   1.439  0.00  0.00    +0.222 HD
ENDBRANCH  15  17
BRANCH  15  19
ATOM     19  O   UNL     1      -5.813   0.477   1.146  0.00  0.00    -0.303 OA
ATOM     20  H   UNL     1      -6.104   1.240   0.620  0.00  0.00    +0.222 HD
ENDBRANCH  15  19
ENDBRANCH  14  15
ENDBRANCH   1  14
BRANCH   1  21
ATOM     21  C   UNL     1      -1.433  -0.164   0.400  0.00  0.00    +0.030 C 
BRANCH  21  22
ATOM     22  C   UNL     1      -1.670  -1.499  -0.323  0.00  0.00    +0.006 C 
BRANCH  22  23
ATOM     23  C   UNL     1      -0.932  -2.684   0.330  0.00  0.00    +0.041 C 
ATOM     24  C   UNL     1      -1.390  -2.935   1.767  0.00  0.00    +0.004 C 
BRANCH  23  27
ATOM     25  O   UNL     1       0.952  -2.182  -1.068  0.00  0.00    -0.449 OA
ATOM     26  O   UNL     1       2.639  -1.538  -2.439  0.00  0.00    -0.245 OA
ATOM     27  C   UNL     1       0.571  -2.435   0.303  0.00  0.00    +0.173 C 
ATOM     28  C   UNL     1       1.402  -3.581   0.895  0.00  0.00    +0.062 C 
ATOM     29  C   UNL     1       1.077  -4.962   0.323  0.00  0.00    +0.008 C 
ATOM     30  C   UNL     1       2.847  -3.262   0.647  0.00  0.00    -0.016 C 
ATOM     31  C   UNL     1       2.267  -2.025  -1.378  0.00  0.00    +0.341 C 
ATOM     32  C   UNL     1       3.243  -2.509  -0.384  0.00  0.00    +0.077 C 
ENDBRANCH  23  27
ENDBRANCH  22  23
ENDBRANCH  21  22
ENDBRANCH   1  21
TORSDOF 14
