REMARK  Name = 11025480
REMARK  11 active torsions:
REMARK  status: ('A' for Active; 'I' for Inactive)
REMARK    1  A    between atoms: O_1  and  C_5
REMARK    2  A    between atoms: O_1  and  C_17
REMARK    3  A    between atoms: C_3  and  O_10
REMARK    4  A    between atoms: C_4  and  O_8
REMARK    5  A    between atoms: C_6  and  O_12
REMARK    6  A    between atoms: C_7  and  C_14
REMARK    7  A    between atoms: C_14  and  O_15
REMARK    8  A    between atoms: C_17  and  C_22
REMARK    9  A    between atoms: C_20  and  C_27
REMARK   10  A    between atoms: C_28  and  C_29
REMARK   11  A    between atoms: C_29  and  O_31
REMARK                            x       y       z     vdW  Elec       q    Type
REMARK                         _______ _______ _______ _____ _____    ______ ____
ROOT
ATOM      1  O   UNL     1      -0.527  -1.193  -0.095  0.00  0.00    -0.324 OA
ENDROOT
BRANCH   1   5
ATOM      2  O   UNL     1      -2.259   0.297  -0.566  0.00  0.00    -0.326 OA
ATOM      3  C   UNL     1      -2.675  -1.621   0.864  0.00  0.00    +0.196 C 
ATOM      4  C   UNL     1      -4.181  -1.391   0.738  0.00  0.00    +0.172 C 
ATOM      5  C   UNL     1      -1.926  -1.072  -0.350  0.00  0.00    +0.266 C 
ATOM      6  C   UNL     1      -4.490   0.054   0.349  0.00  0.00    +0.169 C 
ATOM      7  C   UNL     1      -3.646   0.485  -0.853  0.00  0.00    +0.176 C 
BRANCH   4   8
ATOM      8  O   UNL     1      -4.809  -1.654   1.994  0.00  0.00    -0.379 OA
ATOM      9  H   UNL     1      -4.626  -2.568   2.262  0.00  0.00    +0.211 HD
ENDBRANCH   4   8
BRANCH   3  10
ATOM     10  O   UNL     1      -2.415  -3.021   0.955  0.00  0.00    -0.378 OA
ATOM     11  H   UNL     1      -2.883  -3.388   1.721  0.00  0.00    +0.211 HD
ENDBRANCH   3  10
BRANCH   6  12
ATOM     12  O   UNL     1      -5.872   0.168   0.018  0.00  0.00    -0.379 OA
ATOM     13  H   UNL     1      -6.409  -0.104   0.778  0.00  0.00    +0.211 HD
ENDBRANCH   6  12
BRANCH   7  14
ATOM     14  C   UNL     1      -3.850   1.960  -1.187  0.00  0.00    +0.169 C 
BRANCH  14  15
ATOM     15  O   UNL     1      -3.034   2.288  -2.296  0.00  0.00    -0.379 OA
ATOM     16  H   UNL     1      -3.154   3.224  -2.521  0.00  0.00    +0.211 HD
ENDBRANCH  14  15
ENDBRANCH   7  14
ENDBRANCH   1   5
BRANCH   1  17
ATOM     17  C   UNL     1       0.248  -0.707  -1.173  0.00  0.00    +0.167 C 
BRANCH  17  22
ATOM     18  O   UNL     1       4.673  -2.388  -2.092  0.00  0.00    -0.291 OA
ATOM     19  C   UNL     1       3.464  -0.839   1.004  0.00  0.00    +0.015 C 
ATOM     20  C   UNL     1       2.206  -0.139   0.393  0.00  0.00    +0.043 C 
ATOM     21  C   UNL     1       4.520  -1.073  -0.094  0.00  0.00    +0.070 C 
ATOM     22  C   UNL     1       1.710  -0.858  -0.851  0.00  0.00    -0.008 C 
ATOM     23  C   UNL     1       4.094   0.003   2.134  0.00  0.00    +0.001 C 
ATOM     24  C   UNL     1       3.058  -2.196   1.635  0.00  0.00    +0.001 C 
ATOM     25  C   UNL     1       3.954  -1.752  -1.323  0.00  0.00    +0.173 C 
ATOM     26  C   UNL     1       2.511  -1.601  -1.632  0.00  0.00    +0.032 C 
BRANCH  20  27
ATOM     27  C   UNL     1       2.428   1.316   0.076  0.00  0.00    -0.024 C 
ATOM     28  C   UNL     1       1.746   2.318   0.651  0.00  0.00    -0.002 C 
BRANCH  28  29
ATOM     29  C   UNL     1       1.971   3.767   0.333  0.00  0.00    +0.132 C 
ATOM     30  C   UNL     1       2.336   4.557   1.583  0.00  0.00    +0.037 C 
BRANCH  29  31
ATOM     31  O   UNL     1       0.763   4.290  -0.214  0.00  0.00    -0.380 OA
ATOM     32  H   UNL     1       0.526   3.790  -1.011  0.00  0.00    +0.211 HD
ENDBRANCH  29  31
ENDBRANCH  28  29
ENDBRANCH  20  27
ENDBRANCH  17  22
ENDBRANCH   1  17
TORSDOF 11
