11027418
  -OEChem-03292013303D

 62 66  0     1  0  0  0  0  0999 V2000
   -3.6259   -0.8010    1.0688 O   0  0  0  0  0  0  0  0  0  0  0  0
   -3.4889   -0.5603   -1.9348 O   0  0  0  0  0  0  0  0  0  0  0  0
   -2.7212   -3.5605   -0.0961 O   0  0  0  0  0  0  0  0  0  0  0  0
   -6.3871   -0.8780    1.3469 O   0  0  0  0  0  0  0  0  0  0  0  0
    0.1329   -1.0165    0.1758 O   0  0  0  0  0  0  0  0  0  0  0  0
    1.1784    4.3957   -0.4040 O   0  0  0  0  0  0  0  0  0  0  0  0
   -1.3695    4.8727   -0.3301 O   0  0  0  0  0  0  0  0  0  0  0  0
    4.6616    1.4089   -0.2797 O   0  0  0  0  0  0  0  0  0  0  0  0
    0.7971   -3.1900    0.3549 O   0  0  0  0  0  0  0  0  0  0  0  0
   -2.4458   -0.6406    0.2606 C   0  0  1  0  0  0  0  0  0  0  0  0
   -4.3689   -1.9421    0.5956 C   0  0  2  0  0  0  0  0  0  0  0  0
   -2.7296   -1.3751   -1.0493 C   0  0  1  0  0  0  0  0  0  0  0  0
   -3.5847   -2.5326   -0.5763 C   0  0  1  0  0  0  0  0  0  0  0  0
   -2.0447    0.8054    0.1006 C   0  0  0  0  0  0  0  0  0  0  0  0
   -5.7612   -1.4631    0.2095 C   0  0  1  0  0  0  0  0  0  0  0  0
   -0.7060    1.2415   -0.0055 C   0  0  0  0  0  0  0  0  0  0  0  0
   -3.1050    1.7119    0.0617 C   0  0  0  0  0  0  0  0  0  0  0  0
   -6.6277   -2.6004   -0.3083 C   0  0  0  0  0  0  0  0  0  0  0  0
   -0.4603    2.6226   -0.1524 C   0  0  0  0  0  0  0  0  0  0  0  0
    0.4088    0.3676    0.0269 C   0  0  0  0  0  0  0  0  0  0  0  0
    1.7366    0.7978   -0.0787 C   0  0  0  0  0  0  0  0  0  0  0  0
   -1.5376    3.5239   -0.1898 C   0  0  0  0  0  0  0  0  0  0  0  0
   -2.8514    3.0705   -0.0834 C   0  0  0  0  0  0  0  0  0  0  0  0
    0.8619    3.0731   -0.2593 C   0  0  0  0  0  0  0  0  0  0  0  0
    1.9375    2.1771   -0.2230 C   0  0  0  0  0  0  0  0  0  0  0  0
    2.8181   -0.1969   -0.0339 C   0  0  0  0  0  0  0  0  0  0  0  0
    2.5034   -1.5584    0.1138 C   0  0  0  0  0  0  0  0  0  0  0  0
    1.0987   -2.0109    0.2262 C   0  0  0  0  0  0  0  0  0  0  0  0
    4.1820    0.1402   -0.1328 C   0  0  0  0  0  0  0  0  0  0  0  0
    3.5089   -2.5379    0.1602 C   0  0  0  0  0  0  0  0  0  0  0  0
    5.1840   -0.8342   -0.0869 C   0  0  0  0  0  0  0  0  0  0  0  0
    4.8474   -2.1731    0.0595 C   0  0  0  0  0  0  0  0  0  0  0  0
    1.3872    5.1410    0.7911 C   0  0  0  0  0  0  0  0  0  0  0  0
    5.8880   -3.1878    0.1073 C   0  0  0  0  0  0  0  0  0  0  0  0
    4.9498    2.1329    0.9137 C   0  0  0  0  0  0  0  0  0  0  0  0
    5.7331   -4.4234   -0.3485 C   0  0  0  0  0  0  0  0  0  0  0  0
   -1.7458   -1.1777    0.8937 H   0  0  0  0  0  0  0  0  0  0  0  0
   -4.4347   -2.6415    1.4378 H   0  0  0  0  0  0  0  0  0  0  0  0
   -1.8144   -1.6820   -1.5634 H   0  0  0  0  0  0  0  0  0  0  0  0
   -4.1941   -2.9647   -1.3705 H   0  0  0  0  0  0  0  0  0  0  0  0
   -5.7323   -0.6709   -0.5395 H   0  0  0  0  0  0  0  0  0  0  0  0
   -4.1414    1.3985    0.1462 H   0  0  0  0  0  0  0  0  0  0  0  0
   -7.6660   -2.2674   -0.4200 H   0  0  0  0  0  0  0  0  0  0  0  0
   -6.2987   -2.9760   -1.2799 H   0  0  0  0  0  0  0  0  0  0  0  0
   -6.6474   -3.4332    0.4036 H   0  0  0  0  0  0  0  0  0  0  0  0
   -4.1734   -0.0856   -1.4444 H   0  0  0  0  0  0  0  0  0  0  0  0
   -2.2602   -3.2448    0.6986 H   0  0  0  0  0  0  0  0  0  0  0  0
   -3.6810    3.7718   -0.1119 H   0  0  0  0  0  0  0  0  0  0  0  0
   -7.2646   -0.5612    1.0727 H   0  0  0  0  0  0  0  0  0  0  0  0
    2.8999    2.6354   -0.3790 H   0  0  0  0  0  0  0  0  0  0  0  0
    3.2290   -3.5799    0.2960 H   0  0  0  0  0  0  0  0  0  0  0  0
   -0.5544    5.0413   -0.8293 H   0  0  0  0  0  0  0  0  0  0  0  0
    6.2281   -0.5373   -0.1697 H   0  0  0  0  0  0  0  0  0  0  0  0
    1.3632    6.2054    0.5419 H   0  0  0  0  0  0  0  0  0  0  0  0
    2.3713    4.9035    1.2073 H   0  0  0  0  0  0  0  0  0  0  0  0
    0.6144    4.9378    1.5396 H   0  0  0  0  0  0  0  0  0  0  0  0
    6.8480   -2.8915    0.5206 H   0  0  0  0  0  0  0  0  0  0  0  0
    5.0421    3.1936    0.6634 H   0  0  0  0  0  0  0  0  0  0  0  0
    5.9043    1.7929    1.3279 H   0  0  0  0  0  0  0  0  0  0  0  0
    4.1641    2.0124    1.6669 H   0  0  0  0  0  0  0  0  0  0  0  0
    6.5588   -5.1261   -0.2900 H   0  0  0  0  0  0  0  0  0  0  0  0
    4.8194   -4.7864   -0.8054 H   0  0  0  0  0  0  0  0  0  0  0  0
  1 10  1  0  0  0  0
  1 11  1  0  0  0  0
  2 12  1  0  0  0  0
  2 46  1  0  0  0  0
  3 13  1  0  0  0  0
  3 47  1  0  0  0  0
  4 15  1  0  0  0  0
  4 49  1  0  0  0  0
  5 20  1  0  0  0  0
  5 28  1  0  0  0  0
  6 24  1  0  0  0  0
  6 33  1  0  0  0  0
  7 22  1  0  0  0  0
  7 52  1  0  0  0  0
  8 29  1  0  0  0  0
  8 35  1  0  0  0  0
  9 28  2  0  0  0  0
 10 12  1  0  0  0  0
 10 14  1  0  0  0  0
 10 37  1  0  0  0  0
 11 13  1  0  0  0  0
 11 15  1  0  0  0  0
 11 38  1  0  0  0  0
 12 13  1  0  0  0  0
 12 39  1  0  0  0  0
 13 40  1  0  0  0  0
 14 16  2  0  0  0  0
 14 17  1  0  0  0  0
 15 18  1  0  0  0  0
 15 41  1  0  0  0  0
 16 19  1  0  0  0  0
 16 20  1  0  0  0  0
 17 23  2  0  0  0  0
 17 42  1  0  0  0  0
 18 43  1  0  0  0  0
 18 44  1  0  0  0  0
 18 45  1  0  0  0  0
 19 22  2  0  0  0  0
 19 24  1  0  0  0  0
 20 21  2  0  0  0  0
 21 25  1  0  0  0  0
 21 26  1  0  0  0  0
 22 23  1  0  0  0  0
 23 48  1  0  0  0  0
 24 25  2  0  0  0  0
 25 50  1  0  0  0  0
 26 27  2  0  0  0  0
 26 29  1  0  0  0  0
 27 28  1  0  0  0  0
 27 30  1  0  0  0  0
 29 31  2  0  0  0  0
 30 32  2  0  0  0  0
 30 51  1  0  0  0  0
 31 32  1  0  0  0  0
 31 53  1  0  0  0  0
 32 34  1  0  0  0  0
 33 54  1  0  0  0  0
 33 55  1  0  0  0  0
 33 56  1  0  0  0  0
 34 36  2  0  0  0  0
 34 57  1  0  0  0  0
 35 58  1  0  0  0  0
 35 59  1  0  0  0  0
 35 60  1  0  0  0  0
 36 61  1  0  0  0  0
 36 62  1  0  0  0  0
M  END
> <PUBCHEM_COMPOUND_CID>
11027418

> <PUBCHEM_CONFORMER_RMSD>
1

> <PUBCHEM_CONFORMER_DIVERSEORDER>
2
1
3

> <PUBCHEM_MMFF94_PARTIAL_CHARGES>
43
1 -0.56
10 0.42
11 0.28
12 0.28
13 0.28
14 -0.14
15 0.28
17 -0.15
2 -0.68
20 0.08
22 0.08
23 -0.15
24 0.08
25 -0.15
27 0.09
28 0.63
29 0.08
3 -0.68
30 -0.15
31 -0.15
32 0.03
33 0.28
34 -0.18
35 0.28
36 -0.3
4 -0.68
42 0.15
46 0.4
47 0.4
48 0.15
49 0.4
5 -0.23
50 0.15
51 0.15
52 0.45
53 0.15
57 0.15
6 -0.36
61 0.15
62 0.15
7 -0.53
8 -0.36
9 -0.57

> <PUBCHEM_EFFECTIVE_ROTOR_COUNT>
6

> <PUBCHEM_PHARMACOPHORE_FEATURES>
17
1 1 acceptor
1 2 acceptor
1 2 donor
1 3 acceptor
1 3 donor
1 36 hydrophobe
1 4 acceptor
1 4 donor
1 6 acceptor
1 7 donor
1 8 acceptor
1 9 acceptor
5 1 10 11 12 13 rings
6 14 16 17 19 22 23 rings
6 16 19 20 21 24 25 rings
6 26 27 29 30 31 32 rings
6 5 20 21 26 27 28 rings

> <PUBCHEM_HEAVY_ATOM_COUNT>
36

> <PUBCHEM_ATOM_DEF_STEREO_COUNT>
5

> <PUBCHEM_ATOM_UDEF_STEREO_COUNT>
0

> <PUBCHEM_BOND_DEF_STEREO_COUNT>
0

> <PUBCHEM_BOND_UDEF_STEREO_COUNT>
0

> <PUBCHEM_ISOTOPIC_ATOM_COUNT>
0

> <PUBCHEM_COMPONENT_COUNT>
1

> <PUBCHEM_CACTVS_TAUTO_COUNT>
3

> <PUBCHEM_CONFORMER_ID>
00A843DA00000002

> <PUBCHEM_MMFF94_ENERGY>
173.2455

> <PUBCHEM_FEATURE_SELFOVERLAP>
86.354

> <PUBCHEM_SHAPE_FINGERPRINT>
10050765 1 18337954477154652988
10290309 65 16464176386047138476
10411042 1 18410293596981321147
10940486 97 17901962842228016652
1100329 8 18194680354970074256
11135926 11 18049437342504878693
12107183 9 18341908402767511635
12166972 35 17749395853575894926
12236239 1 17917154995867617355
12403259 226 18339921503456750952
12422481 6 17917442986177678455
12553582 1 18338225051029820619
13140716 1 18339079259969364496
13690498 29 18269006288988931254
138480 1 15095923143299427212
140371 6 18262805202089610968
14117953 113 18342177714154825015
14347332 77 18338235968715653598
14394314 77 18341056302261920737
14790565 3 16967740148488960565
15042514 8 18266742376792178228
15081414 286 18338795718976006966
15320467 1 18122063371048236066
15361156 5 18044396954102136054
15400415 2 17113255539306496980
17492 89 18410010992823649134
18393751 57 17838312419070799984
19311894 1 18122063100654440594
19591789 44 18410573955709100858
20775438 99 17691354902931626309
21133410 171 17469264437204569643
21478907 32 18410012126331044413
21703447 108 18337940226411097378
21796203 349 17903682623661829947
22311459 1 18266177425890665472
23559900 14 18410565219782998881
24771293 8 17912637197089026528
24771750 20 17466234445213864197
350125 39 18266180711082055305
44880168 125 17346601816339954366
4616759 239 17480837760008133930
46194498 28 17386563703615424567
463206 1 18337674118162817468
5104073 3 18270957952007927144
513202 73 18337117748257698867
6004065 56 18194115450980853595
6700243 42 17771376117891694422
70251023 43 18337109072412828241
7970288 3 18410574028371117367
9555976 147 17559977549059208787

> <PUBCHEM_SHAPE_MULTIPOLES>
688.04
13.02
6.56
0.86
0.97
5.31
0.07
-15.47
-1.05
-2.04
0.02
0.64
-0.06
0.49

> <PUBCHEM_SHAPE_SELFOVERLAP>
1532.193

> <PUBCHEM_SHAPE_VOLUME>
366.5

> <PUBCHEM_COORDINATE_TYPE>
2
5
10

$$$$
