REMARK  Name = 11027418
REMARK  9 active torsions:
REMARK  status: ('A' for Active; 'I' for Inactive)
REMARK    1  A    between atoms: C_3  and  C_21
REMARK    2  A    between atoms: C_9  and  O_35
REMARK    3  A    between atoms: C_11  and  O_33
REMARK    4  A    between atoms: C_16  and  O_37
REMARK    5  A    between atoms: C_19  and  C_39
REMARK    6  A    between atoms: C_22  and  C_29
REMARK    7  A    between atoms: C_23  and  O_25
REMARK    8  A    between atoms: C_24  and  O_27
REMARK    9  A    between atoms: C_29  and  O_31
REMARK                            x       y       z     vdW  Elec       q    Type
REMARK                         _______ _______ _______ _____ _____    ______ ____
ROOT
ATOM      1  O   UNL     1       0.133  -1.016   0.176  0.00  0.00    -0.421 OA
ATOM      2  O   UNL     1       0.797  -3.190   0.355  0.00  0.00    -0.244 OA
ATOM      3  C   UNL     1      -2.045   0.805   0.101  0.00  0.00    +0.010 C 
ATOM      4  C   UNL     1      -0.706   1.242  -0.005  0.00  0.00    +0.039 C 
ATOM      5  C   UNL     1      -3.105   1.712   0.062  0.00  0.00    +0.001 C 
ATOM      6  C   UNL     1      -0.460   2.623  -0.152  0.00  0.00    +0.070 C 
ATOM      7  C   UNL     1       0.409   0.368   0.027  0.00  0.00    +0.149 A 
ATOM      8  C   UNL     1       1.737   0.798  -0.079  0.00  0.00    +0.041 A 
ATOM      9  C   UNL     1      -1.538   3.524  -0.190  0.00  0.00    +0.137 C 
ATOM     10  C   UNL     1      -2.851   3.071  -0.083  0.00  0.00    +0.036 C 
ATOM     11  C   UNL     1       0.862   3.073  -0.259  0.00  0.00    +0.142 C 
ATOM     12  C   UNL     1       1.938   2.177  -0.223  0.00  0.00    +0.040 C 
ATOM     13  C   UNL     1       2.818  -0.197  -0.034  0.00  0.00    +0.043 A 
ATOM     14  C   UNL     1       2.503  -1.558   0.114  0.00  0.00    +0.079 A 
ATOM     15  C   UNL     1       1.099  -2.011   0.226  0.00  0.00    +0.346 A 
ATOM     16  C   UNL     1       4.182   0.140  -0.133  0.00  0.00    +0.139 C 
ATOM     17  C   UNL     1       3.509  -2.538   0.160  0.00  0.00    +0.007 C 
ATOM     18  C   UNL     1       5.184  -0.834  -0.087  0.00  0.00    +0.037 C 
ATOM     19  C   UNL     1       4.847  -2.173   0.059  0.00  0.00    +0.003 C 
ENDROOT
BRANCH   3  21
ATOM     20  O   UNL     1      -3.626  -0.801   1.069  0.00  0.00    -0.347 OA
ATOM     21  C   UNL     1      -2.446  -0.641   0.261  0.00  0.00    +0.167 C 
ATOM     22  C   UNL     1      -4.369  -1.942   0.596  0.00  0.00    +0.171 C 
ATOM     23  C   UNL     1      -2.730  -1.375  -1.049  0.00  0.00    +0.171 C 
ATOM     24  C   UNL     1      -3.585  -2.533  -0.576  0.00  0.00    +0.169 C 
BRANCH  23  25
ATOM     25  O   UNL     1      -3.489  -0.560  -1.935  0.00  0.00    -0.379 OA
ATOM     26  H   UNL     1      -2.943   0.182  -2.239  0.00  0.00    +0.211 HD
ENDBRANCH  23  25
BRANCH  24  27
ATOM     27  O   UNL     1      -2.721  -3.561  -0.096  0.00  0.00    -0.379 OA
ATOM     28  H   UNL     1      -3.252  -4.311   0.212  0.00  0.00    +0.211 HD
ENDBRANCH  24  27
BRANCH  22  29
ATOM     29  C   UNL     1      -5.761  -1.463   0.209  0.00  0.00    +0.140 C 
ATOM     30  C   UNL     1      -6.628  -2.600  -0.308  0.00  0.00    +0.034 C 
BRANCH  29  31
ATOM     31  O   UNL     1      -6.387  -0.878   1.347  0.00  0.00    -0.382 OA
ATOM     32  H   UNL     1      -5.837  -0.152   1.681  0.00  0.00    +0.210 HD
ENDBRANCH  29  31
ENDBRANCH  22  29
ENDBRANCH   3  21
BRANCH  11  33
ATOM     33  O   UNL     1       1.178   4.396  -0.404  0.00  0.00    -0.471 OA
ATOM     34  C   UNL     1       1.387   5.141   0.791  0.00  0.00    +0.252 C 
ENDBRANCH  11  33
BRANCH   9  35
ATOM     35  O   UNL     1      -1.369   4.873  -0.330  0.00  0.00    -0.505 OA
ATOM     36  H   UNL     1      -0.507   5.232  -0.406  0.00  0.00    +0.292 HD
ENDBRANCH   9  35
BRANCH  16  37
ATOM     37  O   UNL     1       4.662   1.409  -0.280  0.00  0.00    -0.471 OA
ATOM     38  C   UNL     1       4.950   2.133   0.914  0.00  0.00    +0.252 C 
ENDBRANCH  16  37
BRANCH  19  39
ATOM     39  C   UNL     1       5.888  -3.188   0.107  0.00  0.00    +0.000 C 
ATOM     40  C   UNL     1       5.733  -4.423  -0.348  0.00  0.00    +0.000 C 
ENDBRANCH  19  39
TORSDOF 9
