11037227
  -OEChem-03292013303D

 51 54  0     1  0  0  0  0  0999 V2000
    0.2707    3.4173   -0.1206 S   0  0  0  0  0  0  0  0  0  0  0  0
   -2.4623    3.3324   -1.4418 S   0  0  0  0  0  0  0  0  0  0  0  0
    1.6518   -1.7994    1.5053 O   0  0  0  0  0  0  0  0  0  0  0  0
    4.9160   -1.7619   -0.1018 O   0  0  0  0  0  0  0  0  0  0  0  0
    1.8797    0.9643    3.2686 O   0  0  0  0  0  0  0  0  0  0  0  0
   -0.1366    1.8126    2.6011 O   0  0  0  0  0  0  0  0  0  0  0  0
    2.4362    0.2830    0.7236 N   0  0  0  0  0  0  0  0  0  0  0  0
   -1.4406    1.3561   -0.1254 N   0  0  0  0  0  0  0  0  0  0  0  0
   -3.8286   -2.9503    0.6949 N   0  0  0  0  0  0  0  0  0  0  0  0
    2.9027    0.3838   -0.6744 C   0  0  1  0  0  0  0  0  0  0  0  0
    2.6844   -1.1607   -0.7436 C   0  0  2  0  0  0  0  0  0  0  0  0
    2.0293    1.5045   -1.2771 C   0  0  2  0  0  0  0  0  0  0  0  0
    2.1773   -1.0529    0.7105 C   0  0  0  0  0  0  0  0  0  0  0  0
    3.8197   -2.1336   -0.9385 C   0  0  1  0  0  0  0  0  0  0  0  0
    1.5501    1.2787    1.0134 C   0  0  0  0  0  0  0  0  0  0  0  0
    1.2917    2.0369   -0.0608 C   0  0  0  0  0  0  0  0  0  0  0  0
    1.1233    1.0512   -2.4099 C   0  0  0  0  0  0  0  0  0  0  0  0
    4.2893   -2.1540   -2.3895 C   0  0  0  0  0  0  0  0  0  0  0  0
    0.9826    1.3923    2.3530 C   0  0  0  0  0  0  0  0  0  0  0  0
   -1.2345    2.5815   -0.5250 C   0  0  0  0  0  0  0  0  0  0  0  0
   -2.6478   -2.8468   -0.1690 C   0  0  1  0  0  0  0  0  0  0  0  0
   -2.0793   -1.4141   -0.1141 C   0  0  0  0  0  0  0  0  0  0  0  0
   -3.1545   -0.3632   -0.2718 C   0  0  0  0  0  0  0  0  0  0  0  0
   -2.6832    0.9583   -0.5789 C   0  0  0  0  0  0  0  0  0  0  0  0
   -4.9033   -2.0681    0.2301 C   0  0  0  0  0  0  0  0  0  0  0  0
   -4.4527   -0.6799   -0.1230 C   0  0  0  0  0  0  0  0  0  0  0  0
   -3.3855    1.8931   -1.3103 C   0  0  0  0  0  0  0  0  0  0  0  0
   -1.5958   -3.8610    0.2752 C   0  0  0  0  0  0  0  0  0  0  0  0
    3.9643    0.6684   -0.7052 H   0  0  0  0  0  0  0  0  0  0  0  0
    1.8517   -1.4393   -1.4060 H   0  0  0  0  0  0  0  0  0  0  0  0
    2.6919    2.2938   -1.6569 H   0  0  0  0  0  0  0  0  0  0  0  0
    3.5050   -3.1426   -0.6484 H   0  0  0  0  0  0  0  0  0  0  0  0
    0.5923    1.8946   -2.8624 H   0  0  0  0  0  0  0  0  0  0  0  0
    1.7141    0.5721   -3.1984 H   0  0  0  0  0  0  0  0  0  0  0  0
    0.3801    0.3217   -2.0723 H   0  0  0  0  0  0  0  0  0  0  0  0
    4.6615   -1.1693   -2.6933 H   0  0  0  0  0  0  0  0  0  0  0  0
    5.1163   -2.8603   -2.5175 H   0  0  0  0  0  0  0  0  0  0  0  0
    3.4766   -2.4371   -3.0655 H   0  0  0  0  0  0  0  0  0  0  0  0
    5.6238   -2.4141   -0.2401 H   0  0  0  0  0  0  0  0  0  0  0  0
    1.5303    1.0263    4.1832 H   0  0  0  0  0  0  0  0  0  0  0  0
   -2.9336   -3.0906   -1.2012 H   0  0  0  0  0  0  0  0  0  0  0  0
   -1.3307   -1.3138   -0.9109 H   0  0  0  0  0  0  0  0  0  0  0  0
   -1.5626   -1.2489    0.8413 H   0  0  0  0  0  0  0  0  0  0  0  0
   -3.5745   -2.6983    1.6505 H   0  0  0  0  0  0  0  0  0  0  0  0
   -5.6604   -2.0071    1.0198 H   0  0  0  0  0  0  0  0  0  0  0  0
   -5.3940   -2.5162   -0.6418 H   0  0  0  0  0  0  0  0  0  0  0  0
   -5.2342    0.0649   -0.2447 H   0  0  0  0  0  0  0  0  0  0  0  0
   -4.3610    1.8173   -1.7705 H   0  0  0  0  0  0  0  0  0  0  0  0
   -0.7109   -3.8046   -0.3681 H   0  0  0  0  0  0  0  0  0  0  0  0
   -1.2724   -3.6827    1.3070 H   0  0  0  0  0  0  0  0  0  0  0  0
   -1.9876   -4.8824    0.2157 H   0  0  0  0  0  0  0  0  0  0  0  0
  1 16  1  0  0  0  0
  1 20  1  0  0  0  0
  2 20  1  0  0  0  0
  2 27  1  0  0  0  0
  3 13  2  0  0  0  0
  4 14  1  0  0  0  0
  4 39  1  0  0  0  0
  5 19  1  0  0  0  0
  5 40  1  0  0  0  0
  6 19  2  0  0  0  0
  7 10  1  0  0  0  0
  7 13  1  0  0  0  0
  7 15  1  0  0  0  0
  8 20  2  0  0  0  0
  8 24  1  0  0  0  0
  9 21  1  0  0  0  0
  9 25  1  0  0  0  0
  9 44  1  0  0  0  0
 10 11  1  0  0  0  0
 10 12  1  0  0  0  0
 10 29  1  0  0  0  0
 11 13  1  0  0  0  0
 11 14  1  0  0  0  0
 11 30  1  0  0  0  0
 12 16  1  0  0  0  0
 12 17  1  0  0  0  0
 12 31  1  0  0  0  0
 14 18  1  0  0  0  0
 14 32  1  0  0  0  0
 15 16  2  0  0  0  0
 15 19  1  0  0  0  0
 17 33  1  0  0  0  0
 17 34  1  0  0  0  0
 17 35  1  0  0  0  0
 18 36  1  0  0  0  0
 18 37  1  0  0  0  0
 18 38  1  0  0  0  0
 21 22  1  0  0  0  0
 21 28  1  0  0  0  0
 21 41  1  0  0  0  0
 22 23  1  0  0  0  0
 22 42  1  0  0  0  0
 22 43  1  0  0  0  0
 23 24  1  0  0  0  0
 23 26  2  0  0  0  0
 24 27  2  0  0  0  0
 25 26  1  0  0  0  0
 25 45  1  0  0  0  0
 25 46  1  0  0  0  0
 26 47  1  0  0  0  0
 27 48  1  0  0  0  0
 28 49  1  0  0  0  0
 28 50  1  0  0  0  0
 28 51  1  0  0  0  0
M  END
> <PUBCHEM_COMPOUND_CID>
11037227

> <PUBCHEM_CONFORMER_RMSD>
0.8

> <PUBCHEM_CONFORMER_DIVERSEORDER>
6
46
141
106
125
116
89
139
211
223
153
37
149
161
187
86
209
146
219
124
16
186
80
172
115
151
67
2
29
179
210
103
33
195
185
200
157
74
144
230
108
119
204
214
202
56
135
42
165
107
193
105
59
145
142
98
128
206
175
41
51
188
92
231
225
235
150
15
212
62
14
122
130
218
180
68
112
88
203
159
123
109
113
63
190
174
21
26
147
227
66
168
25
126
73
163
228
177
197
120
70
39
138
133
178
173
127
65
53
152
229
164
199
79
75
171
213
232
121
155
22
201
28
221
137
72
83
54
61
100
1
169
148
96
129
27
222
60
154
30
194
49
158
207
191
77
3
101
44
162
102
189
176
118
58
192
134
236
184
183
31
11
69
181
140
166
36
78
47
20
114
131
81
160
117
35
182
196
9
111
5
217
215
45
156
234
93
226
110
132
198
94
23
220
12
50
136
233
95
71
143
17
97
34
224
48
40
90
24
84
87
32
167
91
208
170
85
8
43
52
10
99
38
76
64
55
13
7
18
57
19
216
4
205
104
82

> <PUBCHEM_MMFF94_PARTIAL_CHARGES>
30
1 -0.16
10 0.22
11 0.05
12 0.14
13 0.58
14 0.28
15 0.12
16 -0.04
19 0.71
2 -0.08
20 0.43
21 0.27
22 0.14
23 -0.09
24 0.18
25 0.41
26 -0.29
27 -0.11
3 -0.57
39 0.4
4 -0.68
40 0.5
44 0.36
47 0.15
48 0.15
5 -0.65
6 -0.57
7 -0.39
8 -0.57
9 -0.9

> <PUBCHEM_EFFECTIVE_ROTOR_COUNT>
6.2

> <PUBCHEM_PHARMACOPHORE_FEATURES>
12
1 3 acceptor
1 4 acceptor
1 4 donor
1 5 acceptor
1 6 acceptor
1 8 acceptor
1 9 cation
1 9 donor
3 5 6 19 anion
5 2 8 20 24 27 rings
6 9 21 22 23 25 26 rings
7 7 10 11 12 13 15 16 rings

> <PUBCHEM_HEAVY_ATOM_COUNT>
28

> <PUBCHEM_ATOM_DEF_STEREO_COUNT>
5

> <PUBCHEM_ATOM_UDEF_STEREO_COUNT>
0

> <PUBCHEM_BOND_DEF_STEREO_COUNT>
0

> <PUBCHEM_BOND_UDEF_STEREO_COUNT>
0

> <PUBCHEM_ISOTOPIC_ATOM_COUNT>
0

> <PUBCHEM_COMPONENT_COUNT>
1

> <PUBCHEM_CACTVS_TAUTO_COUNT>
1

> <PUBCHEM_CONFORMER_ID>
00A86A2B00000006

> <PUBCHEM_MMFF94_ENERGY>
68.4573

> <PUBCHEM_FEATURE_SELFOVERLAP>
60.952

> <PUBCHEM_SHAPE_FINGERPRINT>
11135609 12 18335979852153517273
12553582 1 17973715068106311431
13122387 1 18192143790113715615
13402501 40 18341895169303918087
14251740 79 17838912442633241630
14251757 5 18264789687265436750
15664445 248 17900546984436218629
17909252 39 18338530736942959436
17974551 9 17489602155643812665
19315092 285 16342275073563047471
20600515 1 18056775229726781748
20775530 9 18413111666705478103
21475661 188 10413555965110985414
23379529 103 18340218405318095014
23419403 2 17917414429013805248
23559900 14 18409161147586618389
238 59 17098912851807120565
3052486 1 17968642840315153402
3493558 16 12911122844226566494
58260988 521 18056181704560212808
6287921 2 17764032758702484051
6823239 73 18409444799610464394
70634741 139 18340217272259255102

> <PUBCHEM_SHAPE_MULTIPOLES>
545.51
8.06
4.62
2.17
1.18
0.81
1.18
6.93
-2.59
2.82
-0.64
-2.06
-0.91
2.14

> <PUBCHEM_SHAPE_SELFOVERLAP>
1149.349

> <PUBCHEM_SHAPE_VOLUME>
310.6

> <PUBCHEM_COORDINATE_TYPE>
2
5
10

$$$$
