REMARK  Name = 11036174
REMARK  9 active torsions:
REMARK  status: ('A' for Active; 'I' for Inactive)
REMARK    1  A    between atoms: C_3  and  N_12
REMARK    2  A    between atoms: C_3  and  C_25
REMARK    3  A    between atoms: C_5  and  O_22
REMARK    4  A    between atoms: C_8  and  C_29
REMARK    5  A    between atoms: C_13  and  C_15
REMARK    6  A    between atoms: C_15  and  S_16
REMARK    7  A    between atoms: S_16  and  N_19
REMARK    8  A    between atoms: C_25  and  O_26
REMARK    9  A    between atoms: C_29  and  N_30
REMARK                            x       y       z     vdW  Elec       q    Type
REMARK                         _______ _______ _______ _____ _____    ______ ____
ROOT
ATOM      1  N   UNL     1      -0.967  -0.859   2.113  0.00  0.00    -0.305 N 
ATOM      2  C   UNL     1      -1.493   1.259   0.926  0.00  0.00    +0.053 C 
ATOM      3  C   UNL     1      -0.223   1.508   0.060  0.00  0.00    +0.173 C 
ATOM      4  C   UNL     1      -2.471   0.481   0.007  0.00  0.00    +0.029 C 
ATOM      5  C   UNL     1      -0.656   1.284  -1.405  0.00  0.00    +0.137 C 
ATOM      6  C   UNL     1      -2.172   1.101  -1.364  0.00  0.00    +0.036 C 
ATOM      7  C   UNL     1      -1.265   0.569   2.283  0.00  0.00    +0.093 C 
ATOM      8  C   UNL     1      -2.276  -1.011   0.098  0.00  0.00    +0.007 C 
ATOM      9  C   UNL     1      -1.565  -1.569   1.087  0.00  0.00    +0.056 C 
ATOM     10  C   UNL     1      -0.280  -1.519   3.212  0.00  0.00    +0.112 C 
ENDROOT
BRANCH   3  12
ATOM     11  O   UNL     1       2.384   1.570  -1.177  0.00  0.00    -0.273 OA
ATOM     12  N   UNL     1       0.932   0.730   0.430  0.00  0.00    -0.295 N 
ATOM     13  C   UNL     1       2.154   0.827  -0.227  0.00  0.00    +0.249 C 
ATOM     14  H   UNL     1       0.852   0.100   1.183  0.00  0.00    +0.150 HD
BRANCH  13  15
ATOM     15  C   UNL     1       3.181  -0.100   0.376  0.00  0.00    +0.253 C 
BRANCH  15  16
ATOM     16  S   UNL     1       3.190  -1.685  -0.390  0.00  0.00    +0.047 S 
ATOM     17  O   UNL     1       1.928  -2.344  -0.095  0.00  0.00    -0.157 OA
ATOM     18  O   UNL     1       3.641  -1.528  -1.763  0.00  0.00    -0.157 OA
BRANCH  16  19
ATOM     19  N   UNL     1       4.426  -2.441   0.510  0.00  0.00    -0.207 NA
ATOM     20  H   UNL     1       4.554  -3.396   0.175  0.00  0.00    +0.144 HD
ATOM     21  H   UNL     1       4.166  -2.459   1.496  0.00  0.00    +0.144 HD
ENDBRANCH  16  19
ENDBRANCH  15  16
ENDBRANCH  13  15
ENDBRANCH   3  12
BRANCH   5  22
ATOM     22  O   UNL     1      -0.072   0.110  -1.961  0.00  0.00    -0.382 OA
ATOM     23  H   UNL     1       0.892   0.212  -1.993  0.00  0.00    +0.210 HD
ENDBRANCH   5  22
BRANCH   3  25
ATOM     24  O   UNL     1       1.071   3.277   1.092  0.00  0.00    -0.248 OA
ATOM     25  C   UNL     1       0.266   2.919   0.246  0.00  0.00    +0.332 C 
BRANCH  25  26
ATOM     26  O   UNL     1      -0.313   3.748  -0.657  0.00  0.00    -0.479 OA
ATOM     27  H   UNL     1      -0.924   3.409  -1.281  0.00  0.00    +0.295 HD
ENDBRANCH  25  26
ENDBRANCH   3  25
BRANCH   8  29
ATOM     28  O   UNL     1      -2.428  -3.007  -1.143  0.00  0.00    -0.209 OA
ATOM     29  C   UNL     1      -2.913  -1.912  -0.863  0.00  0.00    +0.251 C 
BRANCH  29  30
ATOM     30  N   UNL     1      -4.075  -1.409  -1.399  0.00  0.00    -0.300 NA
ATOM     31  H   UNL     1      -4.583  -1.937  -2.057  0.00  0.00    +0.121 HD
ATOM     32  H   UNL     1      -4.400  -0.521  -1.125  0.00  0.00    +0.121 HD
ENDBRANCH  29  30
ENDBRANCH   8  29
TORSDOF 9
