REMARK  Name = 11033245
REMARK  3 active torsions:
REMARK  status: ('A' for Active; 'I' for Inactive)
REMARK    1  A    between atoms: C_4  and  O_18
REMARK    2  A    between atoms: C_14  and  O_20
REMARK    3  A    between atoms: C_17  and  O_22
REMARK                            x       y       z     vdW  Elec       q    Type
REMARK                         _______ _______ _______ _____ _____    ______ ____
ROOT
ATOM      1  O   UNL     1      -2.057  -1.261   0.540  0.00  0.00    -0.452 OA
ATOM      2  O   UNL     1      -0.138   2.056   1.565  0.00  0.00    -0.291 OA
ATOM      3  O   UNL     1      -0.615  -2.633  -0.628  0.00  0.00    -0.250 OA
ATOM      4  C   UNL     1      -2.534   1.410   0.041  0.00  0.00    +0.122 C 
ATOM      5  C   UNL     1      -3.472   0.354  -0.572  0.00  0.00    +0.073 C 
ATOM      6  C   UNL     1      -2.918  -1.080  -0.600  0.00  0.00    +0.171 C 
ATOM      7  C   UNL     1      -1.128   1.469  -0.576  0.00  0.00    +0.099 C 
ATOM      8  C   UNL     1      -0.063   1.435   0.510  0.00  0.00    +0.178 C 
ATOM      9  C   UNL     1       1.152   0.645   0.250  0.00  0.00    +0.065 C 
ATOM     10  C   UNL     1       1.270  -0.692   0.672  0.00  0.00    -0.002 C 
ATOM     11  C   UNL     1      -4.028  -2.122  -0.558  0.00  0.00    +0.047 C 
ATOM     12  C   UNL     1       0.144  -1.446   1.335  0.00  0.00    +0.136 C 
ATOM     13  C   UNL     1      -0.870  -1.891   0.311  0.00  0.00    +0.321 C 
ATOM     14  C   UNL     1       2.202   1.298  -0.405  0.00  0.00    +0.139 C 
ATOM     15  C   UNL     1       2.474  -1.361   0.405  0.00  0.00    +0.033 C 
ATOM     16  C   UNL     1       3.388   0.613  -0.654  0.00  0.00    +0.073 C 
ATOM     17  C   UNL     1       3.525  -0.714  -0.250  0.00  0.00    +0.136 C 
ENDROOT
BRANCH   4  18
ATOM     18  O   UNL     1      -3.136   2.699  -0.109  0.00  0.00    -0.384 OA
ATOM     19  H   UNL     1      -4.027   2.686   0.274  0.00  0.00    +0.210 HD
ENDBRANCH   4  18
BRANCH  14  20
ATOM     20  O   UNL     1       2.118   2.604  -0.782  0.00  0.00    -0.505 OA
ATOM     21  H   UNL     1       1.331   3.087  -0.625  0.00  0.00    +0.292 HD
ENDBRANCH  14  20
BRANCH  17  22
ATOM     22  O   UNL     1       4.685  -1.383  -0.496  0.00  0.00    -0.505 OA
ATOM     23  H   UNL     1       4.778  -2.275  -0.225  0.00  0.00    +0.292 HD
ENDBRANCH  17  22
TORSDOF 3
