REMARK  Name = 11036082
REMARK  6 active torsions:
REMARK  status: ('A' for Active; 'I' for Inactive)
REMARK    1  A    between atoms: C_4  and  C_23
REMARK    2  A    between atoms: C_10  and  C_15
REMARK    3  A    between atoms: C_11  and  O_28
REMARK    4  A    between atoms: C_14  and  O_30
REMARK    5  A    between atoms: C_20  and  O_21
REMARK    6  A    between atoms: C_23  and  O_26
REMARK                            x       y       z     vdW  Elec       q    Type
REMARK                         _______ _______ _______ _____ _____    ______ ____
ROOT
ATOM      1  O   UNL     1       4.020   0.022  -0.248  0.00  0.00    -0.477 OA
ATOM      2  O   UNL     1      -0.632   0.122  -0.038  0.00  0.00    -0.472 OA
ATOM      3  O   UNL     1      -0.889  -3.968   0.187  0.00  0.00    -0.288 OA
ATOM      4  C   UNL     1       3.516   1.338  -0.593  0.00  0.00    +0.195 C 
ATOM      5  C   UNL     1       2.037   1.423  -0.188  0.00  0.00    +0.078 C 
ATOM      6  C   UNL     1       1.715  -0.023  -0.152  0.00  0.00    +0.050 C 
ATOM      7  C   UNL     1       2.893  -0.755  -0.166  0.00  0.00    +0.141 C 
ATOM      8  C   UNL     1       0.488  -0.658  -0.061  0.00  0.00    +0.144 C 
ATOM      9  C   UNL     1       0.475  -2.054   0.034  0.00  0.00    +0.105 C 
ATOM     10  C   UNL     1      -1.831  -0.572  -0.417  0.00  0.00    +0.222 C 
ATOM     11  C   UNL     1      -2.019  -1.847   0.407  0.00  0.00    +0.217 C 
ATOM     12  C   UNL     1       2.901  -2.134  -0.081  0.00  0.00    +0.073 C 
ATOM     13  C   UNL     1      -0.819  -2.745   0.196  0.00  0.00    +0.209 C 
ATOM     14  C   UNL     1       1.674  -2.791   0.017  0.00  0.00    +0.142 C 
ENDROOT
BRANCH  10  15
ATOM     15  C   UNL     1      -2.986   0.393  -0.230  0.00  0.00    +0.020 C 
ATOM     16  C   UNL     1      -3.735   0.802  -1.332  0.00  0.00    +0.002 C 
ATOM     17  C   UNL     1      -3.295   0.868   1.043  0.00  0.00    +0.002 C 
ATOM     18  C   UNL     1      -4.797   1.690  -1.160  0.00  0.00    +0.036 C 
ATOM     19  C   UNL     1      -4.358   1.756   1.215  0.00  0.00    +0.036 C 
ATOM     20  C   UNL     1      -5.108   2.167   0.113  0.00  0.00    +0.134 C 
BRANCH  20  21
ATOM     21  O   UNL     1      -6.145   3.033   0.280  0.00  0.00    -0.506 OA
ATOM     22  H   UNL     1      -6.649   3.309  -0.460  0.00  0.00    +0.292 HD
ENDBRANCH  20  21
ENDBRANCH  10  15
BRANCH   4  23
ATOM     23  C   UNL     1       4.370   2.389   0.097  0.00  0.00    +0.125 C 
ATOM     24  C   UNL     1       5.845   2.223  -0.275  0.00  0.00    +0.033 C 
ATOM     25  C   UNL     1       3.893   3.803  -0.247  0.00  0.00    +0.033 C 
BRANCH  23  26
ATOM     26  O   UNL     1       4.267   2.213   1.513  0.00  0.00    -0.383 OA
ATOM     27  H   UNL     1       4.566   1.321   1.750  0.00  0.00    +0.210 HD
ENDBRANCH  23  26
ENDBRANCH   4  23
BRANCH  11  28
ATOM     28  O   UNL     1      -3.174  -2.543  -0.026  0.00  0.00    -0.374 OA
ATOM     29  H   UNL     1      -3.956  -1.983   0.102  0.00  0.00    +0.211 HD
ENDBRANCH  11  28
BRANCH  14  30
ATOM     30  O   UNL     1       1.696  -4.151   0.113  0.00  0.00    -0.505 OA
ATOM     31  H   UNL     1       0.893  -4.629   0.180  0.00  0.00    +0.292 HD
ENDBRANCH  14  30
TORSDOF 6
