11036174
  -OEChem-03292013303D

 45 46  0     1  0  0  0  0  0999 V2000
    3.1899   -1.6846   -0.3898 S   0  0  0  0  0  0  0  0  0  0  0  0
   -0.0723    0.1099   -1.9606 O   0  0  0  0  0  0  0  0  0  0  0  0
   -0.3128    3.7485   -0.6566 O   0  0  0  0  0  0  0  0  0  0  0  0
    1.0710    3.2768    1.0923 O   0  0  0  0  0  0  0  0  0  0  0  0
   -2.4284   -3.0069   -1.1426 O   0  0  0  0  0  0  0  0  0  0  0  0
    2.3835    1.5700   -1.1765 O   0  0  0  0  0  0  0  0  0  0  0  0
    1.9276   -2.3435   -0.0949 O   0  0  0  0  0  0  0  0  0  0  0  0
    3.6413   -1.5279   -1.7632 O   0  0  0  0  0  0  0  0  0  0  0  0
    0.9320    0.7295    0.4304 N   0  0  0  0  0  0  0  0  0  0  0  0
   -0.9673   -0.8585    2.1129 N   0  0  3  0  0  0  0  0  0  0  0  0
   -4.0754   -1.4090   -1.3991 N   0  0  0  0  0  0  0  0  0  0  0  0
    4.4259   -2.4411    0.5100 N   0  0  0  0  0  0  0  0  0  0  0  0
   -1.4928    1.2589    0.9263 C   0  0  1  0  0  0  0  0  0  0  0  0
   -0.2232    1.5084    0.0603 C   0  0  2  0  0  0  0  0  0  0  0  0
   -2.4708    0.4813    0.0074 C   0  0  1  0  0  0  0  0  0  0  0  0
   -0.6563    1.2843   -1.4050 C   0  0  2  0  0  0  0  0  0  0  0  0
   -2.1720    1.1012   -1.3639 C   0  0  0  0  0  0  0  0  0  0  0  0
   -1.2650    0.5686    2.2826 C   0  0  0  0  0  0  0  0  0  0  0  0
   -2.2765   -1.0108    0.0984 C   0  0  0  0  0  0  0  0  0  0  0  0
    0.2656    2.9188    0.2459 C   0  0  0  0  0  0  0  0  0  0  0  0
   -1.5655   -1.5694    1.0874 C   0  0  0  0  0  0  0  0  0  0  0  0
   -2.9130   -1.9122   -0.8631 C   0  0  0  0  0  0  0  0  0  0  0  0
    2.1535    0.8266   -0.2267 C   0  0  0  0  0  0  0  0  0  0  0  0
   -0.2801   -1.5194    3.2123 C   0  0  0  0  0  0  0  0  0  0  0  0
    3.1808   -0.0995    0.3758 C   0  0  0  0  0  0  0  0  0  0  0  0
   -1.9554    2.2342    1.1409 H   0  0  0  0  0  0  0  0  0  0  0  0
   -3.5000    0.7134    0.3096 H   0  0  0  0  0  0  0  0  0  0  0  0
   -0.4086    2.0833   -2.1100 H   0  0  0  0  0  0  0  0  0  0  0  0
   -2.5334    0.5094   -2.2088 H   0  0  0  0  0  0  0  0  0  0  0  0
   -2.6556    2.0851   -1.4147 H   0  0  0  0  0  0  0  0  0  0  0  0
   -0.4644    1.0782    2.8321 H   0  0  0  0  0  0  0  0  0  0  0  0
   -2.1750    0.6587    2.8893 H   0  0  0  0  0  0  0  0  0  0  0  0
    0.8349    0.0226    1.1514 H   0  0  0  0  0  0  0  0  0  0  0  0
   -1.4198   -2.6408    1.1741 H   0  0  0  0  0  0  0  0  0  0  0  0
    0.8206    0.3398   -2.2669 H   0  0  0  0  0  0  0  0  0  0  0  0
    0.4703   -0.8605    3.6618 H   0  0  0  0  0  0  0  0  0  0  0  0
    0.2428   -2.4184    2.8679 H   0  0  0  0  0  0  0  0  0  0  0  0
   -0.9974   -1.8083    3.9872 H   0  0  0  0  0  0  0  0  0  0  0  0
   -0.0075    4.6747   -0.5510 H   0  0  0  0  0  0  0  0  0  0  0  0
    4.1701    0.3499    0.2453 H   0  0  0  0  0  0  0  0  0  0  0  0
    2.9973   -0.2352    1.4463 H   0  0  0  0  0  0  0  0  0  0  0  0
   -4.5967   -1.9489   -2.0825 H   0  0  0  0  0  0  0  0  0  0  0  0
   -4.4859   -0.5190   -1.1390 H   0  0  0  0  0  0  0  0  0  0  0  0
    5.3920   -2.1290    0.3523 H   0  0  0  0  0  0  0  0  0  0  0  0
    4.2246   -2.6857    1.4874 H   0  0  0  0  0  0  0  0  0  0  0  0
  1  7  2  0  0  0  0
  1  8  2  0  0  0  0
  1 12  1  0  0  0  0
  1 25  1  0  0  0  0
  2 16  1  0  0  0  0
  2 35  1  0  0  0  0
  3 20  1  0  0  0  0
  3 39  1  0  0  0  0
  4 20  2  0  0  0  0
  5 22  2  0  0  0  0
  6 23  2  0  0  0  0
  9 14  1  0  0  0  0
  9 23  1  0  0  0  0
  9 33  1  0  0  0  0
 10 18  1  0  0  0  0
 10 21  1  0  0  0  0
 10 24  1  0  0  0  0
 11 22  1  0  0  0  0
 11 42  1  0  0  0  0
 11 43  1  0  0  0  0
 12 44  1  0  0  0  0
 12 45  1  0  0  0  0
 13 14  1  0  0  0  0
 13 15  1  0  0  0  0
 13 18  1  0  0  0  0
 13 26  1  0  0  0  0
 14 16  1  0  0  0  0
 14 20  1  0  0  0  0
 15 17  1  0  0  0  0
 15 19  1  0  0  0  0
 15 27  1  0  0  0  0
 16 17  1  0  0  0  0
 16 28  1  0  0  0  0
 17 29  1  0  0  0  0
 17 30  1  0  0  0  0
 18 31  1  0  0  0  0
 18 32  1  0  0  0  0
 19 21  2  0  0  0  0
 19 22  1  0  0  0  0
 21 34  1  0  0  0  0
 23 25  1  0  0  0  0
 24 36  1  0  0  0  0
 24 37  1  0  0  0  0
 24 38  1  0  0  0  0
 25 40  1  0  0  0  0
 25 41  1  0  0  0  0
M  END
> <PUBCHEM_COMPOUND_CID>
11036174

> <PUBCHEM_CONFORMER_RMSD>
0.8

> <PUBCHEM_CONFORMER_DIVERSEORDER>
1
8
60
68
34
44
30
26
59
38
71
76
37
14
32
63
73
6
25
12
54
45
29
58
31
39
48
43
42
5
64
69
50
3
7
51
28
40
65
23
11
21
19
10
62
53
52
18
41
20
27
4
9
47
67
55
13
66
46
2
16
57
15
74
24
17
22
49
35
70
33
36
61
75
56
72

> <PUBCHEM_MMFF94_PARTIAL_CHARGES>
31
1 1.33
10 -0.84
11 -0.8
12 -0.98
14 0.36
15 0.14
16 0.28
18 0.37
19 -0.12
2 -0.68
20 0.66
21 -0.05
22 0.62
23 0.57
24 0.37
25 0.17
3 -0.65
33 0.37
34 0.15
35 0.4
39 0.5
4 -0.57
42 0.37
43 0.37
44 0.42
45 0.42
5 -0.57
6 -0.57
7 -0.65
8 -0.65
9 -0.73

> <PUBCHEM_EFFECTIVE_ROTOR_COUNT>
7

> <PUBCHEM_PHARMACOPHORE_FEATURES>
15
1 10 cation
1 11 donor
1 12 donor
1 2 acceptor
1 2 donor
1 3 acceptor
1 4 acceptor
1 5 acceptor
1 6 acceptor
1 7 acceptor
1 8 acceptor
1 9 donor
3 3 4 20 anion
5 13 14 15 16 17 rings
6 10 13 15 18 19 21 rings

> <PUBCHEM_HEAVY_ATOM_COUNT>
25

> <PUBCHEM_ATOM_DEF_STEREO_COUNT>
4

> <PUBCHEM_ATOM_UDEF_STEREO_COUNT>
0

> <PUBCHEM_BOND_DEF_STEREO_COUNT>
0

> <PUBCHEM_BOND_UDEF_STEREO_COUNT>
0

> <PUBCHEM_ISOTOPIC_ATOM_COUNT>
0

> <PUBCHEM_COMPONENT_COUNT>
1

> <PUBCHEM_CACTVS_TAUTO_COUNT>
4

> <PUBCHEM_CONFORMER_ID>
00A8660E00000001

> <PUBCHEM_MMFF94_ENERGY>
65.0013

> <PUBCHEM_FEATURE_SELFOVERLAP>
76.418

> <PUBCHEM_SHAPE_FINGERPRINT>
107951 10 16672509757080182122
10863032 1 17769089391393348941
10906281 52 17971190567259693057
11370993 70 17260453190279982503
11578080 2 16843282832236753241
12539773 59 17608646107373256786
12553582 1 18339374074755468982
12596599 1 17845953835398729878
12788726 201 18121795941036342632
13004483 165 18343010078130863703
14817 1 14172070270740023435
15852999 172 17321814705243818225
16945 1 18266737081392953329
17093844 170 15028642665450118759
17921350 177 13081074450705665830
20775530 9 18200589340548059550
21421861 104 17698753576793844595
21731516 1 18199208323719467476
23419403 2 17394677000117574212
23526113 38 17968371372459059889
23559900 14 18123173865028492901
23728640 28 17835801898341293618
238 59 17902795493893004414
2748010 2 17033892230770558489
3797600 57 16626033829790972726
394222 165 17054997296510471097
513532 50 17541608037804312375
81228 2 18261681363551416456

> <PUBCHEM_SHAPE_MULTIPOLES>
457.33
5.45
3.63
2.19
4.05
1.57
1.3
-4.75
-2.24
0.34
-0.18
-0.77
-0.83
-0.22

> <PUBCHEM_SHAPE_SELFOVERLAP>
954.834

> <PUBCHEM_SHAPE_VOLUME>
259.8

> <PUBCHEM_COORDINATE_TYPE>
2
5
10

$$$$
