11035325
  -OEChem-03292013303D

 45 47  0     1  0  0  0  0  0999 V2000
    3.6692    0.1603   -1.4169 O   0  0  0  0  0  0  0  0  0  0  0  0
    4.2615   -1.1306    1.0253 O   0  0  0  0  0  0  0  0  0  0  0  0
    3.5441    1.6475    0.9373 O   0  0  0  0  0  0  0  0  0  0  0  0
    1.8926    2.4067   -1.6061 O   0  0  0  0  0  0  0  0  0  0  0  0
   -2.8964   -2.4150   -1.5015 O   0  0  0  0  0  0  0  0  0  0  0  0
   -4.1695   -0.7291    0.9776 O   0  0  0  0  0  0  0  0  0  0  0  0
    2.6293   -0.1451   -0.4734 C   0  0  1  0  0  0  0  0  0  0  0  0
    3.0877   -1.4311    0.2641 C   0  0  2  0  0  0  0  0  0  0  0  0
    2.3538    1.1103    0.3888 C   0  0  2  0  0  0  0  0  0  0  0  0
    2.0773   -2.1257    1.2045 C   0  0  0  0  0  0  0  0  0  0  0  0
    0.7117   -2.3445    0.6112 C   0  0  0  0  0  0  0  0  0  0  0  0
    0.7388    3.1901    0.3511 C   0  0  0  0  0  0  0  0  0  0  0  0
    1.6709    2.2391   -0.4051 C   0  0  0  0  0  0  0  0  0  0  0  0
   -0.5958    3.4793   -0.3803 C   0  0  0  0  0  0  0  0  0  0  0  0
   -1.6380    2.4042   -0.1633 C   0  0  0  0  0  0  0  0  0  0  0  0
   -1.4308   -1.2992    0.0386 C   0  0  0  0  0  0  0  0  0  0  0  0
   -0.2416   -1.3459    0.7899 C   0  0  0  0  0  0  0  0  0  0  0  0
   -2.1048    0.0012   -0.0060 C   0  0  0  0  0  0  0  0  0  0  0  0
   -1.3176    1.0811   -0.4490 C   0  0  0  0  0  0  0  0  0  0  0  0
    0.3847   -3.4268   -0.2038 C   0  0  0  0  0  0  0  0  0  0  0  0
   -1.7570   -2.3947   -0.7563 C   0  0  0  0  0  0  0  0  0  0  0  0
   -2.8953    2.6616    0.3855 C   0  0  0  0  0  0  0  0  0  0  0  0
   -0.8585   -3.4663   -0.8536 C   0  0  0  0  0  0  0  0  0  0  0  0
   -3.3567    0.2707    0.5382 C   0  0  0  0  0  0  0  0  0  0  0  0
   -3.7597    1.6019    0.7032 C   0  0  0  0  0  0  0  0  0  0  0  0
    1.7437   -0.3822   -1.0722 H   0  0  0  0  0  0  0  0  0  0  0  0
    3.3961   -2.1620   -0.4953 H   0  0  0  0  0  0  0  0  0  0  0  0
    1.6982    0.8447    1.2197 H   0  0  0  0  0  0  0  0  0  0  0  0
    1.9920   -1.5531    2.1382 H   0  0  0  0  0  0  0  0  0  0  0  0
    2.4919   -3.0916    1.5231 H   0  0  0  0  0  0  0  0  0  0  0  0
    0.5473    2.7991    1.3563 H   0  0  0  0  0  0  0  0  0  0  0  0
    1.2974    4.1264    0.4690 H   0  0  0  0  0  0  0  0  0  0  0  0
   -0.4376    3.6059   -1.4577 H   0  0  0  0  0  0  0  0  0  0  0  0
   -0.9884    4.4317   -0.0030 H   0  0  0  0  0  0  0  0  0  0  0  0
    0.0026   -0.5058    1.4389 H   0  0  0  0  0  0  0  0  0  0  0  0
   -0.3675    0.8614   -0.9284 H   0  0  0  0  0  0  0  0  0  0  0  0
    1.0968   -4.2320   -0.3627 H   0  0  0  0  0  0  0  0  0  0  0  0
    3.3587    0.8965   -1.9705 H   0  0  0  0  0  0  0  0  0  0  0  0
    4.9059   -0.7265    0.4194 H   0  0  0  0  0  0  0  0  0  0  0  0
   -3.2057    3.6807    0.6003 H   0  0  0  0  0  0  0  0  0  0  0  0
    4.1704    1.7878    0.2067 H   0  0  0  0  0  0  0  0  0  0  0  0
   -1.0887   -4.3195   -1.4878 H   0  0  0  0  0  0  0  0  0  0  0  0
   -4.7298    1.8244    1.1415 H   0  0  0  0  0  0  0  0  0  0  0  0
   -2.9368   -3.2505   -1.9976 H   0  0  0  0  0  0  0  0  0  0  0  0
   -3.7657   -1.5936    0.7998 H   0  0  0  0  0  0  0  0  0  0  0  0
  1  7  1  0  0  0  0
  1 38  1  0  0  0  0
  2  8  1  0  0  0  0
  2 39  1  0  0  0  0
  3  9  1  0  0  0  0
  3 41  1  0  0  0  0
  4 13  2  0  0  0  0
  5 21  1  0  0  0  0
  5 44  1  0  0  0  0
  6 24  1  0  0  0  0
  6 45  1  0  0  0  0
  7  8  1  0  0  0  0
  7  9  1  0  0  0  0
  7 26  1  0  0  0  0
  8 10  1  0  0  0  0
  8 27  1  0  0  0  0
  9 13  1  0  0  0  0
  9 28  1  0  0  0  0
 10 11  1  0  0  0  0
 10 29  1  0  0  0  0
 10 30  1  0  0  0  0
 11 17  2  0  0  0  0
 11 20  1  0  0  0  0
 12 13  1  0  0  0  0
 12 14  1  0  0  0  0
 12 31  1  0  0  0  0
 12 32  1  0  0  0  0
 14 15  1  0  0  0  0
 14 33  1  0  0  0  0
 14 34  1  0  0  0  0
 15 19  2  0  0  0  0
 15 22  1  0  0  0  0
 16 17  1  0  0  0  0
 16 18  1  0  0  0  0
 16 21  2  0  0  0  0
 17 35  1  0  0  0  0
 18 19  1  0  0  0  0
 18 24  2  0  0  0  0
 19 36  1  0  0  0  0
 20 23  2  0  0  0  0
 20 37  1  0  0  0  0
 21 23  1  0  0  0  0
 22 25  2  0  0  0  0
 22 40  1  0  0  0  0
 23 42  1  0  0  0  0
 24 25  1  0  0  0  0
 25 43  1  0  0  0  0
M  END
> <PUBCHEM_COMPOUND_CID>
11035325

> <PUBCHEM_CONFORMER_RMSD>
0.6

> <PUBCHEM_CONFORMER_DIVERSEORDER>
1
9
8
3
13
7
12
4
2
10
6
11
5
14

> <PUBCHEM_MMFF94_PARTIAL_CHARGES>
34
1 -0.68
10 0.14
11 -0.14
12 0.06
13 0.45
14 0.14
15 -0.14
17 -0.15
19 -0.15
2 -0.68
20 -0.15
21 0.08
22 -0.15
23 -0.15
24 0.08
25 -0.15
3 -0.68
35 0.15
36 0.15
37 0.15
38 0.4
39 0.4
4 -0.57
40 0.15
41 0.4
42 0.15
43 0.15
44 0.45
45 0.45
5 -0.53
6 -0.53
7 0.28
8 0.28
9 0.34

> <PUBCHEM_EFFECTIVE_ROTOR_COUNT>
1.2

> <PUBCHEM_PHARMACOPHORE_FEATURES>
11
1 1 acceptor
1 1 donor
1 2 acceptor
1 2 donor
1 3 acceptor
1 3 donor
1 4 acceptor
1 5 donor
1 6 donor
6 11 16 17 20 21 23 rings
6 15 18 19 22 24 25 rings

> <PUBCHEM_HEAVY_ATOM_COUNT>
25

> <PUBCHEM_ATOM_DEF_STEREO_COUNT>
3

> <PUBCHEM_ATOM_UDEF_STEREO_COUNT>
0

> <PUBCHEM_BOND_DEF_STEREO_COUNT>
0

> <PUBCHEM_BOND_UDEF_STEREO_COUNT>
0

> <PUBCHEM_ISOTOPIC_ATOM_COUNT>
0

> <PUBCHEM_COMPONENT_COUNT>
1

> <PUBCHEM_CACTVS_TAUTO_COUNT>
8

> <PUBCHEM_CONFORMER_ID>
00A862BD00000001

> <PUBCHEM_MMFF94_ENERGY>
86.8579

> <PUBCHEM_FEATURE_SELFOVERLAP>
55.845

> <PUBCHEM_SHAPE_FINGERPRINT>
10616163 171 18047760299425029160
10675989 125 17618205648692465781
10721379 63 15898361731978144519
10967382 1 18337674216851950865
1100329 8 17906731758795909939
11513181 2 17625531290160852647
12035759 4 18270098198508554511
12156800 1 12740502811339401904
12422481 6 17470431942748856762
12539773 59 17486507163365691459
12553582 1 17618232040506909029
12788726 201 17763474211053546093
13122387 1 18266178318536669489
13140716 1 18410012139057444257
13402501 40 16249404363780775271
13965767 371 17908114630574724130
14081887 123 18199169858515091552
14178342 30 17837204140554844721
1420 336 18122066669529696264
14223421 5 17545039299397238961
14765038 42 18199490855712496160
14790565 3 18267040396052283884
15403338 16 16736912598541861619
15685185 35 17097242591815249094
192875 21 17618765291046113666
19591789 44 18339648836592729467
19930381 70 18410575072152710555
20905425 154 17834403310676049916
22113638 7 18337384946493949252
2334 1 18193559093247927709
23559900 14 17331112798665577755
2748010 2 17618499879025680455
484985 159 16243974241398379288
6287921 2 17407402429727046089
6438718 38 18060129968588600726
7832392 63 18411982481301316442
9925002 15 18199167654959439583

> <PUBCHEM_SHAPE_MULTIPOLES>
479.27
6.28
4.94
1.14
0.53
0.22
0.17
-1.02
-1.42
-0.44
1.06
0.31
0.19
-0.89

> <PUBCHEM_SHAPE_SELFOVERLAP>
1034.123

> <PUBCHEM_SHAPE_VOLUME>
261.7

> <PUBCHEM_COORDINATE_TYPE>
2
5
10

$$$$
