11037060
  -OEChem-03292013303D

 50 54  0     0  0  0  0  0  0999 V2000
    2.3917   -3.9271   -0.5367 O   0  0  0  0  0  0  0  0  0  0  0  0
   -2.5468   -3.8276   -0.5364 O   0  0  0  0  0  0  0  0  0  0  0  0
    3.4603   -1.9899    0.0990 O   0  0  0  0  0  0  0  0  0  0  0  0
   -3.5364   -1.8498    0.1022 O   0  0  0  0  0  0  0  0  0  0  0  0
   -0.0561   -2.8179   -0.1910 N   0  0  0  0  0  0  0  0  0  0  0  0
    2.8136    1.6921    1.9808 N   0  0  0  0  0  0  0  0  0  0  0  0
   -2.7417    1.7996    1.9819 N   0  0  0  0  0  0  0  0  0  0  0  0
    0.6942   -0.8286    0.4604 C   0  0  0  0  0  0  0  0  0  0  0  0
   -0.7241   -0.8026    0.4602 C   0  0  0  0  0  0  0  0  0  0  0  0
    1.5556    0.2752    0.8245 C   0  0  0  0  0  0  0  0  0  0  0  0
   -1.5420    0.3372    0.8258 C   0  0  0  0  0  0  0  0  0  0  0  0
    1.0785   -2.0888    0.0524 C   0  0  0  0  0  0  0  0  0  0  0  0
   -1.1604   -2.0441    0.0537 C   0  0  0  0  0  0  0  0  0  0  0  0
    2.0516    1.2631   -0.0715 C   0  0  0  0  0  0  0  0  0  0  0  0
   -1.9990    1.3405   -0.0711 C   0  0  0  0  0  0  0  0  0  0  0  0
    2.8378    2.1397    0.6791 C   0  0  0  0  0  0  0  0  0  0  0  0
   -2.7503    2.2471    0.6800 C   0  0  0  0  0  0  0  0  0  0  0  0
    2.0413    0.5658    2.0786 C   0  0  0  0  0  0  0  0  0  0  0  0
   -2.0130    0.6447    2.0795 C   0  0  0  0  0  0  0  0  0  0  0  0
    1.9066    1.4962   -1.4536 C   0  0  0  0  0  0  0  0  0  0  0  0
   -1.8468    1.5672   -1.4534 C   0  0  0  0  0  0  0  0  0  0  0  0
    2.3977   -2.6172   -0.1116 C   0  0  0  0  0  0  0  0  0  0  0  0
   -2.5000   -2.5192   -0.1092 C   0  0  0  0  0  0  0  0  0  0  0  0
    3.4891    3.2423    0.1147 C   0  0  0  0  0  0  0  0  0  0  0  0
   -3.3592    3.3735    0.1155 C   0  0  0  0  0  0  0  0  0  0  0  0
    2.5522    2.5952   -2.0320 C   0  0  0  0  0  0  0  0  0  0  0  0
   -2.4503    2.6898   -2.0318 C   0  0  0  0  0  0  0  0  0  0  0  0
    3.3307    3.4535   -1.2580 C   0  0  0  0  0  0  0  0  0  0  0  0
   -3.1945    3.5777   -1.2574 C   0  0  0  0  0  0  0  0  0  0  0  0
    3.6552   -4.5697   -0.7368 C   0  0  0  0  0  0  0  0  0  0  0  0
   -3.8352   -4.4182   -0.7379 C   0  0  0  0  0  0  0  0  0  0  0  0
   -0.0755   -3.7793   -0.5037 H   0  0  0  0  0  0  0  0  0  0  0  0
    1.9082    0.0751    3.0330 H   0  0  0  0  0  0  0  0  0  0  0  0
   -1.8978    0.1492    3.0338 H   0  0  0  0  0  0  0  0  0  0  0  0
    3.2962    2.1320    2.7522 H   0  0  0  0  0  0  0  0  0  0  0  0
   -3.2064    2.2581    2.7534 H   0  0  0  0  0  0  0  0  0  0  0  0
    1.3092    0.8345   -2.0739 H   0  0  0  0  0  0  0  0  0  0  0  0
   -1.2758    0.8827   -2.0740 H   0  0  0  0  0  0  0  0  0  0  0  0
    4.0954    3.9110    0.7164 H   0  0  0  0  0  0  0  0  0  0  0  0
   -3.9388    4.0654    0.7174 H   0  0  0  0  0  0  0  0  0  0  0  0
    2.4449    2.7792   -3.0977 H   0  0  0  0  0  0  0  0  0  0  0  0
   -2.3372    2.8689   -3.0977 H   0  0  0  0  0  0  0  0  0  0  0  0
    3.8234    4.3009   -1.7280 H   0  0  0  0  0  0  0  0  0  0  0  0
   -3.6549    4.4431   -1.7274 H   0  0  0  0  0  0  0  0  0  0  0  0
    4.2141   -4.6003    0.2031 H   0  0  0  0  0  0  0  0  0  0  0  0
    4.2257   -4.0445   -1.5084 H   0  0  0  0  0  0  0  0  0  0  0  0
    3.4682   -5.5936   -1.0705 H   0  0  0  0  0  0  0  0  0  0  0  0
   -4.3952   -4.4278    0.2017 H   0  0  0  0  0  0  0  0  0  0  0  0
   -3.6896   -5.4483   -1.0733 H   0  0  0  0  0  0  0  0  0  0  0  0
   -4.3837   -3.8692   -1.5088 H   0  0  0  0  0  0  0  0  0  0  0  0
  1 22  1  0  0  0  0
  1 30  1  0  0  0  0
  2 23  1  0  0  0  0
  2 31  1  0  0  0  0
  3 22  2  0  0  0  0
  4 23  2  0  0  0  0
  5 12  1  0  0  0  0
  5 13  1  0  0  0  0
  5 32  1  0  0  0  0
  6 16  1  0  0  0  0
  6 18  1  0  0  0  0
  6 35  1  0  0  0  0
  7 17  1  0  0  0  0
  7 19  1  0  0  0  0
  7 36  1  0  0  0  0
  8  9  1  0  0  0  0
  8 10  1  0  0  0  0
  8 12  2  0  0  0  0
  9 11  1  0  0  0  0
  9 13  2  0  0  0  0
 10 14  1  0  0  0  0
 10 18  2  0  0  0  0
 11 15  1  0  0  0  0
 11 19  2  0  0  0  0
 12 22  1  0  0  0  0
 13 23  1  0  0  0  0
 14 16  1  0  0  0  0
 14 20  2  0  0  0  0
 15 17  1  0  0  0  0
 15 21  2  0  0  0  0
 16 24  2  0  0  0  0
 17 25  2  0  0  0  0
 18 33  1  0  0  0  0
 19 34  1  0  0  0  0
 20 26  1  0  0  0  0
 20 37  1  0  0  0  0
 21 27  1  0  0  0  0
 21 38  1  0  0  0  0
 24 28  1  0  0  0  0
 24 39  1  0  0  0  0
 25 29  1  0  0  0  0
 25 40  1  0  0  0  0
 26 28  2  0  0  0  0
 26 41  1  0  0  0  0
 27 29  2  0  0  0  0
 27 42  1  0  0  0  0
 28 43  1  0  0  0  0
 29 44  1  0  0  0  0
 30 45  1  0  0  0  0
 30 46  1  0  0  0  0
 30 47  1  0  0  0  0
 31 48  1  0  0  0  0
 31 49  1  0  0  0  0
 31 50  1  0  0  0  0
M  END
> <PUBCHEM_COMPOUND_CID>
11037060

> <PUBCHEM_CONFORMER_RMSD>
0.8

> <PUBCHEM_CONFORMER_DIVERSEORDER>
1
5
10
6
9
7
8
2
3
4

> <PUBCHEM_MMFF94_PARTIAL_CHARGES>
38
1 -0.43
12 -0.24
13 -0.24
16 -0.15
17 -0.15
18 -0.3
19 -0.3
2 -0.43
20 -0.15
21 -0.15
22 0.81
23 0.81
24 -0.15
25 -0.15
26 -0.15
27 -0.15
28 -0.15
29 -0.15
3 -0.57
30 0.28
31 0.28
32 0.27
33 0.15
34 0.15
35 0.27
36 0.27
37 0.15
38 0.15
39 0.15
4 -0.57
40 0.15
41 0.15
42 0.15
43 0.15
44 0.15
5 0.03
6 0.03
7 0.03

> <PUBCHEM_EFFECTIVE_ROTOR_COUNT>
6

> <PUBCHEM_PHARMACOPHORE_FEATURES>
13
1 3 acceptor
1 4 acceptor
1 5 cation
1 5 donor
1 6 cation
1 6 donor
1 7 cation
1 7 donor
5 5 8 9 12 13 rings
5 6 10 14 16 18 rings
5 7 11 15 17 19 rings
6 14 16 20 24 26 28 rings
6 15 17 21 25 27 29 rings

> <PUBCHEM_HEAVY_ATOM_COUNT>
31

> <PUBCHEM_ATOM_DEF_STEREO_COUNT>
0

> <PUBCHEM_ATOM_UDEF_STEREO_COUNT>
0

> <PUBCHEM_BOND_DEF_STEREO_COUNT>
0

> <PUBCHEM_BOND_UDEF_STEREO_COUNT>
0

> <PUBCHEM_ISOTOPIC_ATOM_COUNT>
0

> <PUBCHEM_COMPONENT_COUNT>
1

> <PUBCHEM_CACTVS_TAUTO_COUNT>
4

> <PUBCHEM_CONFORMER_ID>
00A8698400000001

> <PUBCHEM_MMFF94_ENERGY>
63.3085

> <PUBCHEM_FEATURE_SELFOVERLAP>
66.156

> <PUBCHEM_SHAPE_FINGERPRINT>
10165383 225 18051450406382262360
10190108 129 17762379020110539059
10871710 139 17900273197171503109
10930396 42 17190915664346379912
11445158 3 17835279699122304561
11582403 64 16158730058559226813
12156800 1 16021058278883746733
12788726 201 17973713976609975609
13004483 165 17542481169847768864
13149001 5 18197780990139123223
13911987 19 17690013236098515238
14537116 161 15809696508550125357
14790565 3 17691416621584632649
14955137 171 17764051085159046659
15131766 46 13509065198143748703
15210252 30 17615971449000430279
15297060 5 18053402159859367753
15439362 3 18195798584102931552
1601671 61 17979069711166771107
20715895 44 17753574006830971717
20775438 99 17979877684656384231
22149856 69 18269273466684807545
23558518 356 18334849528509708603
238 59 18045486531228379453
283562 15 17982743157464847393
3493558 16 17535425449102666591
350125 39 18411707581676787163
35225 105 18127681832447777636
469060 322 18048884288456359041
5252454 2 18267612193395573120
57527358 35 15796460956698407286
6287921 2 18335983090759513405
70251023 43 18411141342122341547
9981440 41 16909126016402569227

> <PUBCHEM_SHAPE_MULTIPOLES>
599.55
6.87
6.77
1.78
0.03
5.39
-0.28
-0.67
0.88
-0.11
3.07
0.03
-1.52
-0.04

> <PUBCHEM_SHAPE_SELFOVERLAP>
1356.789

> <PUBCHEM_SHAPE_VOLUME>
317.8

> <PUBCHEM_COORDINATE_TYPE>
2
5
10

$$$$
