REMARK  Name = 11035822
REMARK  2 active torsions:
REMARK  status: ('A' for Active; 'I' for Inactive)
REMARK    1  A    between atoms: C_12  and  O_25
REMARK    2  A    between atoms: C_18  and  O_27
REMARK                            x       y       z     vdW  Elec       q    Type
REMARK                         _______ _______ _______ _____ _____    ______ ____
ROOT
ATOM      1  O   UNL     1      -2.644  -0.368   1.829  0.00  0.00    -0.354 OA
ATOM      2  O   UNL     1      -2.654  -1.030  -1.695  0.00  0.00    -0.447 OA
ATOM      3  O   UNL     1      -1.072   3.190   0.080  0.00  0.00    -0.296 OA
ATOM      4  O   UNL     1      -2.485   1.060  -2.649  0.00  0.00    -0.250 OA
ATOM      5  O   UNL     1       4.409  -2.115  -0.517  0.00  0.00    -0.289 OA
ATOM      6  C   UNL     1      -1.100   0.802   0.435  0.00  0.00    +0.094 C 
ATOM      7  C   UNL     1      -0.216  -0.355  -0.149  0.00  0.00    +0.043 C 
ATOM      8  C   UNL     1      -2.498   0.794  -0.226  0.00  0.00    +0.136 C 
ATOM      9  C   UNL     1      -3.117  -0.393   0.486  0.00  0.00    +0.142 C 
ATOM     10  C   UNL     1       1.316  -0.301   0.254  0.00  0.00    +0.039 C 
ATOM     11  C   UNL     1      -2.497  -1.516  -0.348  0.00  0.00    +0.220 C 
ATOM     12  C   UNL     1      -0.984  -1.716  -0.085  0.00  0.00    +0.153 C 
ATOM     13  C   UNL     1      -1.544   0.556   1.885  0.00  0.00    +0.150 C 
ATOM     14  C   UNL     1       1.828   1.124  -0.192  0.00  0.00    +0.028 C 
ATOM     15  C   UNL     1      -0.427   2.162   0.295  0.00  0.00    +0.153 C 
ATOM     16  C   UNL     1       1.066   2.245   0.537  0.00  0.00    +0.069 C 
ATOM     17  C   UNL     1      -2.550   0.341  -1.665  0.00  0.00    +0.319 C 
ATOM     18  C   UNL     1       2.119  -1.352  -0.567  0.00  0.00    +0.172 C 
ATOM     19  C   UNL     1      -4.640  -0.404   0.479  0.00  0.00    +0.034 C 
ATOM     20  C   UNL     1       1.581  -0.535   1.764  0.00  0.00    +0.003 C 
ATOM     21  C   UNL     1       3.346   1.258  -0.141  0.00  0.00    -0.041 C 
ATOM     22  C   UNL     1       3.624  -1.170  -0.443  0.00  0.00    +0.199 C 
ATOM     23  C   UNL     1       4.161   0.198  -0.258  0.00  0.00    +0.031 C 
ATOM     24  C   UNL     1       3.945   2.635  -0.033  0.00  0.00    +0.026 C 
ENDROOT
BRANCH  12  25
ATOM     25  O   UNL     1      -0.796  -2.420   1.131  0.00  0.00    -0.381 OA
ATOM     26  H   UNL     1       0.153  -2.542   1.291  0.00  0.00    +0.210 HD
ENDBRANCH  12  25
BRANCH  18  27
ATOM     27  O   UNL     1       1.829  -2.692  -0.207  0.00  0.00    -0.377 OA
ATOM     28  H   UNL     1       0.873  -2.846  -0.275  0.00  0.00    +0.211 HD
ENDBRANCH  18  27
TORSDOF 2
