REMARK  Name = 11037060
REMARK  6 active torsions:
REMARK  status: ('A' for Active; 'I' for Inactive)
REMARK    1  A    between atoms: C_2  and  C_8
REMARK    2  A    between atoms: C_3  and  C_18
REMARK    3  A    between atoms: C_4  and  C_28
REMARK    4  A    between atoms: C_5  and  C_32
REMARK    5  A    between atoms: C_28  and  O_29
REMARK    6  A    between atoms: C_32  and  O_33
REMARK                            x       y       z     vdW  Elec       q    Type
REMARK                         _______ _______ _______ _____ _____    ______ ____
ROOT
ATOM      1  N   UNL     1      -0.056  -2.818  -0.191  0.00  0.00    -0.343 N 
ATOM      2  C   UNL     1       0.694  -0.829   0.460  0.00  0.00    +0.025 A 
ATOM      3  C   UNL     1      -0.724  -0.803   0.460  0.00  0.00    +0.025 A 
ATOM      4  C   UNL     1       1.079  -2.089   0.052  0.00  0.00    +0.133 A 
ATOM      5  C   UNL     1      -1.160  -2.044   0.054  0.00  0.00    +0.133 A 
ATOM      6  H   UNL     1      -0.075  -3.754  -0.495  0.00  0.00    +0.166 HD
ENDROOT
BRANCH   2   8
ATOM      7  N   UNL     1       2.814   1.692   1.981  0.00  0.00    -0.312 N 
ATOM      8  C   UNL     1       1.556   0.275   0.825  0.00  0.00    +0.017 C 
ATOM      9  C   UNL     1       2.052   1.263  -0.071  0.00  0.00    +0.015 C 
ATOM     10  C   UNL     1       2.838   2.140   0.679  0.00  0.00    +0.048 C 
ATOM     11  C   UNL     1       2.041   0.566   2.079  0.00  0.00    +0.062 C 
ATOM     12  C   UNL     1       1.907   1.496  -1.454  0.00  0.00    +0.001 C 
ATOM     13  C   UNL     1       3.489   3.242   0.115  0.00  0.00    +0.015 C 
ATOM     14  C   UNL     1       2.552   2.595  -2.032  0.00  0.00    +0.000 C 
ATOM     15  C   UNL     1       3.331   3.454  -1.258  0.00  0.00    +0.001 C 
ATOM     16  H   UNL     1       3.284   2.120   2.733  0.00  0.00    +0.152 HD
ENDBRANCH   2   8
BRANCH   3  18
ATOM     17  N   UNL     1      -2.742   1.800   1.982  0.00  0.00    -0.312 N 
ATOM     18  C   UNL     1      -1.542   0.337   0.826  0.00  0.00    +0.017 C 
ATOM     19  C   UNL     1      -1.999   1.341  -0.071  0.00  0.00    +0.015 C 
ATOM     20  C   UNL     1      -2.750   2.247   0.680  0.00  0.00    +0.048 C 
ATOM     21  C   UNL     1      -2.013   0.645   2.079  0.00  0.00    +0.062 C 
ATOM     22  C   UNL     1      -1.847   1.567  -1.453  0.00  0.00    +0.001 C 
ATOM     23  C   UNL     1      -3.359   3.373   0.116  0.00  0.00    +0.015 C 
ATOM     24  C   UNL     1      -2.450   2.690  -2.032  0.00  0.00    +0.000 C 
ATOM     25  C   UNL     1      -3.195   3.578  -1.257  0.00  0.00    +0.001 C 
ATOM     26  H   UNL     1      -3.194   2.246   2.734  0.00  0.00    +0.152 HD
ENDBRANCH   3  18
BRANCH   4  28
ATOM     27  O   UNL     1       3.460  -1.990   0.099  0.00  0.00    -0.243 OA
ATOM     28  C   UNL     1       2.398  -2.617  -0.112  0.00  0.00    +0.357 C 
BRANCH  28  29
ATOM     29  O   UNL     1       2.392  -3.927  -0.537  0.00  0.00    -0.440 OA
ATOM     30  C   UNL     1       3.655  -4.570  -0.737  0.00  0.00    +0.256 C 
ENDBRANCH  28  29
ENDBRANCH   4  28
BRANCH   5  32
ATOM     31  O   UNL     1      -3.536  -1.850   0.102  0.00  0.00    -0.243 OA
ATOM     32  C   UNL     1      -2.500  -2.519  -0.109  0.00  0.00    +0.357 C 
BRANCH  32  33
ATOM     33  O   UNL     1      -2.547  -3.828  -0.536  0.00  0.00    -0.440 OA
ATOM     34  C   UNL     1      -3.835  -4.418  -0.738  0.00  0.00    +0.256 C 
ENDBRANCH  32  33
ENDBRANCH   5  32
TORSDOF 6
