11033245
  -OEChem-03292013303D

 36 37  0     1  0  0  0  0  0999 V2000
   -2.0566   -1.2607    0.5397 O   0  0  0  0  0  0  0  0  0  0  0  0
   -3.1356    2.6986   -0.1093 O   0  0  0  0  0  0  0  0  0  0  0  0
   -0.1380    2.0563    1.5653 O   0  0  0  0  0  0  0  0  0  0  0  0
    2.1181    2.6037   -0.7817 O   0  0  0  0  0  0  0  0  0  0  0  0
   -0.6146   -2.6331   -0.6284 O   0  0  0  0  0  0  0  0  0  0  0  0
    4.6852   -1.3827   -0.4959 O   0  0  0  0  0  0  0  0  0  0  0  0
   -2.5342    1.4101    0.0407 C   0  0  1  0  0  0  0  0  0  0  0  0
   -3.4724    0.3543   -0.5720 C   0  0  0  0  0  0  0  0  0  0  0  0
   -2.9185   -1.0803   -0.5996 C   0  0  2  0  0  0  0  0  0  0  0  0
   -1.1279    1.4688   -0.5759 C   0  0  0  0  0  0  0  0  0  0  0  0
   -0.0633    1.4349    0.5105 C   0  0  0  0  0  0  0  0  0  0  0  0
    1.1523    0.6449    0.2499 C   0  0  0  0  0  0  0  0  0  0  0  0
    1.2704   -0.6916    0.6724 C   0  0  0  0  0  0  0  0  0  0  0  0
   -4.0276   -2.1217   -0.5585 C   0  0  0  0  0  0  0  0  0  0  0  0
    0.1438   -1.4459    1.3353 C   0  0  0  0  0  0  0  0  0  0  0  0
   -0.8702   -1.8911    0.3113 C   0  0  0  0  0  0  0  0  0  0  0  0
    2.2017    1.2976   -0.4048 C   0  0  0  0  0  0  0  0  0  0  0  0
    2.4743   -1.3611    0.4051 C   0  0  0  0  0  0  0  0  0  0  0  0
    3.3883    0.6127   -0.6543 C   0  0  0  0  0  0  0  0  0  0  0  0
    3.5249   -0.7139   -0.2500 C   0  0  0  0  0  0  0  0  0  0  0  0
   -2.4835    1.2274    1.1201 H   0  0  0  0  0  0  0  0  0  0  0  0
   -4.4038    0.3794    0.0106 H   0  0  0  0  0  0  0  0  0  0  0  0
   -3.7738    0.6482   -1.5858 H   0  0  0  0  0  0  0  0  0  0  0  0
   -2.3507   -1.2040   -1.5305 H   0  0  0  0  0  0  0  0  0  0  0  0
   -0.9763    2.3939   -1.1443 H   0  0  0  0  0  0  0  0  0  0  0  0
   -0.9528    0.6357   -1.2625 H   0  0  0  0  0  0  0  0  0  0  0  0
   -3.6060   -3.1315   -0.6006 H   0  0  0  0  0  0  0  0  0  0  0  0
   -4.5921   -2.0569    0.3781 H   0  0  0  0  0  0  0  0  0  0  0  0
   -4.7195   -1.9975   -1.3969 H   0  0  0  0  0  0  0  0  0  0  0  0
    0.5091   -2.3372    1.8588 H   0  0  0  0  0  0  0  0  0  0  0  0
   -0.3258   -0.8228    2.1053 H   0  0  0  0  0  0  0  0  0  0  0  0
   -3.2452    2.8674   -1.0609 H   0  0  0  0  0  0  0  0  0  0  0  0
    2.5957   -2.4004    0.7040 H   0  0  0  0  0  0  0  0  0  0  0  0
    4.2072    1.1197   -1.1589 H   0  0  0  0  0  0  0  0  0  0  0  0
    1.2796    2.9953   -0.4910 H   0  0  0  0  0  0  0  0  0  0  0  0
    5.3014   -0.7871   -0.9558 H   0  0  0  0  0  0  0  0  0  0  0  0
  1  9  1  0  0  0  0
  1 16  1  0  0  0  0
  2  7  1  0  0  0  0
  2 32  1  0  0  0  0
  3 11  2  0  0  0  0
  4 17  1  0  0  0  0
  4 35  1  0  0  0  0
  5 16  2  0  0  0  0
  6 20  1  0  0  0  0
  6 36  1  0  0  0  0
  7  8  1  0  0  0  0
  7 10  1  0  0  0  0
  7 21  1  0  0  0  0
  8  9  1  0  0  0  0
  8 22  1  0  0  0  0
  8 23  1  0  0  0  0
  9 14  1  0  0  0  0
  9 24  1  0  0  0  0
 10 11  1  0  0  0  0
 10 25  1  0  0  0  0
 10 26  1  0  0  0  0
 11 12  1  0  0  0  0
 12 13  2  0  0  0  0
 12 17  1  0  0  0  0
 13 15  1  0  0  0  0
 13 18  1  0  0  0  0
 14 27  1  0  0  0  0
 14 28  1  0  0  0  0
 14 29  1  0  0  0  0
 15 16  1  0  0  0  0
 15 30  1  0  0  0  0
 15 31  1  0  0  0  0
 17 19  2  0  0  0  0
 18 20  2  0  0  0  0
 18 33  1  0  0  0  0
 19 20  1  0  0  0  0
 19 34  1  0  0  0  0
M  END
> <PUBCHEM_COMPOUND_CID>
11033245

> <PUBCHEM_CONFORMER_RMSD>
0.6

> <PUBCHEM_CONFORMER_DIVERSEORDER>
3
7
4
9
5
1
13
11
12
8
6
10
14
2

> <PUBCHEM_MMFF94_PARTIAL_CHARGES>
23
1 -0.43
10 0.06
11 0.42
12 0.09
13 -0.14
15 0.2
16 0.66
17 0.08
18 -0.15
19 -0.15
2 -0.68
20 0.08
3 -0.57
32 0.4
33 0.15
34 0.15
35 0.45
36 0.45
4 -0.53
5 -0.57
6 -0.53
7 0.28
9 0.28

> <PUBCHEM_EFFECTIVE_ROTOR_COUNT>
1.2

> <PUBCHEM_PHARMACOPHORE_FEATURES>
7
1 2 acceptor
1 2 donor
1 3 acceptor
1 4 donor
1 5 acceptor
1 6 donor
6 12 13 17 18 19 20 rings

> <PUBCHEM_HEAVY_ATOM_COUNT>
20

> <PUBCHEM_ATOM_DEF_STEREO_COUNT>
2

> <PUBCHEM_ATOM_UDEF_STEREO_COUNT>
0

> <PUBCHEM_BOND_DEF_STEREO_COUNT>
0

> <PUBCHEM_BOND_UDEF_STEREO_COUNT>
0

> <PUBCHEM_ISOTOPIC_ATOM_COUNT>
0

> <PUBCHEM_COMPONENT_COUNT>
1

> <PUBCHEM_CACTVS_TAUTO_COUNT>
63

> <PUBCHEM_CONFORMER_ID>
00A85A9D00000003

> <PUBCHEM_MMFF94_ENERGY>
59.2699

> <PUBCHEM_FEATURE_SELFOVERLAP>
35.522

> <PUBCHEM_SHAPE_FINGERPRINT>
10062212 137 18336539400519311283
104564 63 18410575080879879603
10498660 4 17604691361948542783
10616163 171 18340205202620106391
10756046 5 18336557083437622292
10967382 1 18048314453211289344
11458722 379 18336547127160156415
11578080 2 17631725105416035984
13140716 1 18338229375850846129
13836976 161 18191025591188775437
14251745 187 17906730658704014040
14251751 93 18337388240965675141
15196674 1 18409448106745890351
15442244 35 18335980891894220746
15775835 57 18042128656664900284
16752209 62 18411132524194896306
16945 1 18263368160205608104
18186145 218 18261386732836072812
20775438 99 17049879057325729631
20871999 31 18334588919111563934
21501502 16 18408888451079987692
21634736 98 18336542806580993996
22112679 90 17971170570366177858
221357 26 18411134779437809847
221490 88 18335427910538632080
22802520 49 18118129288378568138
2334 1 18409163346351475729
23379529 103 18200603604255600134
23402539 116 18340481146058630934
23419403 2 17130968979975271962
23557571 272 18201988954825862618
23558518 356 18260837037125573841
23559900 14 18129373818577887010
23566358 2 18410856602985400676
2748010 2 17112693146880367409
2871803 45 18261382399678242847
3286 77 17346032389548995107
58051976 378 18120660390338103236
7832392 63 18336543798634218532
90525 40 18339360739024472269
9709674 26 18336830904487166590

> <PUBCHEM_SHAPE_MULTIPOLES>
376.37
6.73
2.96
1
0.78
0.53
0.22
-1.65
-2.22
-1.25
-0.07
0.06
0.04
-0.44

> <PUBCHEM_SHAPE_SELFOVERLAP>
796.945

> <PUBCHEM_SHAPE_VOLUME>
208.5

> <PUBCHEM_COORDINATE_TYPE>
2
5
10

$$$$
