REMARK  Name = 11035325
REMARK  5 active torsions:
REMARK  status: ('A' for Active; 'I' for Inactive)
REMARK    1  A    between atoms: C_2  and  O_21
REMARK    2  A    between atoms: C_3  and  O_23
REMARK    3  A    between atoms: C_4  and  O_25
REMARK    4  A    between atoms: C_16  and  O_27
REMARK    5  A    between atoms: C_19  and  O_29
REMARK                            x       y       z     vdW  Elec       q    Type
REMARK                         _______ _______ _______ _____ _____    ______ ____
ROOT
ATOM      1  O   UNL     1       1.893   2.407  -1.606  0.00  0.00    -0.293 OA
ATOM      2  C   UNL     1       2.629  -0.145  -0.473  0.00  0.00    +0.171 C 
ATOM      3  C   UNL     1       3.088  -1.431   0.264  0.00  0.00    +0.144 C 
ATOM      4  C   UNL     1       2.354   1.110   0.389  0.00  0.00    +0.197 C 
ATOM      5  C   UNL     1       2.077  -2.126   1.204  0.00  0.00    +0.058 C 
ATOM      6  C   UNL     1       0.712  -2.345   0.611  0.00  0.00    -0.019 C 
ATOM      7  C   UNL     1       0.739   3.190   0.351  0.00  0.00    +0.072 C 
ATOM      8  C   UNL     1       1.671   2.239  -0.405  0.00  0.00    +0.180 C 
ATOM      9  C   UNL     1      -0.596   3.479  -0.380  0.00  0.00    +0.034 C 
ATOM     10  C   UNL     1      -1.638   2.404  -0.163  0.00  0.00    -0.022 C 
ATOM     11  C   UNL     1      -1.431  -1.299   0.039  0.00  0.00    +0.036 C 
ATOM     12  C   UNL     1      -0.242  -1.346   0.790  0.00  0.00    -0.001 C 
ATOM     13  C   UNL     1      -2.105   0.001  -0.006  0.00  0.00    +0.036 C 
ATOM     14  C   UNL     1      -1.318   1.081  -0.449  0.00  0.00    -0.001 C 
ATOM     15  C   UNL     1       0.385  -3.427  -0.204  0.00  0.00    -0.001 C 
ATOM     16  C   UNL     1      -1.757  -2.395  -0.756  0.00  0.00    +0.134 C 
ATOM     17  C   UNL     1      -2.895   2.662   0.386  0.00  0.00    -0.001 C 
ATOM     18  C   UNL     1      -0.859  -3.466  -0.854  0.00  0.00    +0.036 C 
ATOM     19  C   UNL     1      -3.357   0.271   0.538  0.00  0.00    +0.134 C 
ATOM     20  C   UNL     1      -3.760   1.602   0.703  0.00  0.00    +0.036 C 
ENDROOT
BRANCH   2  21
ATOM     21  O   UNL     1       3.669   0.160  -1.417  0.00  0.00    -0.379 OA
ATOM     22  H   UNL     1       3.850  -0.621  -1.963  0.00  0.00    +0.211 HD
ENDBRANCH   2  21
BRANCH   3  23
ATOM     23  O   UNL     1       4.261  -1.131   1.025  0.00  0.00    -0.382 OA
ATOM     24  H   UNL     1       4.913  -0.693   0.456  0.00  0.00    +0.210 HD
ENDBRANCH   3  23
BRANCH   4  25
ATOM     25  O   UNL     1       3.544   1.647   0.937  0.00  0.00    -0.375 OA
ATOM     26  H   UNL     1       4.004   0.962   1.447  0.00  0.00    +0.211 HD
ENDBRANCH   4  25
BRANCH  16  27
ATOM     27  O   UNL     1      -2.896  -2.415  -1.502  0.00  0.00    -0.506 OA
ATOM     28  H   UNL     1      -3.505  -1.705  -1.446  0.00  0.00    +0.292 HD
ENDBRANCH  16  27
BRANCH  19  29
ATOM     29  O   UNL     1      -4.170  -0.729   0.978  0.00  0.00    -0.506 OA
ATOM     30  H   UNL     1      -3.911  -1.624   0.873  0.00  0.00    +0.292 HD
ENDBRANCH  19  29
TORSDOF 5
