11036082
  -OEChem-03292013303D

 47 50  0     1  0  0  0  0  0999 V2000
    4.0200    0.0218   -0.2482 O   0  0  0  0  0  0  0  0  0  0  0  0
   -0.6322    0.1220   -0.0380 O   0  0  0  0  0  0  0  0  0  0  0  0
    4.2670    2.2129    1.5128 O   0  0  0  0  0  0  0  0  0  0  0  0
   -3.1744   -2.5430   -0.0259 O   0  0  0  0  0  0  0  0  0  0  0  0
    1.6956   -4.1514    0.1125 O   0  0  0  0  0  0  0  0  0  0  0  0
   -0.8886   -3.9684    0.1872 O   0  0  0  0  0  0  0  0  0  0  0  0
   -6.1447    3.0328    0.2801 O   0  0  0  0  0  0  0  0  0  0  0  0
    3.5156    1.3381   -0.5930 C   0  0  1  0  0  0  0  0  0  0  0  0
    2.0367    1.4229   -0.1877 C   0  0  0  0  0  0  0  0  0  0  0  0
    4.3700    2.3891    0.0967 C   0  0  0  0  0  0  0  0  0  0  0  0
    1.7147   -0.0226   -0.1517 C   0  0  0  0  0  0  0  0  0  0  0  0
    2.8925   -0.7548   -0.1656 C   0  0  0  0  0  0  0  0  0  0  0  0
    0.4881   -0.6576   -0.0611 C   0  0  0  0  0  0  0  0  0  0  0  0
    0.4753   -2.0535    0.0343 C   0  0  0  0  0  0  0  0  0  0  0  0
   -1.8311   -0.5718   -0.4171 C   0  0  1  0  0  0  0  0  0  0  0  0
   -2.0187   -1.8468    0.4071 C   0  0  2  0  0  0  0  0  0  0  0  0
    5.8450    2.2225   -0.2749 C   0  0  0  0  0  0  0  0  0  0  0  0
    3.8925    3.8026   -0.2467 C   0  0  0  0  0  0  0  0  0  0  0  0
    2.9013   -2.1340   -0.0814 C   0  0  0  0  0  0  0  0  0  0  0  0
   -0.8193   -2.7452    0.1957 C   0  0  0  0  0  0  0  0  0  0  0  0
    1.6736   -2.7913    0.0172 C   0  0  0  0  0  0  0  0  0  0  0  0
   -2.9864    0.3934   -0.2303 C   0  0  0  0  0  0  0  0  0  0  0  0
   -3.7345    0.8021   -1.3321 C   0  0  0  0  0  0  0  0  0  0  0  0
   -3.2954    0.8681    1.0426 C   0  0  0  0  0  0  0  0  0  0  0  0
   -4.7967    1.6898   -1.1604 C   0  0  0  0  0  0  0  0  0  0  0  0
   -4.3576    1.7557    1.2146 C   0  0  0  0  0  0  0  0  0  0  0  0
   -5.1084    2.1665    0.1130 C   0  0  0  0  0  0  0  0  0  0  0  0
    3.6057    1.4346   -1.6850 H   0  0  0  0  0  0  0  0  0  0  0  0
    1.4521    1.9695   -0.9337 H   0  0  0  0  0  0  0  0  0  0  0  0
    1.8584    1.8536    0.8008 H   0  0  0  0  0  0  0  0  0  0  0  0
   -1.7556   -0.8241   -1.4853 H   0  0  0  0  0  0  0  0  0  0  0  0
   -2.0965   -1.6497    1.4824 H   0  0  0  0  0  0  0  0  0  0  0  0
    6.2393    1.2571    0.0614 H   0  0  0  0  0  0  0  0  0  0  0  0
    6.4568    2.9853    0.2211 H   0  0  0  0  0  0  0  0  0  0  0  0
    6.0007    2.3074   -1.3553 H   0  0  0  0  0  0  0  0  0  0  0  0
    4.5129    4.5518    0.2592 H   0  0  0  0  0  0  0  0  0  0  0  0
    3.9396    3.9902   -1.3244 H   0  0  0  0  0  0  0  0  0  0  0  0
    2.8671    3.9855    0.0920 H   0  0  0  0  0  0  0  0  0  0  0  0
    3.8396   -2.6791   -0.0884 H   0  0  0  0  0  0  0  0  0  0  0  0
    3.4674    2.6620    1.8328 H   0  0  0  0  0  0  0  0  0  0  0  0
   -3.3001   -3.3016    0.5695 H   0  0  0  0  0  0  0  0  0  0  0  0
   -3.5040    0.4393   -2.3300 H   0  0  0  0  0  0  0  0  0  0  0  0
   -2.7157    0.5688    1.9113 H   0  0  0  0  0  0  0  0  0  0  0  0
    2.6163   -4.4634    0.0849 H   0  0  0  0  0  0  0  0  0  0  0  0
   -5.3737    2.0023   -2.0266 H   0  0  0  0  0  0  0  0  0  0  0  0
   -4.5939    2.1257    2.2086 H   0  0  0  0  0  0  0  0  0  0  0  0
   -6.5517    3.2080   -0.5858 H   0  0  0  0  0  0  0  0  0  0  0  0
  1  8  1  0  0  0  0
  1 12  1  0  0  0  0
  2 13  1  0  0  0  0
  2 15  1  0  0  0  0
  3 10  1  0  0  0  0
  3 40  1  0  0  0  0
  4 16  1  0  0  0  0
  4 41  1  0  0  0  0
  5 21  1  0  0  0  0
  5 44  1  0  0  0  0
  6 20  2  0  0  0  0
  7 27  1  0  0  0  0
  7 47  1  0  0  0  0
  8  9  1  0  0  0  0
  8 10  1  0  0  0  0
  8 28  1  0  0  0  0
  9 11  1  0  0  0  0
  9 29  1  0  0  0  0
  9 30  1  0  0  0  0
 10 17  1  0  0  0  0
 10 18  1  0  0  0  0
 11 12  2  0  0  0  0
 11 13  1  0  0  0  0
 12 19  1  0  0  0  0
 13 14  2  0  0  0  0
 14 20  1  0  0  0  0
 14 21  1  0  0  0  0
 15 16  1  0  0  0  0
 15 22  1  0  0  0  0
 15 31  1  0  0  0  0
 16 20  1  0  0  0  0
 16 32  1  0  0  0  0
 17 33  1  0  0  0  0
 17 34  1  0  0  0  0
 17 35  1  0  0  0  0
 18 36  1  0  0  0  0
 18 37  1  0  0  0  0
 18 38  1  0  0  0  0
 19 21  2  0  0  0  0
 19 39  1  0  0  0  0
 22 23  2  0  0  0  0
 22 24  1  0  0  0  0
 23 25  1  0  0  0  0
 23 42  1  0  0  0  0
 24 26  2  0  0  0  0
 24 43  1  0  0  0  0
 25 27  2  0  0  0  0
 25 45  1  0  0  0  0
 26 27  1  0  0  0  0
 26 46  1  0  0  0  0
M  END
> <PUBCHEM_COMPOUND_CID>
11036082

> <PUBCHEM_CONFORMER_RMSD>
0.8

> <PUBCHEM_CONFORMER_DIVERSEORDER>
2
6
7
11
3
1
9
4
10
5
8

> <PUBCHEM_MMFF94_PARTIAL_CHARGES>
34
1 -0.36
10 0.28
11 -0.14
12 0.08
13 0.08
14 0.09
15 0.42
16 0.34
19 -0.15
2 -0.36
20 0.42
21 0.08
22 -0.14
23 -0.15
24 -0.15
25 -0.15
26 -0.15
27 0.08
3 -0.68
39 0.15
4 -0.68
40 0.4
41 0.4
42 0.15
43 0.15
44 0.45
45 0.15
46 0.15
47 0.45
5 -0.53
6 -0.57
7 -0.53
8 0.28
9 0.14

> <PUBCHEM_EFFECTIVE_ROTOR_COUNT>
3.2

> <PUBCHEM_PHARMACOPHORE_FEATURES>
14
1 1 acceptor
1 2 acceptor
1 3 acceptor
1 3 donor
1 4 acceptor
1 4 donor
1 5 donor
1 6 acceptor
1 7 donor
3 10 17 18 hydrophobe
5 1 8 9 11 12 rings
6 11 12 13 14 19 21 rings
6 2 13 14 15 16 20 rings
6 22 23 24 25 26 27 rings

> <PUBCHEM_HEAVY_ATOM_COUNT>
27

> <PUBCHEM_ATOM_DEF_STEREO_COUNT>
2

> <PUBCHEM_ATOM_UDEF_STEREO_COUNT>
1

> <PUBCHEM_BOND_DEF_STEREO_COUNT>
0

> <PUBCHEM_BOND_UDEF_STEREO_COUNT>
0

> <PUBCHEM_ISOTOPIC_ATOM_COUNT>
0

> <PUBCHEM_COMPONENT_COUNT>
1

> <PUBCHEM_CACTVS_TAUTO_COUNT>
120

> <PUBCHEM_CONFORMER_ID>
00A865B200000002

> <PUBCHEM_MMFF94_ENERGY>
83.3203

> <PUBCHEM_FEATURE_SELFOVERLAP>
71.189

> <PUBCHEM_SHAPE_FINGERPRINT>
10050765 1 18410294709552281391
10411042 1 17473544646744773646
10615611 76 17558000441999070113
10937287 8 18411136969554424542
1100329 8 18338235951683614098
11135609 187 18337095835946529965
12107183 9 18262501685873650208
12173636 292 18194119852989983862
12236239 1 17628905735218893493
12390115 104 18266754634781880452
12422481 6 17895456065221337036
12633257 1 18262789684130157858
12769317 202 18341604910897690168
12788726 201 18051112981198915323
12930653 34 18336550533164446999
13140716 1 18335140860389000987
13540713 4 18338254716105651190
13590594 115 17690847761313061298
138480 1 17905607696728920478
13878862 14 18045765811608768461
13944108 23 17978520732409830084
13955234 65 18191307066080966867
13965767 371 18040990735392639644
14251764 75 18411709802354857249
14790565 3 18264496268148257748
14848178 96 18412823590363994488
14849402 71 18265901250386204746
15042514 8 17543354208071969082
15081414 286 17979918207161540278
15475509 35 16227177976780590827
15475509 8 17339584604208400958
17980427 23 18053914352348603794
19784866 34 18411980256460862249
20715895 44 18411413986587645528
21033648 144 18335130978016912821
21033648 29 17386283174075208101
21279426 13 18270694138401006476
22122407 14 17981339889462372073
22393880 68 18342182189062042654
23558518 356 18115311201591346683
23559900 14 18270960146731569962
23845131 108 18261115154097508867
23929065 36 17624671833372529434
24771293 8 18055331567250236818
283562 15 18192708075971082859
335352 9 18337675187995062758
350125 39 18193843875571151825
376196 1 18411978078970569386
474 4 18340204064706701019
5104073 3 18259702298138996626
6034566 193 18189347933570309789
633830 44 18271242716729269231
7288768 16 18186523215589570121
7808743 9 18264488567161015616
9981440 41 18337386161927626418

> <PUBCHEM_SHAPE_MULTIPOLES>
514.56
11.77
4.92
0.93
3.46
2.43
0.05
-15.09
0.06
-1.75
0.39
0.6
-0.46
0.05

> <PUBCHEM_SHAPE_SELFOVERLAP>
1144.336

> <PUBCHEM_SHAPE_VOLUME>
274.8

> <PUBCHEM_COORDINATE_TYPE>
2
5
10

$$$$
