REMARK  Name = 11045
REMARK  4 active torsions:
REMARK  status: ('A' for Active; 'I' for Inactive)
REMARK    1  A    between atoms: C_1  and  S_7
REMARK    2  A    between atoms: C_2  and  N_13
REMARK    3  A    between atoms: C_3  and  N_16
REMARK    4  A    between atoms: C_6  and  N_19
REMARK                            x       y       z     vdW  Elec       q    Type
REMARK                         _______ _______ _______ _____ _____    ______ ____
ROOT
ATOM      1  C   UNL     1       0.676  -0.039  -0.019  0.00  0.00    +0.157 C 
ATOM      2  C   UNL     1      -0.058  -1.224  -0.014  0.00  0.00    +0.164 C 
ATOM      3  C   UNL     1       0.017   1.190  -0.012  0.00  0.00    +0.164 C 
ATOM      4  C   UNL     1      -1.452  -1.181  -0.001  0.00  0.00    +0.050 C 
ATOM      5  C   UNL     1      -1.377   1.234   0.001  0.00  0.00    +0.050 C 
ATOM      6  C   UNL     1      -2.112   0.048   0.006  0.00  0.00    +0.146 C 
ENDROOT
BRANCH   1   7
ATOM      7  S   UNL     1       2.435  -0.093  -0.036  0.00  0.00    +0.045 S 
ATOM      8  O   UNL     1       2.920   1.165   0.882  0.00  0.00    -0.065 OA
ATOM      9  O   UNL     1       2.825  -1.310   0.654  0.00  0.00    -0.065 OA
ATOM     10  O   UNL     1       2.841   0.161  -1.405  0.00  0.00    -0.065 OA
ENDBRANCH   1   7
BRANCH   2  13
ATOM     11  O   UNL     1       0.844  -3.035  -1.121  0.00  0.00    -0.126 OA
ATOM     12  O   UNL     1       0.862  -3.037   1.075  0.00  0.00    -0.126 OA
ATOM     13  N   UNL     1       0.581  -2.496  -0.020  0.00  0.00    +0.059 N 
ENDBRANCH   2  13
BRANCH   3  16
ATOM     14  O   UNL     1       1.048   2.941   1.079  0.00  0.00    -0.126 OA
ATOM     15  O   UNL     1       1.028   2.944  -1.116  0.00  0.00    -0.126 OA
ATOM     16  N   UNL     1       0.734   2.420  -0.017  0.00  0.00    +0.059 N 
ENDBRANCH   3  16
BRANCH   6  19
ATOM     17  O   UNL     1      -4.173  -0.986   0.021  0.00  0.00    -0.126 OA
ATOM     18  O   UNL     1      -4.105   1.208   0.025  0.00  0.00    -0.126 OA
ATOM     19  N   UNL     1      -3.531   0.092   0.018  0.00  0.00    +0.058 N 
ENDBRANCH   6  19
TORSDOF 4
