REMARK  Name = 11047813
REMARK  7 active torsions:
REMARK  status: ('A' for Active; 'I' for Inactive)
REMARK    1  A    between atoms: C_3  and  C_20
REMARK    2  A    between atoms: C_5  and  O_15
REMARK    3  A    between atoms: C_10  and  O_13
REMARK    4  A    between atoms: O_15  and  S_16
REMARK    5  A    between atoms: C_20  and  C_21
REMARK    6  A    between atoms: C_24  and  O_27
REMARK    7  A    between atoms: C_26  and  O_29
REMARK                            x       y       z     vdW  Elec       q    Type
REMARK                         _______ _______ _______ _____ _____    ______ ____
ROOT
ATOM      1  O   UNL     1      -4.274   1.373  -2.025  0.00  0.00    -0.266 OA
ATOM      2  N   UNL     1      -2.447   0.753  -0.776  0.00  0.00    -0.275 N 
ATOM      3  C   UNL     1       0.038  -0.684   1.554  0.00  0.00    +0.020 C 
ATOM      4  C   UNL     1      -1.877  -0.034   0.240  0.00  0.00    +0.088 C 
ATOM      5  C   UNL     1      -0.521   0.099   0.543  0.00  0.00    +0.185 C 
ATOM      6  C   UNL     1      -2.680  -0.942   0.939  0.00  0.00    +0.020 C 
ATOM      7  C   UNL     1      -0.756  -1.592   2.256  0.00  0.00    -0.001 C 
ATOM      8  C   UNL     1      -2.112  -1.723   1.950  0.00  0.00    +0.001 C 
ATOM      9  C   UNL     1      -4.095  -1.049   0.590  0.00  0.00    +0.043 C 
ATOM     10  C   UNL     1      -4.623  -0.293  -0.380  0.00  0.00    +0.192 C 
ATOM     11  C   UNL     1      -3.779   0.683  -1.136  0.00  0.00    +0.284 C 
ATOM     12  H   UNL     1      -1.867   1.386  -1.257  0.00  0.00    +0.155 HD
ENDROOT
BRANCH  10  13
ATOM     13  O   UNL     1      -5.958  -0.395  -0.709  0.00  0.00    -0.467 OA
ATOM     14  C   UNL     1      -6.155  -1.369  -1.715  0.00  0.00    +0.253 C 
ENDBRANCH  10  13
BRANCH   5  15
ATOM     15  O   UNL     1       0.256   0.986  -0.141  0.00  0.00    -0.321 OA
BRANCH  15  16
ATOM     16  S   UNL     1       0.394   2.523   0.424  0.00  0.00    +0.282 S 
ATOM     17  O   UNL     1       1.268   3.285  -0.724  0.00  0.00    -0.105 OA
ATOM     18  O   UNL     1      -0.923   3.133   0.461  0.00  0.00    -0.105 OA
ATOM     19  O   UNL     1       1.205   2.476   1.627  0.00  0.00    -0.012 OA
ENDBRANCH  15  16
ENDBRANCH   5  15
BRANCH   3  20
ATOM     20  C   UNL     1       1.485  -0.564   1.901  0.00  0.00    +0.056 C 
BRANCH  20  21
ATOM     21  C   UNL     1       2.419  -0.880   0.751  0.00  0.00    -0.014 C 
ATOM     22  C   UNL     1       3.495  -0.045   0.507  0.00  0.00    +0.036 C 
ATOM     23  C   UNL     1       2.174  -1.996  -0.029  0.00  0.00    -0.001 C 
ATOM     24  C   UNL     1       4.355  -0.336  -0.552  0.00  0.00    +0.172 C 
ATOM     25  C   UNL     1       3.033  -2.287  -1.088  0.00  0.00    +0.039 C 
ATOM     26  C   UNL     1       4.124  -1.457  -1.350  0.00  0.00    +0.168 C 
BRANCH  24  27
ATOM     27  O   UNL     1       5.417   0.481  -0.797  0.00  0.00    -0.468 OA
ATOM     28  C   UNL     1       5.582   1.605   0.065  0.00  0.00    +0.253 C 
ENDBRANCH  24  27
BRANCH  26  29
ATOM     29  O   UNL     1       4.957  -1.752  -2.386  0.00  0.00    -0.503 OA
ATOM     30  H   UNL     1       5.692  -1.200  -2.568  0.00  0.00    +0.292 HD
ENDBRANCH  26  29
ENDBRANCH  20  21
ENDBRANCH   3  20
TORSDOF 7
