REMARK  Name = 11053
REMARK  4 active torsions:
REMARK  status: ('A' for Active; 'I' for Inactive)
REMARK    1  A    between atoms: C_2  and  C_18
REMARK    2  A    between atoms: C_3  and  C_9
REMARK    3  A    between atoms: C_5  and  O_29
REMARK    4  A    between atoms: C_24  and  O_27
REMARK                            x       y       z     vdW  Elec       q    Type
REMARK                         _______ _______ _______ _____ _____    ______ ____
ROOT
ATOM      1  N   UNL     1      -0.736  -0.116   1.337  0.00  0.00    -0.284 N 
ATOM      2  C   UNL     1      -0.969   0.535   0.153  0.00  0.00    +0.052 C 
ATOM      3  C   UNL     1       1.253   0.336   0.458  0.00  0.00    +0.062 C 
ATOM      4  C   UNL     1       0.251   0.828  -0.415  0.00  0.00    +0.020 C 
ATOM      5  C   UNL     1       0.614  -0.243   1.533  0.00  0.00    +0.191 C 
ATOM      6  H   UNL     1      -1.432  -0.443   1.952  0.00  0.00    +0.155 HD
ENDROOT
BRANCH   3   9
ATOM      7  O   UNL     1       3.071   2.511   1.393  0.00  0.00    -0.209 OA
ATOM      8  N   UNL     1       4.820   1.313   0.436  0.00  0.00    -0.333 NA
ATOM      9  C   UNL     1       2.667   0.412   0.280  0.00  0.00    +0.101 C 
ATOM     10  C   UNL     1       3.503  -0.442  -0.319  0.00  0.00    +0.043 C 
ATOM     11  C   UNL     1       4.824   0.181  -0.186  0.00  0.00    +0.145 C 
ATOM     12  C   UNL     1       3.504   1.549   0.777  0.00  0.00    +0.205 C 
ATOM     13  C   UNL     1       3.345  -1.692  -1.001  0.00  0.00    +0.003 C 
ATOM     14  C   UNL     1       5.979  -0.537  -0.764  0.00  0.00    +0.033 C 
ATOM     15  C   UNL     1       4.432  -2.295  -1.508  0.00  0.00    +0.000 C 
ATOM     16  C   UNL     1       5.755  -1.708  -1.382  0.00  0.00    +0.003 C 
ENDBRANCH   3   9
BRANCH   2  18
ATOM     17  N   UNL     1      -3.897   1.919  -1.504  0.00  0.00    -0.312 N 
ATOM     18  C   UNL     1      -2.297   0.855  -0.393  0.00  0.00    +0.029 C 
ATOM     19  C   UNL     1      -3.513   0.138  -0.215  0.00  0.00    +0.019 C 
ATOM     20  C   UNL     1      -4.501   0.827  -0.922  0.00  0.00    +0.049 C 
ATOM     21  C   UNL     1      -2.564   1.944  -1.189  0.00  0.00    +0.063 C 
ATOM     22  C   UNL     1      -3.870  -1.033   0.482  0.00  0.00    +0.038 C 
ATOM     23  C   UNL     1      -5.833   0.401  -0.967  0.00  0.00    +0.018 C 
ATOM     24  C   UNL     1      -5.199  -1.472   0.446  0.00  0.00    +0.134 C 
ATOM     25  C   UNL     1      -6.164  -0.764  -0.268  0.00  0.00    +0.038 C 
ATOM     26  H   UNL     1      -4.356   2.585  -2.064  0.00  0.00    +0.152 HD
BRANCH  24  27
ATOM     27  O   UNL     1      -5.551  -2.603   1.118  0.00  0.00    -0.506 OA
ATOM     28  H   UNL     1      -4.906  -3.083   1.599  0.00  0.00    +0.292 HD
ENDBRANCH  24  27
ENDBRANCH   2  18
BRANCH   5  29
ATOM     29  O   UNL     1       1.076  -0.845   2.620  0.00  0.00    -0.495 OA
ATOM     30  H   UNL     1       0.478  -1.184   3.257  0.00  0.00    +0.293 HD
ENDBRANCH   5  29
TORSDOF 4
