11059214
  -OEChem-03292013303D

 61 66  0     1  0  0  0  0  0999 V2000
    1.7187   -0.2913    1.4692 O   0  0  0  0  0  0  0  0  0  0  0  0
    3.9747   -0.5655   -0.0494 O   0  0  0  0  0  0  0  0  0  0  0  0
   -1.8134   -2.7064    0.7909 O   0  0  0  0  0  0  0  0  0  0  0  0
    2.4305   -2.5200    1.5004 O   0  0  0  0  0  0  0  0  0  0  0  0
    1.3383    2.0225    1.4797 O   0  0  0  0  0  0  0  0  0  0  0  0
   -2.2865   -0.1428   -1.8031 O   0  0  0  0  0  0  0  0  0  0  0  0
   -2.8700   -0.5757    0.9405 O   0  0  0  0  0  0  0  0  0  0  0  0
    4.4788    1.6473    0.3607 O   0  0  0  0  0  0  0  0  0  0  0  0
   -0.2543    2.1638   -1.5607 O   0  0  0  0  0  0  0  0  0  0  0  0
   -0.1847   -0.7285   -0.6319 C   0  0  1  0  0  0  0  0  0  0  0  0
    2.1691   -0.2060   -1.4465 C   0  0  1  0  0  0  0  0  0  0  0  0
    0.4211   -1.9039    0.2055 C   0  0  1  0  0  0  0  0  0  0  0  0
    2.7876   -1.2471   -0.5199 C   0  0  2  0  0  0  0  0  0  0  0  0
    1.8366   -1.5035    0.6972 C   0  0  1  0  0  0  0  0  0  0  0  0
   -0.1266    0.5821    0.2197 C   0  0  1  0  0  0  0  0  0  0  0  0
    0.7362   -0.5259   -1.8651 C   0  0  0  0  0  0  0  0  0  0  0  0
    1.3252    0.8461    0.6724 C   0  0  2  0  0  0  0  0  0  0  0  0
    2.2922    0.9952   -0.5194 C   0  0  1  0  0  0  0  0  0  0  0  0
   -1.6082   -1.1642   -1.0832 C   0  0  1  0  0  0  0  0  0  0  0  0
   -0.5469   -2.3190    1.3254 C   0  0  0  0  0  0  0  0  0  0  0  0
   -2.4950   -1.6681    0.0769 C   0  0  1  0  0  0  0  0  0  0  0  0
    3.7109    0.7852   -0.0326 C   0  0  0  0  0  0  0  0  0  0  0  0
    3.2315   -2.5082   -1.2575 C   0  0  0  0  0  0  0  0  0  0  0  0
   -0.6999    1.7876   -0.4766 C   0  0  0  0  0  0  0  0  0  0  0  0
   -3.8181   -2.2692   -0.4269 C   0  0  0  0  0  0  0  0  0  0  0  0
   -1.8748    2.4809    0.2078 C   0  0  1  0  0  0  0  0  0  0  0  0
   -4.8363   -1.1872   -0.1679 C   0  0  0  0  0  0  0  0  0  0  0  0
   -4.2919   -0.5556    1.0870 C   0  0  0  0  0  0  0  0  0  0  0  0
   -1.4064    3.5738    1.1794 C   0  0  0  0  0  0  0  0  0  0  0  0
   -2.7843    3.0676   -0.8687 C   0  0  0  0  0  0  0  0  0  0  0  0
   -0.5539    4.6359    0.4966 C   0  0  0  0  0  0  0  0  0  0  0  0
    2.7948   -0.0535   -2.3366 H   0  0  0  0  0  0  0  0  0  0  0  0
    0.5078   -2.7875   -0.4423 H   0  0  0  0  0  0  0  0  0  0  0  0
   -0.7081    0.4444    1.1364 H   0  0  0  0  0  0  0  0  0  0  0  0
    0.3672    0.2366   -2.5541 H   0  0  0  0  0  0  0  0  0  0  0  0
    0.7468   -1.4493   -2.4600 H   0  0  0  0  0  0  0  0  0  0  0  0
    2.2147    1.9475   -1.0499 H   0  0  0  0  0  0  0  0  0  0  0  0
   -1.4825   -2.0071   -1.7778 H   0  0  0  0  0  0  0  0  0  0  0  0
   -0.1470   -3.1933    1.8502 H   0  0  0  0  0  0  0  0  0  0  0  0
   -0.6877   -1.5398    2.0812 H   0  0  0  0  0  0  0  0  0  0  0  0
    3.8023   -3.1731   -0.6004 H   0  0  0  0  0  0  0  0  0  0  0  0
    2.3907   -3.0698   -1.6725 H   0  0  0  0  0  0  0  0  0  0  0  0
    3.9075   -2.2527   -2.0820 H   0  0  0  0  0  0  0  0  0  0  0  0
    3.3859   -2.3466    1.5447 H   0  0  0  0  0  0  0  0  0  0  0  0
    2.2353    2.3954    1.4628 H   0  0  0  0  0  0  0  0  0  0  0  0
   -4.0794   -3.1640    0.1529 H   0  0  0  0  0  0  0  0  0  0  0  0
   -3.7886   -2.5746   -1.4777 H   0  0  0  0  0  0  0  0  0  0  0  0
   -1.7988    0.0179   -2.6277 H   0  0  0  0  0  0  0  0  0  0  0  0
   -2.4596    1.7534    0.7694 H   0  0  0  0  0  0  0  0  0  0  0  0
   -4.8319   -0.4627   -0.9896 H   0  0  0  0  0  0  0  0  0  0  0  0
   -5.8549   -1.5656   -0.0496 H   0  0  0  0  0  0  0  0  0  0  0  0
   -4.6369    0.4723    1.2274 H   0  0  0  0  0  0  0  0  0  0  0  0
   -4.5527   -1.1392    1.9767 H   0  0  0  0  0  0  0  0  0  0  0  0
   -2.2788    4.0568    1.6363 H   0  0  0  0  0  0  0  0  0  0  0  0
   -0.8391    3.1253    2.0010 H   0  0  0  0  0  0  0  0  0  0  0  0
   -3.2224    2.2722   -1.4805 H   0  0  0  0  0  0  0  0  0  0  0  0
   -2.2607    3.7416   -1.5541 H   0  0  0  0  0  0  0  0  0  0  0  0
   -3.6135    3.6223   -0.4164 H   0  0  0  0  0  0  0  0  0  0  0  0
    0.3483    4.2183    0.0420 H   0  0  0  0  0  0  0  0  0  0  0  0
   -1.1123    5.1815   -0.2691 H   0  0  0  0  0  0  0  0  0  0  0  0
   -0.2283    5.3720    1.2399 H   0  0  0  0  0  0  0  0  0  0  0  0
  1 14  1  0  0  0  0
  1 17  1  0  0  0  0
  2 13  1  0  0  0  0
  2 22  1  0  0  0  0
  3 20  1  0  0  0  0
  3 21  1  0  0  0  0
  4 14  1  0  0  0  0
  4 44  1  0  0  0  0
  5 17  1  0  0  0  0
  5 45  1  0  0  0  0
  6 19  1  0  0  0  0
  6 48  1  0  0  0  0
  7 21  1  0  0  0  0
  7 28  1  0  0  0  0
  8 22  2  0  0  0  0
  9 24  2  0  0  0  0
 10 12  1  0  0  0  0
 10 15  1  0  0  0  0
 10 16  1  0  0  0  0
 10 19  1  0  0  0  0
 11 13  1  0  0  0  0
 11 16  1  0  0  0  0
 11 18  1  0  0  0  0
 11 32  1  0  0  0  0
 12 14  1  0  0  0  0
 12 20  1  0  0  0  0
 12 33  1  0  0  0  0
 13 14  1  0  0  0  0
 13 23  1  0  0  0  0
 15 17  1  0  0  0  0
 15 24  1  0  0  0  0
 15 34  1  0  0  0  0
 16 35  1  0  0  0  0
 16 36  1  0  0  0  0
 17 18  1  0  0  0  0
 18 22  1  0  0  0  0
 18 37  1  0  0  0  0
 19 21  1  0  0  0  0
 19 38  1  0  0  0  0
 20 39  1  0  0  0  0
 20 40  1  0  0  0  0
 21 25  1  0  0  0  0
 23 41  1  0  0  0  0
 23 42  1  0  0  0  0
 23 43  1  0  0  0  0
 24 26  1  0  0  0  0
 25 27  1  0  0  0  0
 25 46  1  0  0  0  0
 25 47  1  0  0  0  0
 26 29  1  0  0  0  0
 26 30  1  0  0  0  0
 26 49  1  0  0  0  0
 27 28  1  0  0  0  0
 27 50  1  0  0  0  0
 27 51  1  0  0  0  0
 28 52  1  0  0  0  0
 28 53  1  0  0  0  0
 29 31  1  0  0  0  0
 29 54  1  0  0  0  0
 29 55  1  0  0  0  0
 30 56  1  0  0  0  0
 30 57  1  0  0  0  0
 30 58  1  0  0  0  0
 31 59  1  0  0  0  0
 31 60  1  0  0  0  0
 31 61  1  0  0  0  0
M  END
> <PUBCHEM_COMPOUND_CID>
11059214

> <PUBCHEM_CONFORMER_RMSD>
0.8

> <PUBCHEM_CONFORMER_DIVERSEORDER>
1
2

> <PUBCHEM_MMFF94_PARTIAL_CHARGES>
24
1 -0.56
13 0.28
14 0.56
15 0.06
17 0.56
18 0.06
19 0.28
2 -0.43
20 0.28
21 0.56
22 0.66
24 0.45
26 0.06
28 0.28
3 -0.56
4 -0.68
44 0.4
45 0.4
48 0.4
5 -0.68
6 -0.68
7 -0.56
8 -0.57
9 -0.57

> <PUBCHEM_EFFECTIVE_ROTOR_COUNT>
5.2

> <PUBCHEM_PHARMACOPHORE_FEATURES>
19
1 1 acceptor
1 3 acceptor
1 30 hydrophobe
1 31 hydrophobe
1 4 acceptor
1 4 donor
1 5 acceptor
1 5 donor
1 6 acceptor
1 6 donor
1 7 acceptor
1 8 acceptor
1 9 acceptor
5 7 21 25 27 28 rings
6 1 10 12 14 15 17 rings
6 10 11 12 13 14 16 rings
6 10 11 15 16 17 18 rings
6 3 10 12 19 20 21 rings
8 1 2 11 13 14 17 18 22 rings

> <PUBCHEM_HEAVY_ATOM_COUNT>
31

> <PUBCHEM_ATOM_DEF_STEREO_COUNT>
10

> <PUBCHEM_ATOM_UDEF_STEREO_COUNT>
1

> <PUBCHEM_BOND_DEF_STEREO_COUNT>
0

> <PUBCHEM_BOND_UDEF_STEREO_COUNT>
0

> <PUBCHEM_ISOTOPIC_ATOM_COUNT>
0

> <PUBCHEM_COMPONENT_COUNT>
1

> <PUBCHEM_CACTVS_TAUTO_COUNT>
3

> <PUBCHEM_CONFORMER_ID>
00A8C00E00000001

> <PUBCHEM_MMFF94_ENERGY>
110.3088

> <PUBCHEM_FEATURE_SELFOVERLAP>
105.393

> <PUBCHEM_SHAPE_FINGERPRINT>
10006869 2 18339919304122369409
10064457 181 17763472711735608369
104564 63 18337397024195050075
10863032 1 18268433430276438374
10906281 52 18120110608595843740
10948715 1 17836931096751468428
1100329 8 17472417651626058234
11578080 2 17605255325287607100
12035759 4 17753924845160507540
12293681 4 18263650721793526035
12553582 1 18339072800127164971
12788726 201 18408326579221315200
13140716 1 17975692011166187792
13224815 77 18335413556626222535
13965767 371 17696231078165377291
14081887 123 18411978048699998793
14178342 30 18120920716884935218
14223421 5 18412545379746557894
14787075 74 18117557559554217870
14790565 3 17619636116793223945
14955137 171 18052551146422769846
1601671 61 18200318843337841017
16752209 62 18261955137830606543
16945 1 18129929195944848102
17357779 13 18339631317954015965
19591789 44 17041484908316269583
20510252 161 18408321077536896965
20600515 1 18116725194897469589
20691752 17 18260277351626690787
20905425 154 18413393128701789198
21421861 104 18334294232362140626
22182313 1 17774447075527557358
229495 10 17059782108946948103
23419403 2 17703207581916403393
23558518 356 18336555902131445220
23559900 14 17911801268052754742
23566358 2 18341618070935331038
3052486 1 18261682467489360437
3380486 145 18048894175471587474
34934 24 18341050838609702959
350125 39 18263932042251426010
35225 105 18119802509290990441
392239 28 18337949103570544832
394222 165 15939518530937542972
469060 322 17531257153483017493
6004065 56 17982156027267802439
70251023 43 18341061721946600270
81228 2 18262253156509482444

> <PUBCHEM_SHAPE_MULTIPOLES>
585.14
6.66
4.29
1.5
0.94
4.23
0.18
-2.44
-0.04
2.19
-0.86
-0.12
-0.17
0.34

> <PUBCHEM_SHAPE_SELFOVERLAP>
1309.685

> <PUBCHEM_SHAPE_VOLUME>
301.3

> <PUBCHEM_COORDINATE_TYPE>
2
5
10

$$$$
