REMARK  Name = 11054122
REMARK  4 active torsions:
REMARK  status: ('A' for Active; 'I' for Inactive)
REMARK    1  A    between atoms: N_2  and  C1*_13
REMARK    2  A    between atoms: C3*_14  and  O3*_17
REMARK    3  A    between atoms: C4*_16  and  C5*_19
REMARK    4  A    between atoms: C5*_19  and  O5*_20
REMARK                            x       y       z     vdW  Elec       q    Type
REMARK                         _______ _______ _______ _____ _____    ______ ____
ROOT
ATOM      1  O   UNL     1       4.103   2.102   0.365  0.00  0.00    -0.206 OA
ATOM      2  N   UNL     1       0.117  -0.398   0.034  0.00  0.00    -0.209 NA
ATOM      3  N   UNL     1       2.074   1.075   0.238  0.00  0.00    -0.244 N 
ATOM      4  N   UNL     1       1.217  -2.322  -0.333  0.00  0.00    -0.256 NA
ATOM      5  N   UNL     1       4.154  -0.158  -0.034  0.00  0.00    -0.184 NA
ATOM      6  C   UNL     1       1.444  -0.115   0.047  0.00  0.00    +0.182 C 
ATOM      7  C   UNL     1       0.030  -1.754  -0.200  0.00  0.00    +0.204 C 
ATOM      8  C   UNL     1       2.092  -1.290  -0.177  0.00  0.00    +0.093 C 
ATOM      9  C   UNL     1       3.518  -1.278  -0.213  0.00  0.00    +0.183 C 
ATOM     10  C   UNL     1       3.479   1.051   0.197  0.00  0.00    +0.209 C 
ATOM     11  H   UNL     1       1.573   1.908   0.397  0.00  0.00    +0.161 HD
ENDROOT
BRANCH   2  13
ATOM     12  O4* UNL     1      -2.080  -0.152   0.896  0.00  0.00    -0.338 OA
ATOM     13  C1* UNL     1      -1.000   0.521   0.226  0.00  0.00    +0.182 C 
ATOM     14  C3* UNL     1      -2.989   1.415  -0.652  0.00  0.00    +0.144 C 
ATOM     15  C2* UNL     1      -1.571   1.090  -1.064  0.00  0.00    +0.079 C 
ATOM     16  C4* UNL     1      -3.329   0.301   0.333  0.00  0.00    +0.173 C 
BRANCH  14  17
ATOM     17  O3* UNL     1      -2.984   2.669   0.028  0.00  0.00    -0.382 OA
ATOM     18  H3* UNL     1      -2.768   3.376  -0.600  0.00  0.00    +0.210 HD
ENDBRANCH  14  17
BRANCH  16  19
ATOM     19  C5* UNL     1      -4.004  -0.888  -0.337  0.00  0.00    +0.169 C 
BRANCH  19  20
ATOM     20  O5* UNL     1      -4.271  -1.871   0.648  0.00  0.00    -0.379 OA
ATOM     21  H5* UNL     1      -4.702  -2.635   0.233  0.00  0.00    +0.211 HD
ENDBRANCH  19  20
ENDBRANCH  16  19
ENDBRANCH   2  13
TORSDOF 4
