REMARK  Name = 11059920
REMARK  9 active torsions:
REMARK  status: ('A' for Active; 'I' for Inactive)
REMARK    1  A    between atoms: C_3  and  C_28
REMARK    2  A    between atoms: C_4  and  C_38
REMARK    3  A    between atoms: C_5  and  C_13
REMARK    4  A    between atoms: C_14  and  O_22
REMARK    5  A    between atoms: C_18  and  O_24
REMARK    6  A    between atoms: C_20  and  O_26
REMARK    7  A    between atoms: C_31  and  O_34
REMARK    8  A    between atoms: C_33  and  O_36
REMARK    9  A    between atoms: C_38  and  O_39
REMARK                            x       y       z     vdW  Elec       q    Type
REMARK                         _______ _______ _______ _____ _____    ______ ____
ROOT
ATOM      1  O   UNL     1      -1.335  -0.212   1.528  0.00  0.00    -0.469 OA
ATOM      2  O   UNL     1      -2.716  -0.640  -0.961  0.00  0.00    -0.468 OA
ATOM      3  C   UNL     1      -3.357  -0.805   0.317  0.00  0.00    +0.230 C 
ATOM      4  C   UNL     1      -2.718   0.140   1.349  0.00  0.00    +0.239 C 
ATOM      5  C   UNL     1       1.436  -0.568  -0.807  0.00  0.00    +0.023 C 
ATOM      6  C   UNL     1      -0.682  -0.400   0.341  0.00  0.00    +0.172 C 
ATOM      7  C   UNL     1      -1.352  -0.596  -0.867  0.00  0.00    +0.173 C 
ATOM      8  C   UNL     1       0.713  -0.401   0.374  0.00  0.00    +0.039 C 
ATOM      9  C   UNL     1       0.766  -0.737  -2.018  0.00  0.00    +0.003 C 
ATOM     10  C   UNL     1      -0.629  -0.750  -2.050  0.00  0.00    +0.040 C 
ENDROOT
BRANCH   5  13
ATOM     11  O   UNL     1       3.363   0.741  -0.330  0.00  0.00    -0.471 OA
ATOM     12  O   UNL     1       5.745  -2.551   0.243  0.00  0.00    -0.288 OA
ATOM     13  C   UNL     1       2.953  -0.561  -0.774  0.00  0.00    +0.222 C 
ATOM     14  C   UNL     1       3.505  -1.658   0.138  0.00  0.00    +0.217 C 
ATOM     15  C   UNL     1       5.016  -1.571   0.142  0.00  0.00    +0.209 C 
ATOM     16  C   UNL     1       5.577  -0.209   0.053  0.00  0.00    +0.105 C 
ATOM     17  C   UNL     1       4.716   0.870  -0.162  0.00  0.00    +0.148 C 
ATOM     18  C   UNL     1       6.949   0.003   0.209  0.00  0.00    +0.142 C 
ATOM     19  C   UNL     1       5.226   2.168  -0.184  0.00  0.00    +0.074 C 
ATOM     20  C   UNL     1       6.595   2.383  -0.025  0.00  0.00    +0.140 C 
ATOM     21  C   UNL     1       7.456   1.302   0.167  0.00  0.00    +0.073 C 
BRANCH  14  22
ATOM     22  O   UNL     1       3.137  -2.935  -0.353  0.00  0.00    -0.374 OA
ATOM     23  H   UNL     1       2.170  -3.011  -0.364  0.00  0.00    +0.211 HD
ENDBRANCH  14  22
BRANCH  18  24
ATOM     24  O   UNL     1       7.832  -1.014   0.418  0.00  0.00    -0.505 OA
ATOM     25  H   UNL     1       7.528  -1.899   0.452  0.00  0.00    +0.292 HD
ENDBRANCH  18  24
BRANCH  20  26
ATOM     26  O   UNL     1       7.093   3.650  -0.057  0.00  0.00    -0.505 OA
ATOM     27  H   UNL     1       6.516   4.377  -0.185  0.00  0.00    +0.292 HD
ENDBRANCH  20  26
ENDBRANCH   5  13
BRANCH   3  28
ATOM     28  C   UNL     1      -4.834  -0.563   0.101  0.00  0.00    +0.024 C 
ATOM     29  C   UNL     1      -5.284   0.697  -0.294  0.00  0.00    +0.039 C 
ATOM     30  C   UNL     1      -5.747  -1.599   0.297  0.00  0.00    +0.003 C 
ATOM     31  C   UNL     1      -6.646   0.921  -0.493  0.00  0.00    +0.172 C 
ATOM     32  C   UNL     1      -7.109  -1.376   0.098  0.00  0.00    +0.040 C 
ATOM     33  C   UNL     1      -7.559  -0.116  -0.298  0.00  0.00    +0.168 C 
BRANCH  31  34
ATOM     34  O   UNL     1      -7.073   2.155  -0.880  0.00  0.00    -0.468 OA
ATOM     35  C   UNL     1      -6.076   3.159  -1.058  0.00  0.00    +0.253 C 
ENDBRANCH  31  34
BRANCH  33  36
ATOM     36  O   UNL     1      -8.891   0.090  -0.490  0.00  0.00    -0.503 OA
ATOM     37  H   UNL     1      -9.202   0.933  -0.756  0.00  0.00    +0.292 HD
ENDBRANCH  33  36
ENDBRANCH   3  28
BRANCH   4  38
ATOM     38  C   UNL     1      -3.367   0.044   2.727  0.00  0.00    +0.185 C 
BRANCH  38  39
ATOM     39  O   UNL     1      -2.704   0.939   3.600  0.00  0.00    -0.378 OA
ATOM     40  H   UNL     1      -3.106   0.890   4.481  0.00  0.00    +0.211 HD
ENDBRANCH  38  39
ENDBRANCH   4  38
TORSDOF 9
