REMARK  Name = 11059214
REMARK  6 active torsions:
REMARK  status: ('A' for Active; 'I' for Inactive)
REMARK    1  A    between atoms: C_10  and  O_23
REMARK    2  A    between atoms: C_11  and  C_30
REMARK    3  A    between atoms: C_13  and  O_25
REMARK    4  A    between atoms: C_15  and  O_27
REMARK    5  A    between atoms: C_30  and  C_31
REMARK    6  A    between atoms: C_31  and  C_33
REMARK                            x       y       z     vdW  Elec       q    Type
REMARK                         _______ _______ _______ _____ _____    ______ ____
ROOT
ATOM      1  O   UNL     1       1.719  -0.291   1.469  0.00  0.00    -0.311 OA
ATOM      2  O   UNL     1       3.975  -0.566  -0.049  0.00  0.00    -0.451 OA
ATOM      3  O   UNL     1      -1.813  -2.706   0.791  0.00  0.00    -0.332 OA
ATOM      4  O   UNL     1      -2.870  -0.576   0.941  0.00  0.00    -0.332 OA
ATOM      5  O   UNL     1       4.479   1.647   0.361  0.00  0.00    -0.250 OA
ATOM      6  C   UNL     1      -0.185  -0.729  -0.632  0.00  0.00    +0.048 C 
ATOM      7  C   UNL     1       2.169  -0.206  -1.446  0.00  0.00    +0.057 C 
ATOM      8  C   UNL     1       0.421  -1.904   0.205  0.00  0.00    +0.088 C 
ATOM      9  C   UNL     1       2.788  -1.247  -0.520  0.00  0.00    +0.183 C 
ATOM     10  C   UNL     1       1.837  -1.504   0.697  0.00  0.00    +0.222 C 
ATOM     11  C   UNL     1      -0.127   0.582   0.220  0.00  0.00    +0.112 C 
ATOM     12  C   UNL     1       0.736  -0.526  -1.865  0.00  0.00    +0.008 C 
ATOM     13  C   UNL     1       1.325   0.846   0.672  0.00  0.00    +0.203 C 
ATOM     14  C   UNL     1       2.292   0.995  -0.519  0.00  0.00    +0.154 C 
ATOM     15  C   UNL     1      -1.608  -1.164  -1.083  0.00  0.00    +0.162 C 
ATOM     16  C   UNL     1      -0.547  -2.319   1.325  0.00  0.00    +0.150 C 
ATOM     17  C   UNL     1      -2.495  -1.668   0.077  0.00  0.00    +0.212 C 
ATOM     18  C   UNL     1       3.711   0.785  -0.033  0.00  0.00    +0.321 C 
ATOM     19  C   UNL     1       3.232  -2.508  -1.258  0.00  0.00    +0.049 C 
ATOM     20  C   UNL     1      -3.818  -2.269  -0.427  0.00  0.00    +0.061 C 
ATOM     21  C   UNL     1      -4.836  -1.187  -0.168  0.00  0.00    +0.037 C 
ATOM     22  C   UNL     1      -4.292  -0.556   1.087  0.00  0.00    +0.145 C 
ENDROOT
BRANCH  10  23
ATOM     23  O   UNL     1       2.430  -2.520   1.500  0.00  0.00    -0.361 OA
ATOM     24  H   UNL     1       1.862  -2.701   2.265  0.00  0.00    +0.213 HD
ENDBRANCH  10  23
BRANCH  13  25
ATOM     25  O   UNL     1       1.338   2.022   1.480  0.00  0.00    -0.363 OA
ATOM     26  H   UNL     1       0.725   1.911   2.223  0.00  0.00    +0.213 HD
ENDBRANCH  13  25
BRANCH  15  27
ATOM     27  O   UNL     1      -2.287  -0.143  -1.803  0.00  0.00    -0.380 OA
ATOM     28  H   UNL     1      -1.724   0.169  -2.530  0.00  0.00    +0.211 HD
ENDBRANCH  15  27
BRANCH  11  30
ATOM     29  O   UNL     1      -0.254   2.164  -1.561  0.00  0.00    -0.296 OA
ATOM     30  C   UNL     1      -0.700   1.788  -0.477  0.00  0.00    +0.155 C 
BRANCH  30  31
ATOM     31  C   UNL     1      -1.875   2.481   0.208  0.00  0.00    +0.058 C 
ATOM     32  C   UNL     1      -2.784   3.068  -0.869  0.00  0.00    +0.008 C 
BRANCH  31  33
ATOM     33  C   UNL     1      -1.406   3.574   1.179  0.00  0.00    +0.007 C 
ATOM     34  C   UNL     1      -0.554   4.636   0.497  0.00  0.00    +0.000 C 
ENDBRANCH  31  33
ENDBRANCH  30  31
ENDBRANCH  11  30
TORSDOF 6
