11059920
  -OEChem-03292013303D

 57 61  0     1  0  0  0  0  0999 V2000
   -1.3346   -0.2123    1.5283 O   0  0  0  0  0  0  0  0  0  0  0  0
   -2.7160   -0.6402   -0.9605 O   0  0  0  0  0  0  0  0  0  0  0  0
    3.3627    0.7413   -0.3295 O   0  0  0  0  0  0  0  0  0  0  0  0
    3.1369   -2.9347   -0.3534 O   0  0  0  0  0  0  0  0  0  0  0  0
   -2.7036    0.9394    3.5999 O   0  0  0  0  0  0  0  0  0  0  0  0
    5.7451   -2.5510    0.2428 O   0  0  0  0  0  0  0  0  0  0  0  0
    7.8322   -1.0137    0.4180 O   0  0  0  0  0  0  0  0  0  0  0  0
   -7.0729    2.1550   -0.8801 O   0  0  0  0  0  0  0  0  0  0  0  0
    7.0932    3.6498   -0.0567 O   0  0  0  0  0  0  0  0  0  0  0  0
   -8.8913    0.0900   -0.4903 O   0  0  0  0  0  0  0  0  0  0  0  0
   -3.3565   -0.8048    0.3171 C   0  0  1  0  0  0  0  0  0  0  0  0
   -2.7177    0.1397    1.3486 C   0  0  1  0  0  0  0  0  0  0  0  0
    2.9525   -0.5615   -0.7741 C   0  0  2  0  0  0  0  0  0  0  0  0
    1.4358   -0.5684   -0.8066 C   0  0  0  0  0  0  0  0  0  0  0  0
    3.5053   -1.6579    0.1383 C   0  0  2  0  0  0  0  0  0  0  0  0
   -0.6824   -0.3995    0.3405 C   0  0  0  0  0  0  0  0  0  0  0  0
   -1.3519   -0.5963   -0.8666 C   0  0  0  0  0  0  0  0  0  0  0  0
   -4.8343   -0.5626    0.1006 C   0  0  0  0  0  0  0  0  0  0  0  0
    0.7125   -0.4010    0.3744 C   0  0  0  0  0  0  0  0  0  0  0  0
   -3.3673    0.0443    2.7265 C   0  0  0  0  0  0  0  0  0  0  0  0
    0.7658   -0.7372   -2.0184 C   0  0  0  0  0  0  0  0  0  0  0  0
    5.0159   -1.5715    0.1419 C   0  0  0  0  0  0  0  0  0  0  0  0
   -0.6287   -0.7503   -2.0499 C   0  0  0  0  0  0  0  0  0  0  0  0
    5.5768   -0.2091    0.0527 C   0  0  0  0  0  0  0  0  0  0  0  0
    4.7156    0.8695   -0.1616 C   0  0  0  0  0  0  0  0  0  0  0  0
   -5.2835    0.6973   -0.2944 C   0  0  0  0  0  0  0  0  0  0  0  0
   -5.7466   -1.5992    0.2966 C   0  0  0  0  0  0  0  0  0  0  0  0
    6.9493    0.0027    0.2093 C   0  0  0  0  0  0  0  0  0  0  0  0
    5.2263    2.1684   -0.1845 C   0  0  0  0  0  0  0  0  0  0  0  0
   -6.6460    0.9208   -0.4935 C   0  0  0  0  0  0  0  0  0  0  0  0
   -7.1089   -1.3757    0.0975 C   0  0  0  0  0  0  0  0  0  0  0  0
    6.5954    2.3832   -0.0245 C   0  0  0  0  0  0  0  0  0  0  0  0
    7.4557    1.3019    0.1672 C   0  0  0  0  0  0  0  0  0  0  0  0
   -7.5586   -0.1159   -0.2977 C   0  0  0  0  0  0  0  0  0  0  0  0
   -6.0760    3.1595   -1.0584 C   0  0  0  0  0  0  0  0  0  0  0  0
   -3.1949   -1.8487    0.6230 H   0  0  0  0  0  0  0  0  0  0  0  0
   -2.7316    1.1848    1.0099 H   0  0  0  0  0  0  0  0  0  0  0  0
    3.3241   -0.7047   -1.7996 H   0  0  0  0  0  0  0  0  0  0  0  0
    3.1668   -1.5576    1.1758 H   0  0  0  0  0  0  0  0  0  0  0  0
    1.2235   -0.2500    1.3218 H   0  0  0  0  0  0  0  0  0  0  0  0
   -3.2565   -0.9618    3.1436 H   0  0  0  0  0  0  0  0  0  0  0  0
   -4.4294    0.3040    2.7107 H   0  0  0  0  0  0  0  0  0  0  0  0
    1.3163   -0.8649   -2.9465 H   0  0  0  0  0  0  0  0  0  0  0  0
   -1.1433   -0.8918   -2.9965 H   0  0  0  0  0  0  0  0  0  0  0  0
   -4.5323    1.4646   -0.4436 H   0  0  0  0  0  0  0  0  0  0  0  0
   -5.4112   -2.5857    0.6049 H   0  0  0  0  0  0  0  0  0  0  0  0
    4.5600    3.0142   -0.3364 H   0  0  0  0  0  0  0  0  0  0  0  0
    3.4406   -3.5961    0.2915 H   0  0  0  0  0  0  0  0  0  0  0  0
   -7.8091   -2.1920    0.2537 H   0  0  0  0  0  0  0  0  0  0  0  0
    8.5233    1.4676    0.2919 H   0  0  0  0  0  0  0  0  0  0  0  0
   -2.8287    1.8389    3.2521 H   0  0  0  0  0  0  0  0  0  0  0  0
    7.3745   -1.8680    0.4243 H   0  0  0  0  0  0  0  0  0  0  0  0
    8.0569    3.6135    0.0699 H   0  0  0  0  0  0  0  0  0  0  0  0
   -9.3691   -0.7375   -0.3087 H   0  0  0  0  0  0  0  0  0  0  0  0
   -6.5933    4.0758   -1.3618 H   0  0  0  0  0  0  0  0  0  0  0  0
   -5.3846    2.9029   -1.8683 H   0  0  0  0  0  0  0  0  0  0  0  0
   -5.5566    3.3846   -0.1205 H   0  0  0  0  0  0  0  0  0  0  0  0
  1 12  1  0  0  0  0
  1 16  1  0  0  0  0
  2 11  1  0  0  0  0
  2 17  1  0  0  0  0
  3 13  1  0  0  0  0
  3 25  1  0  0  0  0
  4 15  1  0  0  0  0
  4 48  1  0  0  0  0
  5 20  1  0  0  0  0
  5 51  1  0  0  0  0
  6 22  2  0  0  0  0
  7 28  1  0  0  0  0
  7 52  1  0  0  0  0
  8 30  1  0  0  0  0
  8 35  1  0  0  0  0
  9 32  1  0  0  0  0
  9 53  1  0  0  0  0
 10 34  1  0  0  0  0
 10 54  1  0  0  0  0
 11 12  1  0  0  0  0
 11 18  1  0  0  0  0
 11 36  1  0  0  0  0
 12 20  1  0  0  0  0
 12 37  1  0  0  0  0
 13 14  1  0  0  0  0
 13 15  1  0  0  0  0
 13 38  1  0  0  0  0
 14 19  2  0  0  0  0
 14 21  1  0  0  0  0
 15 22  1  0  0  0  0
 15 39  1  0  0  0  0
 16 17  2  0  0  0  0
 16 19  1  0  0  0  0
 17 23  1  0  0  0  0
 18 26  2  0  0  0  0
 18 27  1  0  0  0  0
 19 40  1  0  0  0  0
 20 41  1  0  0  0  0
 20 42  1  0  0  0  0
 21 23  2  0  0  0  0
 21 43  1  0  0  0  0
 22 24  1  0  0  0  0
 23 44  1  0  0  0  0
 24 25  1  0  0  0  0
 24 28  2  0  0  0  0
 25 29  2  0  0  0  0
 26 30  1  0  0  0  0
 26 45  1  0  0  0  0
 27 31  2  0  0  0  0
 27 46  1  0  0  0  0
 28 33  1  0  0  0  0
 29 32  1  0  0  0  0
 29 47  1  0  0  0  0
 30 34  2  0  0  0  0
 31 34  1  0  0  0  0
 31 49  1  0  0  0  0
 32 33  2  0  0  0  0
 33 50  1  0  0  0  0
 35 55  1  0  0  0  0
 35 56  1  0  0  0  0
 35 57  1  0  0  0  0
M  END
> <PUBCHEM_COMPOUND_CID>
11059920

> <PUBCHEM_CONFORMER_RMSD>
0.8

> <PUBCHEM_CONFORMER_DIVERSEORDER>
1
32
114
81
29
79
88
47
6
64
118
53
70
40
19
100
28
102
89
30
83
2
90
97
116
67
103
63
4
23
52
80
42
86
92
111
106
41
108
60
27
113
21
87
104
15
3
39
76
109
57
107
98
68
51
45
59
84
82
96
54
31
71
10
18
66
55
35
26
5
46
94
77
12
69
16
62
43
85
112
119
95
101
73
110
11
61
75
105
25
78
74
20
22
93
117
58
33
48
14
50
8
91
49
115
65
37
72
13
34
17
44
24
36
56
7
120
99
9
38

> <PUBCHEM_MMFF94_PARTIAL_CHARGES>
48
1 -0.36
10 -0.53
11 0.42
12 0.28
13 0.42
14 -0.14
15 0.34
16 0.08
17 0.08
18 -0.14
19 -0.15
2 -0.36
20 0.28
21 -0.15
22 0.42
23 -0.15
24 0.09
25 0.08
26 -0.15
27 -0.15
28 0.08
29 -0.15
3 -0.36
30 0.08
31 -0.15
32 0.08
33 -0.15
34 0.08
35 0.28
4 -0.68
40 0.15
43 0.15
44 0.15
45 0.15
46 0.15
47 0.15
48 0.4
49 0.15
5 -0.68
50 0.15
51 0.4
52 0.45
53 0.45
54 0.45
6 -0.57
7 -0.53
8 -0.36
9 -0.53

> <PUBCHEM_EFFECTIVE_ROTOR_COUNT>
5.4

> <PUBCHEM_PHARMACOPHORE_FEATURES>
17
1 1 acceptor
1 10 donor
1 2 acceptor
1 3 acceptor
1 4 acceptor
1 4 donor
1 5 acceptor
1 5 donor
1 6 acceptor
1 7 donor
1 8 acceptor
1 9 donor
6 1 2 11 12 16 17 rings
6 14 16 17 19 21 23 rings
6 18 26 27 30 31 34 rings
6 24 25 28 29 32 33 rings
6 3 13 15 22 24 25 rings

> <PUBCHEM_HEAVY_ATOM_COUNT>
35

> <PUBCHEM_ATOM_DEF_STEREO_COUNT>
4

> <PUBCHEM_ATOM_UDEF_STEREO_COUNT>
0

> <PUBCHEM_BOND_DEF_STEREO_COUNT>
0

> <PUBCHEM_BOND_UDEF_STEREO_COUNT>
0

> <PUBCHEM_ISOTOPIC_ATOM_COUNT>
0

> <PUBCHEM_COMPONENT_COUNT>
1

> <PUBCHEM_CACTVS_TAUTO_COUNT>
117

> <PUBCHEM_CONFORMER_ID>
00A8C2D000000001

> <PUBCHEM_MMFF94_ENERGY>
116.6115

> <PUBCHEM_FEATURE_SELFOVERLAP>
86.362

> <PUBCHEM_SHAPE_FINGERPRINT>
10 15 18272652368119699023
102385 1 14565948093746466311
10411042 1 18050284775189023110
10554248 39 17703229507909020404
10835480 77 18408882928068387341
11135926 11 16630528419373580911
11719270 70 17988923349295868902
11991303 11 17561074856455756167
12236239 1 18060698425338889814
12522641 24 17676476221795877842
12596602 18 18413109471861197363
13383665 225 16271110162765707785
13540713 5 16198485126143756899
13617811 41 16343990217112506520
13811026 1 18410011030913638029
13911987 19 17346596362252980173
13914758 101 18259985942316667409
14118638 360 16486986059222336550
1454969 45 16988847189617312595
14767858 380 16630527332414622685
15131766 46 18123183778483334884
15328829 1 17918272065321238334
15439362 3 17839173362266304296
1577012 14 18059850731811759564
15840311 113 18413390960703641300
16090146 7 14764078933430438214
17686467 74 18335418037221253989
17899979 19 18270686475241256505
20157964 124 18412547604835237190
21033648 29 17603588551770013232
21130935 74 18040997323646242283
21781055 127 16298956333503801463
22122407 14 18410583898258523064
22311459 1 16487255478146804095
23559900 14 15358273700103722343
23569943 247 16662319586646664091
23576562 1 16987423403959627149
249057 25 17846224302416153946
3383291 50 16588317120085145315
3633792 109 18411420566445731987
4073 2 18041563653886534042
4093350 32 18113613448358661802
4098825 35 18335697226315501025
4169191 19 18272653433266345661
4258327 124 18201443639622880708
444735 82 18260832631111854868
44880568 143 18200317598573435253
4516262 110 18200877392095028884
4625314 4 18411702088989037710
504579 68 17703793621903962908
5080951 261 16299501867892994915
5265222 85 18410853287835592035
57035037 87 18410855443861331709
999808 66 8646768907019019013

> <PUBCHEM_SHAPE_MULTIPOLES>
661.59
25.65
2.55
1.66
3.19
1.63
-1.23
9.55
0.71
-2.87
0.43
2.13
0.16
0.83

> <PUBCHEM_SHAPE_SELFOVERLAP>
1474.173

> <PUBCHEM_SHAPE_VOLUME>
349

> <PUBCHEM_COORDINATE_TYPE>
2
5
10

$$$$
