REMARK  Name = 11058305
REMARK  6 active torsions:
REMARK  status: ('A' for Active; 'I' for Inactive)
REMARK    1  A    between atoms: C_6  and  C_15
REMARK    2  A    between atoms: C_8  and  C_26
REMARK    3  A    between atoms: C_18  and  O_21
REMARK    4  A    between atoms: C_20  and  O_23
REMARK    5  A    between atoms: C_26  and  C_27
REMARK    6  A    between atoms: C_32  and  O_33
REMARK                            x       y       z     vdW  Elec       q    Type
REMARK                         _______ _______ _______ _____ _____    ______ ____
ROOT
ATOM      1  O   UNL     1      -3.140   2.341  -0.586  0.00  0.00    -0.267 OA
ATOM      2  O   UNL     1      -0.394   5.965   0.344  0.00  0.00    -0.247 OA
ATOM      3  N   UNL     1       1.226   1.536   0.541  0.00  0.00    -0.337 N 
ATOM      4  N   UNL     1       0.533   3.860   0.480  0.00  0.00    -0.293 N 
ATOM      5  N   UNL     1      -1.752   4.147  -0.118  0.00  0.00    -0.274 N 
ATOM      6  C   UNL     1      -0.695   0.545  -0.027  0.00  0.00    +0.026 A 
ATOM      7  C   UNL     1      -0.895   1.945  -0.006  0.00  0.00    +0.090 A 
ATOM      8  C   UNL     1       0.625   0.320   0.316  0.00  0.00    +0.097 A 
ATOM      9  C   UNL     1       0.301   2.517   0.345  0.00  0.00    +0.126 A 
ATOM     10  C   UNL     1      -2.040   2.780  -0.269  0.00  0.00    +0.264 A 
ATOM     11  C   UNL     1      -0.522   4.743   0.244  0.00  0.00    +0.328 A 
ATOM     12  H   UNL     1       2.165   1.674   0.801  0.00  0.00    +0.167 HD
ATOM     13  H   UNL     1       1.422   4.194   0.737  0.00  0.00    +0.172 HD
ATOM     14  H   UNL     1      -2.499   4.766  -0.286  0.00  0.00    +0.173 HD
ENDROOT
BRANCH   6  15
ATOM     15  C   UNL     1      -1.620  -0.510  -0.332  0.00  0.00    +0.005 C 
ATOM     16  C   UNL     1      -2.383  -1.085   0.685  0.00  0.00    +0.040 C 
ATOM     17  C   UNL     1      -1.756  -0.959  -1.645  0.00  0.00    +0.003 C 
ATOM     18  C   UNL     1      -3.282  -2.109   0.388  0.00  0.00    +0.172 C 
ATOM     19  C   UNL     1      -2.655  -1.984  -1.942  0.00  0.00    +0.040 C 
ATOM     20  C   UNL     1      -3.418  -2.558  -0.926  0.00  0.00    +0.168 C 
BRANCH  18  21
ATOM     21  O   UNL     1      -4.021  -2.663   1.389  0.00  0.00    -0.468 OA
ATOM     22  C   UNL     1      -3.458  -3.785   2.065  0.00  0.00    +0.253 C 
ENDBRANCH  18  21
BRANCH  20  23
ATOM     23  O   UNL     1      -4.293  -3.558  -1.228  0.00  0.00    -0.503 OA
ATOM     24  H   UNL     1      -4.810  -3.949  -0.551  0.00  0.00    +0.292 HD
ENDBRANCH  20  23
ENDBRANCH   6  15
BRANCH   8  26
ATOM     25  O   UNL     1       0.733  -1.971   0.778  0.00  0.00    -0.285 OA
ATOM     26  C   UNL     1       1.327  -0.923   0.438  0.00  0.00    +0.211 C 
BRANCH  26  27
ATOM     27  C   UNL     1       2.803  -1.065   0.173  0.00  0.00    +0.041 C 
ATOM     28  C   UNL     1       3.376  -0.228  -0.747  0.00  0.00    +0.006 C 
ATOM     29  C   UNL     1       3.494  -2.022   0.867  0.00  0.00    +0.006 C 
ATOM     30  C   UNL     1       4.743  -0.359  -0.993  0.00  0.00    +0.037 C 
ATOM     31  C   UNL     1       4.862  -2.152   0.621  0.00  0.00    +0.037 C 
ATOM     32  C   UNL     1       5.486  -1.321  -0.308  0.00  0.00    +0.134 C 
BRANCH  32  33
ATOM     33  O   UNL     1       6.820  -1.447  -0.546  0.00  0.00    -0.506 OA
ATOM     34  H   UNL     1       7.239  -0.888  -1.171  0.00  0.00    +0.292 HD
ENDBRANCH  32  33
ENDBRANCH  26  27
ENDBRANCH   8  26
TORSDOF 6
