REMARK  Name = 1105817
REMARK  5 active torsions:
REMARK  status: ('A' for Active; 'I' for Inactive)
REMARK    1  A    between atoms: C_1  and  S_20
REMARK    2  A    between atoms: C_2  and  N_8
REMARK    3  A    between atoms: C_9  and  C_11
REMARK    4  A    between atoms: C_12  and  C_14
REMARK    5  A    between atoms: S_20  and  N_24
REMARK                            x       y       z     vdW  Elec       q    Type
REMARK                         _______ _______ _______ _____ _____    ______ ____
ROOT
ATOM      1  C   UNL     1       3.377   1.292   0.102  0.00  0.00    +0.125 C 
ATOM      2  C   UNL     1       0.628   1.062   0.333  0.00  0.00    +0.051 C 
ATOM      3  C   UNL     1       2.724   1.819   1.217  0.00  0.00    +0.021 C 
ATOM      4  C   UNL     1       2.645   0.650  -0.896  0.00  0.00    +0.021 C 
ATOM      5  C   UNL     1       1.339   1.702   1.333  0.00  0.00    +0.016 C 
ATOM      6  C   UNL     1       1.260   0.534  -0.780  0.00  0.00    +0.016 C 
ENDROOT
BRANCH   2   8
ATOM      7  O   UNL     1      -1.376  -0.207  -1.506  0.00  0.00    -0.270 OA
ATOM      8  N   UNL     1      -0.778   0.945   0.450  0.00  0.00    -0.280 N 
ATOM      9  C   UNL     1      -1.651   0.341  -0.445  0.00  0.00    +0.250 C 
ATOM     10  H   UNL     1      -1.183   1.336   1.258  0.00  0.00    +0.155 HD
BRANCH   9  11
ATOM     11  C   UNL     1      -3.062   0.426   0.042  0.00  0.00    +0.058 C 
ATOM     12  C   UNL     1      -4.074  -0.089  -0.688  0.00  0.00    +0.006 C 
BRANCH  12  14
ATOM     13 CL   UNL     1      -5.201  -2.473   0.934  0.00  0.00    -0.082 Cl
ATOM     14  C   UNL     1      -5.482  -0.053  -0.311  0.00  0.00    +0.011 C 
ATOM     15  C   UNL     1      -6.084  -1.078   0.419  0.00  0.00    +0.058 C 
ATOM     16  C   UNL     1      -6.232   1.055  -0.707  0.00  0.00    +0.001 C 
ATOM     17  C   UNL     1      -7.435  -0.995   0.753  0.00  0.00    +0.011 C 
ATOM     18  C   UNL     1      -7.584   1.137  -0.372  0.00  0.00    +0.000 C 
ATOM     19  C   UNL     1      -8.185   0.112   0.358  0.00  0.00    +0.001 C 
ENDBRANCH  12  14
ENDBRANCH   9  11
ENDBRANCH   2   8
BRANCH   1  20
ATOM     20  S   UNL     1       5.111   1.438  -0.043  0.00  0.00    +0.075 S 
ATOM     21  O   UNL     1       5.530   2.581   0.759  0.00  0.00    -0.150 OA
ATOM     22  O   UNL     1       5.465   1.405  -1.457  0.00  0.00    -0.150 OA
BRANCH  20  24
ATOM     23  S   UNL     1       4.813  -2.541   1.407  0.00  0.00    -0.050 S 
ATOM     24  N   UNL     1       5.681   0.006   0.727  0.00  0.00    -0.194 N 
ATOM     25  N   UNL     1       4.846  -1.514  -0.966  0.00  0.00    -0.221 NA
ATOM     26  C   UNL     1       5.136  -1.254   0.301  0.00  0.00    +0.179 C 
ATOM     27  C   UNL     1       4.248  -3.506   0.106  0.00  0.00    +0.059 C 
ATOM     28  C   UNL     1       4.341  -2.796  -1.072  0.00  0.00    +0.108 C 
ATOM     29  H   UNL     1       6.360   0.050   1.438  0.00  0.00    +0.176 HD
ENDBRANCH  20  24
ENDBRANCH   1  20
TORSDOF 5
