11069215
  -OEChem-03292013303D

 40 43  0     1  0  0  0  0  0999 V2000
   -5.6603   -1.5440    1.8529 Cl  0  0  0  0  0  0  0  0  0  0  0  0
    5.4982    1.0521    0.5066 P   0  0  0  0  0  0  0  0  0  0  0  0
    2.5856   -2.0369   -1.8002 O   0  0  0  0  0  0  0  0  0  0  0  0
    0.3261   -3.1549   -0.9084 O   0  0  0  0  0  0  0  0  0  0  0  0
    4.2799   -0.0065    0.4001 O   0  0  0  0  0  0  0  0  0  0  0  0
    4.9850    2.1196    1.6077 O   0  0  0  0  0  0  0  0  0  0  0  0
    5.3853    1.8692   -0.8843 O   0  0  0  0  0  0  0  0  0  0  0  0
    6.8440    0.4464    0.7786 O   0  0  0  0  0  0  0  0  0  0  0  0
   -1.3655   -0.0330   -0.2610 N   0  0  0  0  0  0  0  0  0  0  0  0
   -2.1659    1.8435   -1.1487 N   0  0  0  0  0  0  0  0  0  0  0  0
   -3.3716   -0.8831    0.8109 N   0  0  0  0  0  0  0  0  0  0  0  0
   -5.2643    0.6158    0.4553 N   0  0  0  0  0  0  0  0  0  0  0  0
   -5.0797    2.6429   -0.8024 N   0  0  0  0  0  0  0  0  0  0  0  0
    2.0115   -0.6459    0.0861 C   0  0  1  0  0  0  0  0  0  0  0  0
    0.7687   -0.5795    0.9117 C   0  0  2  0  0  0  0  0  0  0  0  0
    1.8892   -1.5033    1.3166 C   0  0  0  0  0  0  0  0  0  0  0  0
   -0.3999   -1.0824    0.0914 C   0  0  2  0  0  0  0  0  0  0  0  0
    1.6353   -1.1201   -1.2881 C   0  0  2  0  0  0  0  0  0  0  0  0
    0.2353   -1.7522   -1.1527 C   0  0  1  0  0  0  0  0  0  0  0  0
    2.9740    0.4906    0.1441 C   0  0  0  0  0  0  0  0  0  0  0  0
   -2.6830    0.0107    0.0853 C   0  0  0  0  0  0  0  0  0  0  0  0
   -1.0993    1.0860   -0.9997 C   0  0  0  0  0  0  0  0  0  0  0  0
   -3.1630    1.1834   -0.4757 C   0  0  0  0  0  0  0  0  0  0  0  0
   -4.5076    1.4749   -0.2693 C   0  0  0  0  0  0  0  0  0  0  0  0
   -4.6582   -0.4934    0.9431 C   0  0  0  0  0  0  0  0  0  0  0  0
    0.5571    0.2666    1.5493 H   0  0  0  0  0  0  0  0  0  0  0  0
    2.4580   -1.2338    2.1997 H   0  0  0  0  0  0  0  0  0  0  0  0
    1.7591   -2.5717    1.2021 H   0  0  0  0  0  0  0  0  0  0  0  0
   -0.9481   -1.8199    0.6900 H   0  0  0  0  0  0  0  0  0  0  0  0
    1.5774   -0.2667   -1.9734 H   0  0  0  0  0  0  0  0  0  0  0  0
   -0.3476   -1.6262   -2.0713 H   0  0  0  0  0  0  0  0  0  0  0  0
    2.7028    1.1875    0.9448 H   0  0  0  0  0  0  0  0  0  0  0  0
    2.9754    1.0567   -0.7928 H   0  0  0  0  0  0  0  0  0  0  0  0
    2.2377   -2.3765   -2.6423 H   0  0  0  0  0  0  0  0  0  0  0  0
   -0.5812   -3.4960   -0.8301 H   0  0  0  0  0  0  0  0  0  0  0  0
   -0.1204    1.3092   -1.3996 H   0  0  0  0  0  0  0  0  0  0  0  0
    5.5918    2.8354    1.8935 H   0  0  0  0  0  0  0  0  0  0  0  0
    6.0812    2.5231   -1.1083 H   0  0  0  0  0  0  0  0  0  0  0  0
   -4.5175    3.2861   -1.3432 H   0  0  0  0  0  0  0  0  0  0  0  0
   -6.0589    2.8324   -0.6380 H   0  0  0  0  0  0  0  0  0  0  0  0
  1 25  1  0  0  0  0
  2  5  1  0  0  0  0
  2  6  1  0  0  0  0
  2  7  1  0  0  0  0
  2  8  2  0  0  0  0
  3 18  1  0  0  0  0
  3 34  1  0  0  0  0
  4 19  1  0  0  0  0
  4 35  1  0  0  0  0
  5 20  1  0  0  0  0
  6 37  1  0  0  0  0
  7 38  1  0  0  0  0
  9 17  1  0  0  0  0
  9 21  1  0  0  0  0
  9 22  1  0  0  0  0
 10 22  2  0  0  0  0
 10 23  1  0  0  0  0
 11 21  2  0  0  0  0
 11 25  1  0  0  0  0
 12 24  1  0  0  0  0
 12 25  2  0  0  0  0
 13 24  1  0  0  0  0
 13 39  1  0  0  0  0
 13 40  1  0  0  0  0
 14 15  1  0  0  0  0
 14 16  1  0  0  0  0
 14 18  1  0  0  0  0
 14 20  1  0  0  0  0
 15 16  1  0  0  0  0
 15 17  1  0  0  0  0
 15 26  1  0  0  0  0
 16 27  1  0  0  0  0
 16 28  1  0  0  0  0
 17 19  1  0  0  0  0
 17 29  1  0  0  0  0
 18 19  1  0  0  0  0
 18 30  1  0  0  0  0
 19 31  1  0  0  0  0
 20 32  1  0  0  0  0
 20 33  1  0  0  0  0
 21 23  1  0  0  0  0
 22 36  1  0  0  0  0
 23 24  2  0  0  0  0
M  END
> <PUBCHEM_COMPOUND_CID>
11069215

> <PUBCHEM_CONFORMER_RMSD>
0.8

> <PUBCHEM_CONFORMER_DIVERSEORDER>
1
14
17
18
20
15
16
9
4
12
11
19
21
7
22
3
10
6
2
13
8
5

> <PUBCHEM_MMFF94_PARTIAL_CHARGES>
35
1 -0.18
10 -0.57
11 -0.57
12 -0.62
13 -0.9
14 -0.19
15 -0.19
16 -0.2
17 0.35
18 0.38
19 0.28
2 1.51
20 0.38
21 0.11
22 0.04
23 0.23
24 0.41
25 0.8
26 0.1
27 0.1
28 0.1
3 -0.68
34 0.4
35 0.4
36 0.15
37 0.5
38 0.5
39 0.4
4 -0.68
40 0.4
5 -0.55
6 -0.77
7 -0.77
8 -0.7
9 0.05

> <PUBCHEM_EFFECTIVE_ROTOR_COUNT>
4.8

> <PUBCHEM_PHARMACOPHORE_FEATURES>
16
1 13 cation
1 13 donor
1 3 acceptor
1 3 donor
1 4 acceptor
1 4 donor
1 6 acceptor
1 7 acceptor
1 8 acceptor
3 11 12 25 cation
3 9 10 22 cation
3 9 11 21 cation
4 2 6 7 8 anion
5 9 10 21 22 23 rings
6 11 12 21 23 24 25 rings
6 14 15 16 17 18 19 rings

> <PUBCHEM_HEAVY_ATOM_COUNT>
25

> <PUBCHEM_ATOM_DEF_STEREO_COUNT>
5

> <PUBCHEM_ATOM_UDEF_STEREO_COUNT>
0

> <PUBCHEM_BOND_DEF_STEREO_COUNT>
0

> <PUBCHEM_BOND_UDEF_STEREO_COUNT>
0

> <PUBCHEM_ISOTOPIC_ATOM_COUNT>
0

> <PUBCHEM_COMPONENT_COUNT>
1

> <PUBCHEM_CACTVS_TAUTO_COUNT>
3

> <PUBCHEM_CONFORMER_ID>
00A8E71F00000001

> <PUBCHEM_MMFF94_ENERGY>
26.8546

> <PUBCHEM_FEATURE_SELFOVERLAP>
81.853

> <PUBCHEM_SHAPE_FINGERPRINT>
10 15 18335982064641904080
10165383 225 17988931105848075403
10319926 262 18113888322080856088
10369192 42 18272655701014515508
12236239 1 15936695938285729755
12403259 118 18114459036897804949
12403259 415 18340496581569810118
12516196 113 10953458531585135620
12596602 18 16732978760802529544
12633257 1 16298390166825707212
12730499 353 18202010923441214870
12892183 10 17822282462390901634
13583140 156 17459168772718318942
13685833 64 8574424352814068284
14251752 14 12319468666161253760
14341114 328 17458062677132752128
15183329 4 12463577265810051144
17349148 13 15140970538590201323
17980427 23 17603871121710229327
1813 80 13768206030981112154
18222031 100 14273453670026904954
20511986 3 16950550061914418651
20645477 56 18342171202809765318
20681677 155 13686299075567421990
21033648 29 18270665554808615544
21452121 103 18411136892513941326
21756936 100 18262788679529778018
22224240 67 18272937167469928243
23198884 109 14979956981892418833
23557571 272 18261123958431805403
23559900 14 17899430696555369359
2838139 119 18342164592760631924
3009799 131 10809333473073274282
392239 28 17749682882129669345
439807 62 14274884246835203139
5104073 3 18115592539408016761
559249 180 11527954443208311509
57527585 21 18055894542451359229
59755656 520 17346604100845524734
6669772 16 17988647372473376966

> <PUBCHEM_SHAPE_MULTIPOLES>
460.09
13.78
2.48
1.46
6.13
0.02
-0.01
-6.89
-5.7
-0.71
0.64
0.28
0.49
2.41

> <PUBCHEM_SHAPE_SELFOVERLAP>
981.36

> <PUBCHEM_SHAPE_VOLUME>
260.1

> <PUBCHEM_COORDINATE_TYPE>
2
5
10

$$$$
