REMARK  Name = 11068647
REMARK  7 active torsions:
REMARK  status: ('A' for Active; 'I' for Inactive)
REMARK    1  A    between atoms: C_5  and  C_24
REMARK    2  A    between atoms: C_13  and  O_18
REMARK    3  A    between atoms: CA_17  and  C_21
REMARK    4  A    between atoms: C_21  and  O_22
REMARK    5  A    between atoms: C_24  and  C_25
REMARK    6  A    between atoms: C_25  and  N_26
REMARK    7  A    between atoms: N_26  and  C_29
REMARK                            x       y       z     vdW  Elec       q    Type
REMARK                         _______ _______ _______ _____ _____    ______ ____
ROOT
ATOM      1  O   UNL     1       2.334  -2.007  -0.266  0.00  0.00    -0.445 OA
ATOM      2  O   UNL     1      -1.265  -1.995  -0.121  0.00  0.00    -0.467 OA
ATOM      3  O   UNL     1       1.004  -3.892  -0.287  0.00  0.00    -0.246 OA
ATOM      4  N   UNL     1      -3.887   1.232   0.038  0.00  0.00    -0.403 NA
ATOM      5  C   UNL     1       2.108  -0.583  -0.126  0.00  0.00    +0.193 C 
ATOM      6  C   UNL     1       0.635  -0.491  -0.096  0.00  0.00    +0.049 C 
ATOM      7  C   UNL     1      -0.236   0.676  -0.067  0.00  0.00    +0.037 C 
ATOM      8  C   UNL     1       0.073  -1.698  -0.136  0.00  0.00    +0.285 C 
ATOM      9  C   UNL     1      -1.626   0.417  -0.038  0.00  0.00    +0.058 C 
ATOM     10  C   UNL     1      -2.116  -0.904  -0.058  0.00  0.00    +0.127 C 
ATOM     11  C   UNL     1       1.145  -2.684  -0.232  0.00  0.00    +0.362 C 
ATOM     12  C   UNL     1      -2.560   1.468   0.005  0.00  0.00    +0.116 C 
ATOM     13  C   UNL     1       0.223   1.991  -0.077  0.00  0.00    +0.130 C 
ATOM     14  C   UNL     1      -2.069   2.769   0.007  0.00  0.00    +0.088 C 
ATOM     15  C   UNL     1      -0.697   3.035  -0.037  0.00  0.00    +0.018 C 
ATOM     16  C   UNL     1      -3.478  -1.153  -0.026  0.00  0.00    +0.130 C 
ATOM     17  CA  UNL     1      -4.313  -0.054   0.023  0.00  0.00    +0.191 C 
ENDROOT
BRANCH  13  18
ATOM     18  O   UNL     1       1.538   2.319  -0.183  0.00  0.00    -0.506 OA
ATOM     19  H   UNL     1       2.188   1.645  -0.213  0.00  0.00    +0.292 HD
ENDBRANCH  13  18
BRANCH  17  21
ATOM     20  OXT UNL     1      -6.341  -1.324   0.049  0.00  0.00    -0.243 OA
ATOM     21  C   UNL     1      -5.754  -0.236   0.059  0.00  0.00    +0.364 C 
BRANCH  21  22
ATOM     22  O   UNL     1      -6.428   0.947   0.108  0.00  0.00    -0.476 OA
ATOM     23  H   UNL     1      -5.955   1.756   0.114  0.00  0.00    +0.295 HD
ENDBRANCH  21  22
ENDBRANCH  17  21
BRANCH   5  24
ATOM     24  C   UNL     1       2.802  -0.181   1.172  0.00  0.00    +0.074 C 
BRANCH  24  25
ATOM     25  C   UNL     1       4.318  -0.278   1.076  0.00  0.00    +0.133 C 
BRANCH  25  26
ATOM     26  N   UNL     1       4.809   0.616   0.026  0.00  0.00    -0.240 NA
BRANCH  26  29
ATOM     27  N   UNL     1       6.630   1.453  -1.138  0.00  0.00    -0.370 N 
ATOM     28  N   UNL     1       7.059  -0.081   0.494  0.00  0.00    -0.370 N 
ATOM     29  C   UNL     1       6.090   0.639  -0.170  0.00  0.00    +0.189 C 
ATOM     30  H   UNL     1       6.043   2.022  -1.686  0.00  0.00    +0.159 HD
ATOM     31  H   UNL     1       7.604   1.466  -1.282  0.00  0.00    +0.159 HD
ATOM     32  H   UNL     1       6.805  -0.703   1.213  0.00  0.00    +0.159 HD
ATOM     33  H   UNL     1       8.007   0.027   0.249  0.00  0.00    +0.159 HD
ENDBRANCH  26  29
ENDBRANCH  25  26
ENDBRANCH  24  25
ENDBRANCH   5  24
TORSDOF 7
