REMARK  Name = 11069215
REMARK  8 active torsions:
REMARK  status: ('A' for Active; 'I' for Inactive)
REMARK    1  A    between atoms: C_1  and  C_24
REMARK    2  A    between atoms: C_4  and  N_8
REMARK    3  A    between atoms: C_5  and  O_20
REMARK    4  A    between atoms: C_6  and  O_22
REMARK    5  A    between atoms: C_24  and  O_25
REMARK    6  A    between atoms: O_25  and  P_26
REMARK    7  A    between atoms: P_26  and  O_28
REMARK    8  A    between atoms: P_26  and  O_30
REMARK                            x       y       z     vdW  Elec       q    Type
REMARK                         _______ _______ _______ _____ _____    ______ ____
ROOT
ATOM      1  C   UNL     1       2.011  -0.646   0.086  0.00  0.00    +0.057 C 
ATOM      2  C   UNL     1       0.769  -0.580   0.912  0.00  0.00    +0.026 C 
ATOM      3  C   UNL     1       1.889  -1.503   1.317  0.00  0.00    +0.007 C 
ATOM      4  C   UNL     1      -0.400  -1.082   0.091  0.00  0.00    +0.106 C 
ATOM      5  C   UNL     1       1.635  -1.120  -1.288  0.00  0.00    +0.141 C 
ATOM      6  C   UNL     1       0.235  -1.752  -1.153  0.00  0.00    +0.155 C 
ENDROOT
BRANCH   4   8
ATOM      7 CL   UNL     1      -5.660  -1.544   1.853  0.00  0.00    +0.024 Cl
ATOM      8  N   UNL     1      -1.365  -0.033  -0.261  0.00  0.00    -0.260 N 
ATOM      9  N   UNL     1      -2.166   1.843  -1.149  0.00  0.00    -0.240 NA
ATOM     10  N   UNL     1      -3.372  -0.883   0.811  0.00  0.00    -0.314 NA
ATOM     11  N   UNL     1      -5.264   0.616   0.455  0.00  0.00    -0.314 NA
ATOM     12  C   UNL     1      -2.683   0.011   0.085  0.00  0.00    +0.219 C 
ATOM     13  C   UNL     1      -1.099   1.086  -1.000  0.00  0.00    +0.222 C 
ATOM     14  C   UNL     1      -3.163   1.183  -0.476  0.00  0.00    +0.167 C 
ATOM     15  C   UNL     1      -4.508   1.475  -0.269  0.00  0.00    +0.212 C 
ATOM     16  C   UNL     1      -4.658  -0.493   0.943  0.00  0.00    +0.207 C 
ATOM     17  N   UNL     1      -5.080   2.643  -0.802  0.00  0.00    -0.331 N 
ATOM     18  H   UNL     1      -6.032   2.838  -0.650  0.00  0.00    +0.145 HD
ATOM     19  H   UNL     1      -4.528   3.265  -1.329  0.00  0.00    +0.145 HD
ENDBRANCH   4   8
BRANCH   5  20
ATOM     20  O   UNL     1       2.586  -2.037  -1.800  0.00  0.00    -0.382 OA
ATOM     21  H   UNL     1       3.450  -1.602  -1.870  0.00  0.00    +0.210 HD
ENDBRANCH   5  20
BRANCH   6  22
ATOM     22  O   UNL     1       0.326  -3.155  -0.908  0.00  0.00    -0.380 OA
ATOM     23  H   UNL     1      -0.566  -3.527  -0.827  0.00  0.00    +0.211 HD
ENDBRANCH   6  22
BRANCH   1  24
ATOM     24  C   UNL     1       2.974   0.491   0.144  0.00  0.00    +0.156 C 
BRANCH  24  25
ATOM     25  O   UNL     1       4.280  -0.006   0.400  0.00  0.00    -0.273 OA
BRANCH  25  26
ATOM     26  P   UNL     1       5.498   1.052   0.507  0.00  0.00    +0.473 P 
ATOM     27  O   UNL     1       6.844   0.446   0.779  0.00  0.00    -0.227 OA
BRANCH  26  28
ATOM     28  O   UNL     1       4.985   2.120   1.608  0.00  0.00    -0.303 OA
ATOM     29  H   UNL     1       4.112   2.456   1.350  0.00  0.00    +0.222 HD
ENDBRANCH  26  28
BRANCH  26  30
ATOM     30  O   UNL     1       5.385   1.869  -0.884  0.00  0.00    -0.303 OA
ATOM     31  H   UNL     1       4.488   2.224  -0.979  0.00  0.00    +0.222 HD
ENDBRANCH  26  30
ENDBRANCH  25  26
ENDBRANCH  24  25
ENDBRANCH   1  24
TORSDOF 8
