REMARK  Name = 11068650
REMARK  12 active torsions:
REMARK  status: ('A' for Active; 'I' for Inactive)
REMARK    1  A    between atoms: C_1  and  O_2
REMARK    2  A    between atoms: C_1  and  C_6
REMARK    3  A    between atoms: C_1  and  C_19
REMARK    4  A    between atoms: O_2  and  C_4
REMARK    5  A    between atoms: C_6  and  C_7
REMARK    6  A    between atoms: C_7  and  O_8
REMARK    7  A    between atoms: C_7  and  C_12
REMARK    8  A    between atoms: O_8  and  C_10
REMARK    9  A    between atoms: C_12  and  C_13
REMARK   10  A    between atoms: C_13  and  O_15
REMARK   11  A    between atoms: O_15  and  C_17
REMARK   12  A    between atoms: C_19  and  C_22
REMARK                            x       y       z     vdW  Elec       q    Type
REMARK                         _______ _______ _______ _____ _____    ______ ____
ROOT
ATOM      1  C   UNL     1       0.644  -1.178   0.508  0.00  0.00    +0.176 C 
ENDROOT
BRANCH   1   2
ATOM      2  O   UNL     1       1.295  -1.821   1.602  0.00  0.00    -0.452 OA
BRANCH   2   4
ATOM      3  O   UNL     1       1.492  -3.761   0.363  0.00  0.00    -0.250 OA
ATOM      4  C   UNL     1       1.666  -3.118   1.390  0.00  0.00    +0.317 C 
ATOM      5  C   UNL     1       2.333  -3.660   2.617  0.00  0.00    +0.121 C 
ENDBRANCH   2   4
ENDBRANCH   1   2
BRANCH   1   6
ATOM      6  C   UNL     1      -0.867  -1.435   0.607  0.00  0.00    +0.087 C 
BRANCH   6   7
ATOM      7  C   UNL     1      -1.658  -0.813  -0.557  0.00  0.00    +0.176 C 
BRANCH   7   8
ATOM      8  O   UNL     1      -1.195  -1.394  -1.773  0.00  0.00    -0.452 OA
BRANCH   8  10
ATOM      9  O   UNL     1      -1.651   0.568  -2.903  0.00  0.00    -0.250 OA
ATOM     10  C   UNL     1      -1.248  -0.587  -2.873  0.00  0.00    +0.317 C 
ATOM     11  C   UNL     1      -0.731  -1.327  -4.070  0.00  0.00    +0.121 C 
ENDBRANCH   8  10
ENDBRANCH   7   8
BRANCH   7  12
ATOM     12  C   UNL     1      -3.166  -1.072  -0.386  0.00  0.00    +0.087 C 
BRANCH  12  13
ATOM     13  C   UNL     1      -3.831  -0.135   0.633  0.00  0.00    +0.173 C 
ATOM     14  C   UNL     1      -5.311  -0.461   0.792  0.00  0.00    +0.047 C 
BRANCH  13  15
ATOM     15  O   UNL     1      -3.709   1.214   0.194  0.00  0.00    -0.452 OA
BRANCH  15  17
ATOM     16  O   UNL     1      -3.678   1.941   2.387  0.00  0.00    -0.250 OA
ATOM     17  C   UNL     1      -3.642   2.155   1.183  0.00  0.00    +0.317 C 
ATOM     18  C   UNL     1      -3.516   3.520   0.577  0.00  0.00    +0.121 C 
ENDBRANCH  15  17
ENDBRANCH  13  15
ENDBRANCH  12  13
ENDBRANCH   7  12
ENDBRANCH   6   7
ENDBRANCH   1   6
BRANCH   1  19
ATOM     19  C   UNL     1       0.999   0.316   0.498  0.00  0.00    +0.088 C 
BRANCH  19  22
ATOM     20  O   UNL     1       2.661   2.043   0.390  0.00  0.00    -0.449 OA
ATOM     21  O   UNL     1       4.163   3.741   0.379  0.00  0.00    -0.245 OA
ATOM     22  C   UNL     1       2.492   0.609   0.436  0.00  0.00    +0.177 C 
ATOM     23  C   UNL     1       3.139  -0.044  -0.778  0.00  0.00    +0.070 C 
ATOM     24  C   UNL     1       4.533   0.465  -0.914  0.00  0.00    -0.016 C 
ATOM     25  C   UNL     1       3.893   2.567   0.150  0.00  0.00    +0.341 C 
ATOM     26  C   UNL     1       4.893   1.664  -0.448  0.00  0.00    +0.077 C 
ENDBRANCH  19  22
ENDBRANCH   1  19
TORSDOF 12
