REMARK  Name = 11079919
REMARK  8 active torsions:
REMARK  status: ('A' for Active; 'I' for Inactive)
REMARK    1  A    between atoms: C_4  and  C_23
REMARK    2  A    between atoms: C_10  and  O_19
REMARK    3  A    between atoms: C_17  and  O_21
REMARK    4  A    between atoms: C_23  and  O_24
REMARK    5  A    between atoms: C_23  and  C_26
REMARK    6  A    between atoms: C_26  and  C_27
REMARK    7  A    between atoms: C_28  and  C_30
REMARK    8  A    between atoms: C_30  and  O_31
REMARK                            x       y       z     vdW  Elec       q    Type
REMARK                         _______ _______ _______ _____ _____    ______ ____
ROOT
ATOM      1  O   UNL     1      -0.260   2.343  -0.026  0.00  0.00    -0.479 OA
ATOM      2  O   UNL     1      -2.826   2.376  -0.818  0.00  0.00    -0.287 OA
ATOM      3  O   UNL     1      -3.488  -2.650   0.854  0.00  0.00    -0.283 OA
ATOM      4  C   UNL     1       1.684   1.232   0.914  0.00  0.00    +0.086 C 
ATOM      5  C   UNL     1       0.976   2.596   0.692  0.00  0.00    +0.172 C 
ATOM      6  C   UNL     1       0.456   0.375   0.928  0.00  0.00    +0.051 C 
ATOM      7  C   UNL     1       2.463   1.218   2.231  0.00  0.00    +0.011 C 
ATOM      8  C   UNL     1      -0.606   1.067   0.352  0.00  0.00    +0.141 C 
ATOM      9  C   UNL     1       1.775   3.641  -0.074  0.00  0.00    +0.048 C 
ATOM     10  C   UNL     1       0.294  -0.930   1.362  0.00  0.00    +0.133 C 
ATOM     11  C   UNL     1      -1.855   0.482   0.174  0.00  0.00    +0.076 C 
ATOM     12  C   UNL     1      -2.025  -0.829   0.614  0.00  0.00    +0.051 C 
ATOM     13  C   UNL     1      -0.957  -1.532   1.208  0.00  0.00    +0.040 C 
ATOM     14  C   UNL     1      -2.972   1.215  -0.449  0.00  0.00    +0.198 C 
ATOM     15  C   UNL     1      -3.326  -1.500   0.461  0.00  0.00    +0.229 C 
ATOM     16  C   UNL     1      -4.282   0.511  -0.618  0.00  0.00    +0.054 C 
ATOM     17  C   UNL     1      -4.438  -0.752  -0.182  0.00  0.00    +0.176 C 
ATOM     18  C   UNL     1      -5.340   1.334  -1.303  0.00  0.00    +0.038 C 
ENDROOT
BRANCH  10  19
ATOM     19  O   UNL     1       1.301  -1.624   1.950  0.00  0.00    -0.506 OA
ATOM     20  H   UNL     1       2.143  -1.227   2.057  0.00  0.00    +0.292 HD
ENDBRANCH  10  19
BRANCH  17  21
ATOM     21  O   UNL     1      -5.617  -1.465  -0.278  0.00  0.00    -0.468 OA
ATOM     22  C   UNL     1      -5.670  -2.183  -1.494  0.00  0.00    +0.253 C 
ENDBRANCH  17  21
BRANCH   4  23
ATOM     23  C   UNL     1       2.595   0.798  -0.243  0.00  0.00    +0.122 C 
BRANCH  23  24
ATOM     24  O   UNL     1       1.892   1.003  -1.465  0.00  0.00    -0.384 OA
ATOM     25  H   UNL     1       1.655   1.940  -1.549  0.00  0.00    +0.210 HD
ENDBRANCH  23  24
BRANCH  23  26
ATOM     26  C   UNL     1       2.964  -0.680  -0.120  0.00  0.00    +0.055 C 
BRANCH  26  27
ATOM     27  C   UNL     1       3.828  -1.128  -1.270  0.00  0.00    -0.030 C 
ATOM     28  C   UNL     1       5.172  -1.118  -1.349  0.00  0.00    -0.019 C 
ATOM     29  C   UNL     1       5.965  -1.585  -2.539  0.00  0.00    +0.029 C 
BRANCH  28  30
ATOM     30  C   UNL     1       5.994  -0.580  -0.205  0.00  0.00    +0.159 C 
BRANCH  30  31
ATOM     31  O   UNL     1       6.302  -1.635   0.696  0.00  0.00    -0.378 OA
ATOM     32  H   UNL     1       6.831  -1.288   1.432  0.00  0.00    +0.211 HD
ENDBRANCH  30  31
ENDBRANCH  28  30
ENDBRANCH  26  27
ENDBRANCH  23  26
ENDBRANCH   4  23
TORSDOF 8
