REMARK  Name = 11078329
REMARK  10 active torsions:
REMARK  status: ('A' for Active; 'I' for Inactive)
REMARK    1  A    between atoms: C_2  and  O_7
REMARK    2  A    between atoms: C_3  and  O_9
REMARK    3  A    between atoms: C_4  and  O_11
REMARK    4  A    between atoms: C_5  and  C_27
REMARK    5  A    between atoms: C_6  and  O_13
REMARK    6  A    between atoms: O_13  and  C_14
REMARK    7  A    between atoms: C_15  and  C_22
REMARK    8  A    between atoms: C_19  and  O_20
REMARK    9  A    between atoms: C_22  and  C_23
REMARK   10  A    between atoms: C_27  and  O_28
REMARK                            x       y       z     vdW  Elec       q    Type
REMARK                         _______ _______ _______ _____ _____    ______ ____
ROOT
ATOM      1  O   UNL     1      -1.310   0.704   0.451  0.00  0.00    -0.316 OA
ATOM      2  C   UNL     1      -3.483  -0.723  -0.769  0.00  0.00    +0.173 C 
ATOM      3  C   UNL     1      -3.663   0.125   0.490  0.00  0.00    +0.169 C 
ATOM      4  C   UNL     1      -2.025  -1.148  -0.946  0.00  0.00    +0.210 C 
ATOM      5  C   UNL     1      -2.627   1.250   0.540  0.00  0.00    +0.177 C 
ATOM      6  C   UNL     1      -1.076   0.039  -0.788  0.00  0.00    +0.318 C 
ENDROOT
BRANCH   2   7
ATOM      7  O   UNL     1      -4.306  -1.883  -0.642  0.00  0.00    -0.379 OA
ATOM      8  H   UNL     1      -5.230  -1.614  -0.529  0.00  0.00    +0.211 HD
ENDBRANCH   2   7
BRANCH   3   9
ATOM      9  O   UNL     1      -4.972   0.689   0.496  0.00  0.00    -0.379 OA
ATOM     10  H   UNL     1      -5.630  -0.022   0.464  0.00  0.00    +0.211 HD
ENDBRANCH   3   9
BRANCH   4  11
ATOM     11  O   UNL     1      -1.846  -1.693  -2.253  0.00  0.00    -0.377 OA
ATOM     12  H   UNL     1      -2.442  -2.449  -2.373  0.00  0.00    +0.211 HD
ENDBRANCH   4  11
BRANCH   6  13
ATOM     13  O   UNL     1       0.261  -0.459  -0.823  0.00  0.00    -0.451 OA
BRANCH  13  14
ATOM     14  C   UNL     1       1.262   0.464  -0.690  0.00  0.00    +0.138 C 
ATOM     15  C   UNL     1       2.169   0.377   0.363  0.00  0.00    +0.019 C 
ATOM     16  C   UNL     1       1.363   1.492  -1.623  0.00  0.00    +0.040 C 
ATOM     17  C   UNL     1       3.184   1.325   0.484  0.00  0.00    +0.036 C 
ATOM     18  C   UNL     1       2.378   2.441  -1.502  0.00  0.00    +0.040 C 
ATOM     19  C   UNL     1       3.289   2.357  -0.449  0.00  0.00    +0.134 C 
BRANCH  19  20
ATOM     20  O   UNL     1       4.279   3.284  -0.331  0.00  0.00    -0.506 OA
ATOM     21  H   UNL     1       4.891   3.228   0.377  0.00  0.00    +0.292 HD
ENDBRANCH  19  20
BRANCH  15  22
ATOM     22  C   UNL     1       2.072  -0.722   1.370  0.00  0.00    +0.055 C 
BRANCH  22  23
ATOM     23  C   UNL     1       2.867  -1.944   0.983  0.00  0.00    -0.030 C 
ATOM     24  C   UNL     1       2.412  -3.190   0.747  0.00  0.00    -0.048 C 
ATOM     25  C   UNL     1       3.263  -4.367   0.363  0.00  0.00    +0.026 C 
ATOM     26  C   UNL     1       0.943  -3.500   0.870  0.00  0.00    +0.026 C 
ENDBRANCH  22  23
ENDBRANCH  15  22
ENDBRANCH  13  14
ENDBRANCH   6  13
BRANCH   5  27
ATOM     27  C   UNL     1      -2.711   2.038   1.844  0.00  0.00    +0.169 C 
BRANCH  27  28
ATOM     28  O   UNL     1      -1.725   3.044   1.814  0.00  0.00    -0.379 OA
ATOM     29  H   UNL     1      -1.761   3.557   2.636  0.00  0.00    +0.211 HD
ENDBRANCH  27  28
ENDBRANCH   5  27
TORSDOF 10
