11075034
  -OEChem-03292013303D

 24 25  0     1  0  0  0  0  0999 V2000
   -1.2056    1.2626    0.3897 O   0  0  0  0  0  0  0  0  0  0  0  0
    2.9570    1.9395   -0.4857 O   0  0  0  0  0  0  0  0  0  0  0  0
    0.2379    2.9982   -0.1039 O   0  0  0  0  0  0  0  0  0  0  0  0
    3.0629   -2.8060    0.0772 O   0  0  0  0  0  0  0  0  0  0  0  0
   -4.3256   -1.1510   -1.0385 O   0  0  0  0  0  0  0  0  0  0  0  0
   -3.9356    0.1736    0.7710 O   0  0  0  0  0  0  0  0  0  0  0  0
   -1.1364   -0.1791    0.5571 C   0  0  2  0  0  0  0  0  0  0  0  0
    0.2957   -0.4582    0.3108 C   0  0  0  0  0  0  0  0  0  0  0  0
    0.9601    0.7223    0.0431 C   0  0  0  0  0  0  0  0  0  0  0  0
   -2.0761   -0.8384   -0.4366 C   0  0  0  0  0  0  0  0  0  0  0  0
    0.0083    1.8206    0.0871 C   0  0  0  0  0  0  0  0  0  0  0  0
    0.9847   -1.6582    0.3297 C   0  0  0  0  0  0  0  0  0  0  0  0
    2.3165    0.7741   -0.2213 C   0  0  0  0  0  0  0  0  0  0  0  0
    2.3580   -1.6399    0.0665 C   0  0  0  0  0  0  0  0  0  0  0  0
    3.0194   -0.4310   -0.2076 C   0  0  0  0  0  0  0  0  0  0  0  0
   -3.5211   -0.5293   -0.1384 C   0  0  0  0  0  0  0  0  0  0  0  0
   -1.4058   -0.4044    1.5952 H   0  0  0  0  0  0  0  0  0  0  0  0
   -1.8687   -0.4796   -1.4524 H   0  0  0  0  0  0  0  0  0  0  0  0
   -1.9523   -1.9270   -0.4107 H   0  0  0  0  0  0  0  0  0  0  0  0
    0.4733   -2.5908    0.5451 H   0  0  0  0  0  0  0  0  0  0  0  0
    4.0882   -0.4361   -0.4100 H   0  0  0  0  0  0  0  0  0  0  0  0
    3.8989    1.7543   -0.6423 H   0  0  0  0  0  0  0  0  0  0  0  0
    3.9949   -2.6131   -0.1234 H   0  0  0  0  0  0  0  0  0  0  0  0
   -5.2743   -0.9673   -0.8691 H   0  0  0  0  0  0  0  0  0  0  0  0
  1  7  1  0  0  0  0
  1 11  1  0  0  0  0
  2 13  1  0  0  0  0
  2 22  1  0  0  0  0
  3 11  2  0  0  0  0
  4 14  1  0  0  0  0
  4 23  1  0  0  0  0
  5 16  1  0  0  0  0
  5 24  1  0  0  0  0
  6 16  2  0  0  0  0
  7  8  1  0  0  0  0
  7 10  1  0  0  0  0
  7 17  1  0  0  0  0
  8  9  2  0  0  0  0
  8 12  1  0  0  0  0
  9 11  1  0  0  0  0
  9 13  1  0  0  0  0
 10 16  1  0  0  0  0
 10 18  1  0  0  0  0
 10 19  1  0  0  0  0
 12 14  2  0  0  0  0
 12 20  1  0  0  0  0
 13 15  2  0  0  0  0
 14 15  1  0  0  0  0
 15 21  1  0  0  0  0
M  END
> <PUBCHEM_COMPOUND_CID>
11075034

> <PUBCHEM_CONFORMER_RMSD>
0.6

> <PUBCHEM_CONFORMER_DIVERSEORDER>
1
6
4
3
5
2

> <PUBCHEM_MMFF94_PARTIAL_CHARGES>
21
1 -0.43
10 0.06
11 0.63
12 -0.15
13 0.08
14 0.08
15 -0.15
16 0.66
2 -0.53
20 0.15
21 0.15
22 0.45
23 0.45
24 0.5
3 -0.57
4 -0.53
5 -0.65
6 -0.57
7 0.42
8 -0.14
9 0.09

> <PUBCHEM_EFFECTIVE_ROTOR_COUNT>
2.4

> <PUBCHEM_PHARMACOPHORE_FEATURES>
8
1 2 donor
1 3 acceptor
1 4 donor
1 5 acceptor
1 6 acceptor
3 5 6 16 anion
5 1 7 8 9 11 rings
6 8 9 12 13 14 15 rings

> <PUBCHEM_HEAVY_ATOM_COUNT>
16

> <PUBCHEM_ATOM_DEF_STEREO_COUNT>
0

> <PUBCHEM_ATOM_UDEF_STEREO_COUNT>
1

> <PUBCHEM_BOND_DEF_STEREO_COUNT>
0

> <PUBCHEM_BOND_UDEF_STEREO_COUNT>
0

> <PUBCHEM_ISOTOPIC_ATOM_COUNT>
0

> <PUBCHEM_COMPONENT_COUNT>
1

> <PUBCHEM_CACTVS_TAUTO_COUNT>
12

> <PUBCHEM_CONFORMER_ID>
00A8FDDA00000001

> <PUBCHEM_MMFF94_ENERGY>
33.7309

> <PUBCHEM_FEATURE_SELFOVERLAP>
40.743

> <PUBCHEM_SHAPE_FINGERPRINT>
10967382 1 18410014376898903002
10980938 120 18410290354122269919
11471102 20 18336824294511243189
11578080 2 17773569686254476233
116883 192 18125440800227275575
11769659 78 18342735165805990115
12553582 1 18265335010420036075
13140716 1 17907300201490237777
14251717 144 18410288159563001175
14576447 43 18200021992827045743
14617773 55 18129956576071333569
15042514 8 17327741695677511946
15375462 189 18272658969399763963
15442244 35 18340772524929252321
15477762 27 18339637949214877903
15757776 16 18412260657642826102
16945 1 18337961215098536504
18186145 218 17385725768628899835
193761 8 18193278499030013872
19422 9 18272371971105978079
20645477 70 18408315593091000615
20871998 184 17912920582919599054
21267235 1 18340217327228497131
21452121 199 18264468634090824386
21501502 16 18266748986873492832
21501925 9 18337381656912906522
22112679 90 18200327506445360313
221490 88 18119533377976753899
2255824 54 18195808694080847813
2334 1 18410015407474964648
23402539 116 18341324513994317326
23402655 69 18411694413992690989
23419403 2 17466451933910203648
23463225 33 18341334400887615903
23598291 2 18273497862470313583
25 1 18189618413387972645
2748010 2 18337383834139513476
3071541 250 18337959995464941862
54173680 148 17617377286496980282
581208 293 18411416245623781376
7364860 26 18270958076018899553
77492 1 17989215845326835739
81228 2 18049167669923600416
84936 182 17842841298179465657

> <PUBCHEM_SHAPE_MULTIPOLES>
294.06
6.07
2.55
0.74
5.36
0.67
0.02
-2.5
0.93
-2
0.09
0.34
-0.06
-0.61

> <PUBCHEM_SHAPE_SELFOVERLAP>
643.782

> <PUBCHEM_SHAPE_VOLUME>
160.7

> <PUBCHEM_COORDINATE_TYPE>
2
5
10

$$$$
