11078329
  -OEChem-03292013303D

 48 49  0     1  0  0  0  0  0999 V2000
   -1.3095    0.7044    0.4511 O   0  0  0  0  0  0  0  0  0  0  0  0
    0.2609   -0.4590   -0.8234 O   0  0  0  0  0  0  0  0  0  0  0  0
   -4.3055   -1.8834   -0.6418 O   0  0  0  0  0  0  0  0  0  0  0  0
   -4.9716    0.6891    0.4961 O   0  0  0  0  0  0  0  0  0  0  0  0
   -1.8464   -1.6929   -2.2535 O   0  0  0  0  0  0  0  0  0  0  0  0
   -1.7246    3.0440    1.8139 O   0  0  0  0  0  0  0  0  0  0  0  0
    4.2786    3.2841   -0.3306 O   0  0  0  0  0  0  0  0  0  0  0  0
   -3.4830   -0.7225   -0.7692 C   0  0  1  0  0  0  0  0  0  0  0  0
   -3.6628    0.1250    0.4904 C   0  0  1  0  0  0  0  0  0  0  0  0
   -2.0254   -1.1483   -0.9462 C   0  0  2  0  0  0  0  0  0  0  0  0
   -2.6267    1.2504    0.5404 C   0  0  1  0  0  0  0  0  0  0  0  0
   -1.0761    0.0394   -0.7882 C   0  0  1  0  0  0  0  0  0  0  0  0
   -2.7107    2.0378    1.8442 C   0  0  0  0  0  0  0  0  0  0  0  0
    1.2620    0.4635   -0.6895 C   0  0  0  0  0  0  0  0  0  0  0  0
    2.1689    0.3766    0.3630 C   0  0  0  0  0  0  0  0  0  0  0  0
    1.3627    1.4918   -1.6227 C   0  0  0  0  0  0  0  0  0  0  0  0
    2.0725   -0.7216    1.3700 C   0  0  0  0  0  0  0  0  0  0  0  0
    3.1843    1.3253    0.4836 C   0  0  0  0  0  0  0  0  0  0  0  0
    2.3782    2.4405   -1.5023 C   0  0  0  0  0  0  0  0  0  0  0  0
    3.2890    2.3572   -0.4491 C   0  0  0  0  0  0  0  0  0  0  0  0
    2.8667   -1.9444    0.9827 C   0  0  0  0  0  0  0  0  0  0  0  0
    2.4117   -3.1899    0.7472 C   0  0  0  0  0  0  0  0  0  0  0  0
    3.2632   -4.3667    0.3635 C   0  0  0  0  0  0  0  0  0  0  0  0
    0.9434   -3.5003    0.8701 C   0  0  0  0  0  0  0  0  0  0  0  0
   -3.8391   -0.1868   -1.6579 H   0  0  0  0  0  0  0  0  0  0  0  0
   -3.5782   -0.5166    1.3762 H   0  0  0  0  0  0  0  0  0  0  0  0
   -1.7740   -1.9432   -0.2345 H   0  0  0  0  0  0  0  0  0  0  0  0
   -2.7691    1.9542   -0.2910 H   0  0  0  0  0  0  0  0  0  0  0  0
   -1.2254    0.7396   -1.6203 H   0  0  0  0  0  0  0  0  0  0  0  0
   -2.5152    1.3990    2.7118 H   0  0  0  0  0  0  0  0  0  0  0  0
   -3.6883    2.5120    1.9686 H   0  0  0  0  0  0  0  0  0  0  0  0
   -5.2209   -1.5793   -0.5173 H   0  0  0  0  0  0  0  0  0  0  0  0
   -5.0535    1.2656   -0.2827 H   0  0  0  0  0  0  0  0  0  0  0  0
   -2.0672   -1.0021   -2.9012 H   0  0  0  0  0  0  0  0  0  0  0  0
   -0.8612    2.6105    1.7022 H   0  0  0  0  0  0  0  0  0  0  0  0
    0.6765    1.5633   -2.4614 H   0  0  0  0  0  0  0  0  0  0  0  0
    2.4802   -0.3648    2.3266 H   0  0  0  0  0  0  0  0  0  0  0  0
    1.0240   -0.9162    1.6028 H   0  0  0  0  0  0  0  0  0  0  0  0
    3.8965    1.2616    1.3029 H   0  0  0  0  0  0  0  0  0  0  0  0
    2.4571    3.2397   -2.2342 H   0  0  0  0  0  0  0  0  0  0  0  0
    3.9407   -1.7819    0.8932 H   0  0  0  0  0  0  0  0  0  0  0  0
    4.3204   -4.0914    0.2894 H   0  0  0  0  0  0  0  0  0  0  0  0
    3.1760   -5.1618    1.1107 H   0  0  0  0  0  0  0  0  0  0  0  0
    2.9518   -4.7625   -0.6084 H   0  0  0  0  0  0  0  0  0  0  0  0
    0.2999   -2.6723    1.1616 H   0  0  0  0  0  0  0  0  0  0  0  0
    0.5661   -3.8696   -0.0902 H   0  0  0  0  0  0  0  0  0  0  0  0
    0.7965   -4.2908    1.6146 H   0  0  0  0  0  0  0  0  0  0  0  0
    4.8153    3.0744    0.4529 H   0  0  0  0  0  0  0  0  0  0  0  0
  1 11  1  0  0  0  0
  1 12  1  0  0  0  0
  2 12  1  0  0  0  0
  2 14  1  0  0  0  0
  3  8  1  0  0  0  0
  3 32  1  0  0  0  0
  4  9  1  0  0  0  0
  4 33  1  0  0  0  0
  5 10  1  0  0  0  0
  5 34  1  0  0  0  0
  6 13  1  0  0  0  0
  6 35  1  0  0  0  0
  7 20  1  0  0  0  0
  7 48  1  0  0  0  0
  8  9  1  0  0  0  0
  8 10  1  0  0  0  0
  8 25  1  0  0  0  0
  9 11  1  0  0  0  0
  9 26  1  0  0  0  0
 10 12  1  0  0  0  0
 10 27  1  0  0  0  0
 11 13  1  0  0  0  0
 11 28  1  0  0  0  0
 12 29  1  0  0  0  0
 13 30  1  0  0  0  0
 13 31  1  0  0  0  0
 14 15  2  0  0  0  0
 14 16  1  0  0  0  0
 15 17  1  0  0  0  0
 15 18  1  0  0  0  0
 16 19  2  0  0  0  0
 16 36  1  0  0  0  0
 17 21  1  0  0  0  0
 17 37  1  0  0  0  0
 17 38  1  0  0  0  0
 18 20  2  0  0  0  0
 18 39  1  0  0  0  0
 19 20  1  0  0  0  0
 19 40  1  0  0  0  0
 21 22  2  0  0  0  0
 21 41  1  0  0  0  0
 22 23  1  0  0  0  0
 22 24  1  0  0  0  0
 23 42  1  0  0  0  0
 23 43  1  0  0  0  0
 23 44  1  0  0  0  0
 24 45  1  0  0  0  0
 24 46  1  0  0  0  0
 24 47  1  0  0  0  0
M  END
> <PUBCHEM_COMPOUND_CID>
11078329

> <PUBCHEM_CONFORMER_RMSD>
0.8

> <PUBCHEM_CONFORMER_DIVERSEORDER>
1
425
453
369
292
195
300
205
356
413
303
147
89
157
360
304
277
312
231
451
379
114
276
431
101
48
409
351
142
420
417
391
84
167
21
422
202
385
218
309
444
434
408
132
222
17
447
233
104
454
401
224
298
397
386
441
271
152
373
96
350
159
438
282
254
279
51
311
216
253
291
210
26
12
151
181
257
69
308
383
331
176
340
307
436
61
82
362
337
234
283
455
130
97
194
320
450
8
390
336
217
259
149
305
382
140
424
135
207
188
410
354
178
154
285
136
284
108
267
395
293
105
251
43
106
418
273
128
365
158
317
371
367
15
248
160
286
352
430
59
78
252
110
442
113
93
225
329
294
289
262
324
126
112
243
7
177
103
72
381
192
264
249
443
4
230
400
99
247
428
73
290
404
359
30
119
36
63
266
111
19
221
220
335
150
374
366
184
244
168
421
92
452
227
388
9
432
145
435
58
115
197
302
162
326
265
191
40
445
125
406
327
155
57
246
204
94
141
70
347
393
423
402
297
86
334
229
175
241
47
240
76
146
394
306
318
439
287
263
170
10
346
338
29
213
387
190
226
215
13
166
55
407
123
228
88
270
6
90
355
196
5
449
180
328
20
313
399
56
319
212
344
121
392
288
269
448
85
174
164
389
419
81
144
237
370
299
398
14
28
18
23
25
138
245
153
411
214
38
295
296
364
24
199
139
161
124
33
376
375
156
65
80
134
405
169
67
127
109
325
185
258
211
22
39
361
165
79
256
260
46
357
209
342
183
333
98
339
384
372
332
189
201
31
87
235
414
378
91
275
83
131
3
198
426
281
53
250
208
52
440
116
75
412
49
310
2
316
95
396
203
330
206
433
315
148
341
437
66
280
107
380
416
377
35
54
223
200
446
314
182
343
44
137
117
100
118
429
345
45
11
278
268
120
143
274
353
322
32
232
238
42
403
236
129
172
60
50
358
16
193
323
349
62
173
301
272
163
321
37
368
171
186
27
68
102
219
261
187
122
427
34
255
71
242
133
77
239
348
415
363
179
64
41
74

> <PUBCHEM_MMFF94_PARTIAL_CHARGES>
33
1 -0.56
10 0.28
11 0.28
12 0.56
13 0.28
14 0.08
15 -0.14
16 -0.15
17 0.28
18 -0.15
19 -0.15
2 -0.36
20 0.08
21 -0.29
22 -0.28
23 0.14
24 0.14
3 -0.68
32 0.4
33 0.4
34 0.4
35 0.4
36 0.15
39 0.15
4 -0.68
40 0.15
41 0.15
48 0.45
5 -0.68
6 -0.68
7 -0.53
8 0.28
9 0.28

> <PUBCHEM_EFFECTIVE_ROTOR_COUNT>
6.2

> <PUBCHEM_PHARMACOPHORE_FEATURES>
14
1 1 acceptor
1 2 acceptor
1 3 acceptor
1 3 donor
1 4 acceptor
1 4 donor
1 5 acceptor
1 5 donor
1 6 acceptor
1 6 donor
1 7 donor
3 22 23 24 hydrophobe
6 1 8 9 10 11 12 rings
6 14 15 16 18 19 20 rings

> <PUBCHEM_HEAVY_ATOM_COUNT>
24

> <PUBCHEM_ATOM_DEF_STEREO_COUNT>
5

> <PUBCHEM_ATOM_UDEF_STEREO_COUNT>
0

> <PUBCHEM_BOND_DEF_STEREO_COUNT>
0

> <PUBCHEM_BOND_UDEF_STEREO_COUNT>
0

> <PUBCHEM_ISOTOPIC_ATOM_COUNT>
0

> <PUBCHEM_COMPONENT_COUNT>
1

> <PUBCHEM_CACTVS_TAUTO_COUNT>
6

> <PUBCHEM_CONFORMER_ID>
00A90AB900000001

> <PUBCHEM_MMFF94_ENERGY>
66.8204

> <PUBCHEM_FEATURE_SELFOVERLAP>
71.109

> <PUBCHEM_SHAPE_FINGERPRINT>
10498660 4 17845946224716772021
10759866 29 18413392037949199897
10764073 3 15687590244879316854
11069576 57 18268687537458665975
11578080 2 17979033324109296965
11640471 11 18339654428677708845
12363563 72 17024571318788695218
12553582 1 17973713684874407610
12788726 201 17989492948374927353
13009979 54 18200310996506704562
13533116 47 18262246525807945603
13583140 156 18116167592642873633
13965767 371 17982194247781564233
14787075 74 17836367416838268751
17138139 8 17403710733348532935
17492 89 18336547132035703931
17818456 19 17915174620611517241
17980427 23 17625253114193862501
1813 80 18046068151452030890
19319366 153 18123461937022262039
20645477 70 17896015754867267711
20715895 44 17907294352658124257
20739085 24 18113896066192103708
21427221 339 18127416644165797304
2255824 54 18334579040470576526
23559900 14 18263077730570348987
23566358 27 18409169887444560914
23598288 3 18131062732588276039
23598291 2 18267870484280588434
4340502 62 17895483643369401163
474 4 18116153466200317188
59755656 520 18045219599248089012
6287921 2 18411129217371031986
6992083 37 17908419160671589235
7097593 13 18196932175804870122

> <PUBCHEM_SHAPE_MULTIPOLES>
452.82
7.83
4.62
1.65
5.38
2.41
-0.1
0.01
1.05
-6.26
0.53
0.75
-0.49
-2.93

> <PUBCHEM_SHAPE_SELFOVERLAP>
938.523

> <PUBCHEM_SHAPE_VOLUME>
256.8

> <PUBCHEM_COORDINATE_TYPE>
2
5
10

$$$$
