REMARK  Name = 11075034
REMARK  5 active torsions:
REMARK  status: ('A' for Active; 'I' for Inactive)
REMARK    1  A    between atoms: C_3  and  C_15
REMARK    2  A    between atoms: C_8  and  O_11
REMARK    3  A    between atoms: C_9  and  O_13
REMARK    4  A    between atoms: C_15  and  C_17
REMARK    5  A    between atoms: C_17  and  O_18
REMARK                            x       y       z     vdW  Elec       q    Type
REMARK                         _______ _______ _______ _____ _____    ______ ____
ROOT
ATOM      1  O   UNL     1      -1.206   1.263   0.390  0.00  0.00    -0.444 OA
ATOM      2  O   UNL     1       0.238   2.998  -0.104  0.00  0.00    -0.245 OA
ATOM      3  C   UNL     1      -1.136  -0.179   0.557  0.00  0.00    +0.203 C 
ATOM      4  C   UNL     1       0.296  -0.458   0.311  0.00  0.00    +0.030 C 
ATOM      5  C   UNL     1       0.960   0.722   0.043  0.00  0.00    +0.109 C 
ATOM      6  C   UNL     1       0.008   1.821   0.087  0.00  0.00    +0.344 C 
ATOM      7  C   UNL     1       0.985  -1.658   0.330  0.00  0.00    +0.036 C 
ATOM      8  C   UNL     1       2.317   0.774  -0.221  0.00  0.00    +0.143 C 
ATOM      9  C   UNL     1       2.358  -1.640   0.067  0.00  0.00    +0.136 C 
ATOM     10  C   UNL     1       3.019  -0.431  -0.208  0.00  0.00    +0.073 C 
ENDROOT
BRANCH   8  11
ATOM     11  O   UNL     1       2.957   1.940  -0.486  0.00  0.00    -0.505 OA
ATOM     12  H   UNL     1       2.479   2.745  -0.493  0.00  0.00    +0.292 HD
ENDBRANCH   8  11
BRANCH   9  13
ATOM     13  O   UNL     1       3.063  -2.806   0.077  0.00  0.00    -0.505 OA
ATOM     14  H   UNL     1       2.627  -3.615   0.259  0.00  0.00    +0.292 HD
ENDBRANCH   9  13
BRANCH   3  15
ATOM     15  C   UNL     1      -2.076  -0.838  -0.437  0.00  0.00    +0.157 C 
BRANCH  15  17
ATOM     16  O   UNL     1      -3.936   0.174   0.771  0.00  0.00    -0.250 OA
ATOM     17  C   UNL     1      -3.521  -0.529  -0.138  0.00  0.00    +0.318 C 
BRANCH  17  18
ATOM     18  O   UNL     1      -4.326  -1.151  -1.038  0.00  0.00    -0.480 OA
ATOM     19  H   UNL     1      -3.951  -1.679  -1.716  0.00  0.00    +0.295 HD
ENDBRANCH  17  18
ENDBRANCH  15  17
ENDBRANCH   3  15
TORSDOF 5
