REMARK  Name = 11079644
REMARK  2 active torsions:
REMARK  status: ('A' for Active; 'I' for Inactive)
REMARK    1  A    between atoms: C_10  and  N_17
REMARK    2  A    between atoms: N_17  and  C_20
REMARK                            x       y       z     vdW  Elec       q    Type
REMARK                         _______ _______ _______ _____ _____    ______ ____
ROOT
ATOM      1 BR   UNL     1       3.023  -1.689   0.679  0.00  0.00    -0.047 Br
ATOM      2 BR   UNL     1       4.624   1.526  -0.011  0.00  0.00    -0.030 Br
ATOM      3  O   UNL     1      -0.903   3.298  -0.519  0.00  0.00    -0.265 OA
ATOM      4  N   UNL     1      -1.782   1.198  -0.059  0.00  0.00    -0.297 N 
ATOM      5  N   UNL     1       1.794   2.083  -0.195  0.00  0.00    -0.344 N 
ATOM      6  C   UNL     1      -1.602  -0.153   0.231  0.00  0.00    +0.058 A 
ATOM      7  C   UNL     1      -2.941  -0.820   0.355  0.00  0.00    +0.047 C 
ATOM      8  C   UNL     1      -3.201   1.525  -0.142  0.00  0.00    +0.109 C 
ATOM      9  C   UNL     1      -3.876   0.369   0.584  0.00  0.00    +0.031 C 
ATOM     10  C   UNL     1      -0.375  -0.692   0.383  0.00  0.00    +0.098 A 
ATOM     11  C   UNL     1      -0.741   2.111  -0.249  0.00  0.00    +0.276 A 
ATOM     12  C   UNL     1       0.766   0.158   0.217  0.00  0.00    +0.047 A 
ATOM     13  C   UNL     1       0.562   1.494  -0.087  0.00  0.00    +0.116 A 
ATOM     14  C   UNL     1       2.157  -0.065   0.296  0.00  0.00    +0.060 A 
ATOM     15  C   UNL     1       2.769   1.145   0.037  0.00  0.00    +0.098 A 
ATOM     16  H   UNL     1       1.954   3.032  -0.405  0.00  0.00    +0.167 HD
ENDROOT
BRANCH  10  17
ATOM     17  N   UNL     1      -0.182  -2.012   0.676  0.00  0.00    -0.213 NA
BRANCH  17  20
ATOM     18  N   UNL     1       0.123  -4.220  -0.271  0.00  0.00    -0.370 N 
ATOM     19  N   UNL     1      -0.141  -2.398  -1.611  0.00  0.00    -0.370 N 
ATOM     20  C   UNL     1      -0.073  -2.856  -0.314  0.00  0.00    +0.193 C 
ATOM     21  H   UNL     1       0.190  -4.681   0.597  0.00  0.00    +0.159 HD
ATOM     22  H   UNL     1       0.196  -4.734  -1.108  0.00  0.00    +0.159 HD
ATOM     23  H   UNL     1      -0.279  -1.440  -1.788  0.00  0.00    +0.159 HD
ATOM     24  H   UNL     1      -0.051  -3.030  -2.361  0.00  0.00    +0.159 HD
ENDBRANCH  17  20
ENDBRANCH  10  17
TORSDOF 2
