REMARK  Name = 11079110
REMARK  3 active torsions:
REMARK  status: ('A' for Active; 'I' for Inactive)
REMARK    1  A    between atoms: C_7  and  C_24
REMARK    2  A    between atoms: C_12  and  O_22
REMARK    3  A    between atoms: C_24  and  C_26
REMARK                            x       y       z     vdW  Elec       q    Type
REMARK                         _______ _______ _______ _____ _____    ______ ____
ROOT
ATOM      1  O   UNL     1       1.957   0.789   0.102  0.00  0.00    -0.448 OA
ATOM      2  O   UNL     1       0.610  -2.609   0.645  0.00  0.00    -0.452 OA
ATOM      3  O   UNL     1      -3.148   0.599  -0.123  0.00  0.00    -0.446 OA
ATOM      4  O   UNL     1       2.161  -2.198  -1.010  0.00  0.00    -0.250 OA
ATOM      5  O   UNL     1       1.068   1.614   2.071  0.00  0.00    -0.245 OA
ATOM      6  O   UNL     1      -5.197  -0.176  -0.841  0.00  0.00    -0.245 OA
ATOM      7  C   UNL     1       3.004   0.069   0.785  0.00  0.00    +0.188 C 
ATOM      8  C   UNL     1       2.484  -1.305   1.228  0.00  0.00    +0.153 C 
ATOM      9  C   UNL     1      -0.233  -3.364  -0.256  0.00  0.00    +0.173 C 
ATOM     10  C   UNL     1      -3.576   1.981  -0.051  0.00  0.00    +0.200 C 
ATOM     11  C   UNL     1      -1.666  -3.336   0.297  0.00  0.00    +0.070 C 
ATOM     12  C   UNL     1      -2.352   2.869  -0.357  0.00  0.00    +0.173 C 
ATOM     13  C   UNL     1       1.759  -2.072   0.139  0.00  0.00    +0.321 C 
ATOM     14  C   UNL     1       0.285  -4.799  -0.317  0.00  0.00    +0.048 C 
ATOM     15  C   UNL     1      -1.133   2.481   0.451  0.00  0.00    +0.013 C 
ATOM     16  C   UNL     1      -4.162   2.235   1.335  0.00  0.00    +0.050 C 
ATOM     17  C   UNL     1      -2.275  -1.962   0.206  0.00  0.00    -0.016 C 
ATOM     18  C   UNL     1       1.046   1.453   0.862  0.00  0.00    +0.341 C 
ATOM     19  C   UNL     1      -0.029   1.905  -0.046  0.00  0.00    +0.080 C 
ATOM     20  C   UNL     1      -3.426  -1.700  -0.432  0.00  0.00    +0.077 C 
ATOM     21  C   UNL     1      -4.039  -0.353  -0.490  0.00  0.00    +0.341 C 
ENDROOT
BRANCH  12  22
ATOM     22  O   UNL     1      -2.102   2.777  -1.761  0.00  0.00    -0.377 OA
ATOM     23  H   UNL     1      -2.901   3.031  -2.249  0.00  0.00    +0.211 HD
ENDBRANCH  12  22
BRANCH   7  24
ATOM     24  C   UNL     1       4.204  -0.014  -0.151  0.00  0.00    +0.109 C 
BRANCH  24  26
ATOM     25  O   UNL     1       4.167   2.402  -0.218  0.00  0.00    -0.296 OA
ATOM     26  C   UNL     1       4.698   1.353  -0.580  0.00  0.00    +0.155 C 
ATOM     27  C   UNL     1       5.897   1.364  -1.491  0.00  0.00    +0.072 C 
ENDBRANCH  24  26
ENDBRANCH   7  24
TORSDOF 3
