REMARK  Name = 11079427
REMARK  10 active torsions:
REMARK  status: ('A' for Active; 'I' for Inactive)
REMARK    1  A    between atoms: O_1  and  C_7
REMARK    2  A    between atoms: O_1  and  C_17
REMARK    3  A    between atoms: C_3  and  O_8
REMARK    4  A    between atoms: C_4  and  O_10
REMARK    5  A    between atoms: C_5  and  O_12
REMARK    6  A    between atoms: C_6  and  C_14
REMARK    7  A    between atoms: C_14  and  O_15
REMARK    8  A    between atoms: C_17  and  C_18
REMARK    9  A    between atoms: C_18  and  C_21
REMARK   10  A    between atoms: C_27  and  C_30
REMARK                            x       y       z     vdW  Elec       q    Type
REMARK                         _______ _______ _______ _____ _____    ______ ____
ROOT
ATOM      1  O   UNL     1       0.738   2.157   0.207  0.00  0.00    -0.324 OA
ENDROOT
BRANCH   1   7
ATOM      2  O   UNL     1       1.283   0.098  -0.744  0.00  0.00    -0.326 OA
ATOM      3  C   UNL     1       3.869   0.109   0.506  0.00  0.00    +0.172 C 
ATOM      4  C   UNL     1       3.279  -1.141  -0.146  0.00  0.00    +0.169 C 
ATOM      5  C   UNL     1       2.773   1.103   0.890  0.00  0.00    +0.196 C 
ATOM      6  C   UNL     1       2.300  -0.763  -1.260  0.00  0.00    +0.176 C 
ATOM      7  C   UNL     1       1.804   1.337  -0.270  0.00  0.00    +0.266 C 
BRANCH   3   8
ATOM      8  O   UNL     1       4.575  -0.296   1.680  0.00  0.00    -0.379 OA
ATOM      9  H   UNL     1       5.271  -0.927   1.437  0.00  0.00    +0.211 HD
ENDBRANCH   3   8
BRANCH   4  10
ATOM     10  O   UNL     1       4.333  -1.930  -0.692  0.00  0.00    -0.379 OA
ATOM     11  H   UNL     1       4.954  -2.172   0.012  0.00  0.00    +0.211 HD
ENDBRANCH   4  10
BRANCH   5  12
ATOM     12  O   UNL     1       3.367   2.354   1.235  0.00  0.00    -0.378 OA
ATOM     13  H   UNL     1       3.986   2.225   1.971  0.00  0.00    +0.211 HD
ENDBRANCH   5  12
BRANCH   6  14
ATOM     14  C   UNL     1       1.611  -1.990  -1.847  0.00  0.00    +0.169 C 
BRANCH  14  15
ATOM     15  O   UNL     1       0.717  -1.563  -2.860  0.00  0.00    -0.379 OA
ATOM     16  H   UNL     1       0.270  -2.335  -3.242  0.00  0.00    +0.211 HD
ENDBRANCH  14  15
ENDBRANCH   6  14
ENDBRANCH   1   7
BRANCH   1  17
ATOM     17  C   UNL     1      -0.208   2.421  -0.817  0.00  0.00    +0.171 C 
BRANCH  17  18
ATOM     18  C   UNL     1      -1.310   3.285  -0.274  0.00  0.00    +0.025 C 
ATOM     19  C   UNL     1      -1.241   4.624  -0.320  0.00  0.00    -0.003 C 
BRANCH  18  21
ATOM     20  O   UNL     1      -3.156   1.809  -0.684  0.00  0.00    -0.475 OA
ATOM     21  C   UNL     1      -2.479   2.581   0.344  0.00  0.00    +0.191 C 
ATOM     22  C   UNL     1      -2.083   1.644   1.499  0.00  0.00    +0.077 C 
ATOM     23  C   UNL     1      -2.234   0.333   0.830  0.00  0.00    +0.016 C 
ATOM     24  C   UNL     1      -2.871   0.501  -0.388  0.00  0.00    +0.135 C 
ATOM     25  C   UNL     1      -1.885  -0.928   1.280  0.00  0.00    +0.002 C 
ATOM     26  C   UNL     1      -3.184  -0.569  -1.204  0.00  0.00    +0.037 C 
ATOM     27  C   UNL     1      -2.184  -2.025   0.468  0.00  0.00    +0.035 C 
ATOM     28  C   UNL     1      -2.831  -1.847  -0.766  0.00  0.00    +0.006 C 
BRANCH  27  30
ATOM     29  O   UNL     1      -2.057  -4.365   0.197  0.00  0.00    -0.291 OA
ATOM     30  C   UNL     1      -1.813  -3.364   0.899  0.00  0.00    +0.173 C 
ATOM     31  C   UNL     1      -1.111  -3.573   2.236  0.00  0.00    +0.077 C 
ENDBRANCH  27  30
ENDBRANCH  18  21
ENDBRANCH  17  18
ENDBRANCH   1  17
TORSDOF 10
