REMARK  Name = 11081282
REMARK  7 active torsions:
REMARK  status: ('A' for Active; 'I' for Inactive)
REMARK    1  A    between atoms: C_5  and  O_24
REMARK    2  A    between atoms: C_7  and  O_28
REMARK    3  A    between atoms: C_9  and  O_32
REMARK    4  A    between atoms: C_15  and  O_22
REMARK    5  A    between atoms: O_24  and  C_26
REMARK    6  A    between atoms: O_28  and  C_30
REMARK    7  A    between atoms: O_32  and  C_34
REMARK                            x       y       z     vdW  Elec       q    Type
REMARK                         _______ _______ _______ _____ _____    ______ ____
ROOT
ATOM      1  O   UNL     1       1.122   2.130   3.343  0.00  0.00    -0.296 OA
ATOM      2  C   UNL     1       0.207  -1.858  -0.446  0.00  0.00    +0.047 C 
ATOM      3  C   UNL     1       1.470  -0.959  -0.037  0.00  0.00    +0.064 C 
ATOM      4  C   UNL     1       1.254   1.724  -0.360  0.00  0.00    +0.048 C 
ATOM      5  C   UNL     1       1.749   0.322  -0.915  0.00  0.00    +0.173 C 
ATOM      6  C   UNL     1      -0.275   1.963  -0.399  0.00  0.00    +0.008 C 
ATOM      7  C   UNL     1      -1.139  -1.117  -0.825  0.00  0.00    +0.209 C 
ATOM      8  C   UNL     1      -0.081  -2.841   0.745  0.00  0.00    +0.007 C 
ATOM      9  C   UNL     1      -1.779  -0.126   0.174  0.00  0.00    +0.209 C 
ATOM     10  C   UNL     1      -0.857   0.977   0.633  0.00  0.00    +0.051 C 
ATOM     11  C   UNL     1       2.632  -1.929   0.270  0.00  0.00    -0.015 C 
ATOM     12  C   UNL     1       1.799   2.060   1.050  0.00  0.00    +0.068 C 
ATOM     13  C   UNL     1       1.126  -3.663   1.221  0.00  0.00    +0.034 C 
ATOM     14  C   UNL     1       0.570  -2.708  -1.708  0.00  0.00    +0.004 C 
ATOM     15  C   UNL     1       2.375  -2.818   1.470  0.00  0.00    +0.129 C 
ATOM     16  C   UNL     1      -0.427   1.020   1.919  0.00  0.00    +0.061 C 
ATOM     17  C   UNL     1      -0.647   3.417   0.045  0.00  0.00    +0.000 C 
ATOM     18  C   UNL     1      -0.772   1.938  -1.869  0.00  0.00    +0.000 C 
ATOM     19  C   UNL     1       0.837   1.783   2.197  0.00  0.00    +0.150 C 
ATOM     20  C   UNL     1       3.741  -2.137  -0.460  0.00  0.00    -0.007 C 
ATOM     21  C   UNL     1      -0.980   0.281   3.104  0.00  0.00    +0.008 C 
ENDROOT
BRANCH  15  22
ATOM     22  O   UNL     1       2.189  -2.036   2.647  0.00  0.00    -0.380 OA
ATOM     23  H   UNL     1       2.982  -1.499   2.807  0.00  0.00    +0.211 HD
ENDBRANCH  15  22
BRANCH   5  24
ATOM     24  O   UNL     1       3.149   0.523  -1.157  0.00  0.00    -0.452 OA
BRANCH  24  26
ATOM     25  O   UNL     1       2.765   2.047  -2.850  0.00  0.00    -0.250 OA
ATOM     26  C   UNL     1       3.456   1.585  -1.952  0.00  0.00    +0.317 C 
ATOM     27  C   UNL     1       4.797   2.127  -1.562  0.00  0.00    +0.121 C 
ENDBRANCH  24  26
ENDBRANCH   5  24
BRANCH   7  28
ATOM     28  O   UNL     1      -2.145  -2.126  -1.073  0.00  0.00    -0.448 OA
BRANCH  28  30
ATOM     29  O   UNL     1      -3.545  -0.998  -2.524  0.00  0.00    -0.250 OA
ATOM     30  C   UNL     1      -3.338  -1.647  -1.507  0.00  0.00    +0.318 C 
ATOM     31  C   UNL     1      -4.404  -2.039  -0.530  0.00  0.00    +0.121 C 
ENDBRANCH  28  30
ENDBRANCH   7  28
BRANCH   9  32
ATOM     32  O   UNL     1      -2.943   0.475  -0.398  0.00  0.00    -0.448 OA
BRANCH  32  34
ATOM     33  O   UNL     1      -3.402   1.521   1.610  0.00  0.00    -0.250 OA
ATOM     34  C   UNL     1      -3.661   1.276   0.439  0.00  0.00    +0.318 C 
ATOM     35  C   UNL     1      -4.845   1.833  -0.292  0.00  0.00    +0.121 C 
ENDBRANCH  32  34
ENDBRANCH   9  32
TORSDOF 7
