REMARK  Name = 11089915
REMARK  5 active torsions:
REMARK  status: ('A' for Active; 'I' for Inactive)
REMARK    1  A    between atoms: C_5  and  O_19
REMARK    2  A    between atoms: C_8  and  O_21
REMARK    3  A    between atoms: C_11  and  O_23
REMARK    4  A    between atoms: O_23  and  C_25
REMARK    5  A    between atoms: C_25  and  C_26
REMARK                            x       y       z     vdW  Elec       q    Type
REMARK                         _______ _______ _______ _____ _____    ______ ____
ROOT
ATOM      1  O   UNL     1       1.726   0.813  -1.205  0.00  0.00    -0.337 OA
ATOM      2  O   UNL     1       1.608  -3.035   0.255  0.00  0.00    -0.449 OA
ATOM      3  O   UNL     1       0.460  -4.874  -0.531  0.00  0.00    -0.245 OA
ATOM      4  C   UNL     1       0.508   1.541  -1.326  0.00  0.00    +0.101 C 
ATOM      5  C   UNL     1       2.570   1.356  -0.186  0.00  0.00    +0.209 C 
ATOM      6  C   UNL     1       3.222   0.178   0.598  0.00  0.00    +0.057 C 
ATOM      7  C   UNL     1       0.574   2.702  -0.329  0.00  0.00    +0.062 C 
ATOM      8  C   UNL     1       1.740   2.384   0.592  0.00  0.00    +0.164 C 
ATOM      9  C   UNL     1      -0.680   0.565  -1.123  0.00  0.00    +0.071 C 
ATOM     10  C   UNL     1      -0.130  -1.494   0.447  0.00  0.00    +0.109 C 
ATOM     11  C   UNL     1      -0.798  -0.121   0.249  0.00  0.00    +0.179 C 
ATOM     12  C   UNL     1       1.369  -1.608   0.184  0.00  0.00    +0.177 C 
ATOM     13  C   UNL     1       2.259  -0.883   1.204  0.00  0.00    +0.049 C 
ATOM     14  C   UNL     1       0.452   2.078  -2.764  0.00  0.00    +0.030 C 
ATOM     15  C   UNL     1       4.186   0.683   1.683  0.00  0.00    +0.005 C 
ATOM     16  C   UNL     1      -0.566  -2.684  -0.353  0.00  0.00    +0.060 C 
ATOM     17  C   UNL     1       0.520  -3.691  -0.252  0.00  0.00    +0.337 C 
ATOM     18  C   UNL     1      -1.656  -2.919  -1.086  0.00  0.00    +0.002 C 
ENDROOT
BRANCH   5  19
ATOM     19  O   UNL     1       3.603   2.112  -0.843  0.00  0.00    -0.362 OA
ATOM     20  H   UNL     1       4.166   1.512  -1.356  0.00  0.00    +0.213 HD
ENDBRANCH   5  19
BRANCH   8  21
ATOM     21  O   UNL     1       1.261   1.912   1.837  0.00  0.00    -0.379 OA
ATOM     22  H   UNL     1       2.012   1.711   2.417  0.00  0.00    +0.211 HD
ENDBRANCH   8  21
BRANCH  11  23
ATOM     23  O   UNL     1      -2.192  -0.285   0.558  0.00  0.00    -0.452 OA
BRANCH  23  25
ATOM     24  O   UNL     1      -2.530   1.980   0.832  0.00  0.00    -0.250 OA
ATOM     25  C   UNL     1      -2.942   0.861   0.556  0.00  0.00    +0.316 C 
BRANCH  25  26
ATOM     26  C   UNL     1      -4.375   0.536   0.170  0.00  0.00    +0.099 C 
ATOM     27  C   UNL     1      -5.179   0.193   1.419  0.00  0.00    +0.012 C 
ATOM     28  C   UNL     1      -5.009   1.700  -0.586  0.00  0.00    +0.012 C 
ENDBRANCH  25  26
ENDBRANCH  23  25
ENDBRANCH  11  23
TORSDOF 5
