11080426
  -OEChem-03292013303D

 44 44  0     1  0  0  0  0  0999 V2000
   -2.9888    1.5956    1.4501 O   0  0  0  0  0  0  0  0  0  0  0  0
   -4.3513    1.0293   -0.2736 O   0  0  0  0  0  0  0  0  0  0  0  0
    2.0969   -1.7507    0.4376 O   0  0  0  0  0  0  0  0  0  0  0  0
    3.8073   -2.0128   -1.0380 O   0  0  0  0  0  0  0  0  0  0  0  0
   -2.8063   -1.5457    0.2174 N   0  3  0  0  0  0  0  0  0  0  0  0
    1.3964    1.0533   -1.0246 N   0  0  0  0  0  0  0  0  0  0  0  0
    0.0884    2.1052    0.4295 N   0  0  0  0  0  0  0  0  0  0  0  0
    5.3941   -0.5668    0.7142 N   0  0  0  0  0  0  0  0  0  0  0  0
   -2.2590   -0.1716    0.0258 C   0  0  1  0  0  0  0  0  0  0  0  0
   -1.7065   -0.0280   -1.3965 C   0  0  0  0  0  0  0  0  0  0  0  0
   -4.0153   -1.7753   -0.6956 C   0  0  0  0  0  0  0  0  0  0  0  0
   -3.2517   -1.7492    1.6693 C   0  0  0  0  0  0  0  0  0  0  0  0
   -1.7437   -2.5988   -0.1141 C   0  0  0  0  0  0  0  0  0  0  0  0
   -0.9830    1.2982   -1.6745 C   0  0  0  0  0  0  0  0  0  0  0  0
   -3.3146    0.8612    0.3552 C   0  0  0  0  0  0  0  0  0  0  0  0
    0.1642    1.5077   -0.7154 C   0  0  0  0  0  0  0  0  0  0  0  0
    2.2014    1.3909    0.0267 C   0  0  0  0  0  0  0  0  0  0  0  0
    3.6349    1.0644    0.0666 C   0  0  0  0  0  0  0  0  0  0  0  0
    1.3719    2.0394    0.9111 C   0  0  0  0  0  0  0  0  0  0  0  0
    3.9524   -0.3112    0.7094 C   0  0  1  0  0  0  0  0  0  0  0  0
    3.3122   -1.4353   -0.0805 C   0  0  0  0  0  0  0  0  0  0  0  0
   -1.4406   -0.0762    0.7498 H   0  0  0  0  0  0  0  0  0  0  0  0
   -2.5041   -0.0819   -2.1442 H   0  0  0  0  0  0  0  0  0  0  0  0
   -0.9837   -0.8131   -1.6362 H   0  0  0  0  0  0  0  0  0  0  0  0
   -4.2880   -2.8334   -0.6032 H   0  0  0  0  0  0  0  0  0  0  0  0
   -4.8697   -1.1898   -0.3539 H   0  0  0  0  0  0  0  0  0  0  0  0
   -3.7655   -1.5822   -1.7386 H   0  0  0  0  0  0  0  0  0  0  0  0
   -3.6075   -2.7784    1.7799 H   0  0  0  0  0  0  0  0  0  0  0  0
   -4.0643   -1.0559    1.9022 H   0  0  0  0  0  0  0  0  0  0  0  0
   -2.3903   -1.5736    2.3205 H   0  0  0  0  0  0  0  0  0  0  0  0
   -1.6352   -2.6909   -1.1977 H   0  0  0  0  0  0  0  0  0  0  0  0
   -2.0857   -3.5626    0.2773 H   0  0  0  0  0  0  0  0  0  0  0  0
   -0.8056   -2.3155    0.3710 H   0  0  0  0  0  0  0  0  0  0  0  0
   -1.6817    2.1379   -1.5814 H   0  0  0  0  0  0  0  0  0  0  0  0
   -0.6142    1.3080   -2.7075 H   0  0  0  0  0  0  0  0  0  0  0  0
    1.6754    0.5593   -1.8626 H   0  0  0  0  0  0  0  0  0  0  0  0
    4.1631    1.8486    0.6252 H   0  0  0  0  0  0  0  0  0  0  0  0
    4.0408    1.0936   -0.9542 H   0  0  0  0  0  0  0  0  0  0  0  0
    1.6314    2.4617    1.8713 H   0  0  0  0  0  0  0  0  0  0  0  0
    3.5910   -0.3452    1.7443 H   0  0  0  0  0  0  0  0  0  0  0  0
   -3.6775    2.2613    1.6616 H   0  0  0  0  0  0  0  0  0  0  0  0
    5.8694    0.1756    1.2261 H   0  0  0  0  0  0  0  0  0  0  0  0
    5.5868   -1.4296    1.2220 H   0  0  0  0  0  0  0  0  0  0  0  0
    1.6691   -2.4830   -0.0552 H   0  0  0  0  0  0  0  0  0  0  0  0
  1 15  1  0  0  0  0
  1 41  1  0  0  0  0
  2 15  2  0  0  0  0
  3 21  1  0  0  0  0
  3 44  1  0  0  0  0
  4 21  2  0  0  0  0
  5  9  1  0  0  0  0
  5 11  1  0  0  0  0
  5 12  1  0  0  0  0
  5 13  1  0  0  0  0
  6 16  1  0  0  0  0
  6 17  1  0  0  0  0
  6 36  1  0  0  0  0
  7 16  2  0  0  0  0
  7 19  1  0  0  0  0
  8 20  1  0  0  0  0
  8 42  1  0  0  0  0
  8 43  1  0  0  0  0
  9 10  1  0  0  0  0
  9 15  1  0  0  0  0
  9 22  1  0  0  0  0
 10 14  1  0  0  0  0
 10 23  1  0  0  0  0
 10 24  1  0  0  0  0
 11 25  1  0  0  0  0
 11 26  1  0  0  0  0
 11 27  1  0  0  0  0
 12 28  1  0  0  0  0
 12 29  1  0  0  0  0
 12 30  1  0  0  0  0
 13 31  1  0  0  0  0
 13 32  1  0  0  0  0
 13 33  1  0  0  0  0
 14 16  1  0  0  0  0
 14 34  1  0  0  0  0
 14 35  1  0  0  0  0
 17 18  1  0  0  0  0
 17 19  2  0  0  0  0
 18 20  1  0  0  0  0
 18 37  1  0  0  0  0
 18 38  1  0  0  0  0
 19 39  1  0  0  0  0
 20 21  1  0  0  0  0
 20 40  1  0  0  0  0
M  CHG  1   5   1
M  END
> <PUBCHEM_COMPOUND_CID>
11080426

> <PUBCHEM_CONFORMER_RMSD>
1

> <PUBCHEM_CONFORMER_DIVERSEORDER>
1
55
12
23
50
17
35
27
63
8
4
65
59
42
41
49
62
31
18
61
7
36
2
33
3
66
6
37
10
46
45
69
39
43
13
5
52
44
11
40
67
56
71
72
28
34
48
19
20
29
22
51
47
73
53
26
60
58
24
21
30
38
68
54
16
25
14
9
15
70
64
32
57

> <PUBCHEM_MMFF94_PARTIAL_CHARGES>
26
1 -0.65
11 0.5
12 0.5
13 0.5
14 0.18
15 0.66
16 0.01
17 -0.33
18 0.18
19 0.08
2 -0.57
20 0.33
21 0.66
3 -0.65
36 0.27
39 0.15
4 -0.57
41 0.5
42 0.36
43 0.36
44 0.5
5 -1.01
6 0.03
7 -0.57
8 -0.99
9 0.56

> <PUBCHEM_EFFECTIVE_ROTOR_COUNT>
8

> <PUBCHEM_PHARMACOPHORE_FEATURES>
12
1 1 acceptor
1 2 acceptor
1 3 acceptor
1 4 acceptor
1 5 cation
1 6 donor
1 8 cation
1 8 donor
3 1 2 15 anion
3 3 4 21 anion
3 6 7 16 cation
5 6 7 16 17 19 rings

> <PUBCHEM_HEAVY_ATOM_COUNT>
21

> <PUBCHEM_ATOM_DEF_STEREO_COUNT>
2

> <PUBCHEM_ATOM_UDEF_STEREO_COUNT>
0

> <PUBCHEM_BOND_DEF_STEREO_COUNT>
0

> <PUBCHEM_BOND_UDEF_STEREO_COUNT>
0

> <PUBCHEM_ISOTOPIC_ATOM_COUNT>
0

> <PUBCHEM_COMPONENT_COUNT>
1

> <PUBCHEM_CACTVS_TAUTO_COUNT>
3

> <PUBCHEM_CONFORMER_ID>
00A912EA00000001

> <PUBCHEM_MMFF94_ENERGY>
43.6599

> <PUBCHEM_FEATURE_SELFOVERLAP>
61.012

> <PUBCHEM_SHAPE_FINGERPRINT>
10366900 7 17913214440339615433
10616163 171 18265900352722404102
1100329 8 16681753260892330647
11615756 56 10159695815621293358
117890 22 18336548321303502454
12506688 2 18409726283636220892
12596599 1 18341903956537947906
12596602 18 16558465413091550186
12633257 1 18340491066762970352
12892183 10 18059572541794420552
13533116 47 18270677701118176119
13583140 156 16917057884626747042
14251745 187 18114456885377224010
15196674 1 18408882966760100602
17834074 16 18407759252585319286
1813 80 17313108557157749813
18186145 218 12251903681340777636
19141452 34 18335419054321459501
20281475 54 18335700572242938788
20403669 9 18333444365655618558
20645477 70 17899683841679362223
21403212 168 18267022748637871729
21673915 165 18266737064039030290
23402539 116 14924220461981119756
23503958 8 18262802994323472777
23559900 14 18196079161309839809
3286 77 18268986655933518413
463206 1 17619904402299817783
7097593 13 18270407220915072633
9709674 26 18337110176040250219

> <PUBCHEM_SHAPE_MULTIPOLES>
388.77
9.02
2.74
1.31
4.21
0.71
0.03
3.65
-1.52
-0.34
-0.15
-0.67
-0.12
0.29

> <PUBCHEM_SHAPE_SELFOVERLAP>
786.121

> <PUBCHEM_SHAPE_VOLUME>
229.1

> <PUBCHEM_COORDINATE_TYPE>
2
5
10

$$$$
