REMARK  Name = 11080426
REMARK  11 active torsions:
REMARK  status: ('A' for Active; 'I' for Inactive)
REMARK    1  A    between atoms: C_3  and  C_8
REMARK    2  A    between atoms: C_4  and  C_19
REMARK    3  A    between atoms: C_8  and  C_9
REMARK    4  A    between atoms: C_9  and  C_10
REMARK    5  A    between atoms: C_10  and  N_11
REMARK    6  A    between atoms: C_10  and  C_16
REMARK    7  A    between atoms: C_16  and  O_17
REMARK    8  A    between atoms: C_19  and  CA_20
REMARK    9  A    between atoms: CA_20  and  N_21
REMARK   10  A    between atoms: CA_20  and  C_26
REMARK   11  A    between atoms: C_26  and  O_27
REMARK                            x       y       z     vdW  Elec       q    Type
REMARK                         _______ _______ _______ _____ _____    ______ ____
ROOT
ATOM      1  N   UNL     1       1.396   1.053  -1.025  0.00  0.00    -0.321 N 
ATOM      2  N   UNL     1       0.088   2.105   0.429  0.00  0.00    -0.317 N 
ATOM      3  C   UNL     1       0.164   1.508  -0.715  0.00  0.00    +0.143 C 
ATOM      4  C   UNL     1       2.201   1.391   0.027  0.00  0.00    +0.036 C 
ATOM      5  C   UNL     1       1.372   2.039   0.911  0.00  0.00    +0.069 C 
ATOM      6  H   UNL     1       1.662   0.575  -1.843  0.00  0.00    +0.148 HD
ATOM      7  H   UNL     1      -0.702   2.511   0.854  0.00  0.00    +0.148 HD
ENDROOT
BRANCH   3   8
ATOM      8  C   UNL     1      -0.983   1.298  -1.675  0.00  0.00    +0.039 C 
BRANCH   8   9
ATOM      9  C   UNL     1      -1.706  -0.028  -1.397  0.00  0.00    -0.006 C 
BRANCH   9  10
ATOM     10  C   UNL     1      -2.259  -0.172   0.026  0.00  0.00    +0.047 C 
BRANCH  10  11
ATOM     11  N   UNL     1      -2.806  -1.546   0.217  0.00  0.00    +0.394 N 
ATOM     12  C   UNL     1      -4.015  -1.775  -0.696  0.00  0.00    -0.095 C 
ATOM     13  C   UNL     1      -3.252  -1.749   1.669  0.00  0.00    -0.095 C 
ATOM     14  C   UNL     1      -1.744  -2.599  -0.114  0.00  0.00    -0.095 C 
ENDBRANCH  10  11
BRANCH  10  16
ATOM     15  O   UNL     1      -4.351   1.029  -0.274  0.00  0.00    -0.253 OA
ATOM     16  C   UNL     1      -3.315   0.861   0.355  0.00  0.00    +0.295 C 
BRANCH  16  17
ATOM     17  O   UNL     1      -2.989   1.596   1.450  0.00  0.00    -0.482 OA
ATOM     18  H   UNL     1      -2.184   1.432   1.901  0.00  0.00    +0.295 HD
ENDBRANCH  16  17
ENDBRANCH  10  16
ENDBRANCH   9  10
ENDBRANCH   8   9
ENDBRANCH   3   8
BRANCH   4  19
ATOM     19  C   UNL     1       3.635   1.064   0.067  0.00  0.00    +0.031 C 
BRANCH  19  20
ATOM     20  CA  UNL     1       3.952  -0.311   0.709  0.00  0.00    +0.041 C 
BRANCH  20  21
ATOM     21  N   UNL     1       5.394  -0.567   0.714  0.00  0.00    +0.389 N 
ATOM     22  H1  UNL     1       5.868   0.169   1.238  0.00  0.00    -0.088 HD
ATOM     23  H2  UNL     1       5.740  -0.579  -0.245  0.00  0.00    -0.088 HD
ATOM     24  H3  UNL     1       5.578  -1.469   1.153  0.00  0.00    -0.088 HD
ENDBRANCH  20  21
BRANCH  20  26
ATOM     25  OXT UNL     1       3.807  -2.013  -1.038  0.00  0.00    -0.253 OA
ATOM     26  C   UNL     1       3.312  -1.435  -0.081  0.00  0.00    +0.293 C 
BRANCH  26  27
ATOM     27  O   UNL     1       2.097  -1.751   0.438  0.00  0.00    -0.482 OA
ATOM     28  H   UNL     1       1.764  -1.276   1.173  0.00  0.00    +0.295 HD
ENDBRANCH  26  27
ENDBRANCH  20  26
ENDBRANCH  19  20
ENDBRANCH   4  19
TORSDOF 11
