11081282
  -OEChem-03292013303D

 70 72  0     1  0  0  0  0  0999 V2000
    3.1489    0.5228   -1.1574 O   0  0  0  0  0  0  0  0  0  0  0  0
   -2.1451   -2.1261   -1.0732 O   0  0  0  0  0  0  0  0  0  0  0  0
   -2.9431    0.4747   -0.3980 O   0  0  0  0  0  0  0  0  0  0  0  0
    2.1894   -2.0356    2.6474 O   0  0  0  0  0  0  0  0  0  0  0  0
    1.1223    2.1302    3.3428 O   0  0  0  0  0  0  0  0  0  0  0  0
    2.7648    2.0471   -2.8502 O   0  0  0  0  0  0  0  0  0  0  0  0
   -3.5450   -0.9979   -2.5237 O   0  0  0  0  0  0  0  0  0  0  0  0
   -3.4019    1.5210    1.6098 O   0  0  0  0  0  0  0  0  0  0  0  0
    0.2072   -1.8582   -0.4461 C   0  0  2  0  0  0  0  0  0  0  0  0
    1.4696   -0.9585   -0.0375 C   0  0  2  0  0  0  0  0  0  0  0  0
    1.2543    1.7236   -0.3603 C   0  0  1  0  0  0  0  0  0  0  0  0
    1.7489    0.3220   -0.9155 C   0  0  1  0  0  0  0  0  0  0  0  0
   -0.2753    1.9627   -0.3994 C   0  0  0  0  0  0  0  0  0  0  0  0
   -1.1387   -1.1173   -0.8248 C   0  0  2  0  0  0  0  0  0  0  0  0
   -0.0808   -2.8405    0.7447 C   0  0  0  0  0  0  0  0  0  0  0  0
   -1.7787   -0.1255    0.1745 C   0  0  1  0  0  0  0  0  0  0  0  0
   -0.8569    0.9765    0.6327 C   0  0  0  0  0  0  0  0  0  0  0  0
    2.6321   -1.9289    0.2698 C   0  0  0  0  0  0  0  0  0  0  0  0
    1.7993    2.0601    1.0495 C   0  0  0  0  0  0  0  0  0  0  0  0
    1.1258   -3.6631    1.2210 C   0  0  0  0  0  0  0  0  0  0  0  0
    0.5699   -2.7082   -1.7081 C   0  0  0  0  0  0  0  0  0  0  0  0
    2.3749   -2.8185    1.4705 C   0  0  2  0  0  0  0  0  0  0  0  0
   -0.4267    1.0198    1.9193 C   0  0  0  0  0  0  0  0  0  0  0  0
   -0.6475    3.4171    0.0453 C   0  0  0  0  0  0  0  0  0  0  0  0
   -0.7720    1.9376   -1.8692 C   0  0  0  0  0  0  0  0  0  0  0  0
    0.8372    1.7829    2.1966 C   0  0  0  0  0  0  0  0  0  0  0  0
    3.7413   -2.1371   -0.4598 C   0  0  0  0  0  0  0  0  0  0  0  0
   -0.9796    0.2809    3.1040 C   0  0  0  0  0  0  0  0  0  0  0  0
    3.4556    1.5853   -1.9522 C   0  0  0  0  0  0  0  0  0  0  0  0
   -3.3377   -1.6467   -1.5072 C   0  0  0  0  0  0  0  0  0  0  0  0
   -3.6611    1.2764    0.4393 C   0  0  0  0  0  0  0  0  0  0  0  0
    4.7973    2.1273   -1.5622 C   0  0  0  0  0  0  0  0  0  0  0  0
   -4.4040   -2.0392   -0.5301 C   0  0  0  0  0  0  0  0  0  0  0  0
   -4.8448    1.8330   -0.2924 C   0  0  0  0  0  0  0  0  0  0  0  0
    1.2431   -0.5595    0.9491 H   0  0  0  0  0  0  0  0  0  0  0  0
    1.6517    2.5341   -0.9752 H   0  0  0  0  0  0  0  0  0  0  0  0
    1.3087    0.1359   -1.8986 H   0  0  0  0  0  0  0  0  0  0  0  0
   -0.9911   -0.6464   -1.7944 H   0  0  0  0  0  0  0  0  0  0  0  0
   -0.4537   -2.2654    1.6001 H   0  0  0  0  0  0  0  0  0  0  0  0
   -0.8785   -3.5452    0.4801 H   0  0  0  0  0  0  0  0  0  0  0  0
   -2.1358   -0.7360    1.0074 H   0  0  0  0  0  0  0  0  0  0  0  0
    2.7320    1.5214    1.2485 H   0  0  0  0  0  0  0  0  0  0  0  0
    2.0296    3.1327    1.0924 H   0  0  0  0  0  0  0  0  0  0  0  0
    0.8406   -4.1896    2.1402 H   0  0  0  0  0  0  0  0  0  0  0  0
    1.3498   -4.4352    0.4748 H   0  0  0  0  0  0  0  0  0  0  0  0
    1.4450   -3.3467   -1.5666 H   0  0  0  0  0  0  0  0  0  0  0  0
   -0.2475   -3.3817   -1.9892 H   0  0  0  0  0  0  0  0  0  0  0  0
    0.7739   -2.0615   -2.5684 H   0  0  0  0  0  0  0  0  0  0  0  0
    3.2239   -3.4840    1.6659 H   0  0  0  0  0  0  0  0  0  0  0  0
   -1.7233    3.5946   -0.0776 H   0  0  0  0  0  0  0  0  0  0  0  0
   -0.1200    4.1599   -0.5657 H   0  0  0  0  0  0  0  0  0  0  0  0
   -0.4174    3.6519    1.0876 H   0  0  0  0  0  0  0  0  0  0  0  0
   -0.4593    1.0709   -2.4452 H   0  0  0  0  0  0  0  0  0  0  0  0
   -1.8601    2.0210   -1.9409 H   0  0  0  0  0  0  0  0  0  0  0  0
   -0.3621    2.7944   -2.4211 H   0  0  0  0  0  0  0  0  0  0  0  0
    3.9429   -1.6259   -1.3914 H   0  0  0  0  0  0  0  0  0  0  0  0
    4.4721   -2.8842   -0.1649 H   0  0  0  0  0  0  0  0  0  0  0  0
   -1.1688    0.9808    3.9256 H   0  0  0  0  0  0  0  0  0  0  0  0
   -1.9255   -0.2299    2.9210 H   0  0  0  0  0  0  0  0  0  0  0  0
   -0.2587   -0.4657    3.4530 H   0  0  0  0  0  0  0  0  0  0  0  0
    2.0175   -2.6464    3.3842 H   0  0  0  0  0  0  0  0  0  0  0  0
    5.0484    2.9731   -2.2086 H   0  0  0  0  0  0  0  0  0  0  0  0
    4.7695    2.4764   -0.5269 H   0  0  0  0  0  0  0  0  0  0  0  0
    5.5602    1.3548   -1.6880 H   0  0  0  0  0  0  0  0  0  0  0  0
   -4.0847   -1.8794    0.5018 H   0  0  0  0  0  0  0  0  0  0  0  0
   -4.6569   -3.0922   -0.6785 H   0  0  0  0  0  0  0  0  0  0  0  0
   -5.2975   -1.4340   -0.7061 H   0  0  0  0  0  0  0  0  0  0  0  0
   -5.5339    1.0279   -0.5558 H   0  0  0  0  0  0  0  0  0  0  0  0
   -4.5115    2.3631   -1.1883 H   0  0  0  0  0  0  0  0  0  0  0  0
   -5.3666    2.5449    0.3535 H   0  0  0  0  0  0  0  0  0  0  0  0
  1 12  1  0  0  0  0
  1 29  1  0  0  0  0
  2 14  1  0  0  0  0
  2 30  1  0  0  0  0
  3 16  1  0  0  0  0
  3 31  1  0  0  0  0
  4 22  1  0  0  0  0
  4 61  1  0  0  0  0
  5 26  2  0  0  0  0
  6 29  2  0  0  0  0
  7 30  2  0  0  0  0
  8 31  2  0  0  0  0
  9 10  1  0  0  0  0
  9 14  1  0  0  0  0
  9 15  1  0  0  0  0
  9 21  1  0  0  0  0
 10 12  1  0  0  0  0
 10 18  1  0  0  0  0
 10 35  1  0  0  0  0
 11 12  1  0  0  0  0
 11 13  1  0  0  0  0
 11 19  1  0  0  0  0
 11 36  1  0  0  0  0
 12 37  1  0  0  0  0
 13 17  1  0  0  0  0
 13 24  1  0  0  0  0
 13 25  1  0  0  0  0
 14 16  1  0  0  0  0
 14 38  1  0  0  0  0
 15 20  1  0  0  0  0
 15 39  1  0  0  0  0
 15 40  1  0  0  0  0
 16 17  1  0  0  0  0
 16 41  1  0  0  0  0
 17 23  2  0  0  0  0
 18 22  1  0  0  0  0
 18 27  2  0  0  0  0
 19 26  1  0  0  0  0
 19 42  1  0  0  0  0
 19 43  1  0  0  0  0
 20 22  1  0  0  0  0
 20 44  1  0  0  0  0
 20 45  1  0  0  0  0
 21 46  1  0  0  0  0
 21 47  1  0  0  0  0
 21 48  1  0  0  0  0
 22 49  1  0  0  0  0
 23 26  1  0  0  0  0
 23 28  1  0  0  0  0
 24 50  1  0  0  0  0
 24 51  1  0  0  0  0
 24 52  1  0  0  0  0
 25 53  1  0  0  0  0
 25 54  1  0  0  0  0
 25 55  1  0  0  0  0
 27 56  1  0  0  0  0
 27 57  1  0  0  0  0
 28 58  1  0  0  0  0
 28 59  1  0  0  0  0
 28 60  1  0  0  0  0
 29 32  1  0  0  0  0
 30 33  1  0  0  0  0
 31 34  1  0  0  0  0
 32 62  1  0  0  0  0
 32 63  1  0  0  0  0
 32 64  1  0  0  0  0
 33 65  1  0  0  0  0
 33 66  1  0  0  0  0
 33 67  1  0  0  0  0
 34 68  1  0  0  0  0
 34 69  1  0  0  0  0
 34 70  1  0  0  0  0
M  END
> <PUBCHEM_COMPOUND_CID>
11081282

> <PUBCHEM_CONFORMER_RMSD>
1

> <PUBCHEM_CONFORMER_DIVERSEORDER>
1

> <PUBCHEM_MMFF94_PARTIAL_CHARGES>
30
1 -0.43
10 0.14
12 0.28
13 0.14
14 0.28
16 0.42
17 -0.28
18 -0.28
19 0.06
2 -0.43
22 0.42
23 -0.12
26 0.49
27 -0.3
28 0.14
29 0.66
3 -0.43
30 0.66
31 0.66
32 0.06
33 0.06
34 0.06
4 -0.68
5 -0.57
56 0.15
57 0.15
6 -0.57
61 0.4
7 -0.57
8 -0.57

> <PUBCHEM_EFFECTIVE_ROTOR_COUNT>
7.6

> <PUBCHEM_PHARMACOPHORE_FEATURES>
9
1 4 acceptor
1 4 donor
1 5 acceptor
1 6 acceptor
1 7 acceptor
1 8 acceptor
3 13 24 25 hydrophobe
6 11 13 17 19 23 26 rings
6 9 10 15 18 20 22 rings

> <PUBCHEM_HEAVY_ATOM_COUNT>
34

> <PUBCHEM_ATOM_DEF_STEREO_COUNT>
7

> <PUBCHEM_ATOM_UDEF_STEREO_COUNT>
0

> <PUBCHEM_BOND_DEF_STEREO_COUNT>
0

> <PUBCHEM_BOND_UDEF_STEREO_COUNT>
0

> <PUBCHEM_ISOTOPIC_ATOM_COUNT>
0

> <PUBCHEM_COMPONENT_COUNT>
1

> <PUBCHEM_CACTVS_TAUTO_COUNT>
2

> <PUBCHEM_CONFORMER_ID>
00A9164200000001

> <PUBCHEM_MMFF94_ENERGY>
157.828

> <PUBCHEM_FEATURE_SELFOVERLAP>
45.673

> <PUBCHEM_SHAPE_FINGERPRINT>
10675989 125 17835498785942052757
10863032 1 17968963931753587137
1100329 8 18335708195957575502
11578080 2 18124001621006166633
11582403 64 16445298234737260388
12156800 1 16916522349761059698
12553582 1 18195795281061532223
12788726 201 17702115676618257737
13009979 54 18129385887041096662
13140716 1 18340754967113450219
133893 2 18114729478240519571
13583140 156 17533515451713745851
16945 1 17908396101045190714
17492 54 18264211477055368062
20600515 1 17130979867728014072
20691752 17 18189314862606369323
20905425 154 17484777635585466883
23419403 2 17118535642290487106
23559900 14 17418087694163437504
35225 105 16901374566716371264
394222 165 18264508199171195472
469060 322 17826204338979559074
513532 50 16697771436450490775

> <PUBCHEM_SHAPE_MULTIPOLES>
652.75
6.66
4.27
2.76
2.91
1.41
1.29
-0.86
-3.28
-1.66
0.21
-0.77
-0.79
-2.42

> <PUBCHEM_SHAPE_SELFOVERLAP>
1373.605

> <PUBCHEM_SHAPE_VOLUME>
360.4

> <PUBCHEM_COORDINATE_TYPE>
2
5
10

$$$$
