REMARK  Name = 11096831
REMARK  6 active torsions:
REMARK  status: ('A' for Active; 'I' for Inactive)
REMARK    1  A    between atoms: N_3  and  C_13
REMARK    2  A    between atoms: C_7  and  N_12
REMARK    3  A    between atoms: C_13  and  CA_14
REMARK    4  A    between atoms: CA_14  and  N_15
REMARK    5  A    between atoms: CA_14  and  C_20
REMARK    6  A    between atoms: C_20  and  O_21
REMARK                            x       y       z     vdW  Elec       q    Type
REMARK                         _______ _______ _______ _____ _____    ______ ____
ROOT
ATOM      1  O   UNL     1       1.351  -1.979  -0.922  0.00  0.00    -0.252 OA
ATOM      2  O   UNL     1      -3.069  -1.735   0.383  0.00  0.00    -0.268 OA
ATOM      3  N   UNL     1       0.359   0.130  -0.745  0.00  0.00    -0.242 N 
ATOM      4  N   UNL     1      -0.849  -1.851  -0.270  0.00  0.00    -0.234 N 
ATOM      5  C   UNL     1      -0.772   0.867  -0.447  0.00  0.00    +0.098 C 
ATOM      6  C   UNL     1       0.370  -1.276  -0.668  0.00  0.00    +0.314 C 
ATOM      7  C   UNL     1      -1.904   0.274  -0.075  0.00  0.00    +0.211 C 
ATOM      8  C   UNL     1      -2.028  -1.184   0.043  0.00  0.00    +0.277 C 
ATOM      9  H   UNL     1      -0.870  -2.833  -0.207  0.00  0.00    +0.159 HD
ENDROOT
BRANCH   7  12
ATOM     10  O   UNL     1      -2.841   2.339   0.091  0.00  0.00    -0.126 OA
ATOM     11  O   UNL     1      -4.068   0.571   0.557  0.00  0.00    -0.126 OA
ATOM     12  N   UNL     1      -3.009   1.116   0.209  0.00  0.00    +0.064 N 
ENDBRANCH   7  12
BRANCH   3  13
ATOM     13  C   UNL     1       1.574   0.827  -1.149  0.00  0.00    +0.089 C 
BRANCH  13  14
ATOM     14  CA  UNL     1       2.455   1.176   0.052  0.00  0.00    +0.056 C 
BRANCH  14  15
ATOM     15  N   UNL     1       3.686   1.821  -0.402  0.00  0.00    +0.390 N 
ATOM     16  H1  UNL     1       3.454   2.653  -0.944  0.00  0.00    -0.088 HD
ATOM     17  H2  UNL     1       4.215   1.172  -0.984  0.00  0.00    -0.088 HD
ATOM     18  H3  UNL     1       4.248   2.087   0.407  0.00  0.00    -0.088 HD
ENDBRANCH  14  15
BRANCH  14  20
ATOM     19  OXT UNL     1       3.873  -0.721   0.637  0.00  0.00    -0.253 OA
ATOM     20  C   UNL     1       2.872  -0.049   0.848  0.00  0.00    +0.295 C 
BRANCH  20  21
ATOM     21  O   UNL     1       2.002  -0.324   1.857  0.00  0.00    -0.482 OA
ATOM     22  H   UNL     1       1.247   0.217   1.985  0.00  0.00    +0.295 HD
ENDBRANCH  20  21
ENDBRANCH  14  20
ENDBRANCH  13  14
ENDBRANCH   3  13
TORSDOF 6
