REMARK  Name = 11096158
REMARK  6 active torsions:
REMARK  status: ('A' for Active; 'I' for Inactive)
REMARK    1  A    between atoms: C_2  and  O_12
REMARK    2  A    between atoms: C_3  and  N_8
REMARK    3  A    between atoms: C_4  and  O_14
REMARK    4  A    between atoms: C_5  and  C_18
REMARK    5  A    between atoms: C_6  and  O_16
REMARK    6  A    between atoms: C_18  and  O_19
REMARK                            x       y       z     vdW  Elec       q    Type
REMARK                         _______ _______ _______ _____ _____    ______ ____
ROOT
ATOM      1  O   UNL     1       1.342  -1.160  -0.019  0.00  0.00    -0.327 OA
ATOM      2  C   UNL     1      -0.141   1.155  -0.852  0.00  0.00    +0.162 C 
ATOM      3  C   UNL     1      -0.758  -0.245  -0.848  0.00  0.00    +0.158 C 
ATOM      4  C   UNL     1       1.017   1.260   0.147  0.00  0.00    +0.169 C 
ATOM      5  C   UNL     1       2.011   0.106  -0.057  0.00  0.00    +0.176 C 
ATOM      6  C   UNL     1       0.347  -1.290  -1.038  0.00  0.00    +0.253 C 
ENDROOT
BRANCH   3   8
ATOM      7  O   UNL     1      -3.551   0.324  -0.301  0.00  0.00    -0.275 OA
ATOM      8  N   UNL     1      -1.482  -0.492   0.384  0.00  0.00    -0.299 N 
ATOM      9  C   UNL     1      -2.819  -0.184   0.545  0.00  0.00    +0.223 C 
ATOM     10  C   UNL     1      -3.328  -0.567   1.909  0.00  0.00    +0.095 C 
ATOM     11  H   UNL     1      -1.000  -0.899   1.139  0.00  0.00    +0.150 HD
ENDBRANCH   3   8
BRANCH   2  12
ATOM     12  O   UNL     1      -1.143   2.125  -0.558  0.00  0.00    -0.380 OA
ATOM     13  H   UNL     1      -1.867   2.046  -1.199  0.00  0.00    +0.211 HD
ENDBRANCH   2  12
BRANCH   4  14
ATOM     14  O   UNL     1       1.667   2.512  -0.059  0.00  0.00    -0.379 OA
ATOM     15  H   UNL     1       1.030   3.232   0.072  0.00  0.00    +0.211 HD
ENDBRANCH   4  14
BRANCH   6  16
ATOM     16  O   UNL     1      -0.197  -2.607  -1.053  0.00  0.00    -0.359 OA
ATOM     17  H   UNL     1       0.518  -3.251  -1.174  0.00  0.00    +0.213 HD
ENDBRANCH   6  16
BRANCH   5  18
ATOM     18  C   UNL     1       3.085   0.078   1.026  0.00  0.00    +0.169 C 
BRANCH  18  19
ATOM     19  O   UNL     1       3.950  -1.015   0.775  0.00  0.00    -0.379 OA
ATOM     20  H   UNL     1       4.639  -1.045   1.457  0.00  0.00    +0.211 HD
ENDBRANCH  18  19
ENDBRANCH   5  18
TORSDOF 6
