REMARK  Name = 11098986
REMARK  4 active torsions:
REMARK  status: ('A' for Active; 'I' for Inactive)
REMARK    1  A    between atoms: C_10  and  C_23
REMARK    2  A    between atoms: C_12  and  O_18
REMARK    3  A    between atoms: C_13  and  O_20
REMARK    4  A    between atoms: C_23  and  O_24
REMARK                            x       y       z     vdW  Elec       q    Type
REMARK                         _______ _______ _______ _____ _____    ______ ____
ROOT
ATOM      1  O   UNL     1      -0.923  -2.308  -0.114  0.00  0.00    -0.286 OA
ATOM      2  O   UNL     1      -1.587   2.990   0.095  0.00  0.00    -0.287 OA
ATOM      3  C   UNL     1       0.102  -0.188  -0.084  0.00  0.00    +0.039 C 
ATOM      4  C   UNL     1      -0.075   1.196  -0.029  0.00  0.00    +0.045 C 
ATOM      5  C   UNL     1       1.393  -0.725  -0.155  0.00  0.00    -0.009 C 
ATOM      6  C   UNL     1      -2.422  -0.514   0.008  0.00  0.00    +0.076 C 
ATOM      7  C   UNL     1      -2.599   0.870   0.063  0.00  0.00    +0.045 C 
ATOM      8  C   UNL     1      -1.065  -1.094  -0.067  0.00  0.00    +0.198 C 
ATOM      9  C   UNL     1      -1.432   1.776   0.046  0.00  0.00    +0.196 C 
ATOM     10  C   UNL     1       2.500   0.123  -0.170  0.00  0.00    +0.105 C 
ATOM     11  C   UNL     1       1.039   2.043  -0.044  0.00  0.00    +0.040 C 
ATOM     12  C   UNL     1       2.324   1.504  -0.115  0.00  0.00    +0.140 C 
ATOM     13  C   UNL     1      -3.536  -1.361   0.025  0.00  0.00    +0.137 C 
ATOM     14  C   UNL     1       1.661  -2.199  -0.217  0.00  0.00    +0.031 C 
ATOM     15  C   UNL     1      -3.890   1.407   0.135  0.00  0.00    +0.003 C 
ATOM     16  C   UNL     1      -4.821  -0.823   0.097  0.00  0.00    +0.037 C 
ATOM     17  C   UNL     1      -4.997   0.559   0.151  0.00  0.00    +0.003 C 
ENDROOT
BRANCH  12  18
ATOM     18  O   UNL     1       3.394   2.350  -0.128  0.00  0.00    -0.505 OA
ATOM     19  H   UNL     1       4.263   2.004  -0.175  0.00  0.00    +0.292 HD
ENDBRANCH  12  18
BRANCH  13  20
ATOM     20  O   UNL     1      -3.439  -2.721  -0.026  0.00  0.00    -0.505 OA
ATOM     21  H   UNL     1      -2.597  -3.129  -0.074  0.00  0.00    +0.292 HD
ENDBRANCH  13  20
BRANCH  10  23
ATOM     22  O   UNL     1       4.458  -0.641  -1.297  0.00  0.00    -0.245 OA
ATOM     23  C   UNL     1       3.855  -0.419  -0.243  0.00  0.00    +0.344 C 
BRANCH  23  24
ATOM     24  O   UNL     1       4.367  -0.645   1.003  0.00  0.00    -0.441 OA
ATOM     25  C   UNL     1       5.695  -1.177   1.064  0.00  0.00    +0.256 C 
ENDBRANCH  23  24
ENDBRANCH  10  23
TORSDOF 4
