REMARK  Name = 11092114
REMARK  7 active torsions:
REMARK  status: ('A' for Active; 'I' for Inactive)
REMARK    1  A    between atoms: C_4  and  O_25
REMARK    2  A    between atoms: C_12  and  C_21
REMARK    3  A    between atoms: C_13  and  O_19
REMARK    4  A    between atoms: C_21  and  O_23
REMARK    5  A    between atoms: O_25  and  C_29
REMARK    6  A    between atoms: C_27  and  N_33
REMARK    7  A    between atoms: C_28  and  O_37
REMARK                            x       y       z     vdW  Elec       q    Type
REMARK                         _______ _______ _______ _____ _____    ______ ____
ROOT
ATOM      1  O   UNL     1      -2.667  -1.331  -0.265  0.00  0.00    -0.447 OA
ATOM      2  O   UNL     1      -1.526  -1.559   1.729  0.00  0.00    -0.250 OA
ATOM      3  O   UNL     1      -3.254   3.695   0.677  0.00  0.00    -0.291 OA
ATOM      4  C   UNL     1       0.548   0.019   0.287  0.00  0.00    +0.128 C 
ATOM      5  C   UNL     1      -0.179   1.387   0.445  0.00  0.00    +0.028 C 
ATOM      6  C   UNL     1      -0.321  -1.104  -0.329  0.00  0.00    +0.126 C 
ATOM      7  C   UNL     1      -0.500   2.057  -0.916  0.00  0.00    +0.010 C 
ATOM      8  C   UNL     1      -1.418   3.297  -0.829  0.00  0.00    +0.062 C 
ATOM      9  C   UNL     1       0.682   2.322   1.310  0.00  0.00    +0.003 C 
ATOM     10  C   UNL     1       0.437  -2.427  -0.464  0.00  0.00    +0.014 C 
ATOM     11  C   UNL     1      -1.554  -1.362   0.521  0.00  0.00    +0.319 C 
ATOM     12  C   UNL     1      -3.963  -1.400   0.378  0.00  0.00    +0.223 C 
ATOM     13  C   UNL     1      -4.867  -0.289  -0.222  0.00  0.00    +0.146 C 
ATOM     14  C   UNL     1      -2.784   2.992  -0.216  0.00  0.00    +0.172 C 
ATOM     15  C   UNL     1      -1.606   3.936  -2.205  0.00  0.00    +0.008 C 
ATOM     16  C   UNL     1      -4.231   1.052   0.111  0.00  0.00    +0.006 C 
ATOM     17  C   UNL     1      -3.527   1.813  -0.739  0.00  0.00    +0.035 C 
ATOM     18  C   UNL     1      -5.137  -0.493  -1.720  0.00  0.00    +0.038 C 
ENDROOT
BRANCH  13  19
ATOM     19  O   UNL     1      -6.147  -0.329   0.420  0.00  0.00    -0.379 OA
ATOM     20  H   UNL     1      -6.034  -0.204   1.376  0.00  0.00    +0.211 HD
ENDBRANCH  13  19
BRANCH  12  21
ATOM     21  C   UNL     1      -4.501  -2.817   0.191  0.00  0.00    +0.153 C 
ATOM     22  C   UNL     1      -3.594  -3.852   0.833  0.00  0.00    +0.036 C 
BRANCH  21  23
ATOM     23  O   UNL     1      -5.798  -2.900   0.771  0.00  0.00    -0.381 OA
ATOM     24  H   UNL     1      -6.378  -2.240   0.362  0.00  0.00    +0.210 HD
ENDBRANCH  21  23
ENDBRANCH  12  21
BRANCH   4  25
ATOM     25  O   UNL     1       1.717   0.217  -0.510  0.00  0.00    -0.331 OA
BRANCH  25  29
ATOM     26  O   UNL     1       3.344   1.117   0.899  0.00  0.00    -0.331 OA
ATOM     27  C   UNL     1       5.320  -0.747  -0.047  0.00  0.00    -0.023 C 
ATOM     28  C   UNL     1       3.967  -0.565  -0.750  0.00  0.00    +0.148 C 
ATOM     29  C   UNL     1       2.903  -0.065   0.233  0.00  0.00    +0.261 C 
ATOM     30  C   UNL     1       5.682   0.509   0.749  0.00  0.00    +0.011 C 
ATOM     31  C   UNL     1       4.527   0.902   1.673  0.00  0.00    +0.116 C 
ATOM     32  C   UNL     1       4.836   2.193   2.418  0.00  0.00    +0.032 C 
BRANCH  27  33
ATOM     33  N   UNL     1       6.376  -1.031  -1.019  0.00  0.00    +0.387 N 
ATOM     34  C   UNL     1       6.049  -2.229  -1.792  0.00  0.00    -0.101 C 
ATOM     35  C   UNL     1       7.662  -1.193  -0.342  0.00  0.00    -0.101 C 
ATOM     36  H   UNL     1       6.447  -0.242  -1.662  0.00  0.00    -0.080 HD
ENDBRANCH  27  33
BRANCH  28  37
ATOM     37  O   UNL     1       3.523  -1.813  -1.279  0.00  0.00    -0.381 OA
ATOM     38  H   UNL     1       4.182  -2.152  -1.906  0.00  0.00    +0.210 HD
ENDBRANCH  28  37
ENDBRANCH  25  29
ENDBRANCH   4  25
TORSDOF 7
