11097895
  -OEChem-03292013303D

 37 37  0     1  0  0  0  0  0999 V2000
    2.0958   -1.5870    1.5223 O   0  0  0  0  0  0  0  0  0  0  0  0
    3.8089   -1.9431    0.0904 O   0  0  0  0  0  0  0  0  0  0  0  0
   -0.3182   -0.0585   -2.2257 O   0  0  0  0  0  0  0  0  0  0  0  0
   -2.8998   -2.4645    1.0181 O   0  0  0  0  0  0  0  0  0  0  0  0
   -1.6582   -2.3470   -0.8822 O   0  0  0  0  0  0  0  0  0  0  0  0
    0.7301   -0.0539   -0.1567 N   0  0  0  0  0  0  0  0  0  0  0  0
    3.3814    1.7052    0.0097 C   0  0  0  0  0  0  0  0  0  0  0  0
    2.8906    0.7195   -1.0750 C   0  0  0  0  0  0  0  0  0  0  0  0
    2.0281   -0.4683   -0.6224 C   0  0  1  0  0  0  0  0  0  0  0  0
    2.1691    2.3099    0.7282 C   0  0  0  0  0  0  0  0  0  0  0  0
    4.3183    1.0751    1.0379 C   0  0  0  0  0  0  0  0  0  0  0  0
    2.7482   -1.3863    0.3525 C   0  0  0  0  0  0  0  0  0  0  0  0
   -0.3511    0.1190   -1.0108 C   0  0  0  0  0  0  0  0  0  0  0  0
   -1.6154    0.5755   -0.3781 C   0  0  0  0  0  0  0  0  0  0  0  0
   -2.5283   -0.3445    0.0962 C   0  0  0  0  0  0  0  0  0  0  0  0
   -1.8316    1.9369   -0.2864 C   0  0  0  0  0  0  0  0  0  0  0  0
   -3.7060    0.1142    0.6862 C   0  0  0  0  0  0  0  0  0  0  0  0
   -3.0093    2.3955    0.3035 C   0  0  0  0  0  0  0  0  0  0  0  0
   -3.9467    1.4842    0.7899 C   0  0  0  0  0  0  0  0  0  0  0  0
   -2.3061   -1.7816    0.0024 C   0  0  0  0  0  0  0  0  0  0  0  0
    3.9229    2.5103   -0.5027 H   0  0  0  0  0  0  0  0  0  0  0  0
    3.7785    0.3250   -1.5875 H   0  0  0  0  0  0  0  0  0  0  0  0
    2.3374    1.2900   -1.8334 H   0  0  0  0  0  0  0  0  0  0  0  0
    1.8476   -1.0964   -1.5056 H   0  0  0  0  0  0  0  0  0  0  0  0
    1.3965    2.6311    0.0233 H   0  0  0  0  0  0  0  0  0  0  0  0
    1.7380    1.6418    1.4775 H   0  0  0  0  0  0  0  0  0  0  0  0
    2.4877    3.2057    1.2752 H   0  0  0  0  0  0  0  0  0  0  0  0
    3.7995    0.4512    1.7689 H   0  0  0  0  0  0  0  0  0  0  0  0
    5.1027    0.4868    0.5516 H   0  0  0  0  0  0  0  0  0  0  0  0
    4.8168    1.8660    1.6109 H   0  0  0  0  0  0  0  0  0  0  0  0
    0.5851    0.0628    0.8417 H   0  0  0  0  0  0  0  0  0  0  0  0
   -1.1077    2.6526   -0.6647 H   0  0  0  0  0  0  0  0  0  0  0  0
    2.5819   -2.2015    2.1125 H   0  0  0  0  0  0  0  0  0  0  0  0
   -4.4624   -0.5695    1.0628 H   0  0  0  0  0  0  0  0  0  0  0  0
   -3.1971    3.4623    0.3831 H   0  0  0  0  0  0  0  0  0  0  0  0
   -4.8651    1.8418    1.2462 H   0  0  0  0  0  0  0  0  0  0  0  0
   -2.7450   -3.4307    0.9478 H   0  0  0  0  0  0  0  0  0  0  0  0
  1 12  1  0  0  0  0
  1 33  1  0  0  0  0
  2 12  2  0  0  0  0
  3 13  2  0  0  0  0
  4 20  1  0  0  0  0
  4 37  1  0  0  0  0
  5 20  2  0  0  0  0
  6  9  1  0  0  0  0
  6 13  1  0  0  0  0
  6 31  1  0  0  0  0
  7  8  1  0  0  0  0
  7 10  1  0  0  0  0
  7 11  1  0  0  0  0
  7 21  1  0  0  0  0
  8  9  1  0  0  0  0
  8 22  1  0  0  0  0
  8 23  1  0  0  0  0
  9 12  1  0  0  0  0
  9 24  1  0  0  0  0
 10 25  1  0  0  0  0
 10 26  1  0  0  0  0
 10 27  1  0  0  0  0
 11 28  1  0  0  0  0
 11 29  1  0  0  0  0
 11 30  1  0  0  0  0
 13 14  1  0  0  0  0
 14 15  1  0  0  0  0
 14 16  2  0  0  0  0
 15 17  2  0  0  0  0
 15 20  1  0  0  0  0
 16 18  1  0  0  0  0
 16 32  1  0  0  0  0
 17 19  1  0  0  0  0
 17 34  1  0  0  0  0
 18 19  2  0  0  0  0
 18 35  1  0  0  0  0
 19 36  1  0  0  0  0
M  END
> <PUBCHEM_COMPOUND_CID>
11097895

> <PUBCHEM_CONFORMER_RMSD>
0.8

> <PUBCHEM_CONFORMER_DIVERSEORDER>
1
21
25
2
19
20
23
27
18
7
8
11
5
28
16
4
26
12
22
24
6
29
14
17
13
9
3
15
10

> <PUBCHEM_MMFF94_PARTIAL_CHARGES>
23
1 -0.65
12 0.66
13 0.54
14 0.09
15 0.09
16 -0.15
17 -0.15
18 -0.15
19 -0.15
2 -0.57
20 0.63
3 -0.57
31 0.37
32 0.15
33 0.5
34 0.15
35 0.15
36 0.15
37 0.5
4 -0.65
5 -0.57
6 -0.73
9 0.36

> <PUBCHEM_EFFECTIVE_ROTOR_COUNT>
7

> <PUBCHEM_PHARMACOPHORE_FEATURES>
10
1 1 acceptor
1 2 acceptor
1 3 acceptor
1 4 acceptor
1 5 acceptor
1 6 donor
3 1 2 12 anion
3 4 5 20 anion
3 7 10 11 hydrophobe
6 14 15 16 17 18 19 rings

> <PUBCHEM_HEAVY_ATOM_COUNT>
20

> <PUBCHEM_ATOM_DEF_STEREO_COUNT>
1

> <PUBCHEM_ATOM_UDEF_STEREO_COUNT>
0

> <PUBCHEM_BOND_DEF_STEREO_COUNT>
0

> <PUBCHEM_BOND_UDEF_STEREO_COUNT>
0

> <PUBCHEM_ISOTOPIC_ATOM_COUNT>
0

> <PUBCHEM_COMPONENT_COUNT>
1

> <PUBCHEM_CACTVS_TAUTO_COUNT>
2

> <PUBCHEM_CONFORMER_ID>
00A9572700000001

> <PUBCHEM_MMFF94_ENERGY>
57.4592

> <PUBCHEM_FEATURE_SELFOVERLAP>
50.867

> <PUBCHEM_SHAPE_FINGERPRINT>
10366900 7 18267020742138752576
10616163 171 18339083803638191872
1100329 8 15602306547760260548
11578080 2 17822557365825368829
12173636 292 18412825768180990853
12251169 10 18335984164342646430
12633257 1 18198915725088807217
12670546 56 18410854343737442701
13004483 165 17984967435598365087
13140716 1 18409448055385845226
13224815 77 17676485081469279170
13533116 47 18410008815222606015
14081887 123 18266739267114504483
14178342 30 18261391191175656156
14223421 5 18410571829236299572
14289901 80 18335147534868080800
14787075 74 17471575902417834172
15375462 189 17750795433352067186
17804303 29 18264219010343706351
1813 80 16660369168724136084
18981168 100 15625369298258730776
19050596 39 18334856155854917672
21065199 12 18411702092850890672
21501502 16 18412542128166183982
21756936 100 18056189422732766612
23559900 14 18411985736791373564
23566358 27 18041575692953593166
5104073 3 18411422790964121627
7097593 13 18262794060675627754
9709674 26 18341900653782054191

> <PUBCHEM_SHAPE_MULTIPOLES>
377.26
7.84
2.76
1.25
2.11
0.3
0.28
-1.47
-2.46
-0.64
-0.59
0.28
0.17
-0.04

> <PUBCHEM_SHAPE_SELFOVERLAP>
782.141

> <PUBCHEM_SHAPE_VOLUME>
214.3

> <PUBCHEM_COORDINATE_TYPE>
2
5
10

$$$$
