REMARK  Name = 11097895
REMARK  8 active torsions:
REMARK  status: ('A' for Active; 'I' for Inactive)
REMARK    1  A    between atoms: N_2  and  CA_15
REMARK    2  A    between atoms: C_3  and  C_5
REMARK    3  A    between atoms: C_6  and  C_12
REMARK    4  A    between atoms: C_12  and  O_13
REMARK    5  A    between atoms: CA_15  and  C_17
REMARK    6  A    between atoms: CA_15  and  CB_20
REMARK    7  A    between atoms: C_17  and  O_18
REMARK    8  A    between atoms: CB_20  and  CG_21
REMARK                            x       y       z     vdW  Elec       q    Type
REMARK                         _______ _______ _______ _____ _____    ______ ____
ROOT
ATOM      1  O   UNK A   0      -0.318  -0.059  -2.226  0.00  0.00    -0.270 OA
ATOM      2  N   LEU A   1       0.730  -0.054  -0.157  0.00  0.00    -0.293 N 
ATOM      3  C   UNK A   0      -0.351   0.119  -1.011  0.00  0.00    +0.246 C 
ATOM      4  H   LEU A   1       0.604   0.113   0.805  0.00  0.00    +0.150 HD
ENDROOT
BRANCH   3   5
ATOM      5  C   UNK A   0      -1.615   0.576  -0.378  0.00  0.00    +0.060 C 
ATOM      6  C   UNK A   0      -2.528  -0.344   0.096  0.00  0.00    +0.080 C 
ATOM      7  C   UNK A   0      -1.832   1.937  -0.286  0.00  0.00    +0.005 C 
ATOM      8  C   UNK A   0      -3.706   0.114   0.686  0.00  0.00    +0.007 C 
ATOM      9  C   UNK A   0      -3.009   2.396   0.303  0.00  0.00    +0.000 C 
ATOM     10  C   UNK A   0      -3.947   1.484   0.790  0.00  0.00    +0.000 C 
BRANCH   6  12
ATOM     11  O   UNK A   0      -1.658  -2.347  -0.882  0.00  0.00    -0.245 OA
ATOM     12  C   UNK A   0      -2.306  -1.782   0.002  0.00  0.00    +0.338 C 
BRANCH  12  13
ATOM     13  O   UNK A   0      -2.900  -2.465   1.018  0.00  0.00    -0.477 OA
ATOM     14  H   UNK A   0      -3.385  -2.002   1.673  0.00  0.00    +0.295 HD
ENDBRANCH  12  13
ENDBRANCH   6  12
ENDBRANCH   3   5
BRANCH   2  15
ATOM     15  CA  LEU A   1       2.028  -0.468  -0.622  0.00  0.00    +0.171 C 
BRANCH  15  17
ATOM     16  OXT LEU A   1       3.809  -1.943   0.090  0.00  0.00    -0.248 OA
ATOM     17  C   LEU A   1       2.748  -1.386   0.352  0.00  0.00    +0.332 C 
BRANCH  17  18
ATOM     18  O   LEU A   1       2.096  -1.587   1.522  0.00  0.00    -0.479 OA
ATOM     19  H   LEU A   1       1.287  -1.145   1.689  0.00  0.00    +0.295 HD
ENDBRANCH  17  18
ENDBRANCH  15  17
BRANCH  15  20
ATOM     20  CB  LEU A   1       2.891   0.720  -1.075  0.00  0.00    +0.031 C 
BRANCH  20  21
ATOM     21  CG  LEU A   1       3.381   1.705   0.010  0.00  0.00    +0.002 C 
ATOM     22  CD1 LEU A   1       2.169   2.310   0.728  0.00  0.00    +0.000 C 
ATOM     23  CD2 LEU A   1       4.318   1.075   1.038  0.00  0.00    +0.000 C 
ENDBRANCH  20  21
ENDBRANCH  15  20
ENDBRANCH   2  15
TORSDOF 8
