REMARK  Name = 111098
REMARK  11 active torsions:
REMARK  status: ('A' for Active; 'I' for Inactive)
REMARK    1  A    between atoms: C_1  and  C_4
REMARK    2  A    between atoms: C_1  and  N_16
REMARK    3  A    between atoms: C_1  and  C_26
REMARK    4  A    between atoms: N_3  and  C_6
REMARK    5  A    between atoms: C_11  and  N_14
REMARK    6  A    between atoms: C_17  and  C_19
REMARK    7  A    between atoms: C_19  and  C_20
REMARK    8  A    between atoms: C_20  and  C_21
REMARK    9  A    between atoms: C_21  and  C_23
REMARK   10  A    between atoms: C_23  and  O_24
REMARK   11  A    between atoms: C_26  and  C_27
REMARK                            x       y       z     vdW  Elec       q    Type
REMARK                         _______ _______ _______ _____ _____    ______ ____
ROOT
ATOM      1  C   UNL     1      -0.504  -0.148  -0.312  0.00  0.00    +0.153 C 
ENDROOT
BRANCH   1   4
ATOM      2  O   UNL     1       1.175   1.053  -1.560  0.00  0.00    -0.273 OA
ATOM      3  N   UNL     1       1.848  -0.357   0.191  0.00  0.00    -0.283 N 
ATOM      4  C   UNL     1       0.932   0.252  -0.662  0.00  0.00    +0.244 C 
ATOM      5  H   UNL     1       1.471  -0.946   0.884  0.00  0.00    +0.155 HD
BRANCH   3   6
ATOM      6  C   UNL     1       3.257  -0.231   0.178  0.00  0.00    +0.050 C 
ATOM      7  C   UNL     1       4.008  -0.921   1.114  0.00  0.00    +0.016 C 
ATOM      8  C   UNL     1       3.856   0.581  -0.771  0.00  0.00    +0.016 C 
ATOM      9  C   UNL     1       5.397  -0.796   1.102  0.00  0.00    +0.025 C 
ATOM     10  C   UNL     1       5.245   0.706  -0.784  0.00  0.00    +0.025 C 
ATOM     11  C   UNL     1       6.016   0.017   0.152  0.00  0.00    +0.143 C 
BRANCH  11  14
ATOM     12  O   UNL     1       8.105  -0.484   0.991  0.00  0.00    -0.126 OA
ATOM     13  O   UNL     1       7.967   0.881  -0.723  0.00  0.00    -0.126 OA
ATOM     14  N   UNL     1       7.430   0.144   0.140  0.00  0.00    +0.058 N 
ENDBRANCH  11  14
ENDBRANCH   3   6
ENDBRANCH   1   4
BRANCH   1  16
ATOM     15  O   UNL     1      -1.027   1.909   1.620  0.00  0.00    -0.275 OA
ATOM     16  N   UNL     1      -1.321   1.027  -0.506  0.00  0.00    -0.298 N 
ATOM     17  C   UNL     1      -1.514   1.968   0.494  0.00  0.00    +0.223 C 
ATOM     18  H   UNL     1      -1.756   1.164  -1.378  0.00  0.00    +0.150 HD
BRANCH  17  19
ATOM     19  C   UNL     1      -2.437   3.087   0.041  0.00  0.00    +0.086 C 
BRANCH  19  20
ATOM     20  C   UNL     1      -3.830   2.608  -0.363  0.00  0.00    +0.021 C 
BRANCH  20  21
ATOM     21  C   UNL     1      -4.557   1.897   0.780  0.00  0.00    +0.110 C 
BRANCH  21  23
ATOM     22  O   UNL     1      -6.420   1.550  -0.750  0.00  0.00    -0.250 OA
ATOM     23  C   UNL     1      -5.931   1.423   0.365  0.00  0.00    +0.314 C 
BRANCH  23  24
ATOM     24  O   UNL     1      -6.580   0.820   1.395  0.00  0.00    -0.480 OA
ATOM     25  H   UNL     1      -6.165   0.746   2.231  0.00  0.00    +0.295 HD
ENDBRANCH  23  24
ENDBRANCH  21  23
ENDBRANCH  20  21
ENDBRANCH  19  20
ENDBRANCH  17  19
ENDBRANCH   1  16
BRANCH   1  26
ATOM     26  C   UNL     1      -1.000  -1.298  -1.196  0.00  0.00    +0.055 C 
BRANCH  26  27
ATOM     27  C   UNL     1      -2.229  -1.986  -0.652  0.00  0.00    -0.020 C 
ATOM     28  C   UNL     1      -2.081  -3.067   0.203  0.00  0.00    -0.004 C 
ATOM     29  C   UNL     1      -3.484  -1.524  -1.018  0.00  0.00    -0.004 C 
ATOM     30  C   UNL     1      -3.217  -3.702   0.705  0.00  0.00    -0.000 C 
ATOM     31  C   UNL     1      -4.619  -2.160  -0.516  0.00  0.00    -0.000 C 
ATOM     32  C   UNL     1      -4.486  -3.249   0.345  0.00  0.00    -0.000 C 
ENDBRANCH  26  27
ENDBRANCH   1  26
TORSDOF 11
