REMARK  Name = 111081
REMARK  5 active torsions:
REMARK  status: ('A' for Active; 'I' for Inactive)
REMARK    1  A    between atoms: N_3  and  C1*_12
REMARK    2  A    between atoms: C_7  and  N_20
REMARK    3  A    between atoms: C3*_11  and  O3*_15
REMARK    4  A    between atoms: C4*_14  and  C5*_17
REMARK    5  A    between atoms: C5*_17  and  O5*_18
REMARK                            x       y       z     vdW  Elec       q    Type
REMARK                         _______ _______ _______ _____ _____    ______ ____
ROOT
ATOM      1  O   UNL     1      -1.183   2.803  -0.383  0.00  0.00    -0.252 OA
ATOM      2  O   UNL     1      -4.351  -0.469   0.232  0.00  0.00    -0.268 OA
ATOM      3  N   UNL     1      -0.453   0.594  -0.187  0.00  0.00    -0.217 N 
ATOM      4  N   UNL     1      -2.752   1.159  -0.076  0.00  0.00    -0.235 N 
ATOM      5  C   UNL     1      -0.821  -0.733  -0.006  0.00  0.00    +0.090 C 
ATOM      6  C   UNL     1      -1.435   1.606  -0.228  0.00  0.00    +0.315 C 
ATOM      7  C   UNL     1      -2.080  -1.165   0.139  0.00  0.00    +0.111 C 
ATOM      8  C   UNL     1      -3.172  -0.150   0.106  0.00  0.00    +0.267 C 
ATOM      9  H   UNL     1      -3.455   1.846  -0.102  0.00  0.00    +0.159 HD
ENDROOT
BRANCH   3  12
ATOM     10  O4* UNL     1       1.602  -0.178  -0.995  0.00  0.00    -0.335 OA
ATOM     11  C3* UNL     1       3.031   0.599   0.730  0.00  0.00    +0.144 C 
ATOM     12  C1* UNL     1       0.939   0.905  -0.328  0.00  0.00    +0.202 C 
ATOM     13  C2* UNL     1       1.635   1.109   1.008  0.00  0.00    +0.083 C 
ATOM     14  C4* UNL     1       2.794  -0.528  -0.265  0.00  0.00    +0.173 C 
BRANCH  11  15
ATOM     15  O3* UNL     1       3.806   1.629   0.122  0.00  0.00    -0.382 OA
ATOM     16  H3* UNL     1       3.953   2.344   0.761  0.00  0.00    +0.210 HD
ENDBRANCH  11  15
BRANCH  14  17
ATOM     17  C5* UNL     1       2.554  -1.873   0.408  0.00  0.00    +0.169 C 
BRANCH  17  18
ATOM     18  O5* UNL     1       2.339  -2.842  -0.595  0.00  0.00    -0.379 OA
ATOM     19  H5* UNL     1       2.184  -3.706  -0.182  0.00  0.00    +0.211 HD
ENDBRANCH  17  18
ENDBRANCH  14  17
ENDBRANCH   3  12
BRANCH   7  20
ATOM     20  N   UNL     1      -2.454  -2.464   0.317  0.00  0.00    -0.352 N 
ATOM     21  H   UNL     1      -1.771  -3.173   0.346  0.00  0.00    +0.143 HD
ATOM     22  H   UNL     1      -3.406  -2.693   0.416  0.00  0.00    +0.143 HD
ENDBRANCH   7  20
TORSDOF 5
