REMARK  Name = 11107495
REMARK  4 active torsions:
REMARK  status: ('A' for Active; 'I' for Inactive)
REMARK    1  A    between atoms: N_2  and  C1*_14
REMARK    2  A    between atoms: C3*_13  and  O3*_17
REMARK    3  A    between atoms: C4*_16  and  C5*_19
REMARK    4  A    between atoms: C5*_19  and  O5*_20
REMARK                            x       y       z     vdW  Elec       q    Type
REMARK                         _______ _______ _______ _____ _____    ______ ____
ROOT
ATOM      1  O   UNL     1       4.365   0.397   0.221  0.00  0.00    -0.209 OA
ATOM      2  N   UNL     1       0.471  -0.532  -0.192  0.00  0.00    -0.226 N 
ATOM      3  N   UNL     1       2.760  -1.212  -0.083  0.00  0.00    -0.302 NA
ATOM      4  N   UNL     1       1.098  -2.804  -0.391  0.00  0.00    -0.320 N 
ATOM      5  C   UNL     1       0.863   0.781  -0.015  0.00  0.00    +0.079 C 
ATOM      6  C   UNL     1       1.484  -1.496  -0.216  0.00  0.00    +0.253 C 
ATOM      7  C   UNL     1       2.136   1.166   0.129  0.00  0.00    +0.088 C 
ATOM      8  C   UNL     1       3.182   0.093   0.094  0.00  0.00    +0.204 C 
ATOM      9  C   UNL     1       2.567   2.582   0.320  0.00  0.00    +0.046 C 
ATOM     10  H   UNL     1       0.145  -3.027  -0.492  0.00  0.00    +0.146 HD
ATOM     11  H   UNL     1       1.776  -3.518  -0.416  0.00  0.00    +0.146 HD
ENDROOT
BRANCH   2  14
ATOM     12  O4* UNL     1      -1.641   0.203  -0.987  0.00  0.00    -0.335 OA
ATOM     13  C3* UNL     1      -3.008  -0.656   0.749  0.00  0.00    +0.144 C 
ATOM     14  C1* UNL     1      -0.923  -0.860  -0.340  0.00  0.00    +0.201 C 
ATOM     15  C2* UNL     1      -1.581  -1.075   1.015  0.00  0.00    +0.083 C 
ATOM     16  C4* UNL     1      -2.847   0.481  -0.249  0.00  0.00    +0.173 C 
BRANCH  13  17
ATOM     17  O3* UNL     1      -3.704  -1.726   0.113  0.00  0.00    -0.382 OA
ATOM     18  H3* UNL     1      -3.813  -2.458   0.739  0.00  0.00    +0.210 HD
ENDBRANCH  13  17
BRANCH  16  19
ATOM     19  C5* UNL     1      -2.684   1.840   0.420  0.00  0.00    +0.169 C 
BRANCH  19  20
ATOM     20  O5* UNL     1      -2.536   2.818  -0.587  0.00  0.00    -0.379 OA
ATOM     21  H5* UNL     1      -2.431   3.691  -0.176  0.00  0.00    +0.211 HD
ENDBRANCH  19  20
ENDBRANCH  16  19
ENDBRANCH   2  14
TORSDOF 4
