11107495
  -OEChem-03292013303D

 32 33  0     1  0  0  0  0  0999 V2000
   -1.6414    0.2034   -0.9869 O   0  0  0  0  0  0  0  0  0  0  0  0
   -3.7042   -1.7257    0.1130 O   0  0  0  0  0  0  0  0  0  0  0  0
   -2.5360    2.8179   -0.5866 O   0  0  0  0  0  0  0  0  0  0  0  0
    4.3653    0.3972    0.2205 O   0  0  0  0  0  0  0  0  0  0  0  0
    0.4708   -0.5319   -0.1918 N   0  0  0  0  0  0  0  0  0  0  0  0
    2.7595   -1.2116   -0.0833 N   0  0  0  0  0  0  0  0  0  0  0  0
    1.0983   -2.8045   -0.3912 N   0  0  0  0  0  0  0  0  0  0  0  0
   -3.0079   -0.6564    0.7489 C   0  0  1  0  0  0  0  0  0  0  0  0
   -0.9235   -0.8601   -0.3399 C   0  0  1  0  0  0  0  0  0  0  0  0
   -1.5808   -1.0748    1.0148 C   0  0  0  0  0  0  0  0  0  0  0  0
   -2.8472    0.4810   -0.2487 C   0  0  1  0  0  0  0  0  0  0  0  0
   -2.6845    1.8397    0.4200 C   0  0  0  0  0  0  0  0  0  0  0  0
    0.8626    0.7806   -0.0153 C   0  0  0  0  0  0  0  0  0  0  0  0
    1.4842   -1.4959   -0.2165 C   0  0  0  0  0  0  0  0  0  0  0  0
    2.1358    1.1656    0.1291 C   0  0  0  0  0  0  0  0  0  0  0  0
    3.1818    0.0931    0.0936 C   0  0  0  0  0  0  0  0  0  0  0  0
    2.5672    2.5824    0.3202 C   0  0  0  0  0  0  0  0  0  0  0  0
   -3.5559   -0.3858    1.6559 H   0  0  0  0  0  0  0  0  0  0  0  0
   -1.0835   -1.7240   -0.9931 H   0  0  0  0  0  0  0  0  0  0  0  0
   -1.1405   -0.4260    1.7815 H   0  0  0  0  0  0  0  0  0  0  0  0
   -1.4820   -2.1123    1.3492 H   0  0  0  0  0  0  0  0  0  0  0  0
   -3.6640    0.5188   -0.9782 H   0  0  0  0  0  0  0  0  0  0  0  0
   -1.8171    1.8890    1.0835 H   0  0  0  0  0  0  0  0  0  0  0  0
   -3.5743    2.0880    1.0067 H   0  0  0  0  0  0  0  0  0  0  0  0
   -4.6047   -1.4128   -0.0788 H   0  0  0  0  0  0  0  0  0  0  0  0
    0.0736    1.5177    0.0044 H   0  0  0  0  0  0  0  0  0  0  0  0
   -1.7573    2.5808   -1.1185 H   0  0  0  0  0  0  0  0  0  0  0  0
    1.7993   -3.5373   -0.4320 H   0  0  0  0  0  0  0  0  0  0  0  0
    0.1366   -3.1168   -0.3485 H   0  0  0  0  0  0  0  0  0  0  0  0
    3.2364    2.8912   -0.4894 H   0  0  0  0  0  0  0  0  0  0  0  0
    3.0960    2.6963    1.2719 H   0  0  0  0  0  0  0  0  0  0  0  0
    1.7152    3.2704    0.3284 H   0  0  0  0  0  0  0  0  0  0  0  0
  1  9  1  0  0  0  0
  1 11  1  0  0  0  0
  2  8  1  0  0  0  0
  2 25  1  0  0  0  0
  3 12  1  0  0  0  0
  3 27  1  0  0  0  0
  4 16  2  0  0  0  0
  5  9  1  0  0  0  0
  5 13  1  0  0  0  0
  5 14  1  0  0  0  0
  6 14  2  0  0  0  0
  6 16  1  0  0  0  0
  7 14  1  0  0  0  0
  7 28  1  0  0  0  0
  7 29  1  0  0  0  0
  8 10  1  0  0  0  0
  8 11  1  0  0  0  0
  8 18  1  0  0  0  0
  9 10  1  0  0  0  0
  9 19  1  0  0  0  0
 10 20  1  0  0  0  0
 10 21  1  0  0  0  0
 11 12  1  0  0  0  0
 11 22  1  0  0  0  0
 12 23  1  0  0  0  0
 12 24  1  0  0  0  0
 13 15  2  0  0  0  0
 13 26  1  0  0  0  0
 15 16  1  0  0  0  0
 15 17  1  0  0  0  0
 17 30  1  0  0  0  0
 17 31  1  0  0  0  0
 17 32  1  0  0  0  0
M  END
> <PUBCHEM_COMPOUND_CID>
11107495

> <PUBCHEM_CONFORMER_RMSD>
0.6

> <PUBCHEM_CONFORMER_DIVERSEORDER>
1
7
9
8
2
10
3
5
6
4

> <PUBCHEM_MMFF94_PARTIAL_CHARGES>
21
1 -0.56
11 0.28
12 0.28
13 -0.05
14 0.55
15 -0.12
16 0.77
17 0.14
2 -0.68
25 0.4
26 0.15
27 0.4
28 0.4
29 0.4
3 -0.68
4 -0.57
5 -0.52
6 -0.66
7 -0.85
8 0.28
9 0.65

> <PUBCHEM_EFFECTIVE_ROTOR_COUNT>
3

> <PUBCHEM_PHARMACOPHORE_FEATURES>
10
1 1 acceptor
1 2 acceptor
1 2 donor
1 3 acceptor
1 3 donor
1 4 acceptor
1 6 donor
1 7 donor
5 1 8 9 10 11 rings
6 5 6 13 14 15 16 rings

> <PUBCHEM_HEAVY_ATOM_COUNT>
17

> <PUBCHEM_ATOM_DEF_STEREO_COUNT>
3

> <PUBCHEM_ATOM_UDEF_STEREO_COUNT>
0

> <PUBCHEM_BOND_DEF_STEREO_COUNT>
0

> <PUBCHEM_BOND_UDEF_STEREO_COUNT>
0

> <PUBCHEM_ISOTOPIC_ATOM_COUNT>
0

> <PUBCHEM_COMPONENT_COUNT>
1

> <PUBCHEM_CACTVS_TAUTO_COUNT>
3

> <PUBCHEM_CONFORMER_ID>
00A97CA700000001

> <PUBCHEM_MMFF94_ENERGY>
49.6588

> <PUBCHEM_FEATURE_SELFOVERLAP>
50.799

> <PUBCHEM_SHAPE_FINGERPRINT>
10366900 7 18188500184361442122
10608611 8 18409729543152453637
10922523 26 18272934890683190804
10967382 1 18123188996034447532
12403259 226 18341048635206746288
12403260 363 18338788017920225730
12932764 1 17489860553175659027
13294875 104 17392172059141819801
14026960 21 18265900335389404600
14144814 61 18411138017542165218
14648413 74 18338798888424332179
15219456 202 18409733919645019975
15375462 6 18339363066896727151
15442244 35 18051976913616499250
15775835 57 17987804166506178512
16945 1 18411980269161030942
17802600 8 18340766030558918569
17844478 74 18335147522130651145
18186145 218 17988652921232745794
19049666 15 18191030014672391035
19973954 147 18410577262512340745
200 152 18200866370707534263
20510252 161 18339644541884176001
21501502 16 18335703801852266035
21524375 3 18129664252286872494
22182937 141 18270125583035878545
23402539 116 18336258046397777175
23559900 14 18339356375058306578
25 1 18265331711931943308
2748010 2 18197502831045742870
3286 77 18334292102147629318
5104073 3 18411136905367260402
7364860 26 18269840822018542638
74978 22 18266741268822465155
7832392 63 18197216940742444401
81228 2 17895489067865668289
8809292 202 18190185594037057458
9709674 26 18411140203918291951

> <PUBCHEM_SHAPE_MULTIPOLES>
311.43
6.44
2.69
0.79
1.02
0.74
0.05
1.1
0.63
-0.15
-0.17
-0.34
0
0.61

> <PUBCHEM_SHAPE_SELFOVERLAP>
653.536

> <PUBCHEM_SHAPE_VOLUME>
176.2

> <PUBCHEM_COORDINATE_TYPE>
2
5
10

$$$$
