REMARK  Name = 11100659
REMARK  8 active torsions:
REMARK  status: ('A' for Active; 'I' for Inactive)
REMARK    1  A    between atoms: C_2  and  C_13
REMARK    2  A    between atoms: C_3  and  C_26
REMARK    3  A    between atoms: C_4  and  O_10
REMARK    4  A    between atoms: C_6  and  O_8
REMARK    5  A    between atoms: C_13  and  C_14
REMARK    6  A    between atoms: C_15  and  O_21
REMARK    7  A    between atoms: C_16  and  O_23
REMARK    8  A    between atoms: C_26  and  O_27
REMARK                            x       y       z     vdW  Elec       q    Type
REMARK                         _______ _______ _______ _____ _____    ______ ____
ROOT
ATOM      1 CL   UNL     1      -3.474   3.030  -0.219  0.00  0.00    -0.076 Cl
ATOM      2  C   UNL     1      -0.718   0.238   0.614  0.00  0.00    +0.080 C 
ATOM      3  C   UNL     1      -1.336  -0.933   0.176  0.00  0.00    +0.085 C 
ATOM      4  C   UNL     1      -1.377   1.462   0.493  0.00  0.00    +0.150 C 
ATOM      5  C   UNL     1      -2.613  -0.881  -0.383  0.00  0.00    +0.045 C 
ATOM      6  C   UNL     1      -3.272   0.342  -0.504  0.00  0.00    +0.152 C 
ATOM      7  C   UNL     1      -2.654   1.514  -0.067  0.00  0.00    +0.125 C 
ENDROOT
BRANCH   6   8
ATOM      8  O   UNL     1      -4.519   0.361  -1.055  0.00  0.00    -0.470 OA
ATOM      9  C   UNL     1      -5.622   0.209  -0.165  0.00  0.00    +0.253 C 
ENDBRANCH   6   8
BRANCH   4  10
ATOM     10  O   UNL     1      -0.764   2.604   0.923  0.00  0.00    -0.504 OA
ATOM     11  H   UNL     1       0.093   2.563   1.298  0.00  0.00    +0.292 HD
ENDBRANCH   4  10
BRANCH   2  13
ATOM     12  O   UNL     1       0.756   0.035   2.418  0.00  0.00    -0.286 OA
ATOM     13  C   UNL     1       0.619   0.191   1.198  0.00  0.00    +0.205 C 
BRANCH  13  14
ATOM     14  C   UNL     1       1.853   0.327   0.373  0.00  0.00    +0.106 C 
ATOM     15  C   UNL     1       1.726   0.502  -0.989  0.00  0.00    +0.139 C 
ATOM     16  C   UNL     1       3.080   0.272   0.999  0.00  0.00    +0.139 C 
ATOM     17  C   UNL     1       4.136   0.577  -1.154  0.00  0.00    -0.016 C 
ATOM     18  C   UNL     1       2.881   0.628  -1.761  0.00  0.00    +0.033 C 
ATOM     19  C   UNL     1       4.235   0.398   0.226  0.00  0.00    +0.033 C 
ATOM     20  C   UNL     1       5.370   0.713  -1.979  0.00  0.00    +0.031 C 
BRANCH  15  21
ATOM     21  O   UNL     1       0.511   0.556  -1.603  0.00  0.00    -0.505 OA
ATOM     22  H   UNL     1      -0.274   0.472  -1.097  0.00  0.00    +0.292 HD
ENDBRANCH  15  21
BRANCH  16  23
ATOM     23  O   UNL     1       3.200   0.100   2.345  0.00  0.00    -0.505 OA
ATOM     24  H   UNL     1       2.433   0.013   2.876  0.00  0.00    +0.292 HD
ENDBRANCH  16  23
ENDBRANCH  13  14
ENDBRANCH   2  13
BRANCH   3  26
ATOM     25  O   UNL     1       0.132  -2.501   1.174  0.00  0.00    -0.245 OA
ATOM     26  C   UNL     1      -0.676  -2.228   0.286  0.00  0.00    +0.342 C 
BRANCH  26  27
ATOM     27  O   UNL     1      -1.044  -3.111  -0.697  0.00  0.00    -0.441 OA
ATOM     28  C   UNL     1      -0.432  -4.405  -0.648  0.00  0.00    +0.256 C 
ENDBRANCH  26  27
ENDBRANCH   3  26
TORSDOF 8
