REMARK  Name = 11101249
REMARK  4 active torsions:
REMARK  status: ('A' for Active; 'I' for Inactive)
REMARK    1  A    between atoms: C_7  and  C_21
REMARK    2  A    between atoms: C_8  and  C_25
REMARK    3  A    between atoms: C_21  and  C_23
REMARK    4  A    between atoms: C_25  and  C_27
REMARK                            x       y       z     vdW  Elec       q    Type
REMARK                         _______ _______ _______ _____ _____    ______ ____
ROOT
ATOM      1  O   UNL     1       2.630  -0.374  -0.148  0.00  0.00    -0.449 OA
ATOM      2  O   UNL     1      -2.627   0.371  -0.147  0.00  0.00    -0.449 OA
ATOM      3  O   UNL     1       1.582   2.422   1.373  0.00  0.00    -0.291 OA
ATOM      4  O   UNL     1      -1.581  -2.425   1.372  0.00  0.00    -0.291 OA
ATOM      5  O   UNL     1       2.114  -1.659  -2.001  0.00  0.00    -0.245 OA
ATOM      6  O   UNL     1      -2.122   1.672  -1.993  0.00  0.00    -0.245 OA
ATOM      7  C   UNL     1       3.788   0.207  -0.781  0.00  0.00    +0.177 C 
ATOM      8  C   UNL     1      -3.787  -0.209  -0.780  0.00  0.00    +0.177 C 
ATOM      9  C   UNL     1       3.991   1.628  -0.227  0.00  0.00    +0.052 C 
ATOM     10  C   UNL     1      -3.990  -1.629  -0.227  0.00  0.00    +0.052 C 
ATOM     11  C   UNL     1       2.880   2.599  -0.640  0.00  0.00    +0.073 C 
ATOM     12  C   UNL     1      -2.881  -2.602  -0.640  0.00  0.00    +0.073 C 
ATOM     13  C   UNL     1       1.598   2.392   0.144  0.00  0.00    +0.173 C 
ATOM     14  C   UNL     1      -1.597  -2.394   0.143  0.00  0.00    +0.173 C 
ATOM     15  C   UNL     1       1.889  -1.255  -0.872  0.00  0.00    +0.341 C 
ATOM     16  C   UNL     1      -1.891   1.259  -0.868  0.00  0.00    +0.341 C 
ATOM     17  C   UNL     1       0.363   2.140  -0.651  0.00  0.00    +0.044 C 
ATOM     18  C   UNL     1      -0.363  -2.140  -0.653  0.00  0.00    +0.044 C 
ATOM     19  C   UNL     1       0.710  -1.613  -0.054  0.00  0.00    +0.085 C 
ATOM     20  C   UNL     1      -0.711   1.613  -0.051  0.00  0.00    +0.085 C 
ENDROOT
BRANCH   7  21
ATOM     21  C   UNL     1       4.994  -0.673  -0.469  0.00  0.00    +0.108 C 
BRANCH  21  23
ATOM     22  O   UNL     1       4.424  -1.246   1.808  0.00  0.00    -0.296 OA
ATOM     23  C   UNL     1       5.251  -0.795   1.018  0.00  0.00    +0.155 C 
ATOM     24  C   UNL     1       6.602  -0.325   1.493  0.00  0.00    +0.072 C 
ENDBRANCH  21  23
ENDBRANCH   7  21
BRANCH   8  25
ATOM     25  C   UNL     1      -4.992   0.672  -0.469  0.00  0.00    +0.108 C 
BRANCH  25  27
ATOM     26  O   UNL     1      -4.423   1.245   1.809  0.00  0.00    -0.296 OA
ATOM     27  C   UNL     1      -5.250   0.794   1.018  0.00  0.00    +0.155 C 
ATOM     28  C   UNL     1      -6.601   0.324   1.492  0.00  0.00    +0.072 C 
ENDBRANCH  25  27
ENDBRANCH   8  25
TORSDOF 4
