REMARK  Name = 11100922
REMARK  5 active torsions:
REMARK  status: ('A' for Active; 'I' for Inactive)
REMARK    1  A    between atoms: C_5  and  O_23
REMARK    2  A    between atoms: C_11  and  O_25
REMARK    3  A    between atoms: C_14  and  O_27
REMARK    4  A    between atoms: C_14  and  C_29
REMARK    5  A    between atoms: C_29  and  O_30
REMARK                            x       y       z     vdW  Elec       q    Type
REMARK                         _______ _______ _______ _____ _____    ______ ____
ROOT
ATOM      1  O   UNL     1      -3.688   0.039  -1.246  0.00  0.00    -0.331 OA
ATOM      2  O   UNL     1       6.090   0.064   1.736  0.00  0.00    -0.291 OA
ATOM      3  C   UNL     1      -1.686   0.005   0.133  0.00  0.00    +0.057 C 
ATOM      4  C   UNL     1      -0.688  -1.171   0.179  0.00  0.00    +0.005 C 
ATOM      5  C   UNL     1      -2.925  -0.579   0.852  0.00  0.00    +0.139 C 
ATOM      6  C   UNL     1       0.592  -0.920  -0.634  0.00  0.00    +0.003 C 
ATOM      7  C   UNL     1       1.332   0.320  -0.020  0.00  0.00    +0.030 C 
ATOM      8  C   UNL     1      -0.970   1.216   0.764  0.00  0.00    +0.034 C 
ATOM      9  C   UNL     1      -1.538  -2.375  -0.172  0.00  0.00    +0.003 C 
ATOM     10  C   UNL     1      -2.809  -2.124   0.641  0.00  0.00    +0.032 C 
ATOM     11  C   UNL     1       0.387   1.548   0.101  0.00  0.00    +0.111 C 
ATOM     12  C   UNL     1      -2.276   0.333  -1.263  0.00  0.00    +0.147 C 
ATOM     13  C   UNL     1       2.724   0.576  -0.714  0.00  0.00    +0.018 C 
ATOM     14  C   UNL     1      -4.124   0.042   0.121  0.00  0.00    +0.234 C 
ATOM     15  C   UNL     1       1.490  -2.176  -0.643  0.00  0.00    +0.004 C 
ATOM     16  C   UNL     1       3.499  -0.739  -0.565  0.00  0.00    -0.042 C 
ATOM     17  C   UNL     1       2.873  -1.930  -1.245  0.00  0.00    +0.022 C 
ATOM     18  C   UNL     1       3.523   1.743  -0.067  0.00  0.00    +0.012 C 
ATOM     19  C   UNL     1       2.609   0.937  -2.216  0.00  0.00    +0.004 C 
ATOM     20  C   UNL     1       4.145   1.386   1.270  0.00  0.00    +0.069 C 
ATOM     21  C   UNL     1       4.583  -0.902   0.211  0.00  0.00    +0.029 C 
ATOM     22  C   UNL     1       5.046   0.189   1.101  0.00  0.00    +0.173 C 
ENDROOT
BRANCH   5  23
ATOM     23  O   UNL     1      -2.941  -0.299   2.239  0.00  0.00    -0.382 OA
ATOM     24  H   UNL     1      -2.168  -0.708   2.661  0.00  0.00    +0.210 HD
ENDBRANCH   5  23
BRANCH  11  25
ATOM     25  O   UNL     1       0.164   2.186  -1.148  0.00  0.00    -0.384 OA
ATOM     26  H   UNL     1       1.016   2.393  -1.562  0.00  0.00    +0.210 HD
ENDBRANCH  11  25
BRANCH  14  27
ATOM     27  O   UNL     1      -5.320  -0.720   0.287  0.00  0.00    -0.360 OA
ATOM     28  H   UNL     1      -5.153  -1.642   0.039  0.00  0.00    +0.213 HD
ENDBRANCH  14  27
BRANCH  14  29
ATOM     29  C   UNL     1      -4.492   1.467   0.535  0.00  0.00    +0.196 C 
BRANCH  29  30
ATOM     30  O   UNL     1      -5.601   1.883  -0.238  0.00  0.00    -0.378 OA
ATOM     31  H   UNL     1      -5.848   2.787   0.012  0.00  0.00    +0.211 HD
ENDBRANCH  29  30
ENDBRANCH  14  29
TORSDOF 5
