REMARK  Name = 11101250
REMARK  5 active torsions:
REMARK  status: ('A' for Active; 'I' for Inactive)
REMARK    1  A    between atoms: C_5  and  C_11
REMARK    2  A    between atoms: CA_6  and  CB_25
REMARK    3  A    between atoms: C_11  and  C_13
REMARK    4  A    between atoms: C_17  and  N_24
REMARK    5  A    between atoms: CB_25  and  CG_26
REMARK                            x       y       z     vdW  Elec       q    Type
REMARK                         _______ _______ _______ _____ _____    ______ ____
ROOT
ATOM      1  O   UNK A   1       0.098   0.406   1.863  0.00  0.00    -0.273 OA
ATOM      2  O   PHE A   2       2.681  -3.234  -0.973  0.00  0.00    -0.273 OA
ATOM      3  N   UNK A   1       0.662  -2.200  -0.409  0.00  0.00    -0.270 N 
ATOM      4  N   PHE A   2       2.061  -0.457   1.033  0.00  0.00    -0.297 N 
ATOM      5  C   UNK A   1       0.014  -0.892  -0.195  0.00  0.00    +0.156 C 
ATOM      6  CA  PHE A   2       2.761  -0.974  -0.129  0.00  0.00    +0.153 C 
ATOM      7  C   UNK A   1       0.688  -0.276   1.028  0.00  0.00    +0.241 C 
ATOM      8  C   PHE A   2       2.063  -2.273  -0.516  0.00  0.00    +0.244 C 
ATOM      9  C   UNK A   1      -0.141  -3.359  -0.778  0.00  0.00    +0.115 C 
ATOM     10  H   PHE A   2       2.573  -0.230   1.842  0.00  0.00    +0.150 HD
ENDROOT
BRANCH   5  11
ATOM     11  C   UNK A   1      -1.501  -0.925  -0.015  0.00  0.00    +0.057 C 
BRANCH  11  13
ATOM     12  N   UNK A   1      -2.315   2.554  -0.751  0.00  0.00    -0.312 N 
ATOM     13  C   UNK A   1      -2.120   0.422  -0.266  0.00  0.00    -0.003 C 
ATOM     14  C   UNK A   1      -3.488   0.742  -0.186  0.00  0.00    +0.033 C 
ATOM     15  C   UNK A   1      -1.413   1.534  -0.611  0.00  0.00    +0.058 C 
ATOM     16  C   UNK A   1      -3.590   2.099  -0.498  0.00  0.00    +0.050 C 
ATOM     17  C   UNK A   1      -4.662   0.026   0.118  0.00  0.00    +0.144 C 
ATOM     18  C   UNK A   1      -4.813   2.779  -0.520  0.00  0.00    +0.015 C 
ATOM     19  C   UNK A   1      -5.893   0.693   0.100  0.00  0.00    +0.024 C 
ATOM     20  C   UNK A   1      -5.965   2.048  -0.214  0.00  0.00    +0.003 C 
ATOM     21  H   UNK A   1      -2.086   3.479  -0.998  0.00  0.00    +0.152 HD
BRANCH  17  24
ATOM     22  O   UNK A   1      -5.655  -1.971   0.707  0.00  0.00    -0.126 OA
ATOM     23  O   UNK A   1      -3.476  -1.924   0.447  0.00  0.00    -0.126 OA
ATOM     24  N   UNK A   1      -4.594  -1.354   0.439  0.00  0.00    +0.058 N 
ENDBRANCH  17  24
ENDBRANCH  11  13
ENDBRANCH   5  11
BRANCH   6  25
ATOM     25  CB  PHE A   2       4.238  -1.185   0.169  0.00  0.00    +0.055 C 
BRANCH  25  26
ATOM     26  CG  PHE A   2       5.014   0.104   0.095  0.00  0.00    -0.020 C 
ATOM     27  CD1 PHE A   2       5.575   0.494  -1.113  0.00  0.00    -0.004 C 
ATOM     28  CD2 PHE A   2       5.157   0.882   1.235  0.00  0.00    -0.004 C 
ATOM     29  CE1 PHE A   2       6.294   1.688  -1.182  0.00  0.00    -0.000 C 
ATOM     30  CE2 PHE A   2       5.876   2.075   1.165  0.00  0.00    -0.000 C 
ATOM     31  CZ  PHE A   2       6.444   2.478  -0.043  0.00  0.00    -0.000 C 
ENDBRANCH  25  26
ENDBRANCH   6  25
TORSDOF 5
