REMARK  Name = 11119723
REMARK  7 active torsions:
REMARK  status: ('A' for Active; 'I' for Inactive)
REMARK    1  A    between atoms: C_2  and  CA_19
REMARK    2  A    between atoms: C_3  and  O_15
REMARK    3  A    between atoms: C_4  and  O_17
REMARK    4  A    between atoms: C_5  and  N_8
REMARK    5  A    between atoms: CA_19  and  N_20
REMARK    6  A    between atoms: CA_19  and  C_25
REMARK    7  A    between atoms: C_25  and  O_26
REMARK                            x       y       z     vdW  Elec       q    Type
REMARK                         _______ _______ _______ _____ _____    ______ ____
ROOT
ATOM      1  O   UNL     1      -0.941   0.229   1.050  0.00  0.00    -0.337 OA
ATOM      2  C   UNL     1      -2.185   0.471   0.356  0.00  0.00    +0.137 C 
ATOM      3  C   UNL     1      -1.981   1.760  -0.429  0.00  0.00    +0.167 C 
ATOM      4  C   UNL     1      -0.503   1.704  -0.752  0.00  0.00    +0.187 C 
ATOM      5  C   UNL     1       0.074   1.093   0.513  0.00  0.00    +0.229 C 
ENDROOT
BRANCH   5   8
ATOM      6  O   UNL     1       2.706   2.094   0.726  0.00  0.00    -0.252 OA
ATOM      7  O   UNL     1       4.539  -1.958  -0.486  0.00  0.00    -0.270 OA
ATOM      8  N   UNL     1       1.257   0.321   0.260  0.00  0.00    -0.217 N 
ATOM      9  N   UNL     1       3.617   0.075   0.122  0.00  0.00    -0.236 N 
ATOM     10  C   UNL     1       2.532   0.919   0.394  0.00  0.00    +0.315 C 
ATOM     11  C   UNL     1       1.148  -1.012  -0.117  0.00  0.00    +0.076 C 
ATOM     12  C   UNL     1       2.192  -1.804  -0.374  0.00  0.00    +0.074 C 
ATOM     13  C   UNL     1       3.558  -1.257  -0.257  0.00  0.00    +0.254 C 
ATOM     14  H   UNL     1       4.515   0.470   0.208  0.00  0.00    +0.159 HD
ENDBRANCH   5   8
BRANCH   3  15
ATOM     15  O   UNL     1      -2.255   2.855   0.445  0.00  0.00    -0.379 OA
ATOM     16  H   UNL     1      -3.204   2.880   0.644  0.00  0.00    +0.211 HD
ENDBRANCH   3  15
BRANCH   4  17
ATOM     17  O   UNL     1       0.033   2.980  -1.033  0.00  0.00    -0.378 OA
ATOM     18  H   UNL     1      -0.365   3.326  -1.847  0.00  0.00    +0.211 HD
ENDBRANCH   4  17
BRANCH   2  19
ATOM     19  CA  UNL     1      -2.477  -0.733  -0.529  0.00  0.00    +0.066 C 
BRANCH  19  20
ATOM     20  N   UNL     1      -3.774  -0.564  -1.180  0.00  0.00    +0.390 N 
ATOM     21  H1  UNL     1      -3.765   0.289  -1.740  0.00  0.00    -0.088 HD
ATOM     22  H2  UNL     1      -4.504  -0.497  -0.471  0.00  0.00    -0.088 HD
ATOM     23  H3  UNL     1      -3.959  -1.365  -1.784  0.00  0.00    -0.088 HD
ENDBRANCH  19  20
BRANCH  19  25
ATOM     24  OXT UNL     1      -2.836  -2.095   1.471  0.00  0.00    -0.253 OA
ATOM     25  C   UNL     1      -2.525  -2.005   0.292  0.00  0.00    +0.295 C 
BRANCH  25  26
ATOM     26  O   UNL     1      -2.180  -3.074  -0.472  0.00  0.00    -0.482 OA
ATOM     27  H   UNL     1      -1.950  -2.952  -1.372  0.00  0.00    +0.295 HD
ENDBRANCH  25  26
ENDBRANCH  19  25
ENDBRANCH   2  19
TORSDOF 7
