REMARK  Name = 11111690
REMARK  4 active torsions:
REMARK  status: ('A' for Active; 'I' for Inactive)
REMARK    1  A    between atoms: C_6  and  C_28
REMARK    2  A    between atoms: C_16  and  O_24
REMARK    3  A    between atoms: C_17  and  O_26
REMARK    4  A    between atoms: C_28  and  O_29
REMARK                            x       y       z     vdW  Elec       q    Type
REMARK                         _______ _______ _______ _____ _____    ______ ____
ROOT
ATOM      1  O   UNL     1      -2.022  -0.802  -1.228  0.00  0.00    -0.481 OA
ATOM      2  O   UNL     1       2.297   1.293   1.730  0.00  0.00    -0.450 OA
ATOM      3  O   UNL     1      -2.258   0.062   1.591  0.00  0.00    -0.448 OA
ATOM      4  O   UNL     1       3.263  -0.395   2.864  0.00  0.00    -0.247 OA
ATOM      5  O   UNL     1      -3.446  -1.756   2.326  0.00  0.00    -0.250 OA
ATOM      6  C   UNL     1       1.310   0.941  -0.571  0.00  0.00    +0.085 C 
ATOM      7  C   UNL     1      -1.003   1.608   0.120  0.00  0.00    +0.062 C 
ATOM      8  C   UNL     1      -0.178   0.652  -0.702  0.00  0.00    -0.004 C 
ATOM      9  C   UNL     1       2.125  -0.378  -0.503  0.00  0.00    +0.050 C 
ATOM     10  C   UNL     1       1.369   1.766   0.736  0.00  0.00    +0.175 C 
ATOM     11  C   UNL     1      -0.057   1.789   1.320  0.00  0.00    +0.051 C 
ATOM     12  C   UNL     1      -2.363   0.977   0.480  0.00  0.00    +0.209 C 
ATOM     13  C   UNL     1       1.709  -1.298  -1.695  0.00  0.00    +0.038 C 
ATOM     14  C   UNL     1      -0.683  -0.482  -1.220  0.00  0.00    +0.135 C 
ATOM     15  C   UNL     1      -2.959   0.107  -0.626  0.00  0.00    +0.180 C 
ATOM     16  C   UNL     1       0.195  -1.608  -1.710  0.00  0.00    +0.166 C 
ATOM     17  C   UNL     1       1.978  -0.970   0.905  0.00  0.00    +0.210 C 
ATOM     18  C   UNL     1      -1.225   2.951  -0.602  0.00  0.00    +0.008 C 
ATOM     19  C   UNL     1      -3.933  -0.756   0.172  0.00  0.00    +0.153 C 
ATOM     20  C   UNL     1       2.574  -0.020   1.920  0.00  0.00    +0.344 C 
ATOM     21  C   UNL     1       2.571  -2.555  -1.853  0.00  0.00    +0.003 C 
ATOM     22  C   UNL     1      -3.674   0.863  -1.739  0.00  0.00    +0.048 C 
ATOM     23  C   UNL     1      -3.211  -0.910   1.478  0.00  0.00    +0.321 C 
ENDROOT
BRANCH  16  24
ATOM     24  O   UNL     1      -0.062  -2.755  -0.895  0.00  0.00    -0.377 OA
ATOM     25  H   UNL     1       0.492  -3.494  -1.193  0.00  0.00    +0.211 HD
ENDBRANCH  16  24
BRANCH  17  26
ATOM     26  O   UNL     1       2.707  -2.180   1.027  0.00  0.00    -0.374 OA
ATOM     27  H   UNL     1       2.363  -2.830   0.394  0.00  0.00    +0.211 HD
ENDBRANCH  17  26
BRANCH   6  28
ATOM     28  C   UNL     1       1.799   1.807  -1.754  0.00  0.00    +0.144 C 
BRANCH  28  29
ATOM     29  O   UNL     1       3.175   2.050  -1.571  0.00  0.00    -0.382 OA
ATOM     30  H   UNL     1       3.508   2.593  -2.302  0.00  0.00    +0.210 HD
ENDBRANCH  28  29
ENDBRANCH   6  28
TORSDOF 4
