REMARK  Name = 11128
REMARK  8 active torsions:
REMARK  status: ('A' for Active; 'I' for Inactive)
REMARK    1  A    between atoms: C_2  and  O_7
REMARK    2  A    between atoms: C_3  and  O_9
REMARK    3  A    between atoms: C_4  and  O_11
REMARK    4  A    between atoms: C_5  and  C_19
REMARK    5  A    between atoms: C_6  and  O_13
REMARK    6  A    between atoms: O_13  and  C_14
REMARK    7  A    between atoms: C_14  and  C_18
REMARK    8  A    between atoms: C_19  and  O_20
REMARK                            x       y       z     vdW  Elec       q    Type
REMARK                         _______ _______ _______ _____ _____    ______ ____
ROOT
ATOM      1  O   UNL     1      -0.079   0.620  -0.019  0.00  0.00    -0.326 OA
ATOM      2  C   UNL     1       2.113  -1.231   0.117  0.00  0.00    +0.172 C 
ATOM      3  C   UNL     1       2.321   0.280   0.008  0.00  0.00    +0.169 C 
ATOM      4  C   UNL     1       0.732  -1.638  -0.395  0.00  0.00    +0.196 C 
ATOM      5  C   UNL     1       1.134   1.036   0.610  0.00  0.00    +0.176 C 
ATOM      6  C   UNL     1      -0.366  -0.759   0.205  0.00  0.00    +0.266 C 
ENDROOT
BRANCH   2   7
ATOM      7  O   UNL     1       3.120  -1.873  -0.666  0.00  0.00    -0.379 OA
ATOM      8  H   UNL     1       3.996  -1.615  -0.341  0.00  0.00    +0.211 HD
ENDBRANCH   2   7
BRANCH   3   9
ATOM      9  O   UNL     1       3.512   0.644   0.701  0.00  0.00    -0.379 OA
ATOM     10  H   UNL     1       4.266   0.165   0.321  0.00  0.00    +0.211 HD
ENDBRANCH   3   9
BRANCH   4  11
ATOM     11  O   UNL     1       0.470  -2.992  -0.027  0.00  0.00    -0.378 OA
ATOM     12  H   UNL     1       1.157  -3.567  -0.399  0.00  0.00    +0.211 HD
ENDBRANCH   4  11
BRANCH   6  13
ATOM     13  O   UNL     1      -1.599  -1.103  -0.426  0.00  0.00    -0.319 OA
BRANCH  13  14
ATOM     14  C   UNL     1      -2.672  -0.325   0.080  0.00  0.00    +0.173 C 
ATOM     15  C   UNL     1      -2.787  -0.579   1.583  0.00  0.00    +0.045 C 
ATOM     16  C   UNL     1      -3.953  -0.742  -0.641  0.00  0.00    +0.045 C 
BRANCH  14  18
ATOM     17  N   UNL     1      -2.155   2.215  -0.379  0.00  0.00    -0.193 NA
ATOM     18  C   UNL     1      -2.382   1.096  -0.176  0.00  0.00    +0.099 C 
ENDBRANCH  14  18
ENDBRANCH  13  14
ENDBRANCH   6  13
BRANCH   5  19
ATOM     19  C   UNL     1       1.264   2.543   0.407  0.00  0.00    +0.169 C 
BRANCH  19  20
ATOM     20  O   UNL     1       1.327   2.807  -0.982  0.00  0.00    -0.379 OA
ATOM     21  H   UNL     1       1.410   3.763  -1.126  0.00  0.00    +0.211 HD
ENDBRANCH  19  20
ENDBRANCH   5  19
TORSDOF 8
