REMARK  Name = 111299
REMARK  11 active torsions:
REMARK  status: ('A' for Active; 'I' for Inactive)
REMARK    1  A    between atoms: N_2  and  CA_5
REMARK    2  A    between atoms: C_3  and  C_17
REMARK    3  A    between atoms: CA_5  and  C_7
REMARK    4  A    between atoms: CA_5  and  CB_10
REMARK    5  A    between atoms: C_7  and  O_8
REMARK    6  A    between atoms: CB_10  and  CG_11
REMARK    7  A    between atoms: C_17  and  C_18
REMARK    8  A    between atoms: C_18  and  CA_19
REMARK    9  A    between atoms: CA_19  and  N_20
REMARK   10  A    between atoms: CA_19  and  C_25
REMARK   11  A    between atoms: C_25  and  O_26
REMARK                            x       y       z     vdW  Elec       q    Type
REMARK                         _______ _______ _______ _____ _____    ______ ____
ROOT
ATOM      1  O   UNL     1       0.095   0.902  -1.848  0.00  0.00    -0.275 OA
ATOM      2  N   UNL     1      -0.767   1.204   0.287  0.00  0.00    -0.297 N 
ATOM      3  C   UNL     1       0.251   1.013  -0.635  0.00  0.00    +0.223 C 
ATOM      4  H   UNL     1      -0.531   1.280   1.240  0.00  0.00    +0.150 HD
ENDROOT
BRANCH   2   5
ATOM      5  CA  UNL     1      -2.159   1.296  -0.089  0.00  0.00    +0.176 C 
BRANCH   5   7
ATOM      6  OXT UNL     1      -3.863   3.012  -0.072  0.00  0.00    -0.248 OA
ATOM      7  C   UNL     1      -2.725   2.671   0.232  0.00  0.00    +0.332 C 
BRANCH   7   8
ATOM      8  O   UNL     1      -1.876   3.497   0.890  0.00  0.00    -0.479 OA
ATOM      9  H   UNL     1      -1.012   3.204   1.107  0.00  0.00    +0.295 HD
ENDBRANCH   7   8
ENDBRANCH   5   7
BRANCH   5  10
ATOM     10  CB  UNL     1      -2.992   0.211   0.604  0.00  0.00    +0.057 C 
BRANCH  10  11
ATOM     11  CG  UNL     1      -2.512  -1.187   0.298  0.00  0.00    -0.020 C 
ATOM     12  CD1 UNL     1      -3.033  -1.860  -0.796  0.00  0.00    -0.004 C 
ATOM     13  CD2 UNL     1      -1.558  -1.772   1.115  0.00  0.00    -0.004 C 
ATOM     14  CE1 UNL     1      -2.589  -3.152  -1.079  0.00  0.00    -0.000 C 
ATOM     15  CE2 UNL     1      -1.114  -3.064   0.831  0.00  0.00    -0.000 C 
ATOM     16  CZ  UNL     1      -1.630  -3.753  -0.266  0.00  0.00    -0.000 C 
ENDBRANCH  10  11
ENDBRANCH   5  10
ENDBRANCH   2   5
BRANCH   3  17
ATOM     17  C   UNL     1       1.611   0.945   0.040  0.00  0.00    +0.083 C 
BRANCH  17  18
ATOM     18  C   UNL     1       2.749   0.735  -0.961  0.00  0.00    -0.001 C 
BRANCH  18  19
ATOM     19  CA  UNL     1       4.131   0.738  -0.299  0.00  0.00    +0.036 C 
BRANCH  19  20
ATOM     20  N   UNL     1       5.162   0.531  -1.319  0.00  0.00    +0.389 N 
ATOM     21  H1  UNL     1       5.108   1.276  -2.013  0.00  0.00    -0.088 HD
ATOM     22  H2  UNL     1       5.015  -0.369  -1.775  0.00  0.00    -0.088 HD
ATOM     23  H3  UNL     1       6.083   0.543  -0.879  0.00  0.00    -0.088 HD
ENDBRANCH  19  20
BRANCH  19  25
ATOM     24  OXT UNL     1       4.620  -1.540   0.417  0.00  0.00    -0.253 OA
ATOM     25  C   UNL     1       4.269  -0.400   0.696  0.00  0.00    +0.293 C 
BRANCH  25  26
ATOM     26  O   UNL     1       3.930  -0.026   1.957  0.00  0.00    -0.482 OA
ATOM     27  H   UNL     1       3.666   0.857   2.128  0.00  0.00    +0.295 HD
ENDBRANCH  25  26
ENDBRANCH  19  25
ENDBRANCH  18  19
ENDBRANCH  17  18
ENDBRANCH   3  17
TORSDOF 11
