REMARK  Name = 11123535
REMARK  8 active torsions:
REMARK  status: ('A' for Active; 'I' for Inactive)
REMARK    1  A    between atoms: C_6  and  C_24
REMARK    2  A    between atoms: C_14  and  O_20
REMARK    3  A    between atoms: O_20  and  C_22
REMARK    4  A    between atoms: C_24  and  C_25
REMARK    5  A    between atoms: C_24  and  O_33
REMARK    6  A    between atoms: C_26  and  C_28
REMARK    7  A    between atoms: C_28  and  C_30
REMARK    8  A    between atoms: C_30  and  O_31
REMARK                            x       y       z     vdW  Elec       q    Type
REMARK                         _______ _______ _______ _____ _____    ______ ____
ROOT
ATOM      1 CL   UNL     1       1.304   5.032  -0.572  0.00  0.00    -0.087 Cl
ATOM      2  O   UNL     1      -1.966   0.723  -0.320  0.00  0.00    -0.352 OA
ATOM      3  O   UNL     1       0.259  -0.980  -1.500  0.00  0.00    -0.449 OA
ATOM      4  O   UNL     1       2.017  -0.617  -2.954  0.00  0.00    -0.250 OA
ATOM      5  C   UNL     1      -0.518   0.078  -2.096  0.00  0.00    +0.201 C 
ATOM      6  C   UNL     1      -1.956   0.026  -1.583  0.00  0.00    +0.186 C 
ATOM      7  C   UNL     1      -0.679   1.347  -0.129  0.00  0.00    +0.119 C 
ATOM      8  C   UNL     1      -0.062   1.404  -1.522  0.00  0.00    +0.076 C 
ATOM      9  C   UNL     1      -0.858   2.695   0.564  0.00  0.00    +0.035 C 
ATOM     10  C   UNL     1       0.406   3.218   1.260  0.00  0.00    +0.040 C 
ATOM     11  C   UNL     1       1.522  -1.165  -1.978  0.00  0.00    +0.321 C 
ATOM     12  C   UNL     1       1.552   3.578   0.355  0.00  0.00    +0.032 C 
ATOM     13  C   UNL     1       2.268  -2.112  -1.075  0.00  0.00    +0.157 C 
ATOM     14  C   UNL     1       2.894  -1.380   0.121  0.00  0.00    +0.198 C 
ATOM     15  C   UNL     1       2.735   2.946   0.251  0.00  0.00    -0.014 C 
ATOM     16  C   UNL     1       4.031  -0.434  -0.228  0.00  0.00    -0.008 C 
ATOM     17  C   UNL     1       3.152   1.687   0.967  0.00  0.00    +0.052 C 
ATOM     18  C   UNL     1       4.105   0.862   0.139  0.00  0.00    -0.026 C 
ATOM     19  C   UNL     1       5.174  -1.034  -1.015  0.00  0.00    +0.030 C 
ENDROOT
BRANCH  14  20
ATOM     20  O   UNL     1       3.386  -2.382   1.017  0.00  0.00    -0.447 OA
BRANCH  20  22
ATOM     21  O   UNL     1       3.954  -0.747   2.547  0.00  0.00    -0.250 OA
ATOM     22  C   UNL     1       3.889  -1.917   2.196  0.00  0.00    +0.318 C 
ATOM     23  C   UNL     1       4.363  -3.070   3.028  0.00  0.00    +0.121 C 
ENDBRANCH  20  22
ENDBRANCH  14  20
BRANCH   6  24
ATOM     24  C   UNL     1      -2.530  -1.367  -1.394  0.00  0.00    +0.162 C 
BRANCH  24  25
ATOM     25  C   UNL     1      -3.909  -1.312  -0.796  0.00  0.00    -0.003 C 
ATOM     26  C   UNL     1      -4.235  -1.389   0.510  0.00  0.00    -0.035 C 
ATOM     27  C   UNL     1      -3.161  -1.549   1.554  0.00  0.00    +0.027 C 
BRANCH  26  28
ATOM     28  C   UNL     1      -5.646  -1.352   1.039  0.00  0.00    +0.131 C 
BRANCH  28  30
ATOM     29  O   UNL     1      -5.411   1.078   1.179  0.00  0.00    -0.250 OA
ATOM     30  C   UNL     1      -6.081   0.067   1.326  0.00  0.00    +0.318 C 
BRANCH  30  31
ATOM     31  O   UNL     1      -7.364   0.074   1.772  0.00  0.00    -0.480 OA
ATOM     32  H   UNL     1      -7.832  -0.733   1.867  0.00  0.00    +0.295 HD
ENDBRANCH  30  31
ENDBRANCH  28  30
ENDBRANCH  26  28
ENDBRANCH  24  25
BRANCH  24  33
ATOM     33  O   UNL     1      -2.636  -2.009  -2.665  0.00  0.00    -0.377 OA
ATOM     34  H   UNL     1      -1.759  -2.059  -3.076  0.00  0.00    +0.211 HD
ENDBRANCH  24  33
ENDBRANCH   6  24
TORSDOF 8
