REMARK  Name = 111308
REMARK  9 active torsions:
REMARK  status: ('A' for Active; 'I' for Inactive)
REMARK    1  A    between atoms: C_1  and  N_3
REMARK    2  A    between atoms: C_1  and  C_12
REMARK    3  A    between atoms: C_1  and  C_23
REMARK    4  A    between atoms: C_4  and  O_6
REMARK    5  A    between atoms: O_6  and  C_7
REMARK    6  A    between atoms: C_12  and  O_13
REMARK    7  A    between atoms: O_13  and  C_14
REMARK    8  A    between atoms: C_19  and  N_22
REMARK    9  A    between atoms: C_23  and  C_24
REMARK                            x       y       z     vdW  Elec       q    Type
REMARK                         _______ _______ _______ _____ _____    ______ ____
ROOT
ATOM      1  C   UNL     1      -1.246  -0.116   1.488  0.00  0.00    +0.179 C 
ENDROOT
BRANCH   1   3
ATOM      2  O   UNL     1      -3.804   1.259   1.470  0.00  0.00    -0.226 OA
ATOM      3  N   UNL     1      -1.943   0.442   0.352  0.00  0.00    -0.262 N 
ATOM      4  C   UNL     1      -3.162   1.081   0.440  0.00  0.00    +0.402 C 
ATOM      5  H   UNL     1      -1.524   0.361  -0.535  0.00  0.00    +0.153 HD
BRANCH   4   6
ATOM      6  O   UNL     1      -3.559   1.496  -0.801  0.00  0.00    -0.442 OA
BRANCH   6   7
ATOM      7  C   UNL     1      -4.813   2.178  -0.862  0.00  0.00    +0.138 C 
ATOM      8  C   UNL     1      -4.728   3.429   0.011  0.00  0.00    +0.044 C 
ATOM      9  C   UNL     1      -5.060   2.556  -2.321  0.00  0.00    +0.044 C 
ATOM     10  C   UNL     1      -5.904   1.234  -0.359  0.00  0.00    +0.044 C 
ENDBRANCH   6   7
ENDBRANCH   4   6
ENDBRANCH   1   3
BRANCH   1  12
ATOM     11  O   UNL     1       1.039  -0.318   2.259  0.00  0.00    -0.248 OA
ATOM     12  C   UNL     1       0.268   0.010   1.362  0.00  0.00    +0.340 C 
BRANCH  12  13
ATOM     13  O   UNL     1       0.630   0.558   0.137  0.00  0.00    -0.423 OA
BRANCH  13  14
ATOM     14  C   UNL     1       2.011   0.691  -0.017  0.00  0.00    +0.149 C 
ATOM     15  C   UNL     1       2.754  -0.350  -0.575  0.00  0.00    +0.039 C 
ATOM     16  C   UNL     1       2.649   1.865   0.385  0.00  0.00    +0.039 C 
ATOM     17  C   UNL     1       4.134  -0.217  -0.729  0.00  0.00    +0.027 C 
ATOM     18  C   UNL     1       4.029   1.998   0.231  0.00  0.00    +0.027 C 
ATOM     19  C   UNL     1       4.771   0.957  -0.327  0.00  0.00    +0.143 C 
BRANCH  19  22
ATOM     20  O   UNL     1       6.825   0.144  -0.989  0.00  0.00    -0.126 OA
ATOM     21  O   UNL     1       6.729   2.156  -0.116  0.00  0.00    -0.126 OA
ATOM     22  N   UNL     1       6.176   1.092  -0.485  0.00  0.00    +0.058 N 
ENDBRANCH  19  22
ENDBRANCH  13  14
ENDBRANCH  12  13
ENDBRANCH   1  12
BRANCH   1  23
ATOM     23  C   UNL     1      -1.677  -1.567   1.749  0.00  0.00    +0.057 C 
BRANCH  23  24
ATOM     24  C   UNL     1      -1.335  -2.536   0.640  0.00  0.00    -0.020 C 
ATOM     25  C   UNL     1      -2.243  -2.760  -0.395  0.00  0.00    -0.004 C 
ATOM     26  C   UNL     1      -0.112  -3.206   0.651  0.00  0.00    -0.004 C 
ATOM     27  C   UNL     1      -1.928  -3.653  -1.419  0.00  0.00    -0.000 C 
ATOM     28  C   UNL     1       0.204  -4.099  -0.373  0.00  0.00    -0.000 C 
ATOM     29  C   UNL     1      -0.705  -4.323  -1.408  0.00  0.00    -0.000 C 
ENDBRANCH  23  24
ENDBRANCH   1  23
TORSDOF 9
