REMARK  Name = 11134539
REMARK  7 active torsions:
REMARK  status: ('A' for Active; 'I' for Inactive)
REMARK    1  A    between atoms: C_8  and  O_27
REMARK    2  A    between atoms: C_12  and  C_24
REMARK    3  A    between atoms: C_13  and  O_31
REMARK    4  A    between atoms: C_15  and  C_19
REMARK    5  A    between atoms: C_24  and  O_25
REMARK    6  A    between atoms: O_27  and  C_29
REMARK    7  A    between atoms: O_31  and  C_33
REMARK                            x       y       z     vdW  Elec       q    Type
REMARK                         _______ _______ _______ _____ _____    ______ ____
ROOT
ATOM      1  O   UNL     1       4.112  -1.073  -0.656  0.00  0.00    -0.448 OA
ATOM      2  O   UNL     1       3.609  -3.171  -1.292  0.00  0.00    -0.250 OA
ATOM      3  C   UNL     1       1.290  -0.461  -0.754  0.00  0.00    +0.018 C 
ATOM      4  C   UNL     1      -0.158  -0.302  -0.142  0.00  0.00    +0.049 C 
ATOM      5  C   UNL     1      -1.183  -1.482  -0.429  0.00  0.00    +0.028 C 
ATOM      6  C   UNL     1       1.835  -1.844  -0.330  0.00  0.00    +0.099 C 
ATOM      7  C   UNL     1      -0.485  -2.806  -0.019  0.00  0.00    +0.005 C 
ATOM      8  C   UNL     1      -0.817   1.090  -0.298  0.00  0.00    +0.213 C 
ATOM      9  C   UNL     1       0.886  -2.995  -0.674  0.00  0.00    +0.011 C 
ATOM     10  C   UNL     1       2.259   0.547  -0.084  0.00  0.00    +0.049 C 
ATOM     11  C   UNL     1       1.344  -0.233  -2.279  0.00  0.00    +0.001 C 
ATOM     12  C   UNL     1      -2.448  -1.221   0.398  0.00  0.00    +0.052 C 
ATOM     13  C   UNL     1      -1.978   1.226   0.705  0.00  0.00    +0.230 C 
ATOM     14  C   UNL     1      -1.688  -1.636  -1.883  0.00  0.00    +0.005 C 
ATOM     15  C   UNL     1       3.732   0.317  -0.461  0.00  0.00    +0.194 C 
ATOM     16  C   UNL     1       3.240  -2.093  -0.836  0.00  0.00    +0.317 C 
ATOM     17  C   UNL     1      -2.800  -0.017   0.881  0.00  0.00    +0.023 C 
ENDROOT
BRANCH  15  19
ATOM     18  O   UNL     1       5.924   2.464   1.560  0.00  0.00    -0.448 OA
ATOM     19  C   UNL     1       4.643   0.947   0.524  0.00  0.00    +0.058 C 
ATOM     20  C   UNL     1       5.197   0.340   1.670  0.00  0.00    +0.043 C 
ATOM     21  C   UNL     1       5.111   2.235   0.496  0.00  0.00    +0.179 C 
ATOM     22  C   UNL     1       5.971   1.306   2.270  0.00  0.00    +0.180 C 
ENDBRANCH  15  19
BRANCH  12  24
ATOM     23  O   UNL     1      -4.329  -2.596  -0.038  0.00  0.00    -0.245 OA
ATOM     24  C   UNL     1      -3.399  -2.304   0.692  0.00  0.00    +0.337 C 
BRANCH  24  25
ATOM     25  O   UNL     1      -3.047  -2.875   1.870  0.00  0.00    -0.442 OA
ATOM     26  C   UNL     1      -3.884  -3.955   2.296  0.00  0.00    +0.256 C 
ENDBRANCH  24  25
ENDBRANCH  12  24
BRANCH   8  27
ATOM     27  O   UNL     1      -1.273   1.303  -1.627  0.00  0.00    -0.448 OA
BRANCH  27  29
ATOM     28  O   UNL     1      -1.675   3.550  -1.277  0.00  0.00    -0.250 OA
ATOM     29  C   UNL     1      -1.898   2.497  -1.859  0.00  0.00    +0.318 C 
ATOM     30  C   UNL     1      -2.915   2.338  -2.948  0.00  0.00    +0.121 C 
ENDBRANCH  27  29
ENDBRANCH   8  27
BRANCH  13  31
ATOM     31  O   UNL     1      -2.804   2.324   0.329  0.00  0.00    -0.444 OA
BRANCH  31  33
ATOM     32  O   UNL     1      -4.015   2.102   2.284  0.00  0.00    -0.250 OA
ATOM     33  C   UNL     1      -3.788   2.656   1.217  0.00  0.00    +0.318 C 
ATOM     34  C   UNL     1      -4.572   3.820   0.693  0.00  0.00    +0.121 C 
ENDBRANCH  31  33
ENDBRANCH  13  31
TORSDOF 7
