REMARK  Name = 11132470
REMARK  9 active torsions:
REMARK  status: ('A' for Active; 'I' for Inactive)
REMARK    1  A    between atoms: O_1  and  C_5
REMARK    2  A    between atoms: O_1  and  C_22
REMARK    3  A    between atoms: N_4  and  O_13
REMARK    4  A    between atoms: C_11  and  O_15
REMARK    5  A    between atoms: C_18  and  O_23
REMARK    6  A    between atoms: C_19  and  O_25
REMARK    7  A    between atoms: C_20  and  O_27
REMARK    8  A    between atoms: C_21  and  C_29
REMARK    9  A    between atoms: C_29  and  O_30
REMARK                            x       y       z     vdW  Elec       q    Type
REMARK                         _______ _______ _______ _____ _____    ______ ____
ROOT
ATOM      1  O   UNL     1       1.017   1.490   0.442  0.00  0.00    -0.286 OA
ENDROOT
BRANCH   1   5
ATOM      2  O   UNL     1      -0.830   0.071   0.461  0.00  0.00    -0.444 OA
ATOM      3  O   UNL     1      -0.506   3.598  -0.163  0.00  0.00    -0.266 OA
ATOM      4  N   UNL     1      -2.377   2.259  -0.343  0.00  0.00    -0.141 N 
ATOM      5  C   UNL     1      -0.233   1.192  -0.168  0.00  0.00    +0.372 C 
ATOM      6  C   UNL     1      -1.035   2.490  -0.201  0.00  0.00    +0.323 C 
ATOM      7  C   UNL     1      -2.169  -0.067   0.206  0.00  0.00    +0.161 C 
ATOM      8  C   UNL     1      -2.977   1.005  -0.185  0.00  0.00    +0.115 C 
ATOM      9  C   UNL     1      -2.727  -1.328   0.424  0.00  0.00    +0.075 C 
ATOM     10  C   UNL     1      -4.349   0.805  -0.371  0.00  0.00    +0.023 C 
ATOM     11  C   UNL     1      -4.093  -1.525   0.228  0.00  0.00    +0.142 C 
ATOM     12  C   UNL     1      -4.902  -0.461  -0.170  0.00  0.00    +0.038 C 
BRANCH   4  13
ATOM     13  O   UNL     1      -3.211   3.381  -0.450  0.00  0.00    -0.287 OA
ATOM     14  H   UNL     1      -2.668   4.178  -0.554  0.00  0.00    +0.242 HD
ENDBRANCH   4  13
BRANCH  11  15
ATOM     15  O   UNL     1      -4.637  -2.758   0.421  0.00  0.00    -0.471 OA
ATOM     16  C   UNL     1      -3.753  -3.802   0.828  0.00  0.00    +0.252 C 
ENDBRANCH  11  15
ENDBRANCH   1   5
BRANCH   1  22
ATOM     17  O   UNL     1       1.812  -0.656  -0.009  0.00  0.00    -0.326 OA
ATOM     18  C   UNL     1       4.539   0.239   0.095  0.00  0.00    +0.172 C 
ATOM     19  C   UNL     1       4.161  -1.242   0.109  0.00  0.00    +0.169 C 
ATOM     20  C   UNL     1       3.375   1.111   0.565  0.00  0.00    +0.197 C 
ATOM     21  C   UNL     1       2.825  -1.469  -0.604  0.00  0.00    +0.176 C 
ATOM     22  C   UNL     1       2.076   0.738  -0.149  0.00  0.00    +0.269 C 
BRANCH  18  23
ATOM     23  O   UNL     1       5.652   0.419   0.972  0.00  0.00    -0.379 OA
ATOM     24  H   UNL     1       6.391  -0.135   0.674  0.00  0.00    +0.211 HD
ENDBRANCH  18  23
BRANCH  19  25
ATOM     25  O   UNL     1       5.178  -1.995  -0.547  0.00  0.00    -0.379 OA
ATOM     26  H   UNL     1       6.026  -1.853  -0.098  0.00  0.00    +0.211 HD
ENDBRANCH  19  25
BRANCH  20  27
ATOM     27  O   UNL     1       3.664   2.480   0.281  0.00  0.00    -0.378 OA
ATOM     28  H   UNL     1       4.486   2.736   0.727  0.00  0.00    +0.211 HD
ENDBRANCH  20  27
BRANCH  21  29
ATOM     29  C   UNL     1       2.370  -2.921  -0.502  0.00  0.00    +0.169 C 
BRANCH  29  30
ATOM     30  O   UNL     1       1.129  -3.052  -1.171  0.00  0.00    -0.379 OA
ATOM     31  H   UNL     1       0.826  -3.972  -1.114  0.00  0.00    +0.211 HD
ENDBRANCH  29  30
ENDBRANCH  21  29
ENDBRANCH   1  22
TORSDOF 9
