11143436
  -OEChem-03292013303D

 57 57  0     1  0  0  0  0  0999 V2000
    3.5807   -1.9774    0.4219 O   0  0  0  0  0  0  0  0  0  0  0  0
   -2.7273    0.9927   -0.2884 O   0  0  0  0  0  0  0  0  0  0  0  0
   -1.1855   -0.7172    1.0295 O   0  0  0  0  0  0  0  0  0  0  0  0
    2.7881   -2.1496   -1.7467 O   0  0  0  0  0  0  0  0  0  0  0  0
   -3.1753   -1.1406   -1.0412 O   0  0  0  0  0  0  0  0  0  0  0  0
   -8.0379   -1.7659    0.5200 O   0  0  0  0  0  0  0  0  0  0  0  0
   -7.4722    0.3583    1.0941 O   0  0  0  0  0  0  0  0  0  0  0  0
    2.5298    2.7289    1.1454 C   0  0  0  0  0  0  0  0  0  0  0  0
    3.7793    2.2555    0.3975 C   0  0  0  0  0  0  0  0  0  0  0  0
    1.8092    3.9120    0.4922 C   0  0  0  0  0  0  0  0  0  0  0  0
    4.3562    1.0003    1.0597 C   0  0  0  0  0  0  0  0  0  0  0  0
    1.3460    3.7131   -0.9567 C   0  0  0  0  0  0  0  0  0  0  0  0
    5.4484    0.3517    0.2034 C   0  0  0  0  0  0  0  0  0  0  0  0
    0.6078    2.4049   -1.2588 C   0  0  0  0  0  0  0  0  0  0  0  0
    5.8215   -1.0641    0.6725 C   0  0  0  0  0  0  0  0  0  0  0  0
   -0.6854    2.2154   -0.4628 C   0  0  0  0  0  0  0  0  0  0  0  0
    4.9563   -2.1662    0.0332 C   0  0  1  0  0  0  0  0  0  0  0  0
   -1.3901    0.8865   -0.7693 C   0  0  1  0  0  0  0  0  0  0  0  0
    5.3849   -3.5472    0.5126 C   0  0  0  0  0  0  0  0  0  0  0  0
   -0.7524   -0.2931   -0.0400 C   0  0  0  0  0  0  0  0  0  0  0  0
    0.4425   -0.9060   -0.6850 C   0  0  0  0  0  0  0  0  0  0  0  0
    2.6364   -1.9322   -0.5557 C   0  0  0  0  0  0  0  0  0  0  0  0
   -3.5215   -0.1043   -0.4916 C   0  0  0  0  0  0  0  0  0  0  0  0
    1.3758   -1.4862    0.0776 C   0  0  0  0  0  0  0  0  0  0  0  0
   -4.8988    0.1732    0.0713 C   0  0  0  0  0  0  0  0  0  0  0  0
   -5.8380   -1.0229   -0.0283 C   0  0  0  0  0  0  0  0  0  0  0  0
   -7.1787   -0.7196    0.5938 C   0  0  0  0  0  0  0  0  0  0  0  0
    2.8148    3.0186    2.1647 H   0  0  0  0  0  0  0  0  0  0  0  0
    1.8273    1.8944    1.2546 H   0  0  0  0  0  0  0  0  0  0  0  0
    3.5310    2.0269   -0.6438 H   0  0  0  0  0  0  0  0  0  0  0  0
    4.5330    3.0513    0.3827 H   0  0  0  0  0  0  0  0  0  0  0  0
    0.9381    4.1636    1.1098 H   0  0  0  0  0  0  0  0  0  0  0  0
    2.4648    4.7911    0.5259 H   0  0  0  0  0  0  0  0  0  0  0  0
    4.7679    1.2585    2.0432 H   0  0  0  0  0  0  0  0  0  0  0  0
    3.5442    0.2933    1.2434 H   0  0  0  0  0  0  0  0  0  0  0  0
    0.7055    4.5593   -1.2349 H   0  0  0  0  0  0  0  0  0  0  0  0
    2.2208    3.7708   -1.6165 H   0  0  0  0  0  0  0  0  0  0  0  0
    5.1497    0.3229   -0.8511 H   0  0  0  0  0  0  0  0  0  0  0  0
    6.3416    0.9866    0.2583 H   0  0  0  0  0  0  0  0  0  0  0  0
    0.3676    2.3883   -2.3294 H   0  0  0  0  0  0  0  0  0  0  0  0
    1.2893    1.5692   -1.0888 H   0  0  0  0  0  0  0  0  0  0  0  0
    6.8683   -1.2506    0.4019 H   0  0  0  0  0  0  0  0  0  0  0  0
    5.7559   -1.1144    1.7663 H   0  0  0  0  0  0  0  0  0  0  0  0
   -0.4870    2.2756    0.6137 H   0  0  0  0  0  0  0  0  0  0  0  0
   -1.3661    3.0467   -0.6879 H   0  0  0  0  0  0  0  0  0  0  0  0
    5.0703   -2.1176   -1.0565 H   0  0  0  0  0  0  0  0  0  0  0  0
   -1.4222    0.7019   -1.8498 H   0  0  0  0  0  0  0  0  0  0  0  0
    5.2647   -3.6412    1.5975 H   0  0  0  0  0  0  0  0  0  0  0  0
    4.7562   -4.3204    0.0581 H   0  0  0  0  0  0  0  0  0  0  0  0
    6.4287   -3.7517    0.2556 H   0  0  0  0  0  0  0  0  0  0  0  0
    0.5624   -0.7653   -1.7533 H   0  0  0  0  0  0  0  0  0  0  0  0
    1.2836   -1.5641    1.1554 H   0  0  0  0  0  0  0  0  0  0  0  0
   -5.3219    1.0251   -0.4739 H   0  0  0  0  0  0  0  0  0  0  0  0
   -4.7792    0.4601    1.1230 H   0  0  0  0  0  0  0  0  0  0  0  0
   -5.4041   -1.8847    0.4911 H   0  0  0  0  0  0  0  0  0  0  0  0
   -5.9946   -1.2897   -1.0794 H   0  0  0  0  0  0  0  0  0  0  0  0
   -8.9088   -1.5535    0.9183 H   0  0  0  0  0  0  0  0  0  0  0  0
  1 17  1  0  0  0  0
  1 22  1  0  0  0  0
  2 18  1  0  0  0  0
  2 23  1  0  0  0  0
  3 20  2  0  0  0  0
  4 22  2  0  0  0  0
  5 23  2  0  0  0  0
  6 27  1  0  0  0  0
  6 57  1  0  0  0  0
  7 27  2  0  0  0  0
  8  9  1  0  0  0  0
  8 10  1  0  0  0  0
  8 28  1  0  0  0  0
  8 29  1  0  0  0  0
  9 11  1  0  0  0  0
  9 30  1  0  0  0  0
  9 31  1  0  0  0  0
 10 12  1  0  0  0  0
 10 32  1  0  0  0  0
 10 33  1  0  0  0  0
 11 13  1  0  0  0  0
 11 34  1  0  0  0  0
 11 35  1  0  0  0  0
 12 14  1  0  0  0  0
 12 36  1  0  0  0  0
 12 37  1  0  0  0  0
 13 15  1  0  0  0  0
 13 38  1  0  0  0  0
 13 39  1  0  0  0  0
 14 16  1  0  0  0  0
 14 40  1  0  0  0  0
 14 41  1  0  0  0  0
 15 17  1  0  0  0  0
 15 42  1  0  0  0  0
 15 43  1  0  0  0  0
 16 18  1  0  0  0  0
 16 44  1  0  0  0  0
 16 45  1  0  0  0  0
 17 19  1  0  0  0  0
 17 46  1  0  0  0  0
 18 20  1  0  0  0  0
 18 47  1  0  0  0  0
 19 48  1  0  0  0  0
 19 49  1  0  0  0  0
 19 50  1  0  0  0  0
 20 21  1  0  0  0  0
 21 24  2  0  0  0  0
 21 51  1  0  0  0  0
 22 24  1  0  0  0  0
 23 25  1  0  0  0  0
 24 52  1  0  0  0  0
 25 26  1  0  0  0  0
 25 53  1  0  0  0  0
 25 54  1  0  0  0  0
 26 27  1  0  0  0  0
 26 55  1  0  0  0  0
 26 56  1  0  0  0  0
M  END
> <PUBCHEM_COMPOUND_CID>
11143436

> <PUBCHEM_CONFORMER_RMSD>
0.8

> <PUBCHEM_CONFORMER_DIVERSEORDER>
1
13
20
19
27
6
12
15
17
22
5
7
25
24
30
8
23
29
10
16
28
18
3
2
9
11
26
14
4
21

> <PUBCHEM_MMFF94_PARTIAL_CHARGES>
20
1 -0.43
17 0.28
18 0.34
2 -0.43
20 0.49
21 -0.14
22 0.71
23 0.66
24 -0.14
25 0.06
26 0.06
27 0.66
3 -0.57
4 -0.57
5 -0.57
51 0.15
52 0.15
57 0.5
6 -0.65
7 -0.57

> <PUBCHEM_EFFECTIVE_ROTOR_COUNT>
7.4

> <PUBCHEM_PHARMACOPHORE_FEATURES>
6
1 3 acceptor
1 4 acceptor
1 5 acceptor
1 6 acceptor
1 7 acceptor
3 6 7 27 anion

> <PUBCHEM_HEAVY_ATOM_COUNT>
27

> <PUBCHEM_ATOM_DEF_STEREO_COUNT>
2

> <PUBCHEM_ATOM_UDEF_STEREO_COUNT>
0

> <PUBCHEM_BOND_DEF_STEREO_COUNT>
1

> <PUBCHEM_BOND_UDEF_STEREO_COUNT>
0

> <PUBCHEM_ISOTOPIC_ATOM_COUNT>
0

> <PUBCHEM_COMPONENT_COUNT>
1

> <PUBCHEM_CACTVS_TAUTO_COUNT>
2

> <PUBCHEM_CONFORMER_ID>
00AA090C00000001

> <PUBCHEM_MMFF94_ENERGY>
39.8236

> <PUBCHEM_FEATURE_SELFOVERLAP>
30.51

> <PUBCHEM_SHAPE_FINGERPRINT>
10316853 100 18261114122614137723
10688039 33 18188769445179286516
11828532 37 17676777560020834674
12166972 35 17386012724010377974
12717326 120 16300087933755581675
12778500 126 17561370577796736921
13402501 40 18410002214153147696
13533116 47 18341331196763372777
13540713 4 18187910778217067181
13782708 43 17458628960650597875
13899415 154 18411705391749998252
14170010 4 18411136965517985105
14849402 71 18338804510748194857
14910700 183 18411138026359985887
15419008 47 17967807219714745709
15721738 202 18202284692829501985
15927050 60 17908423907169822140
16120349 18 18272365391759003321
16760501 71 18341332283685036275
17852330 31 18263384606964928587
1979834 28 18131346410825160782
21049683 271 18335426764125600116
21792934 111 18338792326352789217
22121540 332 12246857966651607929
22182313 1 17968358114517899957
23559900 14 17313961830516829727

> <PUBCHEM_SHAPE_MULTIPOLES>
514.56
16.98
4.25
1.12
31.66
2.64
0.13
-12.33
-6.15
-6.72
0.16
-0.16
0.18
0.7

> <PUBCHEM_SHAPE_SELFOVERLAP>
1015.589

> <PUBCHEM_SHAPE_VOLUME>
301.6

> <PUBCHEM_COORDINATE_TYPE>
2
5
10

$$$$
