REMARK  Name = 11144085
REMARK  6 active torsions:
REMARK  status: ('A' for Active; 'I' for Inactive)
REMARK    1  A    between atoms: C_4  and  C_16
REMARK    2  A    between atoms: C_5  and  C_29
REMARK    3  A    between atoms: C_19  and  O_22
REMARK    4  A    between atoms: C_20  and  O_24
REMARK    5  A    between atoms: C_21  and  O_26
REMARK    6  A    between atoms: C_29  and  O_30
REMARK                            x       y       z     vdW  Elec       q    Type
REMARK                         _______ _______ _______ _____ _____    ______ ____
ROOT
ATOM      1  O   UNL     1      -3.086  -3.413   1.061  0.00  0.00    -0.435 OA
ATOM      2  O   UNL     1      -4.467  -2.702  -0.780  0.00  0.00    -0.435 OA
ATOM      3  O   UNL     1      -2.677   1.830  -2.330  0.00  0.00    -0.287 OA
ATOM      4  C   UNL     1      -0.328   0.707   0.976  0.00  0.00    +0.060 C 
ATOM      5  C   UNL     1      -0.525   2.200   0.654  0.00  0.00    +0.132 C 
ATOM      6  C   UNL     1      -1.464  -0.159   0.455  0.00  0.00    -0.011 C 
ATOM      7  C   UNL     1      -2.278   0.249  -0.629  0.00  0.00    +0.038 C 
ATOM      8  C   UNL     1      -1.018   2.455  -0.738  0.00  0.00    +0.028 C 
ATOM      9  C   UNL     1      -2.043   1.542  -1.321  0.00  0.00    +0.192 C 
ATOM     10  C   UNL     1      -1.698  -1.406   1.066  0.00  0.00    +0.036 C 
ATOM     11  C   UNL     1      -3.316  -0.574  -1.094  0.00  0.00    +0.043 C 
ATOM     12  C   UNL     1      -2.727  -2.190   0.586  0.00  0.00    +0.176 C 
ATOM     13  C   UNL     1      -3.513  -1.784  -0.463  0.00  0.00    +0.177 C 
ATOM     14  C   UNL     1      -0.567   3.462  -1.501  0.00  0.00    -0.001 C 
ATOM     15  C   UNL     1      -4.192  -3.731   0.192  0.00  0.00    +0.429 C 
ENDROOT
BRANCH   4  16
ATOM     16  C   UNL     1       1.049   0.217   0.537  0.00  0.00    -0.011 C 
ATOM     17  C   UNL     1       1.960  -0.218   1.492  0.00  0.00    +0.036 C 
ATOM     18  C   UNL     1       1.378   0.209  -0.814  0.00  0.00    +0.036 C 
ATOM     19  C   UNL     1       2.637  -0.239  -1.215  0.00  0.00    +0.175 C 
ATOM     20  C   UNL     1       3.219  -0.666   1.091  0.00  0.00    +0.175 C 
ATOM     21  C   UNL     1       3.557  -0.676  -0.263  0.00  0.00    +0.206 C 
BRANCH  19  22
ATOM     22  O   UNL     1       2.954  -0.243  -2.540  0.00  0.00    -0.468 OA
ATOM     23  C   UNL     1       3.559   0.937  -3.065  0.00  0.00    +0.253 C 
ENDBRANCH  19  22
BRANCH  20  24
ATOM     24  O   UNL     1       4.109  -1.092   2.030  0.00  0.00    -0.468 OA
ATOM     25  C   UNL     1       4.987  -0.113   2.582  0.00  0.00    +0.253 C 
ENDBRANCH  20  24
BRANCH  21  26
ATOM     26  O   UNL     1       4.787  -1.116  -0.654  0.00  0.00    -0.465 OA
ATOM     27  C   UNL     1       4.915  -2.506  -0.945  0.00  0.00    +0.253 C 
ENDBRANCH  21  26
ENDBRANCH   4  16
BRANCH   5  29
ATOM     28  O   UNL     1      -2.737   2.898   1.356  0.00  0.00    -0.250 OA
ATOM     29  C   UNL     1      -1.538   2.823   1.577  0.00  0.00    +0.318 C 
BRANCH  29  30
ATOM     30  O   UNL     1      -0.937   3.298   2.696  0.00  0.00    -0.480 OA
ATOM     31  H   UNL     1      -0.011   3.208   2.804  0.00  0.00    +0.295 HD
ENDBRANCH  29  30
ENDBRANCH   5  29
TORSDOF 6
