11144599
  -OEChem-03292013303D

 55 57  0     1  0  0  0  0  0999 V2000
   -1.7928   -1.5158    0.5643 O   0  0  0  0  0  0  0  0  0  0  0  0
   -1.1315   -0.8544   -1.6491 O   0  0  0  0  0  0  0  0  0  0  0  0
   -3.6728    0.7398    0.4646 O   0  0  0  0  0  0  0  0  0  0  0  0
   -0.8041    1.8359   -0.5005 O   0  0  0  0  0  0  0  0  0  0  0  0
    4.6464   -0.7389    0.1487 O   0  0  0  0  0  0  0  0  0  0  0  0
    3.0113   -1.4228   -1.8787 O   0  0  0  0  0  0  0  0  0  0  0  0
    3.5754    0.4298    2.3790 O   0  0  0  0  0  0  0  0  0  0  0  0
   -5.4157    1.6711   -0.7318 O   0  0  0  0  0  0  0  0  0  0  0  0
    0.1626    3.1085    1.1676 O   0  0  0  0  0  0  0  0  0  0  0  0
    4.0109    1.3408   -0.6313 O   0  0  0  0  0  0  0  0  0  0  0  0
   -1.6881   -0.4284   -0.3801 C   0  0  1  0  0  0  0  0  0  0  0  0
   -3.1051    0.1186   -0.6874 C   0  0  1  0  0  0  0  0  0  0  0  0
   -0.7844    0.6436    0.2848 C   0  0  1  0  0  0  0  0  0  0  0  0
   -4.0545   -0.9981   -1.1266 C   0  0  0  0  0  0  0  0  0  0  0  0
   -2.5965   -2.6109    0.1193 C   0  0  2  0  0  0  0  0  0  0  0  0
   -4.0312   -2.1548   -0.1327 C   0  0  0  0  0  0  0  0  0  0  0  0
    0.6413    0.1526    0.3942 C   0  0  0  0  0  0  0  0  0  0  0  0
    1.0826   -0.6652   -0.7128 C   0  0  0  0  0  0  0  0  0  0  0  0
   -2.5463   -3.6845    1.1983 C   0  0  0  0  0  0  0  0  0  0  0  0
    0.2222   -1.0782   -1.6521 C   0  0  0  0  0  0  0  0  0  0  0  0
    3.3022   -1.0395    0.4851 C   0  0  2  0  0  0  0  0  0  0  0  0
    1.4309    0.4705    1.4295 C   0  0  0  0  0  0  0  0  0  0  0  0
    2.5146   -1.0621   -0.8140 C   0  0  0  0  0  0  0  0  0  0  0  0
    2.8364   -0.0034    1.4957 C   0  0  0  0  0  0  0  0  0  0  0  0
    3.2386   -2.4293    1.1204 C   0  0  0  0  0  0  0  0  0  0  0  0
   -4.9346    1.2373    0.3061 C   0  0  0  0  0  0  0  0  0  0  0  0
   -0.0684    2.8764   -0.0113 C   0  0  0  0  0  0  0  0  0  0  0  0
   -5.6693    1.1774    1.6110 C   0  0  0  0  0  0  0  0  0  0  0  0
    0.4321    3.7181   -1.1460 C   0  0  0  0  0  0  0  0  0  0  0  0
    4.8652    0.4942   -0.4065 C   0  0  0  0  0  0  0  0  0  0  0  0
    6.3225    0.6718   -0.7078 C   0  0  0  0  0  0  0  0  0  0  0  0
   -3.0388    0.8625   -1.4925 H   0  0  0  0  0  0  0  0  0  0  0  0
   -1.1822    0.8675    1.2848 H   0  0  0  0  0  0  0  0  0  0  0  0
   -5.0897   -0.6753   -1.2651 H   0  0  0  0  0  0  0  0  0  0  0  0
   -3.7278   -1.3745   -2.1049 H   0  0  0  0  0  0  0  0  0  0  0  0
   -2.1627   -3.0261   -0.7983 H   0  0  0  0  0  0  0  0  0  0  0  0
   -4.6343   -2.9863   -0.5148 H   0  0  0  0  0  0  0  0  0  0  0  0
   -4.4893   -1.8262    0.8081 H   0  0  0  0  0  0  0  0  0  0  0  0
   -3.1348   -4.5623    0.9147 H   0  0  0  0  0  0  0  0  0  0  0  0
   -1.5118   -3.9993    1.3738 H   0  0  0  0  0  0  0  0  0  0  0  0
   -2.9234   -3.3007    2.1528 H   0  0  0  0  0  0  0  0  0  0  0  0
    0.4957   -1.6443   -2.5323 H   0  0  0  0  0  0  0  0  0  0  0  0
    1.0849    1.0749    2.2599 H   0  0  0  0  0  0  0  0  0  0  0  0
    3.6198   -3.1927    0.4323 H   0  0  0  0  0  0  0  0  0  0  0  0
    2.2158   -2.7029    1.4015 H   0  0  0  0  0  0  0  0  0  0  0  0
    3.8631   -2.4760    2.0200 H   0  0  0  0  0  0  0  0  0  0  0  0
   -6.6706    1.5983    1.4827 H   0  0  0  0  0  0  0  0  0  0  0  0
   -5.7666    0.1386    1.9353 H   0  0  0  0  0  0  0  0  0  0  0  0
   -5.1385    1.7673    2.3625 H   0  0  0  0  0  0  0  0  0  0  0  0
   -0.4130    4.1180   -1.7119 H   0  0  0  0  0  0  0  0  0  0  0  0
    1.0804    3.1201   -1.7916 H   0  0  0  0  0  0  0  0  0  0  0  0
    1.0127    4.5551   -0.7480 H   0  0  0  0  0  0  0  0  0  0  0  0
    6.4836    1.6584   -1.1516 H   0  0  0  0  0  0  0  0  0  0  0  0
    6.9017    0.6064    0.2166 H   0  0  0  0  0  0  0  0  0  0  0  0
    6.6480   -0.0890   -1.4215 H   0  0  0  0  0  0  0  0  0  0  0  0
  1 11  1  0  0  0  0
  1 15  1  0  0  0  0
  2 11  1  0  0  0  0
  2 20  1  0  0  0  0
  3 12  1  0  0  0  0
  3 26  1  0  0  0  0
  4 13  1  0  0  0  0
  4 27  1  0  0  0  0
  5 21  1  0  0  0  0
  5 30  1  0  0  0  0
  6 23  2  0  0  0  0
  7 24  2  0  0  0  0
  8 26  2  0  0  0  0
  9 27  2  0  0  0  0
 10 30  2  0  0  0  0
 11 12  1  0  0  0  0
 11 13  1  0  0  0  0
 12 14  1  0  0  0  0
 12 32  1  0  0  0  0
 13 17  1  0  0  0  0
 13 33  1  0  0  0  0
 14 16  1  0  0  0  0
 14 34  1  0  0  0  0
 14 35  1  0  0  0  0
 15 16  1  0  0  0  0
 15 19  1  0  0  0  0
 15 36  1  0  0  0  0
 16 37  1  0  0  0  0
 16 38  1  0  0  0  0
 17 18  1  0  0  0  0
 17 22  2  0  0  0  0
 18 20  2  0  0  0  0
 18 23  1  0  0  0  0
 19 39  1  0  0  0  0
 19 40  1  0  0  0  0
 19 41  1  0  0  0  0
 20 42  1  0  0  0  0
 21 23  1  0  0  0  0
 21 24  1  0  0  0  0
 21 25  1  0  0  0  0
 22 24  1  0  0  0  0
 22 43  1  0  0  0  0
 25 44  1  0  0  0  0
 25 45  1  0  0  0  0
 25 46  1  0  0  0  0
 26 28  1  0  0  0  0
 27 29  1  0  0  0  0
 28 47  1  0  0  0  0
 28 48  1  0  0  0  0
 28 49  1  0  0  0  0
 29 50  1  0  0  0  0
 29 51  1  0  0  0  0
 29 52  1  0  0  0  0
 30 31  1  0  0  0  0
 31 53  1  0  0  0  0
 31 54  1  0  0  0  0
 31 55  1  0  0  0  0
M  END
> <PUBCHEM_COMPOUND_CID>
11144599

> <PUBCHEM_CONFORMER_RMSD>
1

> <PUBCHEM_CONFORMER_DIVERSEORDER>
1
2

> <PUBCHEM_MMFF94_PARTIAL_CHARGES>
29
1 -0.56
10 -0.57
11 0.56
12 0.28
13 0.42
15 0.28
17 -0.14
18 0.01
2 -0.36
20 -0.07
21 0.4
22 -0.14
23 0.49
24 0.49
26 0.66
27 0.66
28 0.06
29 0.06
3 -0.43
30 0.66
31 0.06
4 -0.43
42 0.15
43 0.15
5 -0.43
6 -0.57
7 -0.57
8 -0.57
9 -0.57

> <PUBCHEM_EFFECTIVE_ROTOR_COUNT>
7.6

> <PUBCHEM_PHARMACOPHORE_FEATURES>
10
1 1 acceptor
1 10 acceptor
1 2 acceptor
1 6 acceptor
1 7 acceptor
1 8 acceptor
1 9 acceptor
6 1 11 12 14 15 16 rings
6 17 18 21 22 23 24 rings
6 2 11 13 17 18 20 rings

> <PUBCHEM_HEAVY_ATOM_COUNT>
31

> <PUBCHEM_ATOM_DEF_STEREO_COUNT>
5

> <PUBCHEM_ATOM_UDEF_STEREO_COUNT>
0

> <PUBCHEM_BOND_DEF_STEREO_COUNT>
0

> <PUBCHEM_BOND_UDEF_STEREO_COUNT>
0

> <PUBCHEM_ISOTOPIC_ATOM_COUNT>
0

> <PUBCHEM_COMPONENT_COUNT>
1

> <PUBCHEM_CACTVS_TAUTO_COUNT>
1

> <PUBCHEM_CONFORMER_ID>
00AA0D9700000001

> <PUBCHEM_MMFF94_ENERGY>
79.2479

> <PUBCHEM_FEATURE_SELFOVERLAP>
50.813

> <PUBCHEM_SHAPE_FINGERPRINT>
10366900 7 18201711860378241610
10906281 52 18200891590465306885
11578080 2 16228337051004751453
12011746 2 17632577132517668508
12107698 1 18271240647045980479
12166972 35 13398616265355388435
12236239 1 17313386690623224539
12553582 1 18334285466201598049
12633257 1 18261379062129892899
12788726 201 18199750245671679368
13140716 1 18342450430896458331
13224815 77 18131632309201701886
14020679 6 18335428984533618987
14022347 108 18265913375052787087
14223421 5 17903352950894542427
14251757 5 18408323293713829801
14790565 3 18195526124178120712
14955137 171 17985273112556869952
15664445 248 18340495551447877548
1601671 61 18201722855404816164
17349148 13 18131627903103098909
17980427 23 18343305885909099645
1813 80 18334858286159099277
19319366 153 17530959155540435443
20600515 1 18409168809423262869
20642791 178 18191600832879824596
21033648 29 17489298724293436347
21285901 2 17987799579581587205
21421861 104 18191865617909022130
23557571 272 18342176627274611948
23559900 14 18341899537322678998
34934 24 18409449176303640262
350125 39 18059294245852884990
4340502 62 17022913336758147648
5104073 3 18341606031910275546
6328613 192 18272375273545867689
81228 2 18197789807791104961

> <PUBCHEM_SHAPE_MULTIPOLES>
579.27
11.09
3.41
1.6
0.57
0.7
0.24
0.71
0.68
-2.05
0.3
0.49
-0.1
-0.37

> <PUBCHEM_SHAPE_SELFOVERLAP>
1241.457

> <PUBCHEM_SHAPE_VOLUME>
315

> <PUBCHEM_COORDINATE_TYPE>
2
5
10

$$$$
