11141672
  -OEChem-03292013303D

 40 41  0     1  0  0  0  0  0999 V2000
    2.0252   -0.8355    0.2142 O   0  0  0  0  0  0  0  0  0  0  0  0
    0.1801    0.5071   -0.2726 O   0  0  0  0  0  0  0  0  0  0  0  0
    4.5620    2.3931    0.1220 O   0  0  0  0  0  0  0  0  0  0  0  0
    5.6358   -0.2847   -0.0575 O   0  0  0  0  0  0  0  0  0  0  0  0
    1.9264    2.5375   -1.1870 O   0  0  0  0  0  0  0  0  0  0  0  0
    2.8598   -3.4501    0.3672 O   0  0  0  0  0  0  0  0  0  0  0  0
   -2.2366    0.3348    1.0293 O   0  0  0  0  0  0  0  0  0  0  0  0
   -5.4549   -0.6879   -1.3875 O   0  0  0  0  0  0  0  0  0  0  0  0
   -3.6777    1.2569    2.5255 O   0  0  0  0  0  0  0  0  0  0  0  0
    3.8480    1.2875   -0.4334 C   0  0  1  0  0  0  0  0  0  0  0  0
    4.2908    0.0218    0.3008 C   0  0  1  0  0  0  0  0  0  0  0  0
    2.3455    1.5213   -0.2764 C   0  0  2  0  0  0  0  0  0  0  0  0
    3.3887   -1.1602   -0.0620 C   0  0  1  0  0  0  0  0  0  0  0  0
    1.5506    0.2508   -0.5778 C   0  0  1  0  0  0  0  0  0  0  0  0
    3.7377   -2.4059    0.7464 C   0  0  0  0  0  0  0  0  0  0  0  0
   -0.6269   -0.6319   -0.5278 C   0  0  0  0  0  0  0  0  0  0  0  0
   -2.0472   -0.3393   -0.2024 C   0  0  0  0  0  0  0  0  0  0  0  0
   -3.0825   -0.6705   -0.9846 C   0  0  0  0  0  0  0  0  0  0  0  0
   -4.4124   -0.3323   -0.5599 C   0  0  0  0  0  0  0  0  0  0  0  0
   -3.4904    0.6729    1.4634 C   0  0  0  0  0  0  0  0  0  0  0  0
   -4.6266    0.3036    0.5955 C   0  0  0  0  0  0  0  0  0  0  0  0
   -6.6952   -0.2889   -0.8355 C   0  0  0  0  0  0  0  0  0  0  0  0
    4.1228    1.2431   -1.4945 H   0  0  0  0  0  0  0  0  0  0  0  0
    4.2728    0.2028    1.3825 H   0  0  0  0  0  0  0  0  0  0  0  0
    2.1213    1.8876    0.7325 H   0  0  0  0  0  0  0  0  0  0  0  0
    3.4777   -1.4117   -1.1277 H   0  0  0  0  0  0  0  0  0  0  0  0
    1.6216   -0.0044   -1.6441 H   0  0  0  0  0  0  0  0  0  0  0  0
    3.6097   -2.2355    1.8206 H   0  0  0  0  0  0  0  0  0  0  0  0
    4.7643   -2.7345    0.5613 H   0  0  0  0  0  0  0  0  0  0  0  0
    5.5112    2.2079    0.0190 H   0  0  0  0  0  0  0  0  0  0  0  0
    5.6604   -0.4541   -1.0147 H   0  0  0  0  0  0  0  0  0  0  0  0
    2.1183    2.2313   -2.0898 H   0  0  0  0  0  0  0  0  0  0  0  0
   -0.5202   -0.9279   -1.5784 H   0  0  0  0  0  0  0  0  0  0  0  0
   -0.3049   -1.4698    0.1015 H   0  0  0  0  0  0  0  0  0  0  0  0
    1.9511   -3.1449    0.5316 H   0  0  0  0  0  0  0  0  0  0  0  0
   -2.9460   -1.1870   -1.9279 H   0  0  0  0  0  0  0  0  0  0  0  0
   -5.5818    0.6035    1.0069 H   0  0  0  0  0  0  0  0  0  0  0  0
   -6.7948    0.8008   -0.7614 H   0  0  0  0  0  0  0  0  0  0  0  0
   -6.9296   -0.8105    0.1005 H   0  0  0  0  0  0  0  0  0  0  0  0
   -7.4684   -0.6044   -1.5461 H   0  0  0  0  0  0  0  0  0  0  0  0
  1 13  1  0  0  0  0
  1 14  1  0  0  0  0
  2 14  1  0  0  0  0
  2 16  1  0  0  0  0
  3 10  1  0  0  0  0
  3 30  1  0  0  0  0
  4 11  1  0  0  0  0
  4 31  1  0  0  0  0
  5 12  1  0  0  0  0
  5 32  1  0  0  0  0
  6 15  1  0  0  0  0
  6 35  1  0  0  0  0
  7 17  1  0  0  0  0
  7 20  1  0  0  0  0
  8 19  1  0  0  0  0
  8 22  1  0  0  0  0
  9 20  2  0  0  0  0
 10 11  1  0  0  0  0
 10 12  1  0  0  0  0
 10 23  1  0  0  0  0
 11 13  1  0  0  0  0
 11 24  1  0  0  0  0
 12 14  1  0  0  0  0
 12 25  1  0  0  0  0
 13 15  1  0  0  0  0
 13 26  1  0  0  0  0
 14 27  1  0  0  0  0
 15 28  1  0  0  0  0
 15 29  1  0  0  0  0
 16 17  1  0  0  0  0
 16 33  1  0  0  0  0
 16 34  1  0  0  0  0
 17 18  2  0  0  0  0
 18 19  1  0  0  0  0
 18 36  1  0  0  0  0
 19 21  2  0  0  0  0
 20 21  1  0  0  0  0
 21 37  1  0  0  0  0
 22 38  1  0  0  0  0
 22 39  1  0  0  0  0
 22 40  1  0  0  0  0
M  END
> <PUBCHEM_COMPOUND_CID>
11141672

> <PUBCHEM_CONFORMER_RMSD>
0.8

> <PUBCHEM_CONFORMER_DIVERSEORDER>
1
77
80
19
70
55
59
98
61
41
67
84
68
6
97
8
69
71
54
37
91
94
20
40
63
78
93
31
5
7
24
56
85
90
12
2
32
62
65
88
96
57
52
72
73
76
14
34
44
60
64
21
10
26
99
30
43
92
4
81
27
3
22
79
33
38
86
45
49
95
89
46
51
75
74
48
18
9
15
47
29
36
66
13
87
53
58
16
17
35
42
25
50
83
39
11
82
23
28

> <PUBCHEM_MMFF94_PARTIAL_CHARGES>
28
1 -0.56
10 0.28
11 0.28
12 0.28
13 0.28
14 0.56
15 0.28
16 0.42
17 -0.06
18 -0.15
19 0.08
2 -0.56
20 0.71
21 -0.14
22 0.28
3 -0.68
30 0.4
31 0.4
32 0.4
35 0.4
36 0.15
37 0.15
4 -0.68
5 -0.68
6 -0.68
7 -0.23
8 -0.36
9 -0.57

> <PUBCHEM_EFFECTIVE_ROTOR_COUNT>
6.2

> <PUBCHEM_PHARMACOPHORE_FEATURES>
14
1 1 acceptor
1 2 acceptor
1 3 acceptor
1 3 donor
1 4 acceptor
1 4 donor
1 5 acceptor
1 5 donor
1 6 acceptor
1 6 donor
1 8 acceptor
1 9 acceptor
6 1 10 11 12 13 14 rings
6 7 17 18 19 20 21 rings

> <PUBCHEM_HEAVY_ATOM_COUNT>
22

> <PUBCHEM_ATOM_DEF_STEREO_COUNT>
5

> <PUBCHEM_ATOM_UDEF_STEREO_COUNT>
0

> <PUBCHEM_BOND_DEF_STEREO_COUNT>
0

> <PUBCHEM_BOND_UDEF_STEREO_COUNT>
0

> <PUBCHEM_ISOTOPIC_ATOM_COUNT>
0

> <PUBCHEM_COMPONENT_COUNT>
1

> <PUBCHEM_CACTVS_TAUTO_COUNT>
1

> <PUBCHEM_CONFORMER_ID>
00AA022800000001

> <PUBCHEM_MMFF94_ENERGY>
66.7015

> <PUBCHEM_FEATURE_SELFOVERLAP>
71.113

> <PUBCHEM_SHAPE_FINGERPRINT>
10595046 47 18341608248519120423
10912923 1 18131635569292733371
11059845 2 16553411765687780290
11089746 13 18131354124549780616
12107183 9 17766848221217617923
12166972 35 18342735252090828121
12236239 1 18131069337625497671
12596602 18 18060415854285421985
12670546 56 18273495675883618872
12788726 201 17561368396407004939
13167823 11 18201719548311594887
13533116 47 18342451539288151459
13583140 156 18262523718496604867
14386348 63 16877664560646793523
14739800 52 17417514926452959160
17349148 13 17989485217164743127
17818456 19 17557154908228695952
17834072 33 18343016718118382103
17844677 252 18334857173751689133
1813 80 18195817258604663870
18681886 176 17203610410999359160
19377110 9 17917722292549345771
19489759 90 17132116836113568529
200 152 18413101758816669837
20157964 124 18335135419102643797
20511986 3 18059281128210613297
20612939 158 18335423499818534292
20645477 70 18114734962934959646
21033648 29 17531515560042630117
21033650 10 16987188021891188960
21065198 48 18202284667175826563
21285901 2 17458335308645005646
22224240 67 18339632430851569026
23402539 116 17346312713880483725
23557571 272 15267349522110503297
23559900 14 18261108620818624921
2838139 119 18119524333477508645
29717793 49 17989490723059648236
3268164 11 16343703214724200457
341906 21 16845294899591222073
345986 75 18268982090799865480
34797466 226 15338844234788483736
3633792 109 18337944615835862759
474 4 18264490757573068572
542803 24 17988928889697509693
573450 72 17775286019757613963
67856867 119 18131062792317319937
8272917 22 18408321090527632014

> <PUBCHEM_SHAPE_MULTIPOLES>
399.93
14.06
2.24
1.29
9.92
0.76
0.61
0.7
-0.9
-4.25
0.17
1.93
-0.37
-1.9

> <PUBCHEM_SHAPE_SELFOVERLAP>
829.3

> <PUBCHEM_SHAPE_VOLUME>
225.1

> <PUBCHEM_COORDINATE_TYPE>
2
5
10

$$$$
