REMARK  Name = 11141421
REMARK  3 active torsions:
REMARK  status: ('A' for Active; 'I' for Inactive)
REMARK    1  A    between atoms: C_5  and  O_20
REMARK    2  A    between atoms: C_8  and  O_22
REMARK    3  A    between atoms: C_12  and  O_24
REMARK                            x       y       z     vdW  Elec       q    Type
REMARK                         _______ _______ _______ _____ _____    ______ ____
ROOT
ATOM      1  O   UNL     1       0.945  -1.823   0.906  0.00  0.00    -0.448 OA
ATOM      2  O   UNL     1       2.545  -0.231  -1.324  0.00  0.00    -0.447 OA
ATOM      3  O   UNL     1       3.830  -0.180   0.572  0.00  0.00    -0.247 OA
ATOM      4  O   UNL     1       0.402  -3.240  -0.750  0.00  0.00    -0.247 OA
ATOM      5  C   UNL     1      -0.776   1.124  -0.304  0.00  0.00    +0.097 C 
ATOM      6  C   UNL     1      -1.347  -0.141   0.431  0.00  0.00    +0.062 C 
ATOM      7  C   UNL     1       0.742   1.106  -0.600  0.00  0.00    +0.099 C 
ATOM      8  C   UNL     1       1.511   0.572   0.640  0.00  0.00    +0.220 C 
ATOM      9  C   UNL     1      -0.671  -0.233   1.799  0.00  0.00    +0.052 C 
ATOM     10  C   UNL     1       0.808  -0.516   1.507  0.00  0.00    +0.204 C 
ATOM     11  C   UNL     1      -1.781   1.400  -1.427  0.00  0.00    +0.027 C 
ATOM     12  C   UNL     1      -1.224  -1.561  -0.192  0.00  0.00    +0.212 C 
ATOM     13  C   UNL     1      -2.825   0.230   0.352  0.00  0.00    +0.005 C 
ATOM     14  C   UNL     1       1.222   0.182  -1.713  0.00  0.00    +0.213 C 
ATOM     15  C   UNL     1       1.238   2.532  -1.005  0.00  0.00    +0.009 C 
ATOM     16  C   UNL     1      -3.057   1.014  -0.718  0.00  0.00    +0.003 C 
ATOM     17  C   UNL     1       2.769   0.025   0.003  0.00  0.00    +0.345 C 
ATOM     18  C   UNL     1       0.111  -2.267  -0.058  0.00  0.00    +0.344 C 
ATOM     19  C   UNL     1      -3.842  -0.280   1.310  0.00  0.00    +0.000 C 
ENDROOT
BRANCH   5  20
ATOM     20  O   UNL     1      -0.893   2.265   0.616  0.00  0.00    -0.386 OA
ATOM     21  H   UNL     1      -0.276   2.149   1.356  0.00  0.00    +0.210 HD
ENDBRANCH   5  20
BRANCH   8  22
ATOM     22  O   UNL     1       1.901   1.623   1.514  0.00  0.00    -0.374 OA
ATOM     23  H   UNL     1       1.114   1.997   1.941  0.00  0.00    +0.211 HD
ENDBRANCH   8  22
BRANCH  12  24
ATOM     24  O   UNL     1      -1.606  -1.603  -1.558  0.00  0.00    -0.374 OA
ATOM     25  H   UNL     1      -2.460  -1.156  -1.668  0.00  0.00    +0.211 HD
ENDBRANCH  12  24
TORSDOF 3
