REMARK  Name = 11144599
REMARK  6 active torsions:
REMARK  status: ('A' for Active; 'I' for Inactive)
REMARK    1  A    between atoms: C_6  and  O_20
REMARK    2  A    between atoms: C_7  and  O_24
REMARK    3  A    between atoms: C_15  and  O_28
REMARK    4  A    between atoms: O_20  and  C_22
REMARK    5  A    between atoms: O_24  and  C_26
REMARK    6  A    between atoms: O_28  and  C_30
REMARK                            x       y       z     vdW  Elec       q    Type
REMARK                         _______ _______ _______ _____ _____    ______ ____
ROOT
ATOM      1  O   UNL     1      -1.793  -1.516   0.564  0.00  0.00    -0.322 OA
ATOM      2  O   UNL     1      -1.131  -0.854  -1.649  0.00  0.00    -0.448 OA
ATOM      3  O   UNL     1       3.011  -1.423  -1.879  0.00  0.00    -0.287 OA
ATOM      4  O   UNL     1       3.575   0.430   2.379  0.00  0.00    -0.287 OA
ATOM      5  C   UNL     1      -1.688  -0.428  -0.380  0.00  0.00    +0.307 C 
ATOM      6  C   UNL     1      -3.105   0.119  -0.687  0.00  0.00    +0.236 C 
ATOM      7  C   UNL     1      -0.784   0.644   0.285  0.00  0.00    +0.258 C 
ATOM      8  C   UNL     1      -4.054  -0.998  -1.127  0.00  0.00    +0.053 C 
ATOM      9  C   UNL     1      -2.596  -2.611   0.119  0.00  0.00    +0.119 C 
ATOM     10  C   UNL     1      -4.031  -2.155  -0.133  0.00  0.00    +0.034 C 
ATOM     11  C   UNL     1       0.641   0.153   0.394  0.00  0.00    +0.032 C 
ATOM     12  C   UNL     1       1.083  -0.665  -0.713  0.00  0.00    +0.075 C 
ATOM     13  C   UNL     1      -2.546  -3.684   1.198  0.00  0.00    +0.032 C 
ATOM     14  C   UNL     1       0.222  -1.078  -1.652  0.00  0.00    +0.178 C 
ATOM     15  C   UNL     1       3.302  -1.040   0.485  0.00  0.00    +0.244 C 
ATOM     16  C   UNL     1       1.431   0.470   1.429  0.00  0.00    +0.041 C 
ATOM     17  C   UNL     1       2.515  -1.062  -0.814  0.00  0.00    +0.219 C 
ATOM     18  C   UNL     1       2.836  -0.003   1.496  0.00  0.00    +0.216 C 
ATOM     19  C   UNL     1       3.239  -2.429   1.120  0.00  0.00    +0.060 C 
ENDROOT
BRANCH   6  20
ATOM     20  O   UNL     1      -3.673   0.740   0.465  0.00  0.00    -0.446 OA
BRANCH  20  22
ATOM     21  O   UNL     1      -5.416   1.671  -0.732  0.00  0.00    -0.250 OA
ATOM     22  C   UNL     1      -4.935   1.237   0.306  0.00  0.00    +0.318 C 
ATOM     23  C   UNL     1      -5.669   1.177   1.611  0.00  0.00    +0.121 C 
ENDBRANCH  20  22
ENDBRANCH   6  20
BRANCH   7  24
ATOM     24  O   UNL     1      -0.804   1.836  -0.500  0.00  0.00    -0.441 OA
BRANCH  24  26
ATOM     25  O   UNL     1       0.163   3.108   1.168  0.00  0.00    -0.250 OA
ATOM     26  C   UNL     1      -0.068   2.876  -0.011  0.00  0.00    +0.318 C 
ATOM     27  C   UNL     1       0.432   3.718  -1.146  0.00  0.00    +0.121 C 
ENDBRANCH  24  26
ENDBRANCH   7  24
BRANCH  15  28
ATOM     28  O   UNL     1       4.646  -0.739   0.149  0.00  0.00    -0.441 OA
BRANCH  28  30
ATOM     29  O   UNL     1       4.011   1.341  -0.631  0.00  0.00    -0.250 OA
ATOM     30  C   UNL     1       4.865   0.494  -0.406  0.00  0.00    +0.318 C 
ATOM     31  C   UNL     1       6.322   0.672  -0.708  0.00  0.00    +0.121 C 
ENDBRANCH  28  30
ENDBRANCH  15  28
TORSDOF 6
