REMARK  Name = 11144536
REMARK  11 active torsions:
REMARK  status: ('A' for Active; 'I' for Inactive)
REMARK    1  A    between atoms: C_2  and  C_24
REMARK    2  A    between atoms: C_6  and  O_17
REMARK    3  A    between atoms: C_8  and  O_15
REMARK    4  A    between atoms: C_10  and  C_32
REMARK    5  A    between atoms: O_17  and  C_19
REMARK    6  A    between atoms: C_19  and  C_20
REMARK    7  A    between atoms: C_24  and  C_25
REMARK    8  A    between atoms: C_25  and  C_26
REMARK    9  A    between atoms: C_26  and  C_27
REMARK   10  A    between atoms: C_26  and  O_30
REMARK   11  A    between atoms: C_32  and  O_33
REMARK                            x       y       z     vdW  Elec       q    Type
REMARK                         _______ _______ _______ _____ _____    ______ ____
ROOT
ATOM      1  O   UNL     1       0.980   5.066   0.417  0.00  0.00    -0.287 OA
ATOM      2  C   UNL     1      -1.495   0.729  -0.949  0.00  0.00    +0.023 C 
ATOM      3  C   UNL     1      -1.225   2.270  -1.014  0.00  0.00    +0.030 C 
ATOM      4  C   UNL     1      -0.272   0.037  -0.368  0.00  0.00    -0.027 C 
ATOM      5  C   UNL     1      -1.756   0.156  -2.357  0.00  0.00    +0.005 C 
ATOM      6  C   UNL     1       1.312  -0.665   1.469  0.00  0.00    +0.219 C 
ATOM      7  C   UNL     1      -0.047  -0.270   0.921  0.00  0.00    +0.015 C 
ATOM      8  C   UNL     1       2.066   0.576   2.046  0.00  0.00    +0.147 C 
ATOM      9  C   UNL     1       0.033   2.699  -1.739  0.00  0.00    -0.024 C 
ATOM     10  C   UNL     1       1.079   3.402  -1.264  0.00  0.00    +0.042 C 
ATOM     11  C   UNL     1       2.017   1.735   1.057  0.00  0.00    +0.007 C 
ATOM     12  C   UNL     1       3.528   0.256   2.381  0.00  0.00    +0.038 C 
ATOM     13  C   UNL     1       1.130   3.877   0.148  0.00  0.00    +0.193 C 
ATOM     14  C   UNL     1       1.331   2.876   1.229  0.00  0.00    +0.040 C 
ENDROOT
BRANCH   8  15
ATOM     15  O   UNL     1       1.425   0.947   3.272  0.00  0.00    -0.379 OA
ATOM     16  H   UNL     1       0.494   1.158   3.099  0.00  0.00    +0.211 HD
ENDBRANCH   8  15
BRANCH   6  17
ATOM     17  O   UNL     1       2.110  -1.300   0.470  0.00  0.00    -0.442 OA
BRANCH  17  19
ATOM     18  O   UNL     1       1.195  -3.348   1.010  0.00  0.00    -0.245 OA
ATOM     19  C   UNL     1       1.947  -2.649   0.353  0.00  0.00    +0.341 C 
BRANCH  19  20
ATOM     20  C   UNL     1       2.866  -3.118  -0.711  0.00  0.00    +0.073 C 
ATOM     21  C   UNL     1       3.009  -4.394  -1.111  0.00  0.00    -0.037 C 
ATOM     22  C   UNL     1       3.987  -4.728  -2.209  0.00  0.00    +0.027 C 
ATOM     23  C   UNL     1       2.262  -5.584  -0.577  0.00  0.00    +0.027 C 
ENDBRANCH  19  20
ENDBRANCH  17  19
ENDBRANCH   6  17
BRANCH   2  24
ATOM     24  C   UNL     1      -2.774   0.502  -0.114  0.00  0.00    +0.007 C 
BRANCH  24  25
ATOM     25  C   UNL     1      -3.140  -0.970   0.005  0.00  0.00    +0.034 C 
BRANCH  25  26
ATOM     26  C   UNL     1      -4.446  -1.278   0.756  0.00  0.00    +0.129 C 
BRANCH  26  27
ATOM     27  C   UNL     1      -5.670  -0.590   0.191  0.00  0.00    -0.018 C 
ATOM     28  C   UNL     1      -6.014  -0.834  -1.253  0.00  0.00    +0.029 C 
ATOM     29  C   UNL     1      -6.435   0.205   0.956  0.00  0.00    -0.007 C 
ENDBRANCH  26  27
BRANCH  26  30
ATOM     30  O   UNL     1      -4.671  -2.690   0.717  0.00  0.00    -0.380 OA
ATOM     31  H   UNL     1      -3.896  -3.150   1.076  0.00  0.00    +0.211 HD
ENDBRANCH  26  30
ENDBRANCH  25  26
ENDBRANCH  24  25
ENDBRANCH   2  24
BRANCH  10  32
ATOM     32  C   UNL     1       2.236   3.823  -2.117  0.00  0.00    +0.166 C 
BRANCH  32  33
ATOM     33  O   UNL     1       3.434   3.261  -1.613  0.00  0.00    -0.377 OA
ATOM     34  H   UNL     1       4.179   3.536  -2.169  0.00  0.00    +0.211 HD
ENDBRANCH  32  33
ENDBRANCH  10  32
TORSDOF 11
