REMARK  Name = 11143436
REMARK  6 active torsions:
REMARK  status: ('A' for Active; 'I' for Inactive)
REMARK    1  A    between atoms: C_14  and  O_20
REMARK    2  A    between atoms: O_20  and  C_22
REMARK    3  A    between atoms: C_22  and  C_23
REMARK    4  A    between atoms: C_23  and  C_24
REMARK    5  A    between atoms: C_24  and  C_26
REMARK    6  A    between atoms: C_26  and  O_27
REMARK                            x       y       z     vdW  Elec       q    Type
REMARK                         _______ _______ _______ _____ _____    ______ ____
ROOT
ATOM      1  O   UNL     1       3.581  -1.977   0.422  0.00  0.00    -0.449 OA
ATOM      2  O   UNL     1      -1.185  -0.717   1.030  0.00  0.00    -0.288 OA
ATOM      3  O   UNL     1       2.788  -2.150  -1.747  0.00  0.00    -0.245 OA
ATOM      4  C   UNL     1       2.530   2.729   1.145  0.00  0.00    +0.000 C 
ATOM      5  C   UNL     1       3.779   2.256   0.398  0.00  0.00    +0.000 C 
ATOM      6  C   UNL     1       1.809   3.912   0.492  0.00  0.00    +0.000 C 
ATOM      7  C   UNL     1       4.356   1.000   1.060  0.00  0.00    +0.000 C 
ATOM      8  C   UNL     1       1.346   3.713  -0.957  0.00  0.00    +0.000 C 
ATOM      9  C   UNL     1       5.448   0.352   0.203  0.00  0.00    +0.004 C 
ATOM     10  C   UNL     1       0.608   2.405  -1.259  0.00  0.00    +0.004 C 
ATOM     11  C   UNL     1       5.822  -1.064   0.672  0.00  0.00    +0.044 C 
ATOM     12  C   UNL     1      -0.685   2.215  -0.463  0.00  0.00    +0.052 C 
ATOM     13  C   UNL     1       4.956  -2.166   0.033  0.00  0.00    +0.169 C 
ATOM     14  C   UNL     1      -1.390   0.886  -0.769  0.00  0.00    +0.230 C 
ATOM     15  C   UNL     1       5.385  -3.547   0.513  0.00  0.00    +0.047 C 
ATOM     16  C   UNL     1      -0.752  -0.293  -0.040  0.00  0.00    +0.213 C 
ATOM     17  C   UNL     1       0.443  -0.906  -0.685  0.00  0.00    +0.048 C 
ATOM     18  C   UNL     1       2.636  -1.932  -0.556  0.00  0.00    +0.341 C 
ATOM     19  C   UNL     1       1.376  -1.486   0.078  0.00  0.00    +0.085 C 
ENDROOT
BRANCH  14  20
ATOM     20  O   UNL     1      -2.727   0.993  -0.288  0.00  0.00    -0.444 OA
BRANCH  20  22
ATOM     21  O   UNL     1      -3.175  -1.141  -1.041  0.00  0.00    -0.250 OA
ATOM     22  C   UNL     1      -3.522  -0.104  -0.492  0.00  0.00    +0.318 C 
BRANCH  22  23
ATOM     23  C   UNL     1      -4.899   0.173   0.071  0.00  0.00    +0.121 C 
BRANCH  23  24
ATOM     24  C   UNL     1      -5.838  -1.023  -0.028  0.00  0.00    +0.121 C 
BRANCH  24  26
ATOM     25  O   UNL     1      -7.472   0.358   1.094  0.00  0.00    -0.250 OA
ATOM     26  C   UNL     1      -7.179  -0.720   0.594  0.00  0.00    +0.314 C 
BRANCH  26  27
ATOM     27  O   UNL     1      -8.038  -1.766   0.520  0.00  0.00    -0.480 OA
ATOM     28  H   UNL     1      -7.763  -2.571   0.126  0.00  0.00    +0.295 HD
ENDBRANCH  26  27
ENDBRANCH  24  26
ENDBRANCH  23  24
ENDBRANCH  22  23
ENDBRANCH  20  22
ENDBRANCH  14  20
TORSDOF 6
