REMARK  Name = 11141672
REMARK  9 active torsions:
REMARK  status: ('A' for Active; 'I' for Inactive)
REMARK    1  A    between atoms: C_2  and  O_7
REMARK    2  A    between atoms: C_3  and  O_9
REMARK    3  A    between atoms: C_4  and  O_11
REMARK    4  A    between atoms: C_5  and  C_24
REMARK    5  A    between atoms: C_6  and  O_13
REMARK    6  A    between atoms: O_13  and  C_14
REMARK    7  A    between atoms: C_14  and  C_17
REMARK    8  A    between atoms: C_19  and  O_22
REMARK    9  A    between atoms: C_24  and  O_25
REMARK                            x       y       z     vdW  Elec       q    Type
REMARK                         _______ _______ _______ _____ _____    ______ ____
ROOT
ATOM      1  O   UNL     1       2.025  -0.836   0.214  0.00  0.00    -0.326 OA
ATOM      2  C   UNL     1       3.848   1.288  -0.433  0.00  0.00    +0.172 C 
ATOM      3  C   UNL     1       4.291   0.022   0.301  0.00  0.00    +0.169 C 
ATOM      4  C   UNL     1       2.345   1.521  -0.276  0.00  0.00    +0.196 C 
ATOM      5  C   UNL     1       3.389  -1.160  -0.062  0.00  0.00    +0.176 C 
ATOM      6  C   UNL     1       1.551   0.251  -0.578  0.00  0.00    +0.266 C 
ENDROOT
BRANCH   2   7
ATOM      7  O   UNL     1       4.562   2.393   0.122  0.00  0.00    -0.379 OA
ATOM      8  H   UNL     1       5.515   2.245   0.023  0.00  0.00    +0.211 HD
ENDBRANCH   2   7
BRANCH   3   9
ATOM      9  O   UNL     1       5.636  -0.285  -0.058  0.00  0.00    -0.379 OA
ATOM     10  H   UNL     1       6.210   0.463   0.171  0.00  0.00    +0.211 HD
ENDBRANCH   3   9
BRANCH   4  11
ATOM     11  O   UNL     1       1.926   2.538  -1.187  0.00  0.00    -0.378 OA
ATOM     12  H   UNL     1       2.421   3.353  -1.011  0.00  0.00    +0.211 HD
ENDBRANCH   4  11
BRANCH   6  13
ATOM     13  O   UNL     1       0.180   0.507  -0.273  0.00  0.00    -0.320 OA
BRANCH  13  14
ATOM     14  C   UNL     1      -0.627  -0.632  -0.528  0.00  0.00    +0.209 C 
BRANCH  14  17
ATOM     15  O   UNL     1      -2.237   0.335   1.029  0.00  0.00    -0.423 OA
ATOM     16  O   UNL     1      -3.678   1.257   2.526  0.00  0.00    -0.244 OA
ATOM     17  C   UNL     1      -2.047  -0.339  -0.202  0.00  0.00    +0.159 C 
ATOM     18  C   UNL     1      -3.083  -0.670  -0.985  0.00  0.00    +0.073 C 
ATOM     19  C   UNL     1      -4.412  -0.332  -0.560  0.00  0.00    +0.148 C 
ATOM     20  C   UNL     1      -3.490   0.673   1.463  0.00  0.00    +0.349 C 
ATOM     21  C   UNL     1      -4.627   0.304   0.596  0.00  0.00    +0.119 C 
BRANCH  19  22
ATOM     22  O   UNL     1      -5.455  -0.688  -1.387  0.00  0.00    -0.471 OA
ATOM     23  C   UNL     1      -6.695  -0.289  -0.836  0.00  0.00    +0.252 C 
ENDBRANCH  19  22
ENDBRANCH  14  17
ENDBRANCH  13  14
ENDBRANCH   6  13
BRANCH   5  24
ATOM     24  C   UNL     1       3.738  -2.406   0.746  0.00  0.00    +0.169 C 
BRANCH  24  25
ATOM     25  O   UNL     1       2.860  -3.450   0.367  0.00  0.00    -0.379 OA
ATOM     26  H   UNL     1       3.071  -4.250   0.874  0.00  0.00    +0.211 HD
ENDBRANCH  24  25
ENDBRANCH   5  24
TORSDOF 9
