11144536
  -OEChem-03292013303D

 67 67  0     1  0  0  0  0  0999 V2000
    2.1101   -1.3000    0.4705 O   0  0  0  0  0  0  0  0  0  0  0  0
   -4.6706   -2.6897    0.7174 O   0  0  0  0  0  0  0  0  0  0  0  0
    1.4245    0.9470    3.2723 O   0  0  0  0  0  0  0  0  0  0  0  0
    3.4337    3.2606   -1.6131 O   0  0  0  0  0  0  0  0  0  0  0  0
    0.9801    5.0657    0.4170 O   0  0  0  0  0  0  0  0  0  0  0  0
    1.1948   -3.3483    1.0105 O   0  0  0  0  0  0  0  0  0  0  0  0
   -1.4954    0.7294   -0.9492 C   0  0  1  0  0  0  0  0  0  0  0  0
   -2.7738    0.5020   -0.1143 C   0  0  0  0  0  0  0  0  0  0  0  0
   -1.2253    2.2702   -1.0144 C   0  0  0  0  0  0  0  0  0  0  0  0
   -3.1399   -0.9700    0.0051 C   0  0  0  0  0  0  0  0  0  0  0  0
   -0.2724    0.0372   -0.3682 C   0  0  0  0  0  0  0  0  0  0  0  0
   -1.7559    0.1561   -2.3574 C   0  0  0  0  0  0  0  0  0  0  0  0
   -4.4458   -1.2777    0.7561 C   0  0  1  0  0  0  0  0  0  0  0  0
    1.3123   -0.6654    1.4691 C   0  0  2  0  0  0  0  0  0  0  0  0
   -0.0473   -0.2696    0.9214 C   0  0  0  0  0  0  0  0  0  0  0  0
    2.0663    0.5758    2.0457 C   0  0  1  0  0  0  0  0  0  0  0  0
    0.0329    2.6986   -1.7392 C   0  0  0  0  0  0  0  0  0  0  0  0
    1.0791    3.4017   -1.2637 C   0  0  0  0  0  0  0  0  0  0  0  0
   -5.6703   -0.5904    0.1908 C   0  0  0  0  0  0  0  0  0  0  0  0
    2.0165    1.7350    1.0566 C   0  0  0  0  0  0  0  0  0  0  0  0
    3.5276    0.2557    2.3810 C   0  0  0  0  0  0  0  0  0  0  0  0
    1.1297    3.8773    0.1483 C   0  0  0  0  0  0  0  0  0  0  0  0
    1.3308    2.8755    1.2287 C   0  0  0  0  0  0  0  0  0  0  0  0
    2.2362    3.8232   -2.1173 C   0  0  0  0  0  0  0  0  0  0  0  0
   -6.0140   -0.8337   -1.2527 C   0  0  0  0  0  0  0  0  0  0  0  0
   -6.4348    0.2053    0.9559 C   0  0  0  0  0  0  0  0  0  0  0  0
    1.9466   -2.6488    0.3526 C   0  0  0  0  0  0  0  0  0  0  0  0
    2.8664   -3.1175   -0.7112 C   0  0  0  0  0  0  0  0  0  0  0  0
    3.0094   -4.3940   -1.1114 C   0  0  0  0  0  0  0  0  0  0  0  0
    3.9867   -4.7276   -2.2095 C   0  0  0  0  0  0  0  0  0  0  0  0
    2.2618   -5.5836   -0.5774 C   0  0  0  0  0  0  0  0  0  0  0  0
   -3.6012    1.0500   -0.5833 H   0  0  0  0  0  0  0  0  0  0  0  0
   -2.6698    0.9341    0.8892 H   0  0  0  0  0  0  0  0  0  0  0  0
   -1.2346    2.6793    0.0031 H   0  0  0  0  0  0  0  0  0  0  0  0
   -2.0687    2.7526   -1.5275 H   0  0  0  0  0  0  0  0  0  0  0  0
   -3.2303   -1.4348   -0.9826 H   0  0  0  0  0  0  0  0  0  0  0  0
   -2.3442   -1.5386    0.4983 H   0  0  0  0  0  0  0  0  0  0  0  0
    0.5482   -0.0995   -1.0721 H   0  0  0  0  0  0  0  0  0  0  0  0
   -1.7750   -0.9388   -2.3735 H   0  0  0  0  0  0  0  0  0  0  0  0
   -0.9667    0.4402   -3.0622 H   0  0  0  0  0  0  0  0  0  0  0  0
   -2.7015    0.5246   -2.7712 H   0  0  0  0  0  0  0  0  0  0  0  0
   -4.3136   -1.0069    1.8110 H   0  0  0  0  0  0  0  0  0  0  0  0
    1.1368   -1.3619    2.3010 H   0  0  0  0  0  0  0  0  0  0  0  0
   -0.8087   -0.0791    1.6720 H   0  0  0  0  0  0  0  0  0  0  0  0
    0.0607    2.4290   -2.7938 H   0  0  0  0  0  0  0  0  0  0  0  0
    2.5040    1.5344    0.1068 H   0  0  0  0  0  0  0  0  0  0  0  0
    4.0048    1.1018    2.8901 H   0  0  0  0  0  0  0  0  0  0  0  0
    4.1180    0.0183    1.4896 H   0  0  0  0  0  0  0  0  0  0  0  0
    3.5894   -0.5941    3.0707 H   0  0  0  0  0  0  0  0  0  0  0  0
    0.8503    3.1131    2.1721 H   0  0  0  0  0  0  0  0  0  0  0  0
   -3.9039   -3.1207    1.1322 H   0  0  0  0  0  0  0  0  0  0  0  0
    2.1207    3.5170   -3.1625 H   0  0  0  0  0  0  0  0  0  0  0  0
    2.3384    4.9133   -2.1056 H   0  0  0  0  0  0  0  0  0  0  0  0
    1.5067    0.2033    3.8934 H   0  0  0  0  0  0  0  0  0  0  0  0
   -5.2350   -0.4382   -1.9111 H   0  0  0  0  0  0  0  0  0  0  0  0
   -6.1233   -1.9056   -1.4461 H   0  0  0  0  0  0  0  0  0  0  0  0
   -6.9568   -0.3531   -1.5361 H   0  0  0  0  0  0  0  0  0  0  0  0
   -6.1974    0.3845    1.9993 H   0  0  0  0  0  0  0  0  0  0  0  0
   -7.3153    0.6979    0.5568 H   0  0  0  0  0  0  0  0  0  0  0  0
    3.4213    2.3106   -1.8208 H   0  0  0  0  0  0  0  0  0  0  0  0
    3.4661   -2.3437   -1.1863 H   0  0  0  0  0  0  0  0  0  0  0  0
    4.4905   -3.8395   -2.6057 H   0  0  0  0  0  0  0  0  0  0  0  0
    4.7595   -5.4078   -1.8366 H   0  0  0  0  0  0  0  0  0  0  0  0
    3.4675   -5.2126   -3.0428 H   0  0  0  0  0  0  0  0  0  0  0  0
    1.3965   -5.8010   -1.2113 H   0  0  0  0  0  0  0  0  0  0  0  0
    1.9264   -5.4642    0.4537 H   0  0  0  0  0  0  0  0  0  0  0  0
    2.9091   -6.4683   -0.5755 H   0  0  0  0  0  0  0  0  0  0  0  0
  1 14  1  0  0  0  0
  1 27  1  0  0  0  0
  2 13  1  0  0  0  0
  2 51  1  0  0  0  0
  3 16  1  0  0  0  0
  3 54  1  0  0  0  0
  4 24  1  0  0  0  0
  4 60  1  0  0  0  0
  5 22  2  0  0  0  0
  6 27  2  0  0  0  0
  7  8  1  0  0  0  0
  7  9  1  0  0  0  0
  7 11  1  0  0  0  0
  7 12  1  0  0  0  0
  8 10  1  0  0  0  0
  8 32  1  0  0  0  0
  8 33  1  0  0  0  0
  9 17  1  0  0  0  0
  9 34  1  0  0  0  0
  9 35  1  0  0  0  0
 10 13  1  0  0  0  0
 10 36  1  0  0  0  0
 10 37  1  0  0  0  0
 11 15  2  0  0  0  0
 11 38  1  0  0  0  0
 12 39  1  0  0  0  0
 12 40  1  0  0  0  0
 12 41  1  0  0  0  0
 13 19  1  0  0  0  0
 13 42  1  0  0  0  0
 14 15  1  0  0  0  0
 14 16  1  0  0  0  0
 14 43  1  0  0  0  0
 15 44  1  0  0  0  0
 16 20  1  0  0  0  0
 16 21  1  0  0  0  0
 17 18  2  0  0  0  0
 17 45  1  0  0  0  0
 18 22  1  0  0  0  0
 18 24  1  0  0  0  0
 19 25  1  0  0  0  0
 19 26  2  0  0  0  0
 20 23  2  0  0  0  0
 20 46  1  0  0  0  0
 21 47  1  0  0  0  0
 21 48  1  0  0  0  0
 21 49  1  0  0  0  0
 22 23  1  0  0  0  0
 23 50  1  0  0  0  0
 24 52  1  0  0  0  0
 24 53  1  0  0  0  0
 25 55  1  0  0  0  0
 25 56  1  0  0  0  0
 25 57  1  0  0  0  0
 26 58  1  0  0  0  0
 26 59  1  0  0  0  0
 27 28  1  0  0  0  0
 28 29  2  0  0  0  0
 28 61  1  0  0  0  0
 29 30  1  0  0  0  0
 29 31  1  0  0  0  0
 30 62  1  0  0  0  0
 30 63  1  0  0  0  0
 30 64  1  0  0  0  0
 31 65  1  0  0  0  0
 31 66  1  0  0  0  0
 31 67  1  0  0  0  0
M  END
> <PUBCHEM_COMPOUND_CID>
11144536

> <PUBCHEM_CONFORMER_RMSD>
1

> <PUBCHEM_CONFORMER_DIVERSEORDER>
1
53
50
61
29
79
8
57
39
66
82
67
34
74
20
51
77
46
52
36
80
49
83
35
42
17
71
60
58
41
19
84
72
5
54
25
7
76
45
15
23
43
65
38
21
78
63
44
59
33
73
37
30
68
64
18
62
27
40
69
4
47
6
28
24
81
3
2
55
56
32
31
12
13
22
70
14
10
26
48
9
16
11
75

> <PUBCHEM_MMFF94_PARTIAL_CHARGES>
38
1 -0.43
11 -0.29
13 0.42
14 0.42
15 -0.29
16 0.42
17 -0.29
18 -0.12
19 -0.28
2 -0.68
20 -0.29
22 0.54
23 -0.14
24 0.42
25 0.14
26 -0.3
27 0.71
28 -0.14
29 -0.28
3 -0.68
30 0.14
31 0.14
38 0.15
4 -0.68
44 0.15
45 0.15
46 0.15
5 -0.57
50 0.15
51 0.4
54 0.4
58 0.15
59 0.15
6 -0.57
60 0.4
61 0.15
7 0.14
9 0.14

> <PUBCHEM_EFFECTIVE_ROTOR_COUNT>
8.8

> <PUBCHEM_PHARMACOPHORE_FEATURES>
9
1 2 acceptor
1 2 donor
1 3 acceptor
1 3 donor
1 4 acceptor
1 4 donor
1 5 acceptor
1 6 acceptor
3 29 30 31 hydrophobe

> <PUBCHEM_HEAVY_ATOM_COUNT>
31

> <PUBCHEM_ATOM_DEF_STEREO_COUNT>
3

> <PUBCHEM_ATOM_UDEF_STEREO_COUNT>
1

> <PUBCHEM_BOND_DEF_STEREO_COUNT>
3

> <PUBCHEM_BOND_UDEF_STEREO_COUNT>
0

> <PUBCHEM_ISOTOPIC_ATOM_COUNT>
0

> <PUBCHEM_COMPONENT_COUNT>
1

> <PUBCHEM_CACTVS_TAUTO_COUNT>
3

> <PUBCHEM_CONFORMER_ID>
00AA0D5800000001

> <PUBCHEM_MMFF94_ENERGY>
83.1332

> <PUBCHEM_FEATURE_SELFOVERLAP>
45.674

> <PUBCHEM_SHAPE_FINGERPRINT>
11488393 25 18117299118740667810
12788726 201 17684657528314122307
13135754 10 16267719083852994954
13690498 29 17908990898261019814
13692114 37 17691968580247809975
14251757 5 17475797546080155582
14790565 3 16665714122707979357
14955137 171 18336536218370733200
15420108 30 17830728021614931397
15664445 248 18186801361544938235
15815584 197 17974814368970110106
17980427 26 16125233630034173794
1979834 28 18339349877194527971
20600515 1 17754146727170911180
20739085 24 17969492891779433165
20775530 9 18194964037365250875
21120745 212 17906191567430754140
21344244 181 18050873270858426260
21792965 302 18195536879002836458
22440779 20 17907600037457251195
23466295 7 17550671006740068034
23559900 14 18410290341886370699
2818148 4 18124892169753360888
38695281 34 18046916162283735805
59444896 2 17337927747591043616
621550 5 18126847084157688266
6287921 2 18338234976736191171

> <PUBCHEM_SHAPE_MULTIPOLES>
602.75
9.43
7.43
2.42
17.31
0.21
0.39
12.08
-0.24
-10.22
-3.67
-1.96
-1.01
2.19

> <PUBCHEM_SHAPE_SELFOVERLAP>
1213.179

> <PUBCHEM_SHAPE_VOLUME>
349.7

> <PUBCHEM_COORDINATE_TYPE>
2
5
10

$$$$
