11152290
  -OEChem-03292013303D

 51 52  0     1  0  0  0  0  0999 V2000
    1.6168    1.9169    2.0714 O   0  0  0  0  0  0  0  0  0  0  0  0
    0.3752    4.0773    0.6512 O   0  0  0  0  0  0  0  0  0  0  0  0
    0.5923   -1.0354    1.1693 O   0  0  0  0  0  0  0  0  0  0  0  0
   -0.5406    3.7620   -2.1221 O   0  0  0  0  0  0  0  0  0  0  0  0
    4.7155   -1.7072   -2.0651 O   0  0  0  0  0  0  0  0  0  0  0  0
    4.7283   -3.7778   -1.1403 O   0  0  0  0  0  0  0  0  0  0  0  0
    1.8981    0.8981    1.0978 C   0  0  1  0  0  0  0  0  0  0  0  0
    1.9906    2.3442    0.7545 C   0  0  1  0  0  0  0  0  0  0  0  0
    0.9064    2.9575   -0.0599 C   0  0  1  0  0  0  0  0  0  0  0  0
    3.1928    0.2014    1.3583 C   0  0  0  0  0  0  0  0  0  0  0  0
    0.7112    0.1064    0.7376 C   0  0  0  0  0  0  0  0  0  0  0  0
   -0.2283    2.0440   -0.4984 C   0  0  0  0  0  0  0  0  0  0  0  0
   -0.3324    0.7412   -0.1411 C   0  0  0  0  0  0  0  0  0  0  0  0
    3.7158   -0.6035    0.1955 C   0  0  0  0  0  0  0  0  0  0  0  0
   -1.2145    2.7511   -1.4064 C   0  0  0  0  0  0  0  0  0  0  0  0
   -1.4223   -0.1062   -0.5330 C   0  0  0  0  0  0  0  0  0  0  0  0
    3.9409   -1.9310    0.1687 C   0  0  0  0  0  0  0  0  0  0  0  0
   -2.6987    0.3010   -0.5706 C   0  0  0  0  0  0  0  0  0  0  0  0
   -3.8411   -0.5827   -0.9829 C   0  0  0  0  0  0  0  0  0  0  0  0
    3.6605   -2.8745    1.3039 C   0  0  0  0  0  0  0  0  0  0  0  0
   -4.8910   -0.7566    0.1193 C   0  0  0  0  0  0  0  0  0  0  0  0
    4.5017   -2.5790   -1.0533 C   0  0  0  0  0  0  0  0  0  0  0  0
   -6.0453   -1.6758   -0.2915 C   0  0  0  0  0  0  0  0  0  0  0  0
   -7.0812   -1.7967    0.8268 C   0  0  0  0  0  0  0  0  0  0  0  0
   -8.2507   -2.6746    0.4103 C   0  0  0  0  0  0  0  0  0  0  0  0
    2.9477    2.8358    0.6471 H   0  0  0  0  0  0  0  0  0  0  0  0
    1.4197    3.3458   -0.9481 H   0  0  0  0  0  0  0  0  0  0  0  0
    3.0843   -0.4024    2.2637 H   0  0  0  0  0  0  0  0  0  0  0  0
    3.9751    0.9308    1.6110 H   0  0  0  0  0  0  0  0  0  0  0  0
    3.9447    0.0070   -0.6755 H   0  0  0  0  0  0  0  0  0  0  0  0
   -1.9906    3.2408   -0.8103 H   0  0  0  0  0  0  0  0  0  0  0  0
   -1.6797    2.0960   -2.1469 H   0  0  0  0  0  0  0  0  0  0  0  0
   -0.0725    4.6532    0.0084 H   0  0  0  0  0  0  0  0  0  0  0  0
   -1.1740   -1.1240   -0.8228 H   0  0  0  0  0  0  0  0  0  0  0  0
   -2.9879    1.2940   -0.2410 H   0  0  0  0  0  0  0  0  0  0  0  0
    0.0133    3.3305   -2.7955 H   0  0  0  0  0  0  0  0  0  0  0  0
   -4.3150   -0.1379   -1.8665 H   0  0  0  0  0  0  0  0  0  0  0  0
   -3.4727   -1.5697   -1.2892 H   0  0  0  0  0  0  0  0  0  0  0  0
    4.6009   -3.2416    1.7281 H   0  0  0  0  0  0  0  0  0  0  0  0
    3.0853   -3.7367    0.9480 H   0  0  0  0  0  0  0  0  0  0  0  0
    3.0767   -2.4345    2.1140 H   0  0  0  0  0  0  0  0  0  0  0  0
   -4.4096   -1.1636    1.0179 H   0  0  0  0  0  0  0  0  0  0  0  0
   -5.2923    0.2270    0.3954 H   0  0  0  0  0  0  0  0  0  0  0  0
   -5.6534   -2.6689   -0.5421 H   0  0  0  0  0  0  0  0  0  0  0  0
   -6.5231   -1.2784   -1.1953 H   0  0  0  0  0  0  0  0  0  0  0  0
   -6.6133   -2.2196    1.7234 H   0  0  0  0  0  0  0  0  0  0  0  0
   -7.4580   -0.8029    1.0953 H   0  0  0  0  0  0  0  0  0  0  0  0
    5.0763   -2.1504   -2.8624 H   0  0  0  0  0  0  0  0  0  0  0  0
   -7.9130   -3.6862    0.1632 H   0  0  0  0  0  0  0  0  0  0  0  0
   -8.9781   -2.7485    1.2247 H   0  0  0  0  0  0  0  0  0  0  0  0
   -8.7612   -2.2592   -0.4644 H   0  0  0  0  0  0  0  0  0  0  0  0
  1  7  1  0  0  0  0
  1  8  1  0  0  0  0
  2  9  1  0  0  0  0
  2 33  1  0  0  0  0
  3 11  2  0  0  0  0
  4 15  1  0  0  0  0
  4 36  1  0  0  0  0
  5 22  1  0  0  0  0
  5 48  1  0  0  0  0
  6 22  2  0  0  0  0
  7  8  1  0  0  0  0
  7 10  1  0  0  0  0
  7 11  1  0  0  0  0
  8  9  1  0  0  0  0
  8 26  1  0  0  0  0
  9 12  1  0  0  0  0
  9 27  1  0  0  0  0
 10 14  1  0  0  0  0
 10 28  1  0  0  0  0
 10 29  1  0  0  0  0
 11 13  1  0  0  0  0
 12 13  2  0  0  0  0
 12 15  1  0  0  0  0
 13 16  1  0  0  0  0
 14 17  2  0  0  0  0
 14 30  1  0  0  0  0
 15 31  1  0  0  0  0
 15 32  1  0  0  0  0
 16 18  2  0  0  0  0
 16 34  1  0  0  0  0
 17 20  1  0  0  0  0
 17 22  1  0  0  0  0
 18 19  1  0  0  0  0
 18 35  1  0  0  0  0
 19 21  1  0  0  0  0
 19 37  1  0  0  0  0
 19 38  1  0  0  0  0
 20 39  1  0  0  0  0
 20 40  1  0  0  0  0
 20 41  1  0  0  0  0
 21 23  1  0  0  0  0
 21 42  1  0  0  0  0
 21 43  1  0  0  0  0
 23 24  1  0  0  0  0
 23 44  1  0  0  0  0
 23 45  1  0  0  0  0
 24 25  1  0  0  0  0
 24 46  1  0  0  0  0
 24 47  1  0  0  0  0
 25 49  1  0  0  0  0
 25 50  1  0  0  0  0
 25 51  1  0  0  0  0
M  END
> <PUBCHEM_COMPOUND_CID>
11152290

> <PUBCHEM_CONFORMER_RMSD>
1

> <PUBCHEM_CONFORMER_DIVERSEORDER>
1
21
30
29
51
44
50
34
17
26
8
23
39
47
57
24
46
53
38
31
43
37
15
45
35
56
32
7
54
18
22
49
20
42
40
10
16
19
14
55
6
48
28
52
3
36
33
25
13
4
11
12
41
27
5
2
9

> <PUBCHEM_MMFF94_PARTIAL_CHARGES>
28
1 -0.3
10 0.23
11 0.56
12 -0.28
13 0.01
14 -0.29
15 0.42
16 -0.15
17 -0.12
18 -0.29
19 0.14
2 -0.68
20 0.14
22 0.71
26 0.1
3 -0.57
30 0.15
33 0.4
34 0.15
35 0.15
36 0.4
4 -0.68
48 0.5
5 -0.65
6 -0.57
7 0.05
8 -0.05
9 0.51

> <PUBCHEM_EFFECTIVE_ROTOR_COUNT>
9.4

> <PUBCHEM_PHARMACOPHORE_FEATURES>
13
1 1 acceptor
1 2 acceptor
1 2 donor
1 20 hydrophobe
1 25 hydrophobe
1 3 acceptor
1 4 acceptor
1 4 donor
1 5 acceptor
1 6 acceptor
3 5 6 22 anion
5 18 19 21 23 24 hydrophobe
7 1 7 8 9 11 12 13 rings

> <PUBCHEM_HEAVY_ATOM_COUNT>
25

> <PUBCHEM_ATOM_DEF_STEREO_COUNT>
3

> <PUBCHEM_ATOM_UDEF_STEREO_COUNT>
0

> <PUBCHEM_BOND_DEF_STEREO_COUNT>
2

> <PUBCHEM_BOND_UDEF_STEREO_COUNT>
0

> <PUBCHEM_ISOTOPIC_ATOM_COUNT>
0

> <PUBCHEM_COMPONENT_COUNT>
1

> <PUBCHEM_CACTVS_TAUTO_COUNT>
1

> <PUBCHEM_CONFORMER_ID>
00AA2BA200000001

> <PUBCHEM_MMFF94_ENERGY>
44.7487

> <PUBCHEM_FEATURE_SELFOVERLAP>
66.038

> <PUBCHEM_SHAPE_FINGERPRINT>
10316853 100 18186800335602370483
10764073 3 14544832758697577280
10951579 204 16517339186726957455
11135609 127 8502108305594483907
11954058 11 18411986892501735559
11991303 11 17389658580409982501
12623949 98 18343867731512717047
13533116 47 18271526515657904707
13540713 4 18265591248058197392
13673619 4 18341896264140627303
13757389 114 17038098988335241076
13785724 45 18342464724979915247
13955234 65 18197490938423959201
14251740 57 18338233868829768379
14251764 30 18340492166454543703
15420108 30 17476055300395791072
1813 80 18408885126770026013
21049683 271 18410580608518620540
21403212 168 8646495081578977188
22182313 1 18054478393196902752
22950370 63 18340210682734410906
44317340 157 8141814915160774331
465052 167 18272934916353255103
5372103 7 15792874401978143254
57091435 61 8935010265249268879
57527585 21 14853315095519596046
70251023 43 18411143498321517594
7918774 8 18334018276624100715

> <PUBCHEM_SHAPE_MULTIPOLES>
479.27
14.36
4.81
1.59
34.15
1.94
0.24
-21.73
-0.48
-3.78
1.2
-1.47
0.25
2.67

> <PUBCHEM_SHAPE_SELFOVERLAP>
980.227

> <PUBCHEM_SHAPE_VOLUME>
275.2

> <PUBCHEM_COORDINATE_TYPE>
2
5
10

$$$$
