REMARK  Name = 11155437
REMARK  11 active torsions:
REMARK  status: ('A' for Active; 'I' for Inactive)
REMARK    1  A    between atoms: C_1  and  C_12
REMARK    2  A    between atoms: C_1  and  N_21
REMARK    3  A    between atoms: C_1  and  C_36
REMARK    4  A    between atoms: C_7  and  C_15
REMARK    5  A    between atoms: C_10  and  O_18
REMARK    6  A    between atoms: C_22  and  C_24
REMARK    7  A    between atoms: C_24  and  O_25
REMARK    8  A    between atoms: C_24  and  C_27
REMARK    9  A    between atoms: C_27  and  C_28
REMARK   10  A    between atoms: C_33  and  O_34
REMARK   11  A    between atoms: C_36  and  C_37
REMARK                            x       y       z     vdW  Elec       q    Type
REMARK                         _______ _______ _______ _____ _____    ______ ____
ROOT
ATOM      1  C   UNL     1       0.622  -1.511   0.374  0.00  0.00    +0.149 C 
ENDROOT
BRANCH   1  12
ATOM      2  O   UNL     1       1.246  -0.148   2.219  0.00  0.00    -0.273 OA
ATOM      3  N   UNL     1       2.659  -0.134   0.386  0.00  0.00    -0.273 N 
ATOM      4  C   UNL     1       4.797   0.794  -0.007  0.00  0.00    +0.021 C 
ATOM      5  C   UNL     1       3.568   0.897   0.910  0.00  0.00    +0.078 C 
ATOM      6  C   UNL     1       4.169   0.423  -1.358  0.00  0.00    +0.031 C 
ATOM      7  C   UNL     1       3.058  -0.550  -0.960  0.00  0.00    +0.152 C 
ATOM      8  C   UNL     1       5.699   2.024  -0.037  0.00  0.00    +0.004 C 
ATOM      9  C   UNL     1       2.891   2.276   0.874  0.00  0.00    +0.049 C 
ATOM     10  C   UNL     1       3.887   3.422   0.999  0.00  0.00    +0.112 C 
ATOM     11  C   UNL     1       4.941   3.343  -0.098  0.00  0.00    +0.029 C 
ATOM     12  C   UNL     1       1.528  -0.536   1.083  0.00  0.00    +0.244 C 
BRANCH   7  15
ATOM     13  O   UNL     1       3.647  -2.574   0.168  0.00  0.00    -0.274 OA
ATOM     14  N   UNL     1       4.048  -2.431  -2.093  0.00  0.00    -0.327 N 
ATOM     15  C   UNL     1       3.601  -1.946  -0.887  0.00  0.00    +0.237 C 
ATOM     16  H   UNL     1       4.424  -3.340  -2.150  0.00  0.00    +0.145 HD
ATOM     17  H   UNL     1       3.994  -1.870  -2.900  0.00  0.00    +0.145 HD
ENDBRANCH   7  15
BRANCH  10  18
ATOM     18  O   UNL     1       3.202   4.665   0.877  0.00  0.00    -0.384 OA
ATOM     19  H   UNL     1       2.526   4.731   1.570  0.00  0.00    +0.210 HD
ENDBRANCH  10  18
ENDBRANCH   1  12
BRANCH   1  21
ATOM     20  O   UNL     1      -0.012   0.334  -1.763  0.00  0.00    -0.272 OA
ATOM     21  N   UNL     1      -0.595  -0.775   0.196  0.00  0.00    -0.296 N 
ATOM     22  C   UNL     1      -0.819   0.097  -0.867  0.00  0.00    +0.250 C 
ATOM     23  H   UNL     1      -1.311  -0.892   0.862  0.00  0.00    +0.150 HD
BRANCH  22  24
ATOM     24  C   UNL     1      -2.188   0.762  -0.803  0.00  0.00    +0.191 C 
BRANCH  24  25
ATOM     25  O   UNL     1      -2.288   1.679  -1.883  0.00  0.00    -0.376 OA
ATOM     26  H   UNL     1      -1.587   2.345  -1.808  0.00  0.00    +0.211 HD
ENDBRANCH  24  25
BRANCH  24  27
ATOM     27  C   UNL     1      -3.300  -0.284  -0.934  0.00  0.00    +0.065 C 
BRANCH  27  28
ATOM     28  C   UNL     1      -4.630   0.238  -0.443  0.00  0.00    -0.019 C 
ATOM     29  C   UNL     1      -4.994   0.074   0.893  0.00  0.00    -0.001 C 
ATOM     30  C   UNL     1      -5.494   0.884  -1.327  0.00  0.00    -0.001 C 
ATOM     31  C   UNL     1      -6.222   0.556   1.346  0.00  0.00    +0.036 C 
ATOM     32  C   UNL     1      -6.722   1.366  -0.875  0.00  0.00    +0.036 C 
ATOM     33  C   UNL     1      -7.086   1.202   0.462  0.00  0.00    +0.134 C 
BRANCH  33  34
ATOM     34  O   UNL     1      -8.284   1.673   0.904  0.00  0.00    -0.506 OA
ATOM     35  H   UNL     1      -8.528   1.563   1.802  0.00  0.00    +0.292 HD
ENDBRANCH  33  34
ENDBRANCH  27  28
ENDBRANCH  24  27
ENDBRANCH  22  24
ENDBRANCH   1  21
BRANCH   1  36
ATOM     36  C   UNL     1       0.439  -2.768   1.217  0.00  0.00    +0.029 C 
BRANCH  36  37
ATOM     37  C   UNL     1       0.020  -4.013   0.409  0.00  0.00    +0.002 C 
ATOM     38  C   UNL     1      -1.310  -3.815  -0.321  0.00  0.00    +0.000 C 
ATOM     39  C   UNL     1      -0.079  -5.224   1.341  0.00  0.00    +0.000 C 
ENDBRANCH  36  37
ENDBRANCH   1  36
TORSDOF 11
