REMARK  Name = 11154925
REMARK  9 active torsions:
REMARK  status: ('A' for Active; 'I' for Inactive)
REMARK    1  A    between atoms: C_6  and  O_11
REMARK    2  A    between atoms: C_8  and  O_24
REMARK    3  A    between atoms: O_11  and  C_12
REMARK    4  A    between atoms: C_12  and  C_13
REMARK    5  A    between atoms: C_13  and  O_15
REMARK    6  A    between atoms: O_15  and  C_17
REMARK    7  A    between atoms: C_17  and  C_18
REMARK    8  A    between atoms: C_18  and  N_20
REMARK    9  A    between atoms: O_24  and  C_29
REMARK                            x       y       z     vdW  Elec       q    Type
REMARK                         _______ _______ _______ _____ _____    ______ ____
ROOT
ATOM      1  N   UNL     1       0.400  -2.106   0.389  0.00  0.00    -0.180 N 
ATOM      2  N   UNL     1      -0.422  -3.137   0.733  0.00  0.00    -0.151 NA
ATOM      3  N   UNL     1      -2.242  -1.547   0.671  0.00  0.00    -0.187 NA
ATOM      4  C   UNL     1      -0.037  -0.823   0.181  0.00  0.00    +0.126 C 
ATOM      5  C   UNL     1       1.046  -0.042  -0.149  0.00  0.00    +0.034 C 
ATOM      6  C   UNL     1       2.183  -0.891  -0.140  0.00  0.00    +0.153 C 
ATOM      7  C   UNL     1       1.755  -2.160   0.195  0.00  0.00    +0.126 C 
ATOM      8  C   UNL     1      -1.430  -0.595   0.344  0.00  0.00    +0.247 C 
ATOM      9  C   UNL     1       1.083   1.401  -0.462  0.00  0.00    +0.036 C 
ATOM     10  C   UNL     1      -1.679  -2.802   0.853  0.00  0.00    +0.220 C 
ENDROOT
BRANCH   6  11
ATOM     11  O   UNL     1       3.458  -0.569  -0.402  0.00  0.00    -0.470 OA
BRANCH  11  12
ATOM     12  C   UNL     1       4.427  -1.620  -0.325  0.00  0.00    +0.249 C 
BRANCH  12  13
ATOM     13  C   UNL     1       5.804  -1.046  -0.634  0.00  0.00    +0.212 C 
ATOM     14  C   UNL     1       5.845  -0.410  -2.015  0.00  0.00    +0.051 C 
BRANCH  13  15
ATOM     15  O   UNL     1       6.104  -0.050   0.342  0.00  0.00    -0.450 OA
BRANCH  15  17
ATOM     16  O   UNL     1       8.331   0.029  -0.244  0.00  0.00    -0.252 OA
ATOM     17  C   UNL     1       7.327   0.554   0.220  0.00  0.00    +0.296 C 
BRANCH  17  18
ATOM     18  C   UNL     1       7.243   1.971   0.754  0.00  0.00    +0.036 C 
ATOM     19  C   UNL     1       6.252   2.794  -0.058  0.00  0.00    -0.013 C 
BRANCH  18  20
ATOM     20  N   UNL     1       8.573   2.571   0.664  0.00  0.00    +0.389 N 
ATOM     21  H   UNL     1       9.233   2.017   1.209  0.00  0.00    -0.088 HD
ATOM     22  H   UNL     1       8.542   3.522   1.032  0.00  0.00    -0.088 HD
ATOM     23  H   UNL     1       8.871   2.594  -0.311  0.00  0.00    -0.088 HD
ENDBRANCH  18  20
ENDBRANCH  17  18
ENDBRANCH  15  17
ENDBRANCH  13  15
ENDBRANCH  12  13
ENDBRANCH  11  12
ENDBRANCH   6  11
BRANCH   8  24
ATOM     24  O   UNL     1      -1.888   0.664   0.145  0.00  0.00    -0.433 OA
BRANCH  24  29
ATOM     25  F   UNL     1      -3.601   0.249  -1.961  0.00  0.00    -0.201 F 
ATOM     26  N   UNL     1      -7.340   0.921   0.663  0.00  0.00    -0.316 N 
ATOM     27  C   UNL     1      -5.489   0.609  -0.544  0.00  0.00    +0.045 C 
ATOM     28  C   UNL     1      -5.965   0.901   0.737  0.00  0.00    +0.050 C 
ATOM     29  C   UNL     1      -3.235   0.740   0.334  0.00  0.00    +0.175 C 
ATOM     30  C   UNL     1      -7.748   0.653  -0.616  0.00  0.00    +0.026 C 
ATOM     31  C   UNL     1      -4.098   0.527  -0.748  0.00  0.00    +0.176 C 
ATOM     32  C   UNL     1      -6.625   0.455  -1.386  0.00  0.00    +0.014 C 
ATOM     33  C   UNL     1      -5.115   1.116   1.827  0.00  0.00    +0.018 C 
ATOM     34  C   UNL     1      -3.738   1.029   1.601  0.00  0.00    +0.041 C 
ATOM     35  C   UNL     1      -9.179   0.614  -0.971  0.00  0.00    +0.047 C 
ATOM     36  H   UNL     1      -7.942   1.103   1.421  0.00  0.00    +0.152 HD
ENDBRANCH  24  29
ENDBRANCH   8  24
TORSDOF 9
