REMARK  Name = 11152290
REMARK  12 active torsions:
REMARK  status: ('A' for Active; 'I' for Inactive)
REMARK    1  A    between atoms: C_3  and  C_18
REMARK    2  A    between atoms: C_5  and  O_9
REMARK    3  A    between atoms: C_7  and  C_26
REMARK    4  A    between atoms: C_8  and  C_11
REMARK    5  A    between atoms: C_12  and  C_13
REMARK    6  A    between atoms: C_13  and  C_14
REMARK    7  A    between atoms: C_14  and  C_15
REMARK    8  A    between atoms: C_15  and  C_16
REMARK    9  A    between atoms: C_18  and  C_19
REMARK   10  A    between atoms: C_20  and  C_23
REMARK   11  A    between atoms: C_23  and  O_24
REMARK   12  A    between atoms: C_26  and  O_27
REMARK                            x       y       z     vdW  Elec       q    Type
REMARK                         _______ _______ _______ _____ _____    ______ ____
ROOT
ATOM      1  O   UNL     1       1.617   1.917   2.071  0.00  0.00    -0.345 OA
ATOM      2  O   UNL     1       0.592  -1.035   1.169  0.00  0.00    -0.289 OA
ATOM      3  C   UNL     1       1.898   0.898   1.098  0.00  0.00    +0.179 C 
ATOM      4  C   UNL     1       1.991   2.344   0.754  0.00  0.00    +0.178 C 
ATOM      5  C   UNL     1       0.906   2.958  -0.060  0.00  0.00    +0.161 C 
ATOM      6  C   UNL     1       0.711   0.106   0.738  0.00  0.00    +0.199 C 
ATOM      7  C   UNL     1      -0.228   2.044  -0.498  0.00  0.00    +0.016 C 
ATOM      8  C   UNL     1      -0.332   0.741  -0.141  0.00  0.00    +0.034 C 
ENDROOT
BRANCH   5   9
ATOM      9  O   UNL     1       0.375   4.077   0.651  0.00  0.00    -0.378 OA
ATOM     10  H   UNL     1       1.101   4.658   0.929  0.00  0.00    +0.211 HD
ENDBRANCH   5   9
BRANCH   8  11
ATOM     11  C   UNL     1      -1.422  -0.106  -0.533  0.00  0.00    -0.002 C 
ATOM     12  C   UNL     1      -2.699   0.301  -0.571  0.00  0.00    -0.026 C 
BRANCH  12  13
ATOM     13  C   UNL     1      -3.841  -0.583  -0.983  0.00  0.00    +0.026 C 
BRANCH  13  14
ATOM     14  C   UNL     1      -4.891  -0.757   0.119  0.00  0.00    +0.005 C 
BRANCH  14  15
ATOM     15  C   UNL     1      -6.045  -1.676  -0.291  0.00  0.00    +0.000 C 
BRANCH  15  16
ATOM     16  C   UNL     1      -7.081  -1.797   0.827  0.00  0.00    +0.000 C 
ATOM     17  C   UNL     1      -8.251  -2.675   0.410  0.00  0.00    +0.000 C 
ENDBRANCH  15  16
ENDBRANCH  14  15
ENDBRANCH  13  14
ENDBRANCH  12  13
ENDBRANCH   8  11
BRANCH   3  18
ATOM     18  C   UNL     1       3.193   0.201   1.358  0.00  0.00    +0.063 C 
BRANCH  18  19
ATOM     19  C   UNL     1       3.716  -0.604   0.196  0.00  0.00    -0.021 C 
ATOM     20  C   UNL     1       3.941  -1.931   0.169  0.00  0.00    +0.049 C 
ATOM     21  C   UNL     1       3.660  -2.874   1.304  0.00  0.00    +0.037 C 
BRANCH  20  23
ATOM     22  O   UNL     1       4.728  -3.778  -1.140  0.00  0.00    -0.245 OA
ATOM     23  C   UNL     1       4.502  -2.579  -1.053  0.00  0.00    +0.334 C 
BRANCH  23  24
ATOM     24  O   UNL     1       4.715  -1.707  -2.065  0.00  0.00    -0.477 OA
ATOM     25  H   UNL     1       4.525  -0.797  -1.948  0.00  0.00    +0.295 HD
ENDBRANCH  23  24
ENDBRANCH  20  23
ENDBRANCH  18  19
ENDBRANCH   3  18
BRANCH   7  26
ATOM     26  C   UNL     1      -1.214   2.751  -1.406  0.00  0.00    +0.162 C 
BRANCH  26  27
ATOM     27  O   UNL     1      -0.541   3.762  -2.122  0.00  0.00    -0.377 OA
ATOM     28  H   UNL     1      -1.167   4.218  -2.705  0.00  0.00    +0.211 HD
ENDBRANCH  26  27
ENDBRANCH   7  26
TORSDOF 12
