REMARK  Name = 11155879
REMARK  8 active torsions:
REMARK  status: ('A' for Active; 'I' for Inactive)
REMARK    1  A    between atoms: C_10  and  O_24
REMARK    2  A    between atoms: C_13  and  O_26
REMARK    3  A    between atoms: C_15  and  O_32
REMARK    4  A    between atoms: C_16  and  O_28
REMARK    5  A    between atoms: C_21  and  O_30
REMARK    6  A    between atoms: O_32  and  C_34
REMARK    7  A    between atoms: C_34  and  C_35
REMARK    8  A    between atoms: C_35  and  C_37
REMARK                            x       y       z     vdW  Elec       q    Type
REMARK                         _______ _______ _______ _____ _____    ______ ____
ROOT
ATOM      1  O   UNL     1       0.801  -2.467  -0.892  0.00  0.00    -0.356 OA
ATOM      2  O   UNL     1       0.537   1.766   0.732  0.00  0.00    -0.450 OA
ATOM      3  O   UNL     1       2.195   1.913   2.276  0.00  0.00    -0.246 OA
ATOM      4  C   UNL     1      -0.145  -0.327  -0.361  0.00  0.00    +0.073 C 
ATOM      5  C   UNL     1      -1.680  -0.605  -0.137  0.00  0.00    +0.038 C 
ATOM      6  C   UNL     1       0.562  -0.912   0.882  0.00  0.00    +0.084 C 
ATOM      7  C   UNL     1      -2.680   0.277  -0.990  0.00  0.00    +0.033 C 
ATOM      8  C   UNL     1       0.537  -2.401   0.521  0.00  0.00    +0.124 C 
ATOM      9  C   UNL     1       0.226   1.151  -0.538  0.00  0.00    +0.172 C 
ATOM     10  C   UNL     1      -1.978  -2.142  -0.069  0.00  0.00    +0.140 C 
ATOM     11  C   UNL     1      -2.276   1.796  -0.869  0.00  0.00    +0.024 C 
ATOM     12  C   UNL     1       0.479  -1.192  -1.473  0.00  0.00    +0.146 C 
ATOM     13  C   UNL     1      -0.916  -2.901   0.767  0.00  0.00    +0.162 C 
ATOM     14  C   UNL     1      -0.803   1.999  -1.282  0.00  0.00    +0.048 C 
ATOM     15  C   UNL     1       1.891  -0.210   1.171  0.00  0.00    +0.269 C 
ATOM     16  C   UNL     1      -4.153   0.120  -0.464  0.00  0.00    +0.142 C 
ATOM     17  C   UNL     1      -2.690  -0.097  -2.496  0.00  0.00    +0.003 C 
ATOM     18  C   UNL     1       1.565  -3.253   1.256  0.00  0.00    +0.032 C 
ATOM     19  C   UNL     1      -2.667   2.436   0.463  0.00  0.00    -0.046 C 
ATOM     20  C   UNL     1       1.579   1.251   1.448  0.00  0.00    +0.358 C 
ATOM     21  C   UNL     1      -4.370   0.642   0.966  0.00  0.00    +0.159 C 
ATOM     22  C   UNL     1      -3.587   1.884   1.275  0.00  0.00    -0.004 C 
ATOM     23  C   UNL     1      -2.101   3.789   0.803  0.00  0.00    +0.026 C 
ENDROOT
BRANCH  10  24
ATOM     24  O   UNL     1      -2.103  -2.725  -1.362  0.00  0.00    -0.382 OA
ATOM     25  H   UNL     1      -2.770  -2.239  -1.873  0.00  0.00    +0.210 HD
ENDBRANCH  10  24
BRANCH  13  26
ATOM     26  O   UNL     1      -1.038  -4.304   0.547  0.00  0.00    -0.380 OA
ATOM     27  H   UNL     1      -0.371  -4.772   1.073  0.00  0.00    +0.211 HD
ENDBRANCH  13  26
BRANCH  16  28
ATOM     28  O   UNL     1      -5.040   0.848  -1.327  0.00  0.00    -0.382 OA
ATOM     29  H   UNL     1      -4.927   0.541  -2.240  0.00  0.00    +0.210 HD
ENDBRANCH  16  28
BRANCH  21  30
ATOM     30  O   UNL     1      -4.049  -0.371   1.914  0.00  0.00    -0.378 OA
ATOM     31  H   UNL     1      -4.555  -1.173   1.714  0.00  0.00    +0.211 HD
ENDBRANCH  21  30
BRANCH  15  32
ATOM     32  O   UNL     1       2.840  -0.317   0.138  0.00  0.00    -0.441 OA
BRANCH  32  34
ATOM     33  O   UNL     1       4.363   0.892   1.380  0.00  0.00    -0.250 OA
ATOM     34  C   UNL     1       4.057   0.283   0.363  0.00  0.00    +0.317 C 
BRANCH  34  35
ATOM     35  C   UNL     1       4.963   0.111  -0.845  0.00  0.00    +0.099 C 
ATOM     36  C   UNL     1       6.206  -0.658  -0.407  0.00  0.00    +0.012 C 
BRANCH  35  37
ATOM     37  C   UNL     1       5.345   1.466  -1.458  0.00  0.00    +0.011 C 
ATOM     38  C   UNL     1       4.132   2.255  -1.935  0.00  0.00    +0.001 C 
ENDBRANCH  35  37
ENDBRANCH  34  35
ENDBRANCH  32  34
ENDBRANCH  15  32
TORSDOF 8
