REMARK  Name = 11161844
REMARK  2 active torsions:
REMARK  status: ('A' for Active; 'I' for Inactive)
REMARK    1  A    between atoms: C_6  and  C_22
REMARK    2  A    between atoms: C_10  and  N_15
REMARK                            x       y       z     vdW  Elec       q    Type
REMARK                         _______ _______ _______ _____ _____    ______ ____
ROOT
ATOM      1  O   UNL     1      -2.822   1.824   0.048  0.00  0.00    -0.270 OA
ATOM      2  N   UNL     1      -0.524   2.373   0.003  0.00  0.00    -0.280 N 
ATOM      3  C   UNL     1       0.397   0.266   0.030  0.00  0.00    +0.019 C 
ATOM      4  C   UNL     1      -1.058   0.148   0.055  0.00  0.00    +0.052 C 
ATOM      5  C   UNL     1       0.666   1.637  -0.001  0.00  0.00    +0.051 C 
ATOM      6  C   UNL     1      -1.801  -0.960   0.089  0.00  0.00    -0.004 C 
ATOM      7  C   UNL     1      -1.641   1.531   0.036  0.00  0.00    +0.249 C 
ATOM      8  C   UNL     1       1.426  -0.656   0.032  0.00  0.00    +0.016 C 
ATOM      9  C   UNL     1       1.953   2.138  -0.031  0.00  0.00    +0.016 C 
ATOM     10  C   UNL     1       2.738  -0.170   0.002  0.00  0.00    +0.052 C 
ATOM     11  C   UNL     1       2.999   1.213  -0.029  0.00  0.00    +0.016 C 
ATOM     12  C   UNL     1      -1.123  -2.316   0.094  0.00  0.00    +0.032 C 
ATOM     13  H   UNL     1      -0.570   3.356  -0.016  0.00  0.00    +0.155 HD
ENDROOT
BRANCH  10  15
ATOM     14  O   UNL     1       5.707   0.319  -0.053  0.00  0.00    -0.253 OA
ATOM     15  N   UNL     1       3.806  -1.070   0.003  0.00  0.00    -0.268 N 
ATOM     16  N   UNL     1       5.940  -1.954  -0.012  0.00  0.00    -0.313 N 
ATOM     17  C   UNL     1       5.182  -0.791  -0.024  0.00  0.00    +0.301 C 
ATOM     18  H   UNL     1       3.562  -2.024   0.025  0.00  0.00    +0.156 HD
ATOM     19  H   UNL     1       6.923  -1.901  -0.028  0.00  0.00    +0.146 HD
ATOM     20  H   UNL     1       5.495  -2.832   0.012  0.00  0.00    +0.146 HD
ENDBRANCH  10  15
BRANCH   6  22
ATOM     21  N   UNL     1      -3.862  -0.780  -1.091  0.00  0.00    -0.312 N 
ATOM     22  C   UNL     1      -3.241  -0.815   0.108  0.00  0.00    +0.044 C 
ATOM     23  C   UNL     1      -4.132  -0.703   1.112  0.00  0.00    +0.016 C 
ATOM     24  C   UNL     1      -5.207  -0.642  -0.866  0.00  0.00    +0.062 C 
ATOM     25  C   UNL     1      -5.403  -0.591   0.497  0.00  0.00    +0.017 C 
ATOM     26  H   UNL     1      -3.425  -0.843  -1.971  0.00  0.00    +0.152 HD
ENDBRANCH   6  22
TORSDOF 2
