REMARK  Name = 11167261
REMARK  7 active torsions:
REMARK  status: ('A' for Active; 'I' for Inactive)
REMARK    1  A    between atoms: C_4  and  C_19
REMARK    2  A    between atoms: C_7  and  C_27
REMARK    3  A    between atoms: C_13  and  O_35
REMARK    4  A    between atoms: C_16  and  O_37
REMARK    5  A    between atoms: C_17  and  O_39
REMARK    6  A    between atoms: C_24  and  O_25
REMARK    7  A    between atoms: C_32  and  O_33
REMARK                            x       y       z     vdW  Elec       q    Type
REMARK                         _______ _______ _______ _____ _____    ______ ____
ROOT
ATOM      1  O   UNL     1       1.056   2.385  -1.467  0.00  0.00    -0.474 OA
ATOM      2  O   UNL     1      -4.183  -0.103  -0.322  0.00  0.00    -0.291 OA
ATOM      3  C   UNL     1       0.203   0.239  -0.660  0.00  0.00    +0.092 C 
ATOM      4  C   UNL     1       1.368   0.968  -1.400  0.00  0.00    +0.196 C 
ATOM      5  C   UNL     1      -0.883   1.238  -0.917  0.00  0.00    +0.022 C 
ATOM      6  C   UNL     1      -0.128  -1.184  -1.067  0.00  0.00    -0.012 C 
ATOM      7  C   UNL     1      -2.187  -1.151   0.486  0.00  0.00    +0.109 C 
ATOM      8  C   UNL     1      -1.256  -1.834  -0.510  0.00  0.00    +0.019 C 
ATOM      9  C   UNL     1      -2.257   1.172  -0.727  0.00  0.00    +0.038 C 
ATOM     10  C   UNL     1      -0.308   2.428  -1.356  0.00  0.00    +0.138 C 
ATOM     11  C   UNL     1      -2.959  -0.031  -0.203  0.00  0.00    +0.181 C 
ATOM     12  C   UNL     1       0.678  -1.914  -1.959  0.00  0.00    +0.033 C 
ATOM     13  C   UNL     1      -1.552  -3.161  -0.884  0.00  0.00    +0.133 C 
ATOM     14  C   UNL     1      -3.029   2.311  -1.023  0.00  0.00    +0.039 C 
ATOM     15  C   UNL     1      -1.047   3.564  -1.631  0.00  0.00    +0.073 C 
ATOM     16  C   UNL     1      -2.426   3.495  -1.471  0.00  0.00    +0.137 C 
ATOM     17  C   UNL     1       0.373  -3.229  -2.314  0.00  0.00    +0.136 C 
ATOM     18  C   UNL     1      -0.744  -3.853  -1.780  0.00  0.00    +0.073 C 
ENDROOT
BRANCH   4  19
ATOM     19  C   UNL     1       2.717   0.819  -0.729  0.00  0.00    +0.018 C 
ATOM     20  C   UNL     1       3.807   0.337  -1.453  0.00  0.00    +0.002 C 
ATOM     21  C   UNL     1       2.869   1.164   0.614  0.00  0.00    +0.002 C 
ATOM     22  C   UNL     1       5.050   0.200  -0.834  0.00  0.00    +0.036 C 
ATOM     23  C   UNL     1       4.112   1.027   1.233  0.00  0.00    +0.036 C 
ATOM     24  C   UNL     1       5.202   0.545   0.509  0.00  0.00    +0.134 C 
BRANCH  24  25
ATOM     25  O   UNL     1       6.415   0.411   1.112  0.00  0.00    -0.506 OA
ATOM     26  H   UNL     1       7.147   0.087   0.625  0.00  0.00    +0.292 HD
ENDBRANCH  24  25
ENDBRANCH   4  19
BRANCH   7  27
ATOM     27  C   UNL     1      -1.589  -0.798   1.848  0.00  0.00    -0.011 C 
ATOM     28  C   UNL     1      -0.506  -1.524   2.338  0.00  0.00    -0.000 C 
ATOM     29  C   UNL     1      -2.129   0.248   2.592  0.00  0.00    -0.000 C 
ATOM     30  C   UNL     1       0.040  -1.202   3.580  0.00  0.00    +0.036 C 
ATOM     31  C   UNL     1      -1.583   0.569   3.835  0.00  0.00    +0.036 C 
ATOM     32  C   UNL     1      -0.498  -0.156   4.329  0.00  0.00    +0.134 C 
BRANCH  32  33
ATOM     33  O   UNL     1       0.034   0.157   5.542  0.00  0.00    -0.506 OA
ATOM     34  H   UNL     1       0.763  -0.330   5.873  0.00  0.00    +0.292 HD
ENDBRANCH  32  33
ENDBRANCH   7  27
BRANCH  13  35
ATOM     35  O   UNL     1      -2.639  -3.821  -0.385  0.00  0.00    -0.506 OA
ATOM     36  H   UNL     1      -3.210  -3.392   0.222  0.00  0.00    +0.292 HD
ENDBRANCH  13  35
BRANCH  16  37
ATOM     37  O   UNL     1      -3.196   4.586  -1.740  0.00  0.00    -0.505 OA
ATOM     38  H   UNL     1      -4.126   4.541  -1.632  0.00  0.00    +0.292 HD
ENDBRANCH  16  37
BRANCH  17  39
ATOM     39  O   UNL     1       1.176  -3.901  -3.185  0.00  0.00    -0.505 OA
ATOM     40  H   UNL     1       1.931  -3.480  -3.547  0.00  0.00    +0.292 HD
ENDBRANCH  17  39
TORSDOF 7
