REMARK  Name = 11162706
REMARK  10 active torsions:
REMARK  status: ('A' for Active; 'I' for Inactive)
REMARK    1  A    between atoms: C_2  and  C_23
REMARK    2  A    between atoms: CA_3  and  C_11
REMARK    3  A    between atoms: C_6  and  C_14
REMARK    4  A    between atoms: C_11  and  O_12
REMARK    5  A    between atoms: C_15  and  C_16
REMARK    6  A    between atoms: C_16  and  C_17
REMARK    7  A    between atoms: C_17  and  C_20
REMARK    8  A    between atoms: C_20  and  O_21
REMARK    9  A    between atoms: C_23  and  C_25
REMARK   10  A    between atoms: C_25  and  O_26
REMARK                            x       y       z     vdW  Elec       q    Type
REMARK                         _______ _______ _______ _____ _____    ______ ____
ROOT
ATOM      1  N   UNL     1      -3.402   1.394  -0.654  0.00  0.00    +0.395 N 
ATOM      2  C   UNL     1      -1.651  -0.152  -0.156  0.00  0.00    +0.018 C 
ATOM      3  CA  UNL     1      -3.018   0.358   0.312  0.00  0.00    +0.044 C 
ATOM      4  C   UNL     1      -1.078   1.063  -0.840  0.00  0.00    -0.071 C 
ATOM      5  C   UNL     1      -2.162   2.074  -1.048  0.00  0.00    -0.058 C 
ATOM      6  C   UNL     1       0.203   1.236  -1.183  0.00  0.00    -0.032 C 
ATOM      7  C   UNL     1       0.661   2.532  -1.792  0.00  0.00    +0.030 C 
ATOM      8  H1  UNL     1      -4.046   2.057  -0.222  0.00  0.00    -0.083 HD
ATOM      9  H2  UNL     1      -3.874   0.988  -1.462  0.00  0.00    -0.083 HD
ENDROOT
BRANCH   3  11
ATOM     10  OXT UNL     1      -3.191   2.152   1.926  0.00  0.00    -0.253 OA
ATOM     11  C   UNL     1      -2.958   0.979   1.677  0.00  0.00    +0.294 C 
BRANCH  11  12
ATOM     12  O   UNL     1      -2.606   0.057   2.607  0.00  0.00    -0.482 OA
ATOM     13  H   UNL     1      -2.441  -0.829   2.349  0.00  0.00    +0.295 HD
ENDBRANCH  11  12
ENDBRANCH   3  11
BRANCH   6  14
ATOM     14  C   UNL     1       1.167   0.165  -0.966  0.00  0.00    -0.010 C 
ATOM     15  C   UNL     1       2.477   0.201  -1.262  0.00  0.00    -0.026 C 
BRANCH  15  16
ATOM     16  C   UNL     1       3.415  -0.950  -1.012  0.00  0.00    +0.037 C 
BRANCH  16  17
ATOM     17  C   UNL     1       4.556  -0.638  -0.028  0.00  0.00    +0.103 C 
ATOM     18  C   UNL     1       5.485   0.471  -0.522  0.00  0.00    +0.012 C 
BRANCH  17  20
ATOM     19  O   UNL     1       4.210   0.723   1.972  0.00  0.00    -0.250 OA
ATOM     20  C   UNL     1       4.015  -0.313   1.353  0.00  0.00    +0.314 C 
BRANCH  20  21
ATOM     21  O   UNL     1       3.270  -1.343   1.831  0.00  0.00    -0.480 OA
ATOM     22  H   UNL     1       3.153  -2.116   1.314  0.00  0.00    +0.295 HD
ENDBRANCH  20  21
ENDBRANCH  17  20
ENDBRANCH  16  17
ENDBRANCH  15  16
ENDBRANCH   6  14
BRANCH   2  23
ATOM     23  C   UNL     1      -1.784  -1.325  -1.128  0.00  0.00    +0.112 C 
BRANCH  23  25
ATOM     24  O   UNL     1      -2.219  -2.851   0.722  0.00  0.00    -0.250 OA
ATOM     25  C   UNL     1      -2.348  -2.546  -0.454  0.00  0.00    +0.314 C 
BRANCH  25  26
ATOM     26  O   UNL     1      -3.042  -3.289  -1.354  0.00  0.00    -0.480 OA
ATOM     27  H   UNL     1      -3.107  -3.005  -2.245  0.00  0.00    +0.295 HD
ENDBRANCH  25  26
ENDBRANCH  23  25
ENDBRANCH   2  23
TORSDOF 10
