REMARK  Name = 11165377
REMARK  9 active torsions:
REMARK  status: ('A' for Active; 'I' for Inactive)
REMARK    1  A    between atoms: C_4  and  C_20
REMARK    2  A    between atoms: C_6  and  C_27
REMARK    3  A    between atoms: C_7  and  O_17
REMARK    4  A    between atoms: C_13  and  O_25
REMARK    5  A    between atoms: C_20  and  C_21
REMARK    6  A    between atoms: C_21  and  C_22
REMARK    7  A    between atoms: C_22  and  C_23
REMARK    8  A    between atoms: C_27  and  C_29
REMARK    9  A    between atoms: C_29  and  O_30
REMARK                            x       y       z     vdW  Elec       q    Type
REMARK                         _______ _______ _______ _____ _____    ______ ____
ROOT
ATOM      1  O   UNL     1      -2.460  -2.431  -0.114  0.00  0.00    -0.286 OA
ATOM      2  O   UNL     1      -2.441   2.899   0.280  0.00  0.00    -0.287 OA
ATOM      3  C   UNL     1      -1.197  -0.483   0.254  0.00  0.00    +0.076 C 
ATOM      4  C   UNL     1       1.186  -0.519   0.675  0.00  0.00    +0.065 C 
ATOM      5  C   UNL     1      -1.193   0.910   0.358  0.00  0.00    +0.045 C 
ATOM      6  C   UNL     1       1.190   0.870   0.779  0.00  0.00    -0.005 C 
ATOM      7  C   UNL     1      -0.004  -1.198   0.413  0.00  0.00    +0.139 C 
ATOM      8  C   UNL     1       0.004   1.587   0.621  0.00  0.00    -0.000 C 
ATOM      9  C   UNL     1      -3.704  -0.442  -0.188  0.00  0.00    +0.076 C 
ATOM     10  C   UNL     1      -2.453  -1.210  -0.023  0.00  0.00    +0.202 C 
ATOM     11  C   UNL     1      -3.700   0.950  -0.084  0.00  0.00    +0.045 C 
ATOM     12  C   UNL     1      -2.444   1.677   0.192  0.00  0.00    +0.196 C 
ATOM     13  C   UNL     1      -4.901  -1.119  -0.449  0.00  0.00    +0.137 C 
ATOM     14  C   UNL     1      -4.893   1.665  -0.241  0.00  0.00    +0.003 C 
ATOM     15  C   UNL     1      -6.088  -0.403  -0.605  0.00  0.00    +0.037 C 
ATOM     16  C   UNL     1      -6.084   0.987  -0.501  0.00  0.00    +0.003 C 
ENDROOT
BRANCH   7  17
ATOM     17  O   UNL     1       0.042  -2.560   0.320  0.00  0.00    -0.505 OA
ATOM     18  H   UNL     1      -0.741  -3.044   0.144  0.00  0.00    +0.292 HD
ENDBRANCH   7  17
BRANCH   4  20
ATOM     19  O   UNL     1       2.781  -1.667   1.967  0.00  0.00    -0.291 OA
ATOM     20  C   UNL     1       2.430  -1.265   0.842  0.00  0.00    +0.176 C 
BRANCH  20  21
ATOM     21  C   UNL     1       3.315  -1.557  -0.381  0.00  0.00    +0.069 C 
BRANCH  21  22
ATOM     22  C   UNL     1       4.806  -1.632  -0.046  0.00  0.00    +0.008 C 
BRANCH  22  23
ATOM     23  C   UNL     1       5.645  -1.886  -1.298  0.00  0.00    +0.000 C 
ATOM     24  C   UNL     1       7.130  -1.924  -0.975  0.00  0.00    +0.000 C 
ENDBRANCH  22  23
ENDBRANCH  21  22
ENDBRANCH  20  21
ENDBRANCH   4  20
BRANCH  13  25
ATOM     25  O   UNL     1      -4.979  -2.476  -0.563  0.00  0.00    -0.505 OA
ATOM     26  H   UNL     1      -4.207  -2.999  -0.466  0.00  0.00    +0.292 HD
ENDBRANCH  13  25
BRANCH   6  27
ATOM     27  C   UNL     1       2.451   1.622   1.060  0.00  0.00    +0.136 C 
BRANCH  27  29
ATOM     28  O   UNL     1       2.824   1.814  -1.337  0.00  0.00    -0.250 OA
ATOM     29  C   UNL     1       3.202   2.026  -0.193  0.00  0.00    +0.322 C 
BRANCH  29  30
ATOM     30  O   UNL     1       4.359   2.661   0.162  0.00  0.00    -0.444 OA
ATOM     31  C   UNL     1       5.177   3.104  -0.925  0.00  0.00    +0.256 C 
ENDBRANCH  29  30
ENDBRANCH  27  29
ENDBRANCH   6  27
TORSDOF 9
