REMARK  Name = 11165858
REMARK  7 active torsions:
REMARK  status: ('A' for Active; 'I' for Inactive)
REMARK    1  A    between atoms: C_6  and  O_23
REMARK    2  A    between atoms: C_7  and  O_21
REMARK    3  A    between atoms: C_7  and  C_26
REMARK    4  A    between atoms: C_8  and  C_15
REMARK    5  A    between atoms: C_16  and  C_17
REMARK    6  A    between atoms: C_18  and  C_19
REMARK    7  A    between atoms: C_26  and  C_27
REMARK                            x       y       z     vdW  Elec       q    Type
REMARK                         _______ _______ _______ _____ _____    ______ ____
ROOT
ATOM      1  O   UNL     1       1.216   0.135  -0.441  0.00  0.00    -0.466 OA
ATOM      2  O   UNL     1       2.595   3.329  -0.290  0.00  0.00    -0.287 OA
ATOM      3  O   UNL     1       0.210   2.239  -2.425  0.00  0.00    -0.271 OA
ATOM      4  N   UNL     1      -1.284   1.998  -0.638  0.00  0.00    -0.275 N 
ATOM      5  C   UNL     1       0.971   1.529  -0.216  0.00  0.00    +0.282 C 
ATOM      6  C   UNL     1       0.238   1.735   1.119  0.00  0.00    +0.213 C 
ATOM      7  C   UNL     1      -1.232   1.572   0.732  0.00  0.00    +0.238 C 
ATOM      8  C   UNL     1       2.603  -0.028  -0.532  0.00  0.00    +0.146 C 
ATOM      9  C   UNL     1       2.335   2.136  -0.314  0.00  0.00    +0.219 C 
ATOM     10  C   UNL     1      -0.036   1.975  -1.258  0.00  0.00    +0.270 C 
ATOM     11  C   UNL     1       3.339   1.087  -0.469  0.00  0.00    +0.049 C 
ATOM     12  C   UNL     1       4.795   1.326  -0.543  0.00  0.00    +0.037 C 
ATOM     13  H   UNL     1      -2.112   2.277  -1.091  0.00  0.00    +0.152 HD
ENDROOT
BRANCH   8  15
ATOM     14  O   UNL     1       4.083  -1.944   0.196  0.00  0.00    -0.341 OA
ATOM     15  C   UNL     1       3.123  -1.397  -0.700  0.00  0.00    +0.202 C 
ATOM     16  C   UNL     1       2.736  -2.419   0.315  0.00  0.00    +0.172 C 
BRANCH  16  17
ATOM     17  C   UNL     1       2.334  -3.735  -0.157  0.00  0.00    +0.001 C 
ATOM     18  C   UNL     1       1.114  -4.276  -0.016  0.00  0.00    -0.028 C 
BRANCH  18  19
ATOM     19  C   UNL     1      -0.035  -3.590   0.661  0.00  0.00    +0.026 C 
ATOM     20  C   UNL     1      -0.068  -3.900   2.149  0.00  0.00    +0.005 C 
ENDBRANCH  18  19
ENDBRANCH  16  17
ENDBRANCH   8  15
BRANCH   7  21
ATOM     21  O   UNL     1      -2.102   2.341   1.531  0.00  0.00    -0.331 OA
ATOM     22  C   UNL     1      -2.085   1.922   2.894  0.00  0.00    +0.176 C 
ENDBRANCH   7  21
BRANCH   6  23
ATOM     23  O   UNL     1       0.465   3.053   1.609  0.00  0.00    -0.377 OA
ATOM     24  H   UNL     1       1.399   3.150   1.853  0.00  0.00    +0.211 HD
ENDBRANCH   6  23
BRANCH   7  26
ATOM     25  O   UNL     1      -1.174  -0.633   1.620  0.00  0.00    -0.287 OA
ATOM     26  C   UNL     1      -1.681   0.142   0.813  0.00  0.00    +0.218 C 
BRANCH  26  27
ATOM     27  C   UNL     1      -2.757  -0.332  -0.102  0.00  0.00    +0.039 C 
ATOM     28  C   UNL     1      -2.403  -0.851  -1.327  0.00  0.00    +0.003 C 
ATOM     29  C   UNL     1      -4.067  -0.234   0.312  0.00  0.00    +0.003 C 
ATOM     30  C   UNL     1      -3.411  -1.295  -2.184  0.00  0.00    +0.000 C 
ATOM     31  C   UNL     1      -5.075  -0.678  -0.544  0.00  0.00    +0.000 C 
ATOM     32  C   UNL     1      -4.747  -1.209  -1.792  0.00  0.00    +0.000 C 
ENDBRANCH  26  27
ENDBRANCH   7  26
TORSDOF 7
