11162706
  -OEChem-03292013303D

 43 43  0     1  0  0  0  0  0999 V2000
   -2.6062    0.0569    2.6065 O   0  0  0  0  0  0  0  0  0  0  0  0
   -3.1905    2.1524    1.9256 O   0  0  0  0  0  0  0  0  0  0  0  0
   -3.0422   -3.2886   -1.3541 O   0  0  0  0  0  0  0  0  0  0  0  0
   -2.2190   -2.8507    0.7223 O   0  0  0  0  0  0  0  0  0  0  0  0
    3.2697   -1.3429    1.8308 O   0  0  0  0  0  0  0  0  0  0  0  0
    4.2095    0.7233    1.9718 O   0  0  0  0  0  0  0  0  0  0  0  0
   -3.4017    1.3938   -0.6536 N   0  0  0  0  0  0  0  0  0  0  0  0
   -1.6505   -0.1519   -0.1563 C   0  0  2  0  0  0  0  0  0  0  0  0
   -3.0184    0.3585    0.3118 C   0  0  1  0  0  0  0  0  0  0  0  0
   -1.0781    1.0633   -0.8401 C   0  0  0  0  0  0  0  0  0  0  0  0
   -2.1622    2.0741   -1.0479 C   0  0  0  0  0  0  0  0  0  0  0  0
   -1.7836   -1.3245   -1.1277 C   0  0  0  0  0  0  0  0  0  0  0  0
    0.2032    1.2356   -1.1831 C   0  0  0  0  0  0  0  0  0  0  0  0
   -2.9582    0.9787    1.6771 C   0  0  0  0  0  0  0  0  0  0  0  0
   -2.3479   -2.5461   -0.4539 C   0  0  0  0  0  0  0  0  0  0  0  0
    0.6609    2.5320   -1.7919 C   0  0  0  0  0  0  0  0  0  0  0  0
    1.1674    0.1650   -0.9662 C   0  0  0  0  0  0  0  0  0  0  0  0
    2.4768    0.2012   -1.2615 C   0  0  0  0  0  0  0  0  0  0  0  0
    3.4151   -0.9498   -1.0120 C   0  0  0  0  0  0  0  0  0  0  0  0
    4.5560   -0.6383   -0.0281 C   0  0  1  0  0  0  0  0  0  0  0  0
    5.4851    0.4710   -0.5225 C   0  0  0  0  0  0  0  0  0  0  0  0
    4.0149   -0.3131    1.3531 C   0  0  0  0  0  0  0  0  0  0  0  0
   -1.0343   -0.4367    0.7050 H   0  0  0  0  0  0  0  0  0  0  0  0
   -3.7941   -0.4140    0.3381 H   0  0  0  0  0  0  0  0  0  0  0  0
   -2.2466    2.3858   -2.0932 H   0  0  0  0  0  0  0  0  0  0  0  0
   -2.0000    2.9522   -0.4134 H   0  0  0  0  0  0  0  0  0  0  0  0
   -4.0773    2.0482   -0.2636 H   0  0  0  0  0  0  0  0  0  0  0  0
   -2.4495   -1.0446   -1.9550 H   0  0  0  0  0  0  0  0  0  0  0  0
   -0.8308   -1.6220   -1.5743 H   0  0  0  0  0  0  0  0  0  0  0  0
    0.8230   -0.7437   -0.4833 H   0  0  0  0  0  0  0  0  0  0  0  0
    1.0516    2.3611   -2.8013 H   0  0  0  0  0  0  0  0  0  0  0  0
   -0.1208    3.2908   -1.8801 H   0  0  0  0  0  0  0  0  0  0  0  0
    1.4559    2.9784   -1.1836 H   0  0  0  0  0  0  0  0  0  0  0  0
    2.9087    1.0756   -1.7396 H   0  0  0  0  0  0  0  0  0  0  0  0
    3.8494   -1.2416   -1.9769 H   0  0  0  0  0  0  0  0  0  0  0  0
    2.8562   -1.8268   -0.6613 H   0  0  0  0  0  0  0  0  0  0  0  0
    5.1698   -1.5421    0.0841 H   0  0  0  0  0  0  0  0  0  0  0  0
   -2.5588    0.4438    3.5067 H   0  0  0  0  0  0  0  0  0  0  0  0
   -3.4250   -4.0942   -0.9457 H   0  0  0  0  0  0  0  0  0  0  0  0
    5.8710    0.2408   -1.5209 H   0  0  0  0  0  0  0  0  0  0  0  0
    4.9816    1.4426   -0.5627 H   0  0  0  0  0  0  0  0  0  0  0  0
    6.3426    0.5810    0.1510 H   0  0  0  0  0  0  0  0  0  0  0  0
    2.9096   -1.1507    2.7228 H   0  0  0  0  0  0  0  0  0  0  0  0
  1 14  1  0  0  0  0
  1 38  1  0  0  0  0
  2 14  2  0  0  0  0
  3 15  1  0  0  0  0
  3 39  1  0  0  0  0
  4 15  2  0  0  0  0
  5 22  1  0  0  0  0
  5 43  1  0  0  0  0
  6 22  2  0  0  0  0
  7  9  1  0  0  0  0
  7 11  1  0  0  0  0
  7 27  1  0  0  0  0
  8  9  1  0  0  0  0
  8 10  1  0  0  0  0
  8 12  1  0  0  0  0
  8 23  1  0  0  0  0
  9 14  1  0  0  0  0
  9 24  1  0  0  0  0
 10 11  1  0  0  0  0
 10 13  2  0  0  0  0
 11 25  1  0  0  0  0
 11 26  1  0  0  0  0
 12 15  1  0  0  0  0
 12 28  1  0  0  0  0
 12 29  1  0  0  0  0
 13 16  1  0  0  0  0
 13 17  1  0  0  0  0
 16 31  1  0  0  0  0
 16 32  1  0  0  0  0
 16 33  1  0  0  0  0
 17 18  2  0  0  0  0
 17 30  1  0  0  0  0
 18 19  1  0  0  0  0
 18 34  1  0  0  0  0
 19 20  1  0  0  0  0
 19 35  1  0  0  0  0
 19 36  1  0  0  0  0
 20 21  1  0  0  0  0
 20 22  1  0  0  0  0
 20 37  1  0  0  0  0
 21 40  1  0  0  0  0
 21 41  1  0  0  0  0
 21 42  1  0  0  0  0
M  END
> <PUBCHEM_COMPOUND_CID>
11162706

> <PUBCHEM_CONFORMER_RMSD>
0.8

> <PUBCHEM_CONFORMER_DIVERSEORDER>
1
38
56
32
54
35
12
16
39
41
44
31
7
49
34
36
3
28
47
6
52
2
48
24
21
45
37
5
30
51
40
10
25
15
9
43
17
18
26
46
33
55
19
20
13
42
29
14
8
11
57
27
23
53
4
22
50

> <PUBCHEM_MMFF94_PARTIAL_CHARGES>
27
1 -0.65
10 -0.28
11 0.41
12 0.06
13 -0.14
14 0.66
15 0.66
16 0.14
17 -0.15
18 -0.29
19 0.14
2 -0.57
20 0.06
22 0.66
27 0.36
3 -0.65
30 0.15
34 0.15
38 0.5
39 0.5
4 -0.57
43 0.5
5 -0.65
6 -0.57
7 -0.9
8 0.14
9 0.33

> <PUBCHEM_EFFECTIVE_ROTOR_COUNT>
7.8

> <PUBCHEM_PHARMACOPHORE_FEATURES>
14
1 1 acceptor
1 16 hydrophobe
1 2 acceptor
1 21 hydrophobe
1 3 acceptor
1 4 acceptor
1 5 acceptor
1 6 acceptor
1 7 cation
1 7 donor
3 1 2 14 anion
3 3 4 15 anion
3 5 6 22 anion
5 7 8 9 10 11 rings

> <PUBCHEM_HEAVY_ATOM_COUNT>
22

> <PUBCHEM_ATOM_DEF_STEREO_COUNT>
3

> <PUBCHEM_ATOM_UDEF_STEREO_COUNT>
0

> <PUBCHEM_BOND_DEF_STEREO_COUNT>
2

> <PUBCHEM_BOND_UDEF_STEREO_COUNT>
0

> <PUBCHEM_ISOTOPIC_ATOM_COUNT>
0

> <PUBCHEM_COMPONENT_COUNT>
1

> <PUBCHEM_CACTVS_TAUTO_COUNT>
1

> <PUBCHEM_CONFORMER_ID>
00AA545200000001

> <PUBCHEM_MMFF94_ENERGY>
37.3306

> <PUBCHEM_FEATURE_SELFOVERLAP>
71.218

> <PUBCHEM_SHAPE_FINGERPRINT>
10366900 7 17561078069286230908
11370993 144 17845661343972901014
11552529 35 18059849614746268110
12539773 59 17392164379513617185
12553582 1 17967253109188900382
12596599 1 18342451556647031336
12633257 1 18200021851272031394
12670545 47 18131058325835986908
13083527 12 17910095147199786494
13224815 77 17240478092387700912
13583140 156 17167867460769850100
14178342 30 18272100399912486822
14289901 80 17203317953574943254
15099037 8 18191871330077661247
15375462 189 17748835124420862452
15537594 2 17895208675136456734
20261772 1 18187651271549162226
20681651 13 18338503193016736914
21033648 29 18128255584402379424
21095088 737 12031202032170364810
212916 134 18057614161657200169
21315759 227 15864367894826641368
23419403 2 17484491758894778733
23559900 14 18342176610363573686
23598288 3 17677351432149669629
23728640 28 18187921742735141087
25147074 1 18192449668941381661
2838139 119 15481262670090230225
56616090 89 18196079156634824295
59444896 2 13823629444267049805
90316 7 18260824861067402580

> <PUBCHEM_SHAPE_MULTIPOLES>
412.55
9.21
2.8
2.12
11.52
1.32
-1.38
1.14
-3.02
-3.25
1.11
-0.45
-0.2
-1.47

> <PUBCHEM_SHAPE_SELFOVERLAP>
840.699

> <PUBCHEM_SHAPE_VOLUME>
239

> <PUBCHEM_COORDINATE_TYPE>
2
5
10

$$$$
