REMARK  Name = 11172711
REMARK  2 active torsions:
REMARK  status: ('A' for Active; 'I' for Inactive)
REMARK    1  A    between atoms: C_8  and  O_19
REMARK    2  A    between atoms: C_10  and  O_21
REMARK                            x       y       z     vdW  Elec       q    Type
REMARK                         _______ _______ _______ _____ _____    ______ ____
ROOT
ATOM      1  O   UNL     1      -2.270  -0.321  -1.262  0.00  0.00    -0.334 OA
ATOM      2  N   UNL     1      -0.165  -0.344  -0.293  0.00  0.00    -0.224 N 
ATOM      3  N   UNL     1       0.860   1.519   0.358  0.00  0.00    -0.383 NA
ATOM      4  N   UNL     1       1.739  -1.843  -0.494  0.00  0.00    -0.227 NA
ATOM      5  N   UNL     1       3.815  -0.692   0.070  0.00  0.00    -0.227 NA
ATOM      6  C   UNL     1      -2.759   0.534  -0.195  0.00  0.00    +0.179 C 
ATOM      7  C   UNL     1      -1.312  -1.177  -0.608  0.00  0.00    +0.201 C 
ATOM      8  C   UNL     1      -2.959  -0.442   0.968  0.00  0.00    +0.145 C 
ATOM      9  C   UNL     1      -2.040  -1.623   0.651  0.00  0.00    +0.083 C 
ATOM     10  C   UNL     1      -1.664   1.592   0.077  0.00  0.00    +0.207 C 
ATOM     11  C   UNL     1      -0.306   0.976   0.070  0.00  0.00    +0.196 C 
ATOM     12  C   UNL     1       1.153  -0.665  -0.232  0.00  0.00    +0.169 C 
ATOM     13  C   UNL     1       1.776   0.508   0.173  0.00  0.00    +0.195 C 
ATOM     14  C   UNL     1       3.159   0.467   0.321  0.00  0.00    +0.155 C 
ATOM     15  C   UNL     1       3.075  -1.759  -0.316  0.00  0.00    +0.253 C 
ATOM     16  N   UNL     1       3.872   1.607   0.728  0.00  0.00    -0.341 N 
ATOM     17  H   UNL     1       4.851   1.566   0.829  0.00  0.00    +0.144 HD
ATOM     18  H   UNL     1       3.393   2.448   0.911  0.00  0.00    +0.144 HD
ENDROOT
BRANCH   8  19
ATOM     19  O   UNL     1      -4.313  -0.887   0.963  0.00  0.00    -0.382 OA
ATOM     20  H   UNL     1      -4.899  -0.141   1.164  0.00  0.00    +0.210 HD
ENDBRANCH   8  19
BRANCH  10  21
ATOM     21  O   UNL     1      -1.663   2.550  -0.978  0.00  0.00    -0.374 OA
ATOM     22  H   UNL     1      -2.528   2.985  -1.021  0.00  0.00    +0.211 HD
ENDBRANCH  10  21
TORSDOF 2
