11177588
  -OEChem-03292013303D

 45 47  0     1  0  0  0  0  0999 V2000
    5.2894   -3.9445    0.9612 Br  0  0  0  0  0  0  0  0  0  0  0  0
   -0.9476    2.3628    2.8230 O   0  0  0  0  0  0  0  0  0  0  0  0
   -1.2443    2.3134   -2.5204 O   0  0  0  0  0  0  0  0  0  0  0  0
   -2.2573    2.5562   -0.4766 N   0  0  0  0  0  0  0  0  0  0  0  0
    0.0704    1.9675    0.8073 N   0  0  0  0  0  0  0  0  0  0  0  0
    4.4869    1.2715   -0.0249 N   0  0  0  0  0  0  0  0  0  0  0  0
   -3.9522   -1.7480   -0.2929 N   0  0  0  0  0  0  0  0  0  0  0  0
   -3.5447   -3.9157   -1.0046 N   0  0  0  0  0  0  0  0  0  0  0  0
   -5.4601   -3.5576    0.1777 N   0  0  0  0  0  0  0  0  0  0  0  0
   -2.3691    2.1317    0.9046 C   0  0  1  0  0  0  0  0  0  0  0  0
   -2.9075    0.7099    1.0036 C   0  0  0  0  0  0  0  0  0  0  0  0
   -4.2837    0.5895    0.3473 C   0  0  0  0  0  0  0  0  0  0  0  0
   -1.0267    2.2342    1.6008 C   0  0  0  0  0  0  0  0  0  0  0  0
    0.0443    1.8625   -0.5610 C   0  0  0  0  0  0  0  0  0  0  0  0
   -1.1979    2.2336   -1.2959 C   0  0  0  0  0  0  0  0  0  0  0  0
   -4.8397   -0.8283    0.4207 C   0  0  0  0  0  0  0  0  0  0  0  0
    2.4213    1.1162   -0.7428 C   0  0  0  0  0  0  0  0  0  0  0  0
    1.1325    1.5068   -1.2561 C   0  0  0  0  0  0  0  0  0  0  0  0
    2.8429   -0.1846   -0.4179 C   0  0  0  0  0  0  0  0  0  0  0  0
    4.1579   -0.0640    0.0365 C   0  0  0  0  0  0  0  0  0  0  0  0
    3.4283    1.9973   -0.5010 C   0  0  0  0  0  0  0  0  0  0  0  0
    2.2536   -1.4638   -0.4572 C   0  0  0  0  0  0  0  0  0  0  0  0
    4.9161   -1.1632    0.4551 C   0  0  0  0  0  0  0  0  0  0  0  0
    2.9999   -2.5725   -0.0415 C   0  0  0  0  0  0  0  0  0  0  0  0
    4.3106   -2.4222    0.4072 C   0  0  0  0  0  0  0  0  0  0  0  0
   -4.3232   -2.9890   -0.3522 C   0  0  0  0  0  0  0  0  0  0  0  0
   -3.0528    2.8378    1.3899 H   0  0  0  0  0  0  0  0  0  0  0  0
   -2.2054    0.0098    0.5335 H   0  0  0  0  0  0  0  0  0  0  0  0
   -2.9775    0.4142    2.0581 H   0  0  0  0  0  0  0  0  0  0  0  0
   -4.9861    1.2738    0.8378 H   0  0  0  0  0  0  0  0  0  0  0  0
   -4.2302    0.8819   -0.7080 H   0  0  0  0  0  0  0  0  0  0  0  0
   -3.0987    2.9056   -0.9253 H   0  0  0  0  0  0  0  0  0  0  0  0
    0.9652    1.8637    1.2775 H   0  0  0  0  0  0  0  0  0  0  0  0
   -4.9351   -1.1256    1.4721 H   0  0  0  0  0  0  0  0  0  0  0  0
   -5.8378   -0.8308   -0.0339 H   0  0  0  0  0  0  0  0  0  0  0  0
    1.0679    1.4649   -2.3422 H   0  0  0  0  0  0  0  0  0  0  0  0
    3.5064    3.0697   -0.6164 H   0  0  0  0  0  0  0  0  0  0  0  0
    5.3809    1.6591    0.2431 H   0  0  0  0  0  0  0  0  0  0  0  0
    1.2327   -1.5982   -0.8037 H   0  0  0  0  0  0  0  0  0  0  0  0
    5.9361   -1.0318    0.8024 H   0  0  0  0  0  0  0  0  0  0  0  0
    2.5345   -3.5549   -0.0761 H   0  0  0  0  0  0  0  0  0  0  0  0
   -2.6724   -3.6479   -1.4475 H   0  0  0  0  0  0  0  0  0  0  0  0
   -3.8166   -4.8910   -1.0616 H   0  0  0  0  0  0  0  0  0  0  0  0
   -5.6487   -4.5482    0.0680 H   0  0  0  0  0  0  0  0  0  0  0  0
   -6.1451   -3.0174    0.6941 H   0  0  0  0  0  0  0  0  0  0  0  0
  1 25  1  0  0  0  0
  2 13  2  0  0  0  0
  3 15  2  0  0  0  0
  4 10  1  0  0  0  0
  4 15  1  0  0  0  0
  4 32  1  0  0  0  0
  5 13  1  0  0  0  0
  5 14  1  0  0  0  0
  5 33  1  0  0  0  0
  6 20  1  0  0  0  0
  6 21  1  0  0  0  0
  6 38  1  0  0  0  0
  7 16  1  0  0  0  0
  7 26  2  0  0  0  0
  8 26  1  0  0  0  0
  8 42  1  0  0  0  0
  8 43  1  0  0  0  0
  9 26  1  0  0  0  0
  9 44  1  0  0  0  0
  9 45  1  0  0  0  0
 10 11  1  0  0  0  0
 10 13  1  0  0  0  0
 10 27  1  0  0  0  0
 11 12  1  0  0  0  0
 11 28  1  0  0  0  0
 11 29  1  0  0  0  0
 12 16  1  0  0  0  0
 12 30  1  0  0  0  0
 12 31  1  0  0  0  0
 14 15  1  0  0  0  0
 14 18  2  0  0  0  0
 16 34  1  0  0  0  0
 16 35  1  0  0  0  0
 17 18  1  0  0  0  0
 17 19  1  0  0  0  0
 17 21  2  0  0  0  0
 18 36  1  0  0  0  0
 19 20  2  0  0  0  0
 19 22  1  0  0  0  0
 20 23  1  0  0  0  0
 21 37  1  0  0  0  0
 22 24  2  0  0  0  0
 22 39  1  0  0  0  0
 23 25  2  0  0  0  0
 23 40  1  0  0  0  0
 24 25  1  0  0  0  0
 24 41  1  0  0  0  0
M  END
> <PUBCHEM_COMPOUND_CID>
11177588

> <PUBCHEM_CONFORMER_RMSD>
0.8

> <PUBCHEM_CONFORMER_DIVERSEORDER>
1
54
80
115
141
100
10
123
146
13
47
144
163
17
18
164
92
25
168
129
88
67
161
49
145
108
6
152
82
155
118
162
151
21
8
159
134
143
93
105
97
29
157
104
165
60
125
127
42
50
69
167
66
37
133
63
166
20
124
57
58
120
119
130
56
99
95
137
147
33
59
32
90
121
14
7
136
148
52
107
116
114
112
142
39
77
28
96
85
131
35
75
113
15
22
11
89
153
84
98
135
44
158
40
91
126
109
79
38
23
122
149
24
138
65
61
106
94
36
102
160
26
81
83
41
150
45
154
34
3
48
86
72
51
128
53
55
31
117
62
64
111
2
76
12
101
68
70
16
71
19
139
140
5
4
9
27
103
156
46
43
87
74
132
73
30
78
110

> <PUBCHEM_MMFF94_PARTIAL_CHARGES>
35
1 -0.11
10 0.36
13 0.57
14 0.12
15 0.62
16 0.25
17 -0.05
18 -0.1
2 -0.57
20 -0.15
21 -0.3
22 -0.15
23 -0.15
24 -0.15
25 0.11
26 0.55
3 -0.57
32 0.37
33 0.37
36 0.15
37 0.15
38 0.27
39 0.15
4 -0.73
40 0.15
41 0.15
42 0.4
43 0.4
44 0.4
45 0.4
5 -0.54
6 0.03
7 -0.7
8 -0.85
9 -0.85

> <PUBCHEM_EFFECTIVE_ROTOR_COUNT>
5.6

> <PUBCHEM_PHARMACOPHORE_FEATURES>
13
1 1 hydrophobe
1 2 acceptor
1 3 acceptor
1 4 donor
1 5 donor
1 6 cation
1 6 donor
1 8 donor
1 9 donor
4 7 8 9 26 cation
5 6 17 19 20 21 rings
6 19 20 22 23 24 25 rings
6 4 5 10 13 14 15 rings

> <PUBCHEM_HEAVY_ATOM_COUNT>
26

> <PUBCHEM_ATOM_DEF_STEREO_COUNT>
1

> <PUBCHEM_ATOM_UDEF_STEREO_COUNT>
0

> <PUBCHEM_BOND_DEF_STEREO_COUNT>
1

> <PUBCHEM_BOND_UDEF_STEREO_COUNT>
0

> <PUBCHEM_ISOTOPIC_ATOM_COUNT>
0

> <PUBCHEM_COMPONENT_COUNT>
1

> <PUBCHEM_CACTVS_TAUTO_COUNT>
12

> <PUBCHEM_CONFORMER_ID>
00AA8E7400000001

> <PUBCHEM_MMFF94_ENERGY>
69.1261

> <PUBCHEM_FEATURE_SELFOVERLAP>
66.126

> <PUBCHEM_SHAPE_FINGERPRINT>
10074138 170 17344362046761183969
10622 236 18335695027150418571
10928967 22 17973743375988502162
11552529 35 18342460296515283136
11963148 33 17900256400267201954
12174731 88 18118958101040269714
12596599 1 17982465801646681480
12969540 37 18124307474623087041
13583140 156 18059564729507950288
13631057 29 18270125737322027668
14848178 5 18409722984948155361
14950920 106 18059573534116333456
15664445 248 11177020190472445873
19141452 34 18263369079635227109
20775530 9 18409457998187831683
21049683 118 15620346411716566737
23559900 14 18262513676747769324
3246872 21 18052254295521954495
3797600 57 17775014509163480808
4435113 14 16234219632336669779
46194498 28 17026270322426394375
463206 1 18338525239231787931
66674814 147 17822851016939255259

> <PUBCHEM_SHAPE_MULTIPOLES>
499.39
12.1
5.18
1.54
1.92
5.22
-0.34
13.69
-1.76
-2.75
0.33
-0.86
-1.28
-2.14

> <PUBCHEM_SHAPE_SELFOVERLAP>
1060.781

> <PUBCHEM_SHAPE_VOLUME>
283.6

> <PUBCHEM_COORDINATE_TYPE>
2
5
10

$$$$
