REMARK  Name = 11173202
REMARK  5 active torsions:
REMARK  status: ('A' for Active; 'I' for Inactive)
REMARK    1  A    between atoms: N_1  and  C1*_13
REMARK    2  A    between atoms: C2*_11  and  O2*_15
REMARK    3  A    between atoms: C3*_12  and  O3*_17
REMARK    4  A    between atoms: C4*_14  and  C5*_19
REMARK    5  A    between atoms: C5*_19  and  O5*_20
REMARK                            x       y       z     vdW  Elec       q    Type
REMARK                         _______ _______ _______ _____ _____    ______ ____
ROOT
ATOM      1  N   UNL     1      -0.230  -0.286  -0.129  0.00  0.00    -0.168 N 
ATOM      2  N   UNL     1      -0.216  -1.585   0.234  0.00  0.00    -0.177 NA
ATOM      3  N   UNL     1      -1.848   1.476  -0.536  0.00  0.00    -0.127 NA
ATOM      4  N   UNL     1      -4.024   0.815  -0.233  0.00  0.00    -0.129 NA
ATOM      5  N   UNL     1      -3.097   1.726  -0.538  0.00  0.00    -0.012 NA
ATOM      6  C   UNL     1      -1.488   0.233  -0.207  0.00  0.00    +0.163 C 
ATOM      7  C   UNL     1      -2.350  -0.785   0.125  0.00  0.00    +0.156 C 
ATOM      8  C   UNL     1      -1.512  -1.882   0.388  0.00  0.00    +0.106 C 
ATOM      9  C   UNL     1      -3.689  -0.456   0.105  0.00  0.00    +0.136 C 
ATOM     10  N   UNL     1      -4.684  -1.396   0.422  0.00  0.00    -0.344 N 
ATOM     11  H   UNL     1      -5.633  -1.134   0.401  0.00  0.00    +0.143 HD
ATOM     12  H   UNL     1      -4.432  -2.316   0.667  0.00  0.00    +0.143 HD
ENDROOT
BRANCH   1  16
ATOM     13  O4* UNL     1       1.984  -0.514  -0.950  0.00  0.00    -0.332 OA
ATOM     14  C2* UNL     1       1.683   0.995   0.850  0.00  0.00    +0.188 C 
ATOM     15  C3* UNL     1       3.138   1.047   0.428  0.00  0.00    +0.171 C 
ATOM     16  C1* UNL     1       1.029   0.408  -0.391  0.00  0.00    +0.243 C 
ATOM     17  C4* UNL     1       3.287  -0.234  -0.386  0.00  0.00    +0.176 C 
BRANCH  14  18
ATOM     18  O2* UNL     1       1.154   2.265   1.174  0.00  0.00    -0.378 OA
ATOM     19  H2* UNL     1       1.595   2.605   1.968  0.00  0.00    +0.211 HD
ENDBRANCH  14  18
BRANCH  15  20
ATOM     20  O3* UNL     1       3.344   2.167  -0.433  0.00  0.00    -0.379 OA
ATOM     21  H3* UNL     1       3.251   2.987   0.075  0.00  0.00    +0.211 HD
ENDBRANCH  15  20
BRANCH  17  22
ATOM     22  C5* UNL     1       3.710  -1.428   0.458  0.00  0.00    +0.169 C 
BRANCH  22  23
ATOM     23  O5* UNL     1       3.810  -2.565  -0.382  0.00  0.00    -0.379 OA
ATOM     24  H5* UNL     1       4.079  -3.333   0.145  0.00  0.00    +0.211 HD
ENDBRANCH  22  23
ENDBRANCH  17  22
ENDBRANCH   1  16
TORSDOF 5
