REMARK  Name = 11178395
REMARK  8 active torsions:
REMARK  status: ('A' for Active; 'I' for Inactive)
REMARK    1  A    between atoms: C_4  and  O_17
REMARK    2  A    between atoms: C_4  and  C_24
REMARK    3  A    between atoms: C_6  and  O_19
REMARK    4  A    between atoms: C_8  and  O_21
REMARK    5  A    between atoms: C_24  and  C_25
REMARK    6  A    between atoms: C_25  and  C_27
REMARK    7  A    between atoms: C_27  and  C_29
REMARK    8  A    between atoms: C_30  and  O_35
REMARK                            x       y       z     vdW  Elec       q    Type
REMARK                         _______ _______ _______ _____ _____    ______ ____
ROOT
ATOM      1  O   UNL     1       2.431  -2.214   0.852  0.00  0.00    -0.328 OA
ATOM      2  C   UNL     1       2.560   1.297  -0.177  0.00  0.00    +0.034 C 
ATOM      3  C   UNL     1       3.751   0.421   0.249  0.00  0.00    +0.008 C 
ATOM      4  C   UNL     1       1.238   0.537   0.041  0.00  0.00    +0.169 C 
ATOM      5  C   UNL     1       3.842  -0.857  -0.589  0.00  0.00    +0.054 C 
ATOM      6  C   UNL     1       1.246  -0.820  -0.752  0.00  0.00    +0.181 C 
ATOM      7  C   UNL     1       2.832   2.564   0.661  0.00  0.00    +0.003 C 
ATOM      8  C   UNL     1       2.524  -1.683  -0.481  0.00  0.00    +0.213 C 
ATOM      9  C   UNL     1       4.929   1.386   0.140  0.00  0.00    +0.000 C 
ATOM     10  C   UNL     1       4.360   2.746   0.554  0.00  0.00    +0.000 C 
ATOM     11  C   UNL     1       5.078  -1.667  -0.152  0.00  0.00    +0.005 C 
ATOM     12  C   UNL     1       0.012  -1.634  -0.422  0.00  0.00    +0.001 C 
ATOM     13  C   UNL     1       2.090   3.813   0.206  0.00  0.00    +0.000 C 
ATOM     14  C   UNL     1       0.061  -2.705   0.388  0.00  0.00    -0.016 C 
ATOM     15  C   UNL     1       1.355  -3.144   1.023  0.00  0.00    +0.167 C 
ATOM     16  C   UNL     1      -1.151  -3.524   0.708  0.00  0.00    +0.029 C 
ENDROOT
BRANCH   4  17
ATOM     17  O   UNL     1       1.076   0.330   1.442  0.00  0.00    -0.377 OA
ATOM     18  H   UNL     1       1.804  -0.217   1.775  0.00  0.00    +0.211 HD
ENDBRANCH   4  17
BRANCH   6  19
ATOM     19  O   UNL     1       1.186  -0.537  -2.159  0.00  0.00    -0.376 OA
ATOM     20  H   UNL     1       1.961  -0.014  -2.417  0.00  0.00    +0.211 HD
ENDBRANCH   6  19
BRANCH   8  21
ATOM     21  O   UNL     1       2.553  -2.734  -1.464  0.00  0.00    -0.362 OA
ATOM     22  H   UNL     1       3.337  -3.288  -1.323  0.00  0.00    +0.213 HD
ENDBRANCH   8  21
BRANCH   4  24
ATOM     23  O   UNL     1       0.196   2.190  -1.329  0.00  0.00    -0.294 OA
ATOM     24  C   UNL     1       0.077   1.390  -0.401  0.00  0.00    +0.177 C 
BRANCH  24  25
ATOM     25  C   UNL     1      -1.247   1.177   0.329  0.00  0.00    +0.061 C 
ATOM     26  C   UNL     1      -1.273   2.083   1.557  0.00  0.00    +0.008 C 
BRANCH  25  27
ATOM     27  C   UNL     1      -2.453   1.461  -0.579  0.00  0.00    +0.018 C 
BRANCH  27  29
ATOM     28  O   UNL     1      -3.074  -0.701   1.449  0.00  0.00    -0.292 OA
ATOM     29  C   UNL     1      -3.782   1.200   0.118  0.00  0.00    +0.093 C 
ATOM     30  C   UNL     1      -4.973   1.256  -0.846  0.00  0.00    +0.139 C 
ATOM     31  C   UNL     1      -3.836  -0.224   0.620  0.00  0.00    +0.171 C 
ATOM     32  C   UNL     1      -5.528  -0.134  -0.844  0.00  0.00    +0.002 C 
ATOM     33  C   UNL     1      -4.915  -0.992  -0.026  0.00  0.00    +0.011 C 
ATOM     34  C   UNL     1      -5.191  -2.419   0.240  0.00  0.00    +0.034 C 
BRANCH  30  35
ATOM     35  O   UNL     1      -5.974   2.138  -0.356  0.00  0.00    -0.380 OA
ATOM     36  H   UNL     1      -5.631   3.045  -0.350  0.00  0.00    +0.211 HD
ENDBRANCH  30  35
ENDBRANCH  27  29
ENDBRANCH  25  27
ENDBRANCH  24  25
ENDBRANCH   4  24
TORSDOF 8
