REMARK  Name = 11174640
REMARK  6 active torsions:
REMARK  status: ('A' for Active; 'I' for Inactive)
REMARK    1  A    between atoms: N_2  and  C_16
REMARK    2  A    between atoms: C_3  and  C_9
REMARK    3  A    between atoms: N_7  and  C_14
REMARK    4  A    between atoms: C_8  and  C_12
REMARK    5  A    between atoms: C_16  and  C_18
REMARK    6  A    between atoms: C_16  and  C_23
REMARK                            x       y       z     vdW  Elec       q    Type
REMARK                         _______ _______ _______ _____ _____    ______ ____
ROOT
ATOM      1  O   UNL     1       0.828   1.591   1.253  0.00  0.00    -0.274 OA
ATOM      2  N   UNL     1       1.181  -0.608   0.691  0.00  0.00    -0.289 N 
ATOM      3  C   UNL     1       0.330   0.507   0.857  0.00  0.00    +0.240 C 
ATOM      4  H   UNL     1       0.783  -1.453   0.380  0.00  0.00    +0.151 HD
ENDROOT
BRANCH   3   9
ATOM      5  S   UNL     1      -1.607  -1.183  -0.038  0.00  0.00    -0.052 S 
ATOM      6  N   UNL     1      -3.328   0.732   0.195  0.00  0.00    -0.388 NA
ATOM      7  N   UNL     1      -4.204  -1.317  -0.596  0.00  0.00    -0.303 N 
ATOM      8  C   UNL     1      -2.099   1.224   0.588  0.00  0.00    +0.108 C 
ATOM      9  C   UNL     1      -1.047   0.334   0.530  0.00  0.00    +0.179 C 
ATOM     10  C   UNL     1      -3.184  -0.524  -0.154  0.00  0.00    +0.207 C 
ATOM     11  H   UNL     1      -3.993  -2.249  -0.834  0.00  0.00    +0.150 HD
BRANCH   8  12
ATOM     12  C   UNL     1      -2.024   2.633   1.026  0.00  0.00    +0.056 C 
ATOM     13  C   UNL     1      -1.730   3.605  -0.119  0.00  0.00    +0.008 C 
ENDBRANCH   8  12
BRANCH   7  14
ATOM     14  C   UNL     1      -5.571  -0.878  -0.737  0.00  0.00    +0.090 C 
ATOM     15  C   UNL     1      -6.430  -2.007  -1.272  0.00  0.00    +0.023 C 
ENDBRANCH   7  14
ENDBRANCH   3   9
BRANCH   2  16
ATOM     16  C   UNL     1       2.602  -0.580   0.953  0.00  0.00    +0.193 C 
BRANCH  16  18
ATOM     17  S   UNL     1       4.196   1.299  -0.290  0.00  0.00    -0.088 S 
ATOM     18  C   UNL     1       3.330  -0.161  -0.303  0.00  0.00    +0.040 C 
ATOM     19  C   UNL     1       3.382  -0.824  -1.487  0.00  0.00    +0.005 C 
ATOM     20  C   UNL     1       4.169  -0.111  -2.438  0.00  0.00    +0.007 C 
ATOM     21  C   UNL     1       4.672   1.061  -1.918  0.00  0.00    +0.035 C 
ENDBRANCH  16  18
BRANCH  16  23
ATOM     22  N   UNL     1       3.457  -2.910   1.824  0.00  0.00    -0.194 NA
ATOM     23  C   UNL     1       3.079  -1.883   1.437  0.00  0.00    +0.098 C 
ENDBRANCH  16  23
ENDBRANCH   2  16
TORSDOF 6
