REMARK  Name = 11177588
REMARK  6 active torsions:
REMARK  status: ('A' for Active; 'I' for Inactive)
REMARK    1  A    between atoms: CA_5  and  CB_23
REMARK    2  A    between atoms: C_9  and  C_14
REMARK    3  A    between atoms: CB_23  and  CG_24
REMARK    4  A    between atoms: CG_24  and  CD_25
REMARK    5  A    between atoms: CD_25  and  NE_26
REMARK    6  A    between atoms: NE_26  and  CZ_29
REMARK                            x       y       z     vdW  Elec       q    Type
REMARK                         _______ _______ _______ _____ _____    ______ ____
ROOT
ATOM      1  O   ARG A   1      -0.948   2.363   2.823  0.00  0.00    -0.273 OA
ATOM      2  O   UNK A   2      -1.244   2.313  -2.520  0.00  0.00    -0.269 OA
ATOM      3  N   ARG A   1      -2.257   2.556  -0.477  0.00  0.00    -0.294 N 
ATOM      4  N   UNK A   2       0.070   1.968   0.807  0.00  0.00    -0.279 N 
ATOM      5  CA  ARG A   1      -2.369   2.132   0.905  0.00  0.00    +0.149 C 
ATOM      6  C   ARG A   1      -1.027   2.234   1.601  0.00  0.00    +0.244 C 
ATOM      7  C   UNK A   2       0.044   1.863  -0.561  0.00  0.00    +0.104 C 
ATOM      8  C   UNK A   2      -1.198   2.234  -1.296  0.00  0.00    +0.260 C 
ATOM      9  C   UNK A   2       1.133   1.507  -1.256  0.00  0.00    +0.021 C 
ATOM     10  H   ARG A   1      -2.981   3.108  -0.852  0.00  0.00    +0.150 HD
ATOM     11  H   UNK A   2       0.937   1.843   1.257  0.00  0.00    +0.155 HD
ENDROOT
BRANCH   9  14
ATOM     12 BR   UNK A   2       5.289  -3.945   0.961  0.00  0.00    -0.049 Br
ATOM     13  N   UNK A   2       4.487   1.272  -0.025  0.00  0.00    -0.312 N 
ATOM     14  C   UNK A   2       2.421   1.116  -0.743  0.00  0.00    +0.017 C 
ATOM     15  C   UNK A   2       2.843  -0.185  -0.418  0.00  0.00    +0.015 C 
ATOM     16  C   UNK A   2       4.158  -0.064   0.036  0.00  0.00    +0.049 C 
ATOM     17  C   UNK A   2       3.428   1.997  -0.501  0.00  0.00    +0.062 C 
ATOM     18  C   UNK A   2       2.254  -1.464  -0.457  0.00  0.00    +0.002 C 
ATOM     19  C   UNK A   2       4.916  -1.163   0.455  0.00  0.00    +0.021 C 
ATOM     20  C   UNK A   2       3.000  -2.572  -0.042  0.00  0.00    +0.007 C 
ATOM     21  C   UNK A   2       4.311  -2.422   0.407  0.00  0.00    +0.036 C 
ATOM     22  H   UNK A   2       5.358   1.650   0.236  0.00  0.00    +0.152 HD
ENDBRANCH   9  14
BRANCH   5  23
ATOM     23  CB  ARG A   1      -2.908   0.710   1.004  0.00  0.00    +0.031 C 
BRANCH  23  24
ATOM     24  CG  ARG A   1      -4.284   0.590   0.347  0.00  0.00    +0.029 C 
BRANCH  24  25
ATOM     25  CD  ARG A   1      -4.840  -0.828   0.421  0.00  0.00    +0.129 C 
BRANCH  25  26
ATOM     26  NE  ARG A   1      -3.952  -1.748  -0.293  0.00  0.00    -0.240 NA
BRANCH  26  29
ATOM     27  NH1 ARG A   1      -3.545  -3.916  -1.005  0.00  0.00    -0.370 N 
ATOM     28  NH2 ARG A   1      -5.460  -3.558   0.178  0.00  0.00    -0.370 N 
ATOM     29  CZ  ARG A   1      -4.323  -2.989  -0.352  0.00  0.00    +0.189 C 
ATOM     30 HH11 ARG A   1      -2.701  -3.638  -1.430  0.00  0.00    +0.159 HD
ATOM     31 HH12 ARG A   1      -3.831  -4.857  -1.047  0.00  0.00    +0.159 HD
ATOM     32 HH21 ARG A   1      -6.105  -3.001   0.672  0.00  0.00    +0.159 HD
ATOM     33 HH22 ARG A   1      -5.628  -4.521   0.063  0.00  0.00    +0.159 HD
ENDBRANCH  26  29
ENDBRANCH  25  26
ENDBRANCH  24  25
ENDBRANCH  23  24
ENDBRANCH   5  23
TORSDOF 6
