REMARK  Name = 11176685
REMARK  8 active torsions:
REMARK  status: ('A' for Active; 'I' for Inactive)
REMARK    1  A    between atoms: N_1  and  C_21
REMARK    2  A    between atoms: C_4  and  C_14
REMARK    3  A    between atoms: N_11  and  C_17
REMARK    4  A    between atoms: C_17  and  C_18
REMARK    5  A    between atoms: C_18  and  C_20
REMARK    6  A    between atoms: C_21  and  C_23
REMARK    7  A    between atoms: C_23  and  C_24
REMARK    8  A    between atoms: C_29  and  N_30
REMARK                            x       y       z     vdW  Elec       q    Type
REMARK                         _______ _______ _______ _____ _____    ______ ____
ROOT
ATOM      1  N   UNL     1      -0.171   1.242   0.426  0.00  0.00    -0.252 N 
ATOM      2  N   UNL     1      -2.204   0.753  -0.327  0.00  0.00    -0.388 NA
ATOM      3  C   UNL     1      -0.825   2.443   0.333  0.00  0.00    +0.080 C 
ATOM      4  C   UNL     1      -1.036   0.263   0.021  0.00  0.00    +0.211 C 
ATOM      5  C   UNL     1      -2.092   2.112  -0.139  0.00  0.00    +0.129 C 
ATOM      6  C   UNL     1      -0.430   3.752   0.613  0.00  0.00    +0.017 C 
ATOM      7  C   UNL     1      -3.033   3.134  -0.351  0.00  0.00    +0.086 C 
ATOM      8  C   UNL     1      -1.379   4.756   0.397  0.00  0.00    -0.003 C 
ATOM      9  C   UNL     1      -2.658   4.455  -0.076  0.00  0.00    -0.019 C 
ENDROOT
BRANCH   4  14
ATOM     10  O   UNL     1       0.410  -3.003  -0.217  0.00  0.00    -0.240 OA
ATOM     11  N   UNL     1      -2.906  -2.117   0.385  0.00  0.00    -0.313 N 
ATOM     12  N   UNL     1       0.524  -1.612  -0.249  0.00  0.00    -0.043 NA
ATOM     13  N   UNL     1      -0.907  -3.396   0.028  0.00  0.00    -0.033 NA
ATOM     14  C   UNL     1      -0.712  -1.178  -0.026  0.00  0.00    +0.201 A 
ATOM     15  C   UNL     1      -1.579  -2.252   0.142  0.00  0.00    +0.195 A 
ATOM     16  H   UNL     1      -3.270  -1.204   0.445  0.00  0.00    +0.148 HD
BRANCH  11  17
ATOM     17  C   UNL     1      -3.835  -3.229   0.565  0.00  0.00    +0.105 C 
BRANCH  17  18
ATOM     18  C   UNL     1      -5.252  -2.720   0.812  0.00  0.00    +0.127 C 
BRANCH  18  20
ATOM     19  N   UNL     1      -6.145  -1.276  -1.198  0.00  0.00    -0.196 NA
ATOM     20  C   UNL     1      -5.750  -1.913  -0.312  0.00  0.00    +0.075 C 
ENDBRANCH  18  20
ENDBRANCH  17  18
ENDBRANCH  11  17
ENDBRANCH   4  14
BRANCH   1  21
ATOM     21  C   UNL     1       1.191   1.052   0.874  0.00  0.00    +0.167 C 
BRANCH  21  23
ATOM     22  O   UNL     1       1.993   1.800  -1.271  0.00  0.00    -0.290 OA
ATOM     23  C   UNL     1       2.190   1.121  -0.266  0.00  0.00    +0.193 C 
BRANCH  23  24
ATOM     24  C   UNL     1       3.452   0.332  -0.155  0.00  0.00    +0.037 C 
ATOM     25  C   UNL     1       3.976   0.100   1.096  0.00  0.00    +0.004 C 
ATOM     26  C   UNL     1       4.044  -0.132  -1.308  0.00  0.00    +0.004 C 
ATOM     27  C   UNL     1       5.156  -0.636   1.200  0.00  0.00    +0.014 C 
ATOM     28  C   UNL     1       5.224  -0.868  -1.203  0.00  0.00    +0.014 C 
ATOM     29  C   UNL     1       5.780  -1.120   0.051  0.00  0.00    +0.042 C 
BRANCH  29  30
ATOM     30  N   UNL     1       6.974  -1.863   0.156  0.00  0.00    -0.357 N 
ATOM     31  H   UNL     1       7.367  -2.041   1.041  0.00  0.00    +0.142 HD
ATOM     32  H   UNL     1       7.415  -2.204  -0.656  0.00  0.00    +0.142 HD
ENDBRANCH  29  30
ENDBRANCH  23  24
ENDBRANCH  21  23
ENDBRANCH   1  21
TORSDOF 8
