REMARK  Name = 111804
REMARK  6 active torsions:
REMARK  status: ('A' for Active; 'I' for Inactive)
REMARK    1  A    between atoms: C_3  and  N_21
REMARK    2  A    between atoms: C_4  and  S_11
REMARK    3  A    between atoms: C_7  and  O_19
REMARK    4  A    between atoms: C_8  and  S_15
REMARK    5  A    between atoms: N_21  and  N_22
REMARK    6  A    between atoms: N_22  and  C_23
REMARK                            x       y       z     vdW  Elec       q    Type
REMARK                         _______ _______ _______ _____ _____    ______ ____
ROOT
ATOM      1  C   UNL     1       2.304  -0.289   0.031  0.00  0.00    +0.004 C 
ATOM      2  C   UNL     1       1.025   0.283   0.234  0.00  0.00    +0.020 C 
ATOM      3  C   UNL     1      -0.091  -0.560   0.360  0.00  0.00    +0.124 C 
ATOM      4  C   UNL     1       1.308  -2.508   0.088  0.00  0.00    +0.147 C 
ATOM      5  C   UNL     1       2.429  -1.686  -0.040  0.00  0.00    +0.022 C 
ATOM      6  C   UNL     1       3.421   0.554  -0.095  0.00  0.00    +0.019 C 
ATOM      7  C   UNL     1       0.051  -1.946   0.287  0.00  0.00    +0.168 C 
ATOM      8  C   UNL     1       3.279   1.940  -0.022  0.00  0.00    +0.112 C 
ATOM      9  C   UNL     1       0.901   1.680   0.305  0.00  0.00    +0.003 C 
ATOM     10  C   UNL     1       2.021   2.502   0.178  0.00  0.00    +0.019 C 
ENDROOT
BRANCH   4  11
ATOM     11  S   UNL     1       1.514  -4.243  -0.008  0.00  0.00    +0.045 S 
ATOM     12  O   UNL     1       0.826  -4.676  -1.425  0.00  0.00    -0.065 OA
ATOM     13  O   UNL     1       2.938  -4.517  -0.124  0.00  0.00    -0.065 OA
ATOM     14  O   UNL     1       0.731  -4.819   1.072  0.00  0.00    -0.065 OA
ENDBRANCH   4  11
BRANCH   8  15
ATOM     15  S   UNL     1       4.679   2.970  -0.182  0.00  0.00    +0.042 S 
ATOM     16  O   UNL     1       5.245   3.164   1.340  0.00  0.00    -0.065 OA
ATOM     17  O   UNL     1       5.695   2.236  -0.922  0.00  0.00    -0.065 OA
ATOM     18  O   UNL     1       4.204   4.261  -0.655  0.00  0.00    -0.065 OA
ENDBRANCH   8  15
BRANCH   7  19
ATOM     19  O   UNL     1      -1.045  -2.750   0.411  0.00  0.00    -0.503 OA
ATOM     20  H   UNL     1      -1.891  -2.371   0.546  0.00  0.00    +0.292 HD
ENDBRANCH   7  19
BRANCH   3  21
ATOM     21  N   UNL     1      -1.377  -0.029   0.563  0.00  0.00    -0.125 NA
BRANCH  21  22
ATOM     22  N   UNL     1      -1.927   0.175  -0.542  0.00  0.00    -0.128 NA
BRANCH  22  23
ATOM     23  C   UNL     1      -3.213   0.706  -0.340  0.00  0.00    +0.085 C 
ATOM     24  C   UNL     1      -4.316  -0.134  -0.215  0.00  0.00    -0.005 C 
ATOM     25  C   UNL     1      -5.745   1.794   0.061  0.00  0.00    -0.022 C 
ATOM     26  C   UNL     1      -5.584   0.410  -0.015  0.00  0.00    -0.007 C 
ATOM     27  C   UNL     1      -3.369   2.088  -0.265  0.00  0.00    +0.017 C 
ATOM     28  C   UNL     1      -4.637   2.633  -0.064  0.00  0.00    -0.003 C 
ATOM     29  C   UNL     1      -4.168  -1.619  -0.293  0.00  0.00    +0.032 C 
ATOM     30  C   UNL     1      -7.100   2.378   0.275  0.00  0.00    +0.031 C 
ENDBRANCH  22  23
ENDBRANCH  21  22
ENDBRANCH   3  21
TORSDOF 6
