REMARK  Name = 11184844
REMARK  5 active torsions:
REMARK  status: ('A' for Active; 'I' for Inactive)
REMARK    1  A    between atoms: P_1  and  N_4
REMARK    2  A    between atoms: P_1  and  N_14
REMARK    3  A    between atoms: P_1  and  N_17
REMARK    4  A    between atoms: C_8  and  N_10
REMARK    5  A    between atoms: N_17  and  S_19
REMARK                            x       y       z     vdW  Elec       q    Type
REMARK                         _______ _______ _______ _____ _____    ______ ____
ROOT
ATOM      1  P   UNL     1       0.865   1.319   0.554  0.00  0.00    +0.319 P 
ATOM      2  O   UNL     1       1.579   2.138  -0.466  0.00  0.00    -0.263 OA
ENDROOT
BRANCH   1   4
ATOM      3  O   UNL     1      -0.878  -0.627   1.808  0.00  0.00    -0.277 OA
ATOM      4  N   UNL     1      -0.602   0.641  -0.095  0.00  0.00    -0.217 N 
ATOM      5  C   UNL     1      -2.145   0.321  -2.030  0.00  0.00    +0.020 C 
ATOM      6  C   UNL     1      -1.140   1.212  -1.328  0.00  0.00    +0.102 C 
ATOM      7  C   UNL     1      -3.183  -0.133  -1.020  0.00  0.00    -0.011 C 
ATOM      8  C   UNL     1      -2.498  -0.959   0.061  0.00  0.00    +0.014 C 
ATOM      9  C   UNL     1      -1.281  -0.287   0.692  0.00  0.00    +0.212 C 
BRANCH   8  10
ATOM     10  N   UNL     1      -3.455  -1.253   1.127  0.00  0.00    +0.387 N 
ATOM     11  H   UNL     1      -4.279  -1.703   0.730  0.00  0.00    -0.089 HD
ATOM     12  H   UNL     1      -3.730  -0.385   1.587  0.00  0.00    -0.089 HD
ATOM     13  H   UNL     1      -3.023  -1.877   1.809  0.00  0.00    -0.089 HD
ENDBRANCH   8  10
ENDBRANCH   1   4
BRANCH   1  14
ATOM     14  N   UNL     1       0.407   2.065   1.945  0.00  0.00    -0.253 NA
ATOM     15  H   UNL     1      -0.093   2.925   1.721  0.00  0.00    +0.128 HD
ATOM     16  H   UNL     1       1.234   2.288   2.500  0.00  0.00    +0.128 HD
ENDBRANCH   1  14
BRANCH   1  17
ATOM     17  N   UNL     1       1.716  -0.144   0.996  0.00  0.00    -0.107 NA
ATOM     18  H   UNL     1       2.378   0.093   1.734  0.00  0.00    +0.159 HD
BRANCH  17  19
ATOM     19  S   UNL     1       2.587  -0.924  -0.258  0.00  0.00    +0.084 S 
ATOM     20  O   UNL     1       1.464  -1.130  -1.421  0.00  0.00    -0.053 OA
ATOM     21  O   UNL     1       2.983  -2.240   0.207  0.00  0.00    -0.053 OA
ATOM     22  O   UNL     1       3.581   0.001  -0.772  0.00  0.00    -0.053 OA
ENDBRANCH  17  19
ENDBRANCH   1  17
TORSDOF 5
