11184844
  -OEChem-03292013303D

 29 29  0     1  0  0  0  0  0999 V2000
    2.5875   -0.9237   -0.2577 S   0  0  0  0  0  0  0  0  0  0  0  0
    0.8653    1.3194    0.5545 P   0  0  1  0  0  0  0  0  0  0  0  0
   -0.8784   -0.6272    1.8083 O   0  0  0  0  0  0  0  0  0  0  0  0
    1.5793    2.1381   -0.4660 O   0  0  0  0  0  0  0  0  0  0  0  0
    1.4638   -1.1298   -1.4214 O   0  0  0  0  0  0  0  0  0  0  0  0
    2.9826   -2.2403    0.2066 O   0  0  0  0  0  0  0  0  0  0  0  0
    3.5808    0.0005   -0.7718 O   0  0  0  0  0  0  0  0  0  0  0  0
   -0.6022    0.6411   -0.0948 N   0  0  0  0  0  0  0  0  0  0  0  0
    1.7155   -0.1438    0.9957 N   0  0  0  0  0  0  0  0  0  0  0  0
   -3.4548   -1.2533    1.1273 N   0  0  0  0  0  0  0  0  0  0  0  0
    0.4074    2.0654    1.9451 N   0  0  0  0  0  0  0  0  0  0  0  0
   -2.1446    0.3205   -2.0301 C   0  0  0  0  0  0  0  0  0  0  0  0
   -1.1402    1.2122   -1.3282 C   0  0  0  0  0  0  0  0  0  0  0  0
   -3.1827   -0.1329   -1.0203 C   0  0  0  0  0  0  0  0  0  0  0  0
   -2.4984   -0.9585    0.0613 C   0  0  1  0  0  0  0  0  0  0  0  0
   -1.2810   -0.2874    0.6916 C   0  0  0  0  0  0  0  0  0  0  0  0
   -0.3109    1.4298   -2.0074 H   0  0  0  0  0  0  0  0  0  0  0  0
   -1.6057    2.1653   -1.0523 H   0  0  0  0  0  0  0  0  0  0  0  0
   -1.6390   -0.5501   -2.4653 H   0  0  0  0  0  0  0  0  0  0  0  0
   -2.6214    0.8667   -2.8510 H   0  0  0  0  0  0  0  0  0  0  0  0
   -3.6827    0.7454   -0.5907 H   0  0  0  0  0  0  0  0  0  0  0  0
   -3.9531   -0.7294   -1.5234 H   0  0  0  0  0  0  0  0  0  0  0  0
   -2.1439   -1.9042   -0.3669 H   0  0  0  0  0  0  0  0  0  0  0  0
    1.2889   -0.7594    1.6998 H   0  0  0  0  0  0  0  0  0  0  0  0
   -4.2624   -1.7376    0.7365 H   0  0  0  0  0  0  0  0  0  0  0  0
   -3.8149   -0.3836    1.5194 H   0  0  0  0  0  0  0  0  0  0  0  0
   -0.0332    1.4932    2.6639 H   0  0  0  0  0  0  0  0  0  0  0  0
   -0.1733    2.8985    1.8606 H   0  0  0  0  0  0  0  0  0  0  0  0
    1.1770   -0.3076   -1.8820 H   0  0  0  0  0  0  0  0  0  0  0  0
  1  5  1  0  0  0  0
  1  6  2  0  0  0  0
  1  7  2  0  0  0  0
  1  9  1  0  0  0  0
  2  4  2  0  0  0  0
  2  8  1  0  0  0  0
  2  9  1  0  0  0  0
  2 11  1  0  0  0  0
  3 16  2  0  0  0  0
  5 29  1  0  0  0  0
  8 13  1  0  0  0  0
  8 16  1  0  0  0  0
  9 24  1  0  0  0  0
 10 15  1  0  0  0  0
 10 25  1  0  0  0  0
 10 26  1  0  0  0  0
 11 27  1  0  0  0  0
 11 28  1  0  0  0  0
 12 13  1  0  0  0  0
 12 14  1  0  0  0  0
 12 19  1  0  0  0  0
 12 20  1  0  0  0  0
 13 17  1  0  0  0  0
 13 18  1  0  0  0  0
 14 15  1  0  0  0  0
 14 21  1  0  0  0  0
 14 22  1  0  0  0  0
 15 16  1  0  0  0  0
 15 23  1  0  0  0  0
M  END
> <PUBCHEM_COMPOUND_CID>
11184844

> <PUBCHEM_CONFORMER_RMSD>
0.6

> <PUBCHEM_CONFORMER_DIVERSEORDER>
1
60
37
64
63
67
58
73
70
22
53
61
68
23
65
51
39
32
72
29
34
57
55
28
75
62
48
15
20
54
35
38
46
26
74
47
25
21
66
69
43
56
49
10
40
50
4
59
30
42
76
36
13
45
44
52
71
33
9
18
14
11
27
31
12
16
41
8
24
7
6
5
2
19
17
3

> <PUBCHEM_MMFF94_PARTIAL_CHARGES>
20
1 1.62
10 -0.99
11 -0.99
13 0.3
15 0.33
16 0.57
2 1.56
24 0.42
25 0.36
26 0.36
27 0.36
28 0.36
29 0.5
3 -0.57
4 -0.7
5 -0.68
6 -0.65
7 -0.65
8 -0.62
9 -0.9

> <PUBCHEM_EFFECTIVE_ROTOR_COUNT>
4

> <PUBCHEM_PHARMACOPHORE_FEATURES>
10
1 10 cation
1 10 donor
1 3 acceptor
1 4 acceptor
1 5 acceptor
1 6 acceptor
1 7 acceptor
1 9 donor
4 1 5 6 7 anion
6 8 12 13 14 15 16 rings

> <PUBCHEM_HEAVY_ATOM_COUNT>
16

> <PUBCHEM_ATOM_DEF_STEREO_COUNT>
1

> <PUBCHEM_ATOM_UDEF_STEREO_COUNT>
1

> <PUBCHEM_BOND_DEF_STEREO_COUNT>
0

> <PUBCHEM_BOND_UDEF_STEREO_COUNT>
0

> <PUBCHEM_ISOTOPIC_ATOM_COUNT>
0

> <PUBCHEM_COMPONENT_COUNT>
1

> <PUBCHEM_CACTVS_TAUTO_COUNT>
3

> <PUBCHEM_CONFORMER_ID>
00AAAACC00000001

> <PUBCHEM_MMFF94_ENERGY>
16.0177

> <PUBCHEM_FEATURE_SELFOVERLAP>
50.807

> <PUBCHEM_SHAPE_FINGERPRINT>
10857977 72 12966845814307200557
12202030 40 18335976575473232775
12251169 10 13182723871122265770
12423570 1 12347693494702737576
12491281 212 15430603827154497862
12808571 1 14346355619895484933
13299463 15 18040998414509198098
14251745 187 18040987440888764999
14817 1 9669136968732527392
15219456 202 18188768478094083749
15775835 57 14201393854831476190
15906896 17 17555182345682267288
16945 1 18335128804388920401
17834072 14 18115853128175193754
20201158 50 18334855017598958918
20361792 2 17703501130067177476
20711985 344 17907845224376765856
21061003 4 18130787832547294071
22112679 90 16343426205796001033
22445834 79 16128655236651603375
22802520 49 18113332016209868949
232386 152 15338828819944558341
23526113 38 18188193326085619054
23557571 272 17386287704753631413
23559900 14 17824524302671319394
23598291 2 16988287598291595041
2748010 2 17532076367076090309
353137 74 15285358439983265551
77492 1 16558749074100904909
81228 2 17769937870488070848

> <PUBCHEM_SHAPE_MULTIPOLES>
287.7
5.14
1.9
1.77
0.35
0.3
0.14
-2.44
-1.17
1.02
0.33
-0.65
0.33
0.92

> <PUBCHEM_SHAPE_SELFOVERLAP>
547.21

> <PUBCHEM_SHAPE_VOLUME>
176.7

> <PUBCHEM_COORDINATE_TYPE>
2
5
10

$$$$
