111804
  -OEChem-03292013323D

 45 47  0     0  0  0  0  0  0999 V2000
    1.5144   -4.2426   -0.0078 S   0  0  0  0  0  0  0  0  0  0  0  0
    4.6792    2.9700   -0.1818 S   0  0  0  0  0  0  0  0  0  0  0  0
   -1.0451   -2.7496    0.4112 O   0  0  0  0  0  0  0  0  0  0  0  0
    0.8261   -4.6756   -1.4251 O   0  0  0  0  0  0  0  0  0  0  0  0
    5.2452    3.1643    1.3397 O   0  0  0  0  0  0  0  0  0  0  0  0
    2.9382   -4.5169   -0.1236 O   0  0  0  0  0  0  0  0  0  0  0  0
    0.7305   -4.8191    1.0720 O   0  0  0  0  0  0  0  0  0  0  0  0
    5.6951    2.2360   -0.9222 O   0  0  0  0  0  0  0  0  0  0  0  0
    4.2041    4.2608   -0.6552 O   0  0  0  0  0  0  0  0  0  0  0  0
   -1.3766   -0.0285    0.5631 N   0  0  0  0  0  0  0  0  0  0  0  0
   -1.9271    0.1753   -0.5418 N   0  0  0  0  0  0  0  0  0  0  0  0
    2.3040   -0.2887    0.0312 C   0  0  0  0  0  0  0  0  0  0  0  0
    1.0253    0.2827    0.2343 C   0  0  0  0  0  0  0  0  0  0  0  0
   -0.0912   -0.5597    0.3605 C   0  0  0  0  0  0  0  0  0  0  0  0
    1.3083   -2.5077    0.0876 C   0  0  0  0  0  0  0  0  0  0  0  0
    2.4285   -1.6858   -0.0399 C   0  0  0  0  0  0  0  0  0  0  0  0
    3.4207    0.5537   -0.0951 C   0  0  0  0  0  0  0  0  0  0  0  0
    0.0509   -1.9456    0.2874 C   0  0  0  0  0  0  0  0  0  0  0  0
    3.2786    1.9396   -0.0219 C   0  0  0  0  0  0  0  0  0  0  0  0
    0.9010    1.6798    0.3054 C   0  0  0  0  0  0  0  0  0  0  0  0
    2.0212    2.5016    0.1780 C   0  0  0  0  0  0  0  0  0  0  0  0
   -3.2126    0.7063   -0.3398 C   0  0  0  0  0  0  0  0  0  0  0  0
   -4.3156   -0.1344   -0.2153 C   0  0  0  0  0  0  0  0  0  0  0  0
   -5.7446    1.7941    0.0610 C   0  0  0  0  0  0  0  0  0  0  0  0
   -5.5838    0.4104   -0.0146 C   0  0  0  0  0  0  0  0  0  0  0  0
   -3.3690    2.0879   -0.2650 C   0  0  0  0  0  0  0  0  0  0  0  0
   -4.6372    2.6327   -0.0642 C   0  0  0  0  0  0  0  0  0  0  0  0
   -4.1682   -1.6189   -0.2935 C   0  0  0  0  0  0  0  0  0  0  0  0
   -7.1002    2.3776    0.2754 C   0  0  0  0  0  0  0  0  0  0  0  0
    3.4154   -2.1146   -0.1989 H   0  0  0  0  0  0  0  0  0  0  0  0
    4.4048    0.1138   -0.2438 H   0  0  0  0  0  0  0  0  0  0  0  0
   -0.0607    2.1598    0.4686 H   0  0  0  0  0  0  0  0  0  0  0  0
    1.8877    3.5775    0.2475 H   0  0  0  0  0  0  0  0  0  0  0  0
   -6.4489   -0.2411    0.0838 H   0  0  0  0  0  0  0  0  0  0  0  0
   -1.7900   -2.1927    0.6905 H   0  0  0  0  0  0  0  0  0  0  0  0
   -2.5131    2.7503   -0.3637 H   0  0  0  0  0  0  0  0  0  0  0  0
   -4.7496    3.7123   -0.0095 H   0  0  0  0  0  0  0  0  0  0  0  0
   -3.9253   -2.0248    0.6927 H   0  0  0  0  0  0  0  0  0  0  0  0
   -5.1009   -2.0869   -0.6288 H   0  0  0  0  0  0  0  0  0  0  0  0
   -3.4024   -1.9152   -1.0170 H   0  0  0  0  0  0  0  0  0  0  0  0
    1.2356   -4.2828   -2.2316 H   0  0  0  0  0  0  0  0  0  0  0  0
   -7.7205    1.7173    0.8912 H   0  0  0  0  0  0  0  0  0  0  0  0
   -7.0403    3.3387    0.7973 H   0  0  0  0  0  0  0  0  0  0  0  0
   -7.5990    2.5323   -0.6865 H   0  0  0  0  0  0  0  0  0  0  0  0
    5.5369    2.3375    1.7910 H   0  0  0  0  0  0  0  0  0  0  0  0
  1  4  1  0  0  0  0
  1  6  2  0  0  0  0
  1  7  2  0  0  0  0
  1 15  1  0  0  0  0
  2  5  1  0  0  0  0
  2  8  2  0  0  0  0
  2  9  2  0  0  0  0
  2 19  1  0  0  0  0
  3 18  1  0  0  0  0
  3 35  1  0  0  0  0
  4 41  1  0  0  0  0
  5 45  1  0  0  0  0
 10 11  2  0  0  0  0
 10 14  1  0  0  0  0
 11 22  1  0  0  0  0
 12 13  1  0  0  0  0
 12 16  2  0  0  0  0
 12 17  1  0  0  0  0
 13 14  2  0  0  0  0
 13 20  1  0  0  0  0
 14 18  1  0  0  0  0
 15 16  1  0  0  0  0
 15 18  2  0  0  0  0
 16 30  1  0  0  0  0
 17 19  2  0  0  0  0
 17 31  1  0  0  0  0
 19 21  1  0  0  0  0
 20 21  2  0  0  0  0
 20 32  1  0  0  0  0
 21 33  1  0  0  0  0
 22 23  2  0  0  0  0
 22 26  1  0  0  0  0
 23 25  1  0  0  0  0
 23 28  1  0  0  0  0
 24 25  2  0  0  0  0
 24 27  1  0  0  0  0
 24 29  1  0  0  0  0
 25 34  1  0  0  0  0
 26 27  2  0  0  0  0
 26 36  1  0  0  0  0
 27 37  1  0  0  0  0
 28 38  1  0  0  0  0
 28 39  1  0  0  0  0
 28 40  1  0  0  0  0
 29 42  1  0  0  0  0
 29 43  1  0  0  0  0
 29 44  1  0  0  0  0
M  END
> <PUBCHEM_COMPOUND_CID>
111804

> <PUBCHEM_CONFORMER_RMSD>
0.8

> <PUBCHEM_CONFORMER_DIVERSEORDER>
1
5
4
2
6
3

> <PUBCHEM_MMFF94_PARTIAL_CHARGES>
37
1 1.49
10 -0.18
11 -0.18
14 0.18
15 -0.01
16 -0.15
17 -0.15
18 0.08
19 -0.01
2 1.49
20 -0.15
21 -0.15
22 0.18
23 -0.14
24 -0.14
25 -0.15
26 -0.15
27 -0.15
28 0.14
29 0.14
3 -0.53
30 0.15
31 0.15
32 0.15
33 0.15
34 0.15
35 0.45
36 0.15
37 0.15
4 -0.68
41 0.5
45 0.5
5 -0.68
6 -0.65
7 -0.65
8 -0.65
9 -0.65

> <PUBCHEM_EFFECTIVE_ROTOR_COUNT>
4

> <PUBCHEM_PHARMACOPHORE_FEATURES>
12
1 3 donor
1 4 acceptor
1 5 acceptor
1 6 acceptor
1 7 acceptor
1 8 acceptor
1 9 acceptor
4 1 4 6 7 anion
4 2 5 8 9 anion
6 12 13 14 15 16 18 rings
6 12 13 17 19 20 21 rings
6 22 23 24 25 26 27 rings

> <PUBCHEM_HEAVY_ATOM_COUNT>
29

> <PUBCHEM_ATOM_DEF_STEREO_COUNT>
0

> <PUBCHEM_ATOM_UDEF_STEREO_COUNT>
0

> <PUBCHEM_BOND_DEF_STEREO_COUNT>
0

> <PUBCHEM_BOND_UDEF_STEREO_COUNT>
0

> <PUBCHEM_ISOTOPIC_ATOM_COUNT>
0

> <PUBCHEM_COMPONENT_COUNT>
1

> <PUBCHEM_CACTVS_TAUTO_COUNT>
3

> <PUBCHEM_CONFORMER_ID>
0001B4BC00000001

> <PUBCHEM_MMFF94_ENERGY>
67.5761

> <PUBCHEM_FEATURE_SELFOVERLAP>
61.038

> <PUBCHEM_SHAPE_FINGERPRINT>
10411042 1 17689998934079205426
10483366 6 18266755601909190678
10595046 47 18342172246882840405
10675989 125 18339927017319611577
10721379 63 18198072378047675878
12107183 9 18190162647003267776
12293681 160 17846223297114556936
12730499 353 18336838523906764985
12788726 201 17835222825044388786
13009979 54 17340968889373547251
13140716 1 18408597068030729706
13590594 115 17617668648056020057
13757389 114 17975428115522795012
13785724 45 17551519838644301463
138480 1 18050003299045669770
13955234 65 18264772064950927731
14790565 3 18337955722025502732
15081414 286 18051408466110415034
15198563 99 17548419661976886007
15250474 111 18200576039819840239
15420108 30 18338219579336255818
15664445 248 17984151365920787734
15840311 113 18118693124404599157
15927050 60 18412545452524430775
16087824 20 16825590285570633873
16992752 21 17329434948112330622
16993438 75 18045227299697092331
17913733 40 18339940289142550945
19319366 153 18343578542891007757
19427546 62 18408605885112817155
21033648 144 18040706000620180013
21033648 29 18269832193572177008
21049683 271 18045233643569510126
21133410 127 18040715831479678869
21307412 95 18056227820019540148
23559900 14 18268142059547891411
23929065 36 17479995928689173640
244849 19 17896908490037529299
24771293 8 18127105543259780658
24771750 20 18337124379586932118
314173 41 17978792311940171879
335352 9 18409731773174358620
3411729 13 18334293141265932105
38695281 34 18411417349604443196
4058900 60 18336839648993069584
4073 2 18333737918976794523
5104073 3 18260267434990355481
5219985 13 18338516455733815868
5385378 56 18410857629108356273
550186 72 16609414836493103932
6058803 2 18129092330716235157
6287921 2 18187371995616936749
6695519 79 18128271154027677659
6700243 42 16826479245522204132
77188 2 17761773966645188838
9658208 31 18126846225839826272
9709674 26 18337111156073794931
9981440 41 18336546139428214923

> <PUBCHEM_SHAPE_MULTIPOLES>
553.46
12.91
6.45
0.81
16.22
6.26
-0.01
-15.48
-0.38
-8.97
-0.24
-0.41
0.13
-0.15

> <PUBCHEM_SHAPE_SELFOVERLAP>
1188.865

> <PUBCHEM_SHAPE_VOLUME>
307.9

> <PUBCHEM_COORDINATE_TYPE>
2
5
10

$$$$
