REMARK  Name = 11191162
REMARK  5 active torsions:
REMARK  status: ('A' for Active; 'I' for Inactive)
REMARK    1  A    between atoms: C_6  and  C_31
REMARK    2  A    between atoms: C_6  and  N_34
REMARK    3  A    between atoms: C_11  and  C_23
REMARK    4  A    between atoms: C_13  and  C_16
REMARK    5  A    between atoms: N_34  and  C_37
REMARK                            x       y       z     vdW  Elec       q    Type
REMARK                         _______ _______ _______ _____ _____    ______ ____
ROOT
ATOM      1  N   UNL     1       2.734  -0.715   0.611  0.00  0.00    -0.272 N 
ATOM      2  N   UNL     1       0.385  -0.800   0.372  0.00  0.00    -0.124 N 
ATOM      3  N   UNL     1       1.559  -2.768   0.462  0.00  0.00    -0.311 NA
ATOM      4  N   UNL     1       0.272   0.540   0.380  0.00  0.00    -0.172 NA
ATOM      5  N   UNL     1      -0.829  -2.815   0.220  0.00  0.00    -0.330 NA
ATOM      6  C   UNL     1       4.604  -0.217  -0.048  0.00  0.00    +0.062 C 
ATOM      7  C   UNL     1       3.994  -1.385   0.728  0.00  0.00    +0.085 C 
ATOM      8  C   UNL     1       3.173   0.062  -0.510  0.00  0.00    +0.085 C 
ATOM      9  C   UNL     1       1.599  -1.466   0.485  0.00  0.00    +0.277 C 
ATOM     10  C   UNL     1      -0.806  -1.461   0.242  0.00  0.00    +0.207 C 
ATOM     11  C   UNL     1      -1.764  -0.477   0.159  0.00  0.00    +0.134 C 
ATOM     12  C   UNL     1       0.331  -3.397   0.329  0.00  0.00    +0.119 C 
ATOM     13  C   UNL     1      -1.044   0.731   0.249  0.00  0.00    +0.090 C 
ATOM     14  C   UNL     1       0.405  -4.898   0.314  0.00  0.00    +0.143 C 
ENDROOT
BRANCH  13  16
ATOM     15 CL   UNL     1      -1.294   2.083  -2.509  0.00  0.00    -0.082 Cl
ATOM     16  C   UNL     1      -1.579   2.069   0.214  0.00  0.00    +0.026 C 
ATOM     17  C   UNL     1      -1.734   2.768  -0.982  0.00  0.00    +0.059 C 
ATOM     18  C   UNL     1      -1.945   2.660   1.422  0.00  0.00    +0.002 C 
ATOM     19  C   UNL     1      -2.256   4.061  -0.970  0.00  0.00    +0.011 C 
ATOM     20  C   UNL     1      -2.469   3.953   1.434  0.00  0.00    +0.000 C 
ATOM     21  C   UNL     1      -2.624   4.654   0.238  0.00  0.00    +0.001 C 
ENDBRANCH  13  16
BRANCH  11  23
ATOM     22 CL   UNL     1      -7.582  -1.557  -0.443  0.00  0.00    -0.082 Cl
ATOM     23  C   UNL     1      -3.166  -0.738   0.014  0.00  0.00    -0.009 C 
ATOM     24  C   UNL     1      -3.731  -0.847  -1.259  0.00  0.00    -0.003 C 
ATOM     25  C   UNL     1      -3.973  -0.883   1.145  0.00  0.00    -0.003 C 
ATOM     26  C   UNL     1      -5.095  -1.101  -1.400  0.00  0.00    +0.011 C 
ATOM     27  C   UNL     1      -5.337  -1.136   1.004  0.00  0.00    +0.011 C 
ATOM     28  C   UNL     1      -5.898  -1.245  -0.268  0.00  0.00    +0.058 C 
ENDBRANCH  11  23
BRANCH   6  31
ATOM     29  O   UNL     1       5.602  -0.191  -2.279  0.00  0.00    -0.277 OA
ATOM     30  N   UNL     1       6.830  -1.074  -0.562  0.00  0.00    -0.330 N 
ATOM     31  C   UNL     1       5.700  -0.479  -1.083  0.00  0.00    +0.204 C 
ATOM     32  H   UNL     1       7.592  -1.283  -1.150  0.00  0.00    +0.145 HD
ATOM     33  H   UNL     1       6.875  -1.290   0.398  0.00  0.00    +0.145 HD
ENDBRANCH   6  31
BRANCH   6  34
ATOM     34  N   UNL     1       5.009   0.823   0.899  0.00  0.00    +0.394 N 
ATOM     35  H   UNL     1       5.856   0.525   1.382  0.00  0.00    -0.083 HD
ATOM     36  H   UNL     1       4.254   0.970   1.569  0.00  0.00    -0.083 HD
BRANCH  34  37
ATOM     37  C   UNL     1       5.271   2.075   0.207  0.00  0.00    -0.081 C 
ATOM     38  C   UNL     1       5.659   3.172   1.183  0.00  0.00    -0.026 C 
ENDBRANCH  34  37
ENDBRANCH   6  34
TORSDOF 5
