11193463
  -OEChem-03292013303D

 51 55  0     0  0  0  0  0  0999 V2000
    2.6060    2.1014   -2.8334 F   0  0  0  0  0  0  0  0  0  0  0  0
   -0.1510    3.8414    1.3383 O   0  0  0  0  0  0  0  0  0  0  0  0
   -5.8695    0.0551    1.7733 O   0  0  0  0  0  0  0  0  0  0  0  0
    0.6402    3.0475   -1.4102 O   0  0  0  0  0  0  0  0  0  0  0  0
   -1.6347    2.2172    0.5119 N   0  0  0  0  0  0  0  0  0  0  0  0
   -3.6586    0.3262    1.0662 N   0  0  0  0  0  0  0  0  0  0  0  0
    2.6461   -0.0652    1.2607 N   0  0  0  0  0  0  0  0  0  0  0  0
    5.0506   -1.6622    0.3883 N   0  0  0  0  0  0  0  0  0  0  0  0
    4.8905   -0.4697   -1.6412 N   0  0  0  0  0  0  0  0  0  0  0  0
    4.6284   -1.9447    1.6348 N   0  0  0  0  0  0  0  0  0  0  0  0
    5.4314   -2.8823    2.1256 N   0  0  0  0  0  0  0  0  0  0  0  0
   -2.7516    2.5857    1.3835 C   0  0  0  0  0  0  0  0  0  0  0  0
   -1.9259    1.1622   -0.4685 C   0  0  0  0  0  0  0  0  0  0  0  0
   -3.3463    1.3543    2.0604 C   0  0  0  0  0  0  0  0  0  0  0  0
   -2.5221   -0.0632    0.2193 C   0  0  0  0  0  0  0  0  0  0  0  0
   -0.4361    2.9096    0.5977 C   0  0  0  0  0  0  0  0  0  0  0  0
   -4.9357   -0.2352    1.0273 C   0  0  0  0  0  0  0  0  0  0  0  0
    0.6381    2.4726   -0.3236 C   0  0  0  0  0  0  0  0  0  0  0  0
    1.6095    1.4480    0.0525 C   0  0  0  0  0  0  0  0  0  0  0  0
    2.6696    0.9493   -0.7268 C   0  0  0  0  0  0  0  0  0  0  0  0
   -5.2121   -1.2536    0.0065 C   0  0  0  0  0  0  0  0  0  0  0  0
    3.3127   -0.0083    0.0592 C   0  0  0  0  0  0  0  0  0  0  0  0
    1.6036    0.8229    1.2626 C   0  0  0  0  0  0  0  0  0  0  0  0
    4.4183   -0.7142   -0.3967 C   0  0  0  0  0  0  0  0  0  0  0  0
    3.1612    1.2007   -2.0156 C   0  0  0  0  0  0  0  0  0  0  0  0
   -4.9862   -2.5979    0.2904 C   0  0  0  0  0  0  0  0  0  0  0  0
   -5.6986   -0.8701   -1.2406 C   0  0  0  0  0  0  0  0  0  0  0  0
    4.2684    0.4582   -2.4043 C   0  0  0  0  0  0  0  0  0  0  0  0
   -5.2485   -3.5655   -0.6795 C   0  0  0  0  0  0  0  0  0  0  0  0
   -5.9610   -1.8376   -2.2105 C   0  0  0  0  0  0  0  0  0  0  0  0
   -5.7360   -3.1853   -1.9299 C   0  0  0  0  0  0  0  0  0  0  0  0
    6.1380   -2.4154    0.0531 C   0  0  0  0  0  0  0  0  0  0  0  0
    6.3614   -3.1818    1.1693 C   0  0  0  0  0  0  0  0  0  0  0  0
   -3.5028    3.0719    0.7496 H   0  0  0  0  0  0  0  0  0  0  0  0
   -2.4307    3.3122    2.1368 H   0  0  0  0  0  0  0  0  0  0  0  0
   -1.0406    0.8711   -1.0370 H   0  0  0  0  0  0  0  0  0  0  0  0
   -2.6472    1.5849   -1.1786 H   0  0  0  0  0  0  0  0  0  0  0  0
   -2.6251    0.9165    2.7608 H   0  0  0  0  0  0  0  0  0  0  0  0
   -4.2382    1.6329    2.6302 H   0  0  0  0  0  0  0  0  0  0  0  0
   -2.8051   -0.8038   -0.5311 H   0  0  0  0  0  0  0  0  0  0  0  0
   -1.7792   -0.5289    0.8781 H   0  0  0  0  0  0  0  0  0  0  0  0
    0.9668    0.9118    2.1320 H   0  0  0  0  0  0  0  0  0  0  0  0
    2.8865   -0.6724    2.0319 H   0  0  0  0  0  0  0  0  0  0  0  0
   -4.6060   -2.9041    1.2614 H   0  0  0  0  0  0  0  0  0  0  0  0
   -5.8760    0.1775   -1.4691 H   0  0  0  0  0  0  0  0  0  0  0  0
    4.7023    0.6010   -3.3894 H   0  0  0  0  0  0  0  0  0  0  0  0
   -5.0730   -4.6149   -0.4614 H   0  0  0  0  0  0  0  0  0  0  0  0
   -6.3400   -1.5415   -3.1842 H   0  0  0  0  0  0  0  0  0  0  0  0
   -5.9401   -3.9387   -2.6852 H   0  0  0  0  0  0  0  0  0  0  0  0
    6.6438   -2.3539   -0.9007 H   0  0  0  0  0  0  0  0  0  0  0  0
    7.1308   -3.9212    1.3320 H   0  0  0  0  0  0  0  0  0  0  0  0
  1 25  1  0  0  0  0
  2 16  2  0  0  0  0
  3 17  2  0  0  0  0
  4 18  2  0  0  0  0
  5 12  1  0  0  0  0
  5 13  1  0  0  0  0
  5 16  1  0  0  0  0
  6 14  1  0  0  0  0
  6 15  1  0  0  0  0
  6 17  1  0  0  0  0
  7 22  1  0  0  0  0
  7 23  1  0  0  0  0
  7 43  1  0  0  0  0
  8 10  1  0  0  0  0
  8 24  1  0  0  0  0
  8 32  1  0  0  0  0
  9 24  2  0  0  0  0
  9 28  1  0  0  0  0
 10 11  2  0  0  0  0
 11 33  1  0  0  0  0
 12 14  1  0  0  0  0
 12 34  1  0  0  0  0
 12 35  1  0  0  0  0
 13 15  1  0  0  0  0
 13 36  1  0  0  0  0
 13 37  1  0  0  0  0
 14 38  1  0  0  0  0
 14 39  1  0  0  0  0
 15 40  1  0  0  0  0
 15 41  1  0  0  0  0
 16 18  1  0  0  0  0
 17 21  1  0  0  0  0
 18 19  1  0  0  0  0
 19 20  1  0  0  0  0
 19 23  2  0  0  0  0
 20 22  2  0  0  0  0
 20 25  1  0  0  0  0
 21 26  2  0  0  0  0
 21 27  1  0  0  0  0
 22 24  1  0  0  0  0
 23 42  1  0  0  0  0
 25 28  2  0  0  0  0
 26 29  1  0  0  0  0
 26 44  1  0  0  0  0
 27 30  2  0  0  0  0
 27 45  1  0  0  0  0
 28 46  1  0  0  0  0
 29 31  2  0  0  0  0
 29 47  1  0  0  0  0
 30 31  1  0  0  0  0
 30 48  1  0  0  0  0
 31 49  1  0  0  0  0
 32 33  2  0  0  0  0
 32 50  1  0  0  0  0
 33 51  1  0  0  0  0
M  END
> <PUBCHEM_COMPOUND_CID>
11193463

> <PUBCHEM_CONFORMER_RMSD>
1

> <PUBCHEM_CONFORMER_DIVERSEORDER>
1
87
103
22
79
13
52
62
28
19
116
73
76
88
33
21
117
25
63
43
55
48
106
16
81
85
70
89
44
72
42
118
66
26
54
83
6
91
14
9
18
115
86
92
71
57
34
68
59
112
95
3
15
104
77
31
75
61
32
23
93
47
46
51
58
64
11
114
41
27
84
99
113
100
107
30
5
7
39
94
78
45
20
82
35
38
4
2
65
102
8
90
80
29
36
49
97
119
53
74
108
24
17
67
69
50
105
109
101
12
56
98
96
37
10
60
40
110
111

> <PUBCHEM_MMFF94_PARTIAL_CHARGES>
42
1 -0.19
10 -0.42
11 -0.23
12 0.3
13 0.3
14 0.3
15 0.3
16 0.63
17 0.54
18 0.66
19 -0.09
2 -0.57
21 0.09
22 -0.15
23 -0.3
24 0.29
25 0.19
26 -0.15
27 -0.15
28 0.16
29 -0.15
3 -0.57
30 -0.15
31 -0.15
32 -0.3
33 0.08
4 -0.57
42 0.15
43 0.27
44 0.15
45 0.15
46 0.15
47 0.15
48 0.15
49 0.15
5 -0.66
50 0.15
51 0.15
6 -0.66
7 0.03
8 0.59
9 -0.62

> <PUBCHEM_EFFECTIVE_ROTOR_COUNT>
7.2

> <PUBCHEM_PHARMACOPHORE_FEATURES>
11
1 2 acceptor
1 3 acceptor
1 4 acceptor
1 7 cation
1 7 donor
3 8 9 24 cation
5 7 19 20 22 23 rings
5 8 10 11 32 33 rings
6 21 26 27 29 30 31 rings
6 5 6 12 13 14 15 rings
6 9 20 22 24 25 28 rings

> <PUBCHEM_HEAVY_ATOM_COUNT>
33

> <PUBCHEM_ATOM_DEF_STEREO_COUNT>
0

> <PUBCHEM_ATOM_UDEF_STEREO_COUNT>
0

> <PUBCHEM_BOND_DEF_STEREO_COUNT>
0

> <PUBCHEM_BOND_UDEF_STEREO_COUNT>
0

> <PUBCHEM_ISOTOPIC_ATOM_COUNT>
0

> <PUBCHEM_COMPONENT_COUNT>
1

> <PUBCHEM_CACTVS_TAUTO_COUNT>
5

> <PUBCHEM_CONFORMER_ID>
00AACC7700000001

> <PUBCHEM_MMFF94_ENERGY>
70.1757

> <PUBCHEM_FEATURE_SELFOVERLAP>
55.924

> <PUBCHEM_SHAPE_FINGERPRINT>
10622 236 18260266304896952290
10917259 128 8357673155656983438
10928967 22 18340774844422835411
11135926 11 17460624569823050076
11211813 140 18339912745644511523
11497681 19 18336828590444280070
11607047 403 18196642111785514288
12422481 6 16343436072000356701
12633046 712 17896053190218717075
12655364 74 9796831775387459363
12977781 61 18123434333463044929
13627167 48 13840812285494871063
13782708 43 17561362881067752902
13885169 86 10447634833781628306
15188451 53 17489582394657454215
15320294 125 18194133927903754785
15684393 108 18042413602708929015
16120349 67 10737286792599804440
19303781 99 18113618954454130690
20691028 202 11675694721965230623
20775438 99 17970347238052104482
20775530 9 18114174194798109817
21033648 29 15984549893004910369
21458453 9 16415472796174845274
23569914 152 15940030611013849995
2748736 6 8862947160525576875
2838139 119 11746940927232823516
32027 91 18269825554015953667
3504750 166 18123184607015617306
4017518 198 16894821044024069412
4394409 98 18341600496425587231
44062 13 18343305903521718685
44880168 125 17985850141228659871
46194498 28 15503803981430559509
484985 159 18267295440147823501
50009960 94 18057299842643752499
5104073 3 17560529516316361521
563151 74 13254794655284276918
6058803 2 18266201511413997676
6677587 24 16519057932835853076
6691757 9 17911518692746992505
7970288 3 18412260631783819119
9849439 229 8646498418483709835

> <PUBCHEM_SHAPE_MULTIPOLES>
619.38
17.4
4.47
2.31
2.87
0.47
-0.83
21.73
-0.46
0.75
0.6
-0.92
-0.01
-5.71

> <PUBCHEM_SHAPE_SELFOVERLAP>
1377.727

> <PUBCHEM_SHAPE_VOLUME>
330.1

> <PUBCHEM_COORDINATE_TYPE>
2
5
10

$$$$
