REMARK  Name = 11193463
REMARK  3 active torsions:
REMARK  status: ('A' for Active; 'I' for Inactive)
REMARK    1  A    between atoms: C_2  and  C_9
REMARK    2  A    between atoms: C_2  and  C_27
REMARK    3  A    between atoms: C_28  and  C_29
REMARK                            x       y       z     vdW  Elec       q    Type
REMARK                         _______ _______ _______ _____ _____    ______ ____
ROOT
ATOM      1  O   UNL     1       0.640   3.047  -1.410  0.00  0.00    -0.282 OA
ATOM      2  C   UNL     1       0.638   2.473  -0.324  0.00  0.00    +0.250 C 
ENDROOT
BRANCH   2   9
ATOM      3  F   UNL     1       2.606   2.101  -2.833  0.00  0.00    -0.202 F 
ATOM      4  N   UNL     1       2.646  -0.065   1.261  0.00  0.00    -0.309 N 
ATOM      5  N   UNL     1       5.051  -1.662   0.388  0.00  0.00    -0.151 N 
ATOM      6  N   UNL     1       4.891  -0.470  -1.641  0.00  0.00    -0.224 NA
ATOM      7  N   UNL     1       4.628  -1.945   1.635  0.00  0.00    -0.067 NA
ATOM      8  N   UNL     1       5.431  -2.882   2.126  0.00  0.00    -0.129 NA
ATOM      9  C   UNL     1       1.609   1.448   0.052  0.00  0.00    +0.062 C 
ATOM     10  C   UNL     1       2.670   0.949  -0.727  0.00  0.00    +0.050 C 
ATOM     11  C   UNL     1       3.313  -0.008   0.059  0.00  0.00    +0.085 C 
ATOM     12  C   UNL     1       1.604   0.823   1.263  0.00  0.00    +0.065 C 
ATOM     13  C   UNL     1       4.418  -0.714  -0.397  0.00  0.00    +0.170 C 
ATOM     14  C   UNL     1       3.161   1.201  -2.016  0.00  0.00    +0.161 C 
ATOM     15  C   UNL     1       4.268   0.458  -2.404  0.00  0.00    +0.130 C 
ATOM     16  C   UNL     1       6.138  -2.415   0.053  0.00  0.00    +0.115 C 
ATOM     17  C   UNL     1       6.361  -3.182   1.169  0.00  0.00    +0.142 C 
ATOM     18  H   UNL     1       2.884  -0.658   2.010  0.00  0.00    +0.152 HD
ENDBRANCH   2   9
BRANCH   2  27
ATOM     19  O   UNL     1      -0.151   3.841   1.338  0.00  0.00    -0.266 OA
ATOM     20  O   UNL     1      -5.870   0.055   1.773  0.00  0.00    -0.270 OA
ATOM     21  N   UNL     1      -1.635   2.217   0.512  0.00  0.00    -0.270 N 
ATOM     22  N   UNL     1      -3.659   0.326   1.066  0.00  0.00    -0.273 N 
ATOM     23  C   UNL     1      -2.752   2.586   1.383  0.00  0.00    +0.115 C 
ATOM     24  C   UNL     1      -1.926   1.162  -0.469  0.00  0.00    +0.115 C 
ATOM     25  C   UNL     1      -3.346   1.354   2.060  0.00  0.00    +0.115 C 
ATOM     26  C   UNL     1      -2.522  -0.063   0.219  0.00  0.00    +0.115 C 
ATOM     27  C   UNL     1      -0.436   2.910   0.598  0.00  0.00    +0.288 C 
ATOM     28  C   UNL     1      -4.936  -0.235   1.027  0.00  0.00    +0.249 C 
BRANCH  28  29
ATOM     29  C   UNL     1      -5.212  -1.254   0.006  0.00  0.00    +0.054 C 
ATOM     30  C   UNL     1      -4.986  -2.598   0.290  0.00  0.00    +0.005 C 
ATOM     31  C   UNL     1      -5.699  -0.870  -1.241  0.00  0.00    +0.005 C 
ATOM     32  C   UNL     1      -5.248  -3.566  -0.679  0.00  0.00    +0.000 C 
ATOM     33  C   UNL     1      -5.961  -1.838  -2.211  0.00  0.00    +0.000 C 
ATOM     34  C   UNL     1      -5.736  -3.185  -1.930  0.00  0.00    +0.000 C 
ENDBRANCH  28  29
ENDBRANCH   2  27
TORSDOF 3
