11209273
  -OEChem-03292013303D

 36 36  0     0  0  0  0  0  0999 V2000
   -4.1442    3.7247   -0.3969 Br  0  0  0  0  0  0  0  0  0  0  0  0
   -2.6649   -2.4521    0.3320 O   0  0  0  0  0  0  0  0  0  0  0  0
   -1.1833   -1.2122   -0.9120 N   0  0  0  0  0  0  0  0  0  0  0  0
    4.3467    0.1574   -0.1219 N   0  0  0  0  0  0  0  0  0  0  0  0
   -4.3235   -0.1654    0.7119 N   0  0  0  0  0  0  0  0  0  0  0  0
    5.5162    2.0251    0.8339 N   0  0  0  0  0  0  0  0  0  0  0  0
    5.8480    1.4337   -1.3421 N   0  0  0  0  0  0  0  0  0  0  0  0
    1.6771   -1.1431    0.0128 C   0  0  0  0  0  0  0  0  0  0  0  0
    0.8057   -2.4004   -0.0703 C   0  0  0  0  0  0  0  0  0  0  0  0
    2.7823   -1.3043    1.0613 C   0  0  0  0  0  0  0  0  0  0  0  0
   -0.2694   -2.2960   -1.1475 C   0  0  0  0  0  0  0  0  0  0  0  0
    3.6773   -0.0738    1.1591 C   0  0  0  0  0  0  0  0  0  0  0  0
   -2.3543   -1.3684   -0.1658 C   0  0  0  0  0  0  0  0  0  0  0  0
   -3.1697   -0.1590    0.0148 C   0  0  0  0  0  0  0  0  0  0  0  0
   -2.9073    1.0790   -0.4620 C   0  0  0  0  0  0  0  0  0  0  0  0
   -4.8383    1.1046    0.6957 C   0  0  0  0  0  0  0  0  0  0  0  0
   -3.9773    1.8999   -0.0281 C   0  0  0  0  0  0  0  0  0  0  0  0
    5.1788    1.1504   -0.1748 C   0  0  0  0  0  0  0  0  0  0  0  0
    2.1167   -0.9480   -0.9724 H   0  0  0  0  0  0  0  0  0  0  0  0
    1.0617   -0.2733    0.2715 H   0  0  0  0  0  0  0  0  0  0  0  0
    1.4380   -3.2694   -0.2888 H   0  0  0  0  0  0  0  0  0  0  0  0
    0.3356   -2.5809    0.9043 H   0  0  0  0  0  0  0  0  0  0  0  0
    3.3950   -2.1793    0.8110 H   0  0  0  0  0  0  0  0  0  0  0  0
    2.3313   -1.4961    2.0423 H   0  0  0  0  0  0  0  0  0  0  0  0
    0.1898   -2.1265   -2.1274 H   0  0  0  0  0  0  0  0  0  0  0  0
   -0.8280   -3.2368   -1.2019 H   0  0  0  0  0  0  0  0  0  0  0  0
    4.4167   -0.2483    1.9501 H   0  0  0  0  0  0  0  0  0  0  0  0
    3.0685    0.7953    1.4364 H   0  0  0  0  0  0  0  0  0  0  0  0
   -0.9381   -0.3112   -1.3072 H   0  0  0  0  0  0  0  0  0  0  0  0
   -4.7454   -0.9616    1.1710 H   0  0  0  0  0  0  0  0  0  0  0  0
   -2.0624    1.4021   -1.0539 H   0  0  0  0  0  0  0  0  0  0  0  0
   -5.7690    1.3247    1.2002 H   0  0  0  0  0  0  0  0  0  0  0  0
    5.1133    1.9621    1.7620 H   0  0  0  0  0  0  0  0  0  0  0  0
    6.1855    2.7708    0.6767 H   0  0  0  0  0  0  0  0  0  0  0  0
    6.5020    2.2062   -1.4045 H   0  0  0  0  0  0  0  0  0  0  0  0
    5.7040    0.8759   -2.1768 H   0  0  0  0  0  0  0  0  0  0  0  0
  1 17  1  0  0  0  0
  2 13  2  0  0  0  0
  3 11  1  0  0  0  0
  3 13  1  0  0  0  0
  3 29  1  0  0  0  0
  4 12  1  0  0  0  0
  4 18  2  0  0  0  0
  5 14  1  0  0  0  0
  5 16  1  0  0  0  0
  5 30  1  0  0  0  0
  6 18  1  0  0  0  0
  6 33  1  0  0  0  0
  6 34  1  0  0  0  0
  7 18  1  0  0  0  0
  7 35  1  0  0  0  0
  7 36  1  0  0  0  0
  8  9  1  0  0  0  0
  8 10  1  0  0  0  0
  8 19  1  0  0  0  0
  8 20  1  0  0  0  0
  9 11  1  0  0  0  0
  9 21  1  0  0  0  0
  9 22  1  0  0  0  0
 10 12  1  0  0  0  0
 10 23  1  0  0  0  0
 10 24  1  0  0  0  0
 11 25  1  0  0  0  0
 11 26  1  0  0  0  0
 12 27  1  0  0  0  0
 12 28  1  0  0  0  0
 13 14  1  0  0  0  0
 14 15  2  0  0  0  0
 15 17  1  0  0  0  0
 15 31  1  0  0  0  0
 16 17  2  0  0  0  0
 16 32  1  0  0  0  0
M  END
> <PUBCHEM_COMPOUND_CID>
11209273

> <PUBCHEM_CONFORMER_RMSD>
0.8

> <PUBCHEM_CONFORMER_DIVERSEORDER>
1
167
431
222
454
24
200
416
269
8
49
434
424
480
352
142
313
212
487
453
35
62
380
249
160
157
257
315
211
10
342
236
304
267
103
208
489
283
107
262
310
130
12
256
139
467
259
387
307
224
320
108
279
27
417
376
288
339
472
70
414
237
344
406
391
44
443
361
97
7
309
96
296
186
9
190
277
159
354
176
311
16
486
52
464
143
60
111
133
355
345
343
57
398
78
436
216
357
177
189
17
254
411
170
427
6
228
326
184
432
451
74
124
483
76
271
14
161
118
394
197
297
353
80
63
298
481
188
11
202
456
294
223
20
299
363
367
484
410
48
386
231
132
181
99
233
55
425
382
71
64
195
278
270
488
316
348
337
374
2
191
362
210
53
28
473
317
182
301
268
59
21
13
351
240
282
4
327
209
491
318
38
328
234
455
183
47
220
192
305
171
36
174
227
127
91
95
135
466
377
153
15
168
146
332
419
366
37
381
329
3
138
323
23
449
364
245
33
253
321
392
295
241
336
475
54
325
388
203
286
285
45
100
156
368
29
193
98
19
356
378
31
58
32
34
404
122
435
230
360
72
375
147
93
154
56
490
217
265
110
229
300
204
158
137
482
261
51
370
369
302
149
492
412
402
272
244
22
485
163
169
128
151
373
82
242
421
134
457
205
129
104
81
248
25
291
359
102
18
371
221
207
215
338
429
101
358
441
5
418
379
331
469
50
26
115
280
218
113
187
145
333
166
199
476
92
459
235
87
117
179
471
226
185
438
322
61
447
293
206
478
458
445
289
312
347
396
79
120
393
349
65
201
461
341
238
400
162
401
383
246
194
409
173
407
41
247
452
463
77
39
68
196
426
335
284
144
214
126
420
462
42
66
465
470
155
123
479
428
150
397
243
30
365
330
346
75
422
43
384
175
90
399
73
260
136
112
83
468
266
172
250
225
94
125
140
308
84
89
437
408
306
389
292
116
67
40
350
287
324
281
314
219
106
274
415
105
86
198
385
413
165
178
319
252
340
275
213
263
180
148
255
46
152
446
258
405
460
390
232
290
88
372
403
164
334
85
474
450
239
395
121
423
273
477
141
440
303
430
109
448
442
131
444
114
119
276
69
251
264
433
439

> <PUBCHEM_MMFF94_PARTIAL_CHARGES>
23
1 -0.06
11 0.3
12 0.25
13 0.71
14 -0.24
15 -0.15
16 -0.3
17 0.06
18 0.55
2 -0.57
29 0.37
3 -0.73
30 0.27
31 0.15
32 0.15
33 0.4
34 0.4
35 0.4
36 0.4
4 -0.7
5 0.03
6 -0.85
7 -0.85

> <PUBCHEM_EFFECTIVE_ROTOR_COUNT>
8

> <PUBCHEM_PHARMACOPHORE_FEATURES>
9
1 1 hydrophobe
1 2 acceptor
1 3 donor
1 5 cation
1 5 donor
1 6 donor
1 7 donor
4 4 6 7 18 cation
5 5 14 15 16 17 rings

> <PUBCHEM_HEAVY_ATOM_COUNT>
18

> <PUBCHEM_ATOM_DEF_STEREO_COUNT>
0

> <PUBCHEM_ATOM_UDEF_STEREO_COUNT>
0

> <PUBCHEM_BOND_DEF_STEREO_COUNT>
0

> <PUBCHEM_BOND_UDEF_STEREO_COUNT>
0

> <PUBCHEM_ISOTOPIC_ATOM_COUNT>
0

> <PUBCHEM_COMPONENT_COUNT>
1

> <PUBCHEM_CACTVS_TAUTO_COUNT>
6

> <PUBCHEM_CONFORMER_ID>
00AB0A3900000001

> <PUBCHEM_MMFF94_ENERGY>
20.9761

> <PUBCHEM_FEATURE_SELFOVERLAP>
45.727

> <PUBCHEM_SHAPE_FINGERPRINT>
10498660 4 18201720648018076840
10615611 76 17749404701377173980
10670039 82 18412262865667499076
12390115 104 18272100417092329635
12596602 18 17385442124656541667
12892183 10 17822579309161267779
14123255 352 18411133606732116925
1420 369 8142090875046068480
14251764 30 11814454266121845989
14251764 38 17907857306310017737
14251764 75 18126289632311662697
14341114 328 17603304873353734312
14848178 5 9007056855464380992
15342168 16 18269830930966972255
17834072 32 18413106156272525544
20374829 77 8574706897717475635
20567600 70 9079104549871606806
20621476 91 13262964095461419248
20626108 58 10231755578908213366
21302155 148 18335140873442733924
21315759 227 9151174259590849088
21315763 87 13695593277638477296
21388113 180 17973998445480137589
23403322 49 9007051379407523827
23559900 14 17982170019891944919
23590187 32 18412823568851890347
25122255 55 11026062544237190288
2838139 119 18342729702850052876
3057174 1 17202758194482063087
38570 142 17822025233174288678
59682541 52 15912767163646048740
633830 44 18410285892169097798
76465 3 9079114462266242282
7808743 9 18412260661922034098

> <PUBCHEM_SHAPE_MULTIPOLES>
345.6
13.75
3.6
1.06
12.53
1.35
-0.04
13.45
0.91
-2.09
-0.63
0.72
-0.02
-0.12

> <PUBCHEM_SHAPE_SELFOVERLAP>
680.203

> <PUBCHEM_SHAPE_VOLUME>
208.9

> <PUBCHEM_COORDINATE_TYPE>
2
5
10

$$$$
