REMARK  Name = 11200016
REMARK  6 active torsions:
REMARK  status: ('A' for Active; 'I' for Inactive)
REMARK    1  A    between atoms: C_5  and  C_16
REMARK    2  A    between atoms: C_6  and  C_28
REMARK    3  A    between atoms: C_10  and  O_26
REMARK    4  A    between atoms: C_19  and  O_22
REMARK    5  A    between atoms: C_21  and  O_24
REMARK    6  A    between atoms: C_28  and  O_29
REMARK                            x       y       z     vdW  Elec       q    Type
REMARK                         _______ _______ _______ _____ _____    ______ ____
ROOT
ATOM      1  O   UNL     1       0.453   0.768   0.358  0.00  0.00    -0.465 OA
ATOM      2  O   UNL     1      -1.180  -1.591   0.097  0.00  0.00    -0.466 OA
ATOM      3  O   UNL     1      -3.879  -1.359   0.047  0.00  0.00    -0.418 OA
ATOM      4  O   UNL     1      -5.954  -2.321  -0.085  0.00  0.00    -0.244 OA
ATOM      5  C   UNL     1       0.925  -0.537   0.721  0.00  0.00    +0.231 C 
ATOM      6  C   UNL     1       0.239  -1.614  -0.136  0.00  0.00    +0.239 C 
ATOM      7  C   UNL     1      -1.704  -0.329   0.183  0.00  0.00    +0.210 C 
ATOM      8  C   UNL     1      -0.915   0.815   0.297  0.00  0.00    +0.209 C 
ATOM      9  C   UNL     1      -3.092  -0.191   0.149  0.00  0.00    +0.186 C 
ATOM     10  C   UNL     1      -1.508   2.079   0.335  0.00  0.00    +0.176 C 
ATOM     11  C   UNL     1      -3.701   1.061   0.200  0.00  0.00    +0.041 C 
ATOM     12  C   UNL     1      -2.900   2.202   0.289  0.00  0.00    +0.043 C 
ATOM     13  C   UNL     1      -5.152   1.141   0.154  0.00  0.00    +0.010 C 
ATOM     14  C   UNL     1      -5.885   0.029   0.060  0.00  0.00    +0.082 C 
ATOM     15  C   UNL     1      -5.269  -1.308   0.001  0.00  0.00    +0.346 C 
ENDROOT
BRANCH   5  16
ATOM     16  C   UNL     1       2.438  -0.597   0.649  0.00  0.00    +0.024 C 
ATOM     17  C   UNL     1       3.120   0.137  -0.323  0.00  0.00    +0.039 C 
ATOM     18  C   UNL     1       3.149  -1.386   1.553  0.00  0.00    +0.003 C 
ATOM     19  C   UNL     1       4.512   0.081  -0.389  0.00  0.00    +0.172 C 
ATOM     20  C   UNL     1       4.541  -1.441   1.486  0.00  0.00    +0.040 C 
ATOM     21  C   UNL     1       5.222  -0.708   0.515  0.00  0.00    +0.168 C 
BRANCH  19  22
ATOM     22  O   UNL     1       5.166   0.803  -1.341  0.00  0.00    -0.468 OA
ATOM     23  C   UNL     1       5.554   2.131  -0.995  0.00  0.00    +0.253 C 
ENDBRANCH  19  22
BRANCH  21  24
ATOM     24  O   UNL     1       6.582  -0.770   0.460  0.00  0.00    -0.503 OA
ATOM     25  H   UNL     1       7.048  -0.280  -0.189  0.00  0.00    +0.292 HD
ENDBRANCH  21  24
ENDBRANCH   5  16
BRANCH  10  26
ATOM     26  O   UNL     1      -0.745   3.204   0.427  0.00  0.00    -0.468 OA
ATOM     27  C   UNL     1      -0.325   3.804  -0.796  0.00  0.00    +0.253 C 
ENDBRANCH  10  26
BRANCH   6  28
ATOM     28  C   UNL     1       0.497  -1.521  -1.642  0.00  0.00    +0.185 C 
BRANCH  28  29
ATOM     29  O   UNL     1      -0.191  -2.581  -2.276  0.00  0.00    -0.378 OA
ATOM     30  H   UNL     1      -0.039  -2.538  -3.233  0.00  0.00    +0.211 HD
ENDBRANCH  28  29
ENDBRANCH   6  28
TORSDOF 6
