REMARK  Name = 11209273
REMARK  8 active torsions:
REMARK  status: ('A' for Active; 'I' for Inactive)
REMARK    1  A    between atoms: C_1  and  C_2
REMARK    2  A    between atoms: C_1  and  C_13
REMARK    3  A    between atoms: C_2  and  C_3
REMARK    4  A    between atoms: C_3  and  C_4
REMARK    5  A    between atoms: C_4  and  N_5
REMARK    6  A    between atoms: N_5  and  C_8
REMARK    7  A    between atoms: C_13  and  N_15
REMARK    8  A    between atoms: C_16  and  C_20
REMARK                            x       y       z     vdW  Elec       q    Type
REMARK                         _______ _______ _______ _____ _____    ______ ____
ROOT
ATOM      1  C   UNL     1       0.806  -2.400  -0.070  0.00  0.00    +0.021 C 
ENDROOT
BRANCH   1   2
ATOM      2  C   UNL     1       1.677  -1.143   0.013  0.00  0.00    +0.004 C 
BRANCH   2   3
ATOM      3  C   UNL     1       2.782  -1.304   1.061  0.00  0.00    +0.026 C 
BRANCH   3   4
ATOM      4  C   UNL     1       3.677  -0.074   1.159  0.00  0.00    +0.129 C 
BRANCH   4   5
ATOM      5  N   UNL     1       4.347   0.157  -0.122  0.00  0.00    -0.240 NA
BRANCH   5   8
ATOM      6  N   UNL     1       5.516   2.025   0.834  0.00  0.00    -0.370 N 
ATOM      7  N   UNL     1       5.848   1.434  -1.342  0.00  0.00    -0.370 N 
ATOM      8  C   UNL     1       5.179   1.150  -0.175  0.00  0.00    +0.189 C 
ATOM      9  H   UNL     1       5.106   1.932   1.724  0.00  0.00    +0.159 HD
ATOM     10  H   UNL     1       6.167   2.744   0.665  0.00  0.00    +0.159 HD
ATOM     11  H   UNL     1       5.696   0.881  -2.143  0.00  0.00    +0.159 HD
ATOM     12  H   UNL     1       6.479   2.189  -1.377  0.00  0.00    +0.159 HD
ENDBRANCH   5   8
ENDBRANCH   4   5
ENDBRANCH   3   4
ENDBRANCH   2   3
ENDBRANCH   1   2
BRANCH   1  13
ATOM     13  C   UNL     1      -0.269  -2.296  -1.147  0.00  0.00    +0.090 C 
BRANCH  13  15
ATOM     14  O   UNL     1      -2.665  -2.452   0.332  0.00  0.00    -0.269 OA
ATOM     15  N   UNL     1      -1.183  -1.212  -0.912  0.00  0.00    -0.300 N 
ATOM     16  C   UNL     1      -2.354  -1.368  -0.166  0.00  0.00    +0.259 C 
ATOM     17  H   UNL     1      -0.977  -0.327  -1.290  0.00  0.00    +0.150 HD
BRANCH  16  20
ATOM     18 BR   UNL     1      -4.144   3.725  -0.397  0.00  0.00    -0.048 Br
ATOM     19  N   UNL     1      -4.324  -0.165   0.712  0.00  0.00    -0.308 N 
ATOM     20  C   UNL     1      -3.170  -0.159   0.015  0.00  0.00    +0.103 C 
ATOM     21  C   UNL     1      -2.907   1.079  -0.462  0.00  0.00    +0.027 C 
ATOM     22  C   UNL     1      -4.838   1.105   0.696  0.00  0.00    +0.069 C 
ATOM     23  C   UNL     1      -3.977   1.900  -0.028  0.00  0.00    +0.051 C 
ATOM     24  H   UNL     1      -4.726  -0.947   1.156  0.00  0.00    +0.152 HD
ENDBRANCH  16  20
ENDBRANCH  13  15
ENDBRANCH   1  13
TORSDOF 8
