REMARK  Name = 11209399
REMARK  5 active torsions:
REMARK  status: ('A' for Active; 'I' for Inactive)
REMARK    1  A    between atoms: C_3  and  O_18
REMARK    2  A    between atoms: C_6  and  O_20
REMARK    3  A    between atoms: C_10  and  O_22
REMARK    4  A    between atoms: C_11  and  O_24
REMARK    5  A    between atoms: C_16  and  O_26
REMARK                            x       y       z     vdW  Elec       q    Type
REMARK                         _______ _______ _______ _____ _____    ______ ____
ROOT
ATOM      1  O   UNL     1      -2.472   2.410  -0.224  0.00  0.00    -0.283 OA
ATOM      2  O   UNL     1      -2.162  -2.919   0.008  0.00  0.00    -0.286 OA
ATOM      3  C   UNL     1       3.904   0.827   0.044  0.00  0.00    +0.095 C 
ATOM      4  C   UNL     1       3.901  -0.509   0.802  0.00  0.00    +0.061 C 
ATOM      5  C   UNL     1       2.573   1.565   0.257  0.00  0.00    +0.056 C 
ATOM      6  C   UNL     1       2.760  -1.428   0.354  0.00  0.00    +0.138 C 
ATOM      7  C   UNL     1       1.350   0.681   0.155  0.00  0.00    +0.015 A 
ATOM      8  C   UNL     1       1.434  -0.720   0.233  0.00  0.00    +0.037 A 
ATOM      9  C   UNL     1       5.072   1.705   0.503  0.00  0.00    +0.030 C 
ATOM     10  C   UNL     1       0.090   1.292   0.032  0.00  0.00    +0.133 A 
ATOM     11  C   UNL     1       0.258  -1.486   0.162  0.00  0.00    +0.135 A 
ATOM     12  C   UNL     1      -1.075   0.520  -0.034  0.00  0.00    +0.081 A 
ATOM     13  C   UNL     1      -0.991  -0.868   0.029  0.00  0.00    +0.079 A 
ATOM     14  C   UNL     1      -2.385   1.189  -0.168  0.00  0.00    +0.232 C 
ATOM     15  C   UNL     1      -2.209  -1.696  -0.042  0.00  0.00    +0.202 C 
ATOM     16  C   UNL     1      -3.595   0.334  -0.233  0.00  0.00    +0.181 C 
ATOM     17  C   UNL     1      -3.505  -0.999  -0.174  0.00  0.00    +0.082 C 
ENDROOT
BRANCH   3  18
ATOM     18  O   UNL     1       4.068   0.599  -1.358  0.00  0.00    -0.386 OA
ATOM     19  H   UNL     1       3.342   0.044  -1.682  0.00  0.00    +0.210 HD
ENDBRANCH   3  18
BRANCH   6  20
ATOM     20  O   UNL     1       3.065  -2.008  -0.912  0.00  0.00    -0.380 OA
ATOM     21  H   UNL     1       3.916  -2.471  -0.860  0.00  0.00    +0.211 HD
ENDBRANCH   6  20
BRANCH  10  22
ATOM     22  O   UNL     1       0.036   2.657  -0.009  0.00  0.00    -0.506 OA
ATOM     23  H   UNL     1       0.826   3.159   0.036  0.00  0.00    +0.292 HD
ENDBRANCH  10  22
BRANCH  11  24
ATOM     24  O   UNL     1       0.367  -2.848   0.221  0.00  0.00    -0.506 OA
ATOM     25  H   UNL     1       1.210  -3.247   0.310  0.00  0.00    +0.292 HD
ENDBRANCH  11  24
BRANCH  16  26
ATOM     26  O   UNL     1      -4.805   0.986  -0.357  0.00  0.00    -0.468 OA
ATOM     27  C   UNL     1      -5.678   0.714   0.711  0.00  0.00    +0.253 C 
ENDBRANCH  16  26
TORSDOF 5
