11200016
  -OEChem-03292013303D

 46 49  0     1  0  0  0  0  0999 V2000
    0.4530    0.7683    0.3582 O   0  0  0  0  0  0  0  0  0  0  0  0
   -1.1796   -1.5905    0.0974 O   0  0  0  0  0  0  0  0  0  0  0  0
   -0.1905   -2.5813   -2.2763 O   0  0  0  0  0  0  0  0  0  0  0  0
   -3.8794   -1.3589    0.0469 O   0  0  0  0  0  0  0  0  0  0  0  0
   -0.7453    3.2042    0.4275 O   0  0  0  0  0  0  0  0  0  0  0  0
    5.1662    0.8031   -1.3415 O   0  0  0  0  0  0  0  0  0  0  0  0
    6.5821   -0.7700    0.4604 O   0  0  0  0  0  0  0  0  0  0  0  0
   -5.9537   -2.3212   -0.0848 O   0  0  0  0  0  0  0  0  0  0  0  0
    0.9249   -0.5372    0.7207 C   0  0  1  0  0  0  0  0  0  0  0  0
    0.2395   -1.6140   -0.1355 C   0  0  2  0  0  0  0  0  0  0  0  0
    2.4378   -0.5967    0.6487 C   0  0  0  0  0  0  0  0  0  0  0  0
   -1.7039   -0.3294    0.1829 C   0  0  0  0  0  0  0  0  0  0  0  0
   -0.9150    0.8150    0.2973 C   0  0  0  0  0  0  0  0  0  0  0  0
    0.4969   -1.5210   -1.6420 C   0  0  0  0  0  0  0  0  0  0  0  0
   -3.0919   -0.1914    0.1486 C   0  0  0  0  0  0  0  0  0  0  0  0
   -1.5084    2.0788    0.3350 C   0  0  0  0  0  0  0  0  0  0  0  0
   -3.7011    1.0608    0.2004 C   0  0  0  0  0  0  0  0  0  0  0  0
    3.1197    0.1368   -0.3225 C   0  0  0  0  0  0  0  0  0  0  0  0
    3.1489   -1.3858    1.5531 C   0  0  0  0  0  0  0  0  0  0  0  0
   -2.8996    2.2017    0.2893 C   0  0  0  0  0  0  0  0  0  0  0  0
    4.5118    0.0812   -0.3893 C   0  0  0  0  0  0  0  0  0  0  0  0
    4.5410   -1.4414    1.4863 C   0  0  0  0  0  0  0  0  0  0  0  0
   -5.1515    1.1407    0.1538 C   0  0  0  0  0  0  0  0  0  0  0  0
    5.2224   -0.7078    0.5151 C   0  0  0  0  0  0  0  0  0  0  0  0
   -5.8851    0.0292    0.0604 C   0  0  0  0  0  0  0  0  0  0  0  0
   -5.2685   -1.3082    0.0012 C   0  0  0  0  0  0  0  0  0  0  0  0
   -0.3248    3.8039   -0.7959 C   0  0  0  0  0  0  0  0  0  0  0  0
    5.5540    2.1312   -0.9954 C   0  0  0  0  0  0  0  0  0  0  0  0
    0.6402   -0.6791    1.7747 H   0  0  0  0  0  0  0  0  0  0  0  0
    0.5699   -2.6049    0.2019 H   0  0  0  0  0  0  0  0  0  0  0  0
    0.1266   -0.5824   -2.0650 H   0  0  0  0  0  0  0  0  0  0  0  0
    1.5598   -1.6232   -1.8747 H   0  0  0  0  0  0  0  0  0  0  0  0
    2.5800    0.7519   -1.0383 H   0  0  0  0  0  0  0  0  0  0  0  0
    2.6294   -1.9639    2.3127 H   0  0  0  0  0  0  0  0  0  0  0  0
   -3.3517    3.1904    0.3265 H   0  0  0  0  0  0  0  0  0  0  0  0
    5.0887   -2.0584    2.1935 H   0  0  0  0  0  0  0  0  0  0  0  0
   -5.6263    2.1148    0.1956 H   0  0  0  0  0  0  0  0  0  0  0  0
   -0.0150   -2.5088   -3.2299 H   0  0  0  0  0  0  0  0  0  0  0  0
   -6.9677    0.0825    0.0249 H   0  0  0  0  0  0  0  0  0  0  0  0
   -1.1911    4.1232   -1.3839 H   0  0  0  0  0  0  0  0  0  0  0  0
    0.2875    3.1070   -1.3769 H   0  0  0  0  0  0  0  0  0  0  0  0
    0.2790    4.6835   -0.5567 H   0  0  0  0  0  0  0  0  0  0  0  0
    6.8860   -0.2352   -0.2929 H   0  0  0  0  0  0  0  0  0  0  0  0
    6.0970    2.5609   -1.8416 H   0  0  0  0  0  0  0  0  0  0  0  0
    4.6707    2.7467   -0.7975 H   0  0  0  0  0  0  0  0  0  0  0  0
    6.2129    2.1290   -0.1215 H   0  0  0  0  0  0  0  0  0  0  0  0
  1  9  1  0  0  0  0
  1 13  1  0  0  0  0
  2 10  1  0  0  0  0
  2 12  1  0  0  0  0
  3 14  1  0  0  0  0
  3 38  1  0  0  0  0
  4 15  1  0  0  0  0
  4 26  1  0  0  0  0
  5 16  1  0  0  0  0
  5 27  1  0  0  0  0
  6 21  1  0  0  0  0
  6 28  1  0  0  0  0
  7 24  1  0  0  0  0
  7 43  1  0  0  0  0
  8 26  2  0  0  0  0
  9 10  1  0  0  0  0
  9 11  1  0  0  0  0
  9 29  1  0  0  0  0
 10 14  1  0  0  0  0
 10 30  1  0  0  0  0
 11 18  2  0  0  0  0
 11 19  1  0  0  0  0
 12 13  1  0  0  0  0
 12 15  2  0  0  0  0
 13 16  2  0  0  0  0
 14 31  1  0  0  0  0
 14 32  1  0  0  0  0
 15 17  1  0  0  0  0
 16 20  1  0  0  0  0
 17 20  2  0  0  0  0
 17 23  1  0  0  0  0
 18 21  1  0  0  0  0
 18 33  1  0  0  0  0
 19 22  2  0  0  0  0
 19 34  1  0  0  0  0
 20 35  1  0  0  0  0
 21 24  2  0  0  0  0
 22 24  1  0  0  0  0
 22 36  1  0  0  0  0
 23 25  2  0  0  0  0
 23 37  1  0  0  0  0
 25 26  1  0  0  0  0
 25 39  1  0  0  0  0
 27 40  1  0  0  0  0
 27 41  1  0  0  0  0
 27 42  1  0  0  0  0
 28 44  1  0  0  0  0
 28 45  1  0  0  0  0
 28 46  1  0  0  0  0
M  END
> <PUBCHEM_COMPOUND_CID>
11200016

> <PUBCHEM_CONFORMER_RMSD>
0.8

> <PUBCHEM_CONFORMER_DIVERSEORDER>
1
6
7
4
8
11
10
5
9
3
12
2

> <PUBCHEM_MMFF94_PARTIAL_CHARGES>
36
1 -0.36
10 0.28
11 -0.14
12 0.08
13 0.08
14 0.28
15 0.08
16 0.08
17 0.03
18 -0.15
19 -0.15
2 -0.36
20 -0.15
21 0.08
22 -0.15
23 -0.18
24 0.08
25 -0.14
26 0.71
27 0.28
28 0.28
3 -0.68
33 0.15
34 0.15
35 0.15
36 0.15
37 0.15
38 0.4
39 0.15
4 -0.23
43 0.45
5 -0.36
6 -0.36
7 -0.53
8 -0.57
9 0.42

> <PUBCHEM_EFFECTIVE_ROTOR_COUNT>
4.8

> <PUBCHEM_PHARMACOPHORE_FEATURES>
12
1 1 acceptor
1 2 acceptor
1 3 acceptor
1 3 donor
1 5 acceptor
1 6 acceptor
1 7 donor
1 8 acceptor
6 1 2 9 10 12 13 rings
6 11 18 19 21 22 24 rings
6 12 13 15 16 17 20 rings
6 4 15 17 23 25 26 rings

> <PUBCHEM_HEAVY_ATOM_COUNT>
28

> <PUBCHEM_ATOM_DEF_STEREO_COUNT>
2

> <PUBCHEM_ATOM_UDEF_STEREO_COUNT>
0

> <PUBCHEM_BOND_DEF_STEREO_COUNT>
0

> <PUBCHEM_BOND_UDEF_STEREO_COUNT>
0

> <PUBCHEM_ISOTOPIC_ATOM_COUNT>
0

> <PUBCHEM_COMPONENT_COUNT>
1

> <PUBCHEM_CACTVS_TAUTO_COUNT>
3

> <PUBCHEM_CONFORMER_ID>
00AAE61000000001

> <PUBCHEM_MMFF94_ENERGY>
114.8858

> <PUBCHEM_FEATURE_SELFOVERLAP>
60.978

> <PUBCHEM_SHAPE_FINGERPRINT>
10595046 47 18333169462057531080
10670039 82 18337966576040694044
10675989 125 16751267698143938229
10906281 52 18339940225039865729
11045515 52 17894627024621726461
11488393 25 16844183233185614558
11578080 2 13828476852027247697
12107183 9 17323787873301475578
12166972 35 17748548151442992436
12236239 1 18187083953323785522
12596602 18 18040718086410269754
12788726 201 18411142411330795104
128238 76 18411699902343729607
13533116 47 17530961342132157666
13862211 1 18412822512717359387
14341114 328 18335422327054910307
14787075 74 18113898269040717963
14790565 3 18411706482250003553
14840074 17 18342181085086765789
14955137 171 18060140989843765137
15685185 35 17463706634181564468
15927050 60 17621319469210594533
15961568 22 18409175389571876892
1601671 61 18273217482498974443
17492 89 18191863418959697538
17980427 23 18261683618677713941
19319366 153 18113892797637836210
20511986 3 18040705983091942997
20642791 35 18269275840967921288
20715895 44 17611176062286386645
21033648 29 17131249290942135459
21267235 1 18411139169506238091
21796203 349 17981071874965433939
23402539 116 18411131425110367519
23522609 53 18194992740642532305
23557571 272 18200882760054692373
23559900 14 17911521995481461998
3004659 81 18187364312183927930
335352 9 18410568480259126173
34797466 226 17631743772051207452
3633792 109 17313374613523867451
4340502 62 16950286212892706018
469060 322 18130238055322101497
474 4 17458636665811403284
59755656 215 17418376865595338686
6669772 16 17832150797924966453

> <PUBCHEM_SHAPE_MULTIPOLES>
529.27
13.82
3.06
1.22
3.52
2.43
-0.41
-2.4
0.57
-1.2
-0.68
1.21
-0.58
-1.68

> <PUBCHEM_SHAPE_SELFOVERLAP>
1166.387

> <PUBCHEM_SHAPE_VOLUME>
283.7

> <PUBCHEM_COORDINATE_TYPE>
2
5
10

$$$$
