REMARK  Name = 11201358
REMARK  5 active torsions:
REMARK  status: ('A' for Active; 'I' for Inactive)
REMARK    1  A    between atoms: C_10  and  O_25
REMARK    2  A    between atoms: C_12  and  O_31
REMARK    3  A    between atoms: C_15  and  O_27
REMARK    4  A    between atoms: C_23  and  O_29
REMARK    5  A    between atoms: O_31  and  C_33
REMARK                            x       y       z     vdW  Elec       q    Type
REMARK                         _______ _______ _______ _____ _____    ______ ____
ROOT
ATOM      1  O   UNL     1       0.117  -1.137  -1.422  0.00  0.00    -0.336 OA
ATOM      2  O   UNL     1       2.471   1.385   1.883  0.00  0.00    -0.452 OA
ATOM      3  O   UNL     1       0.350   0.957   2.571  0.00  0.00    -0.250 OA
ATOM      4  O   UNL     1      -3.248  -1.979  -0.265  0.00  0.00    -0.325 OA
ATOM      5  C   UNL     1       0.986   0.671   0.128  0.00  0.00    +0.152 C 
ATOM      6  C   UNL     1       2.389   0.904  -0.475  0.00  0.00    +0.060 C 
ATOM      7  C   UNL     1       2.513  -0.550  -0.946  0.00  0.00    +0.055 C 
ATOM      8  C   UNL     1       1.081  -0.820  -0.378  0.00  0.00    +0.110 C 
ATOM      9  C   UNL     1       3.292   1.085   0.744  0.00  0.00    +0.172 C 
ATOM     10  C   UNL     1       3.871  -0.974  -0.381  0.00  0.00    +0.094 C 
ATOM     11  C   UNL     1       3.977  -0.269   0.967  0.00  0.00    +0.071 C 
ATOM     12  C   UNL     1      -0.144   1.478  -0.546  0.00  0.00    +0.181 C 
ATOM     13  C   UNL     1       1.173   0.994   1.664  0.00  0.00    +0.322 C 
ATOM     14  C   UNL     1       0.891  -1.858   0.656  0.00  0.00    +0.033 C 
ATOM     15  C   UNL     1      -0.903  -1.981  -0.866  0.00  0.00    +0.209 C 
ATOM     16  C   UNL     1      -1.531   1.333   0.100  0.00  0.00    +0.051 C 
ATOM     17  C   UNL     1      -0.244  -2.520   0.382  0.00  0.00    +0.056 C 
ATOM     18  C   UNL     1       4.052  -2.481  -0.321  0.00  0.00    +0.030 C 
ATOM     19  C   UNL     1      -2.156  -1.113  -0.638  0.00  0.00    +0.173 C 
ATOM     20  C   UNL     1      -2.076  -0.054   0.480  0.00  0.00    +0.059 C 
ATOM     21  C   UNL     1      -3.517  -0.017   0.939  0.00  0.00    +0.013 C 
ATOM     22  C   UNL     1      -0.826  -3.627   1.187  0.00  0.00    +0.005 C 
ATOM     23  C   UNL     1      -4.264  -1.141   0.298  0.00  0.00    +0.253 C 
ATOM     24  C   UNL     1      -4.056   0.828   1.827  0.00  0.00    -0.004 C 
ENDROOT
BRANCH  10  25
ATOM     25  O   UNL     1       4.881  -0.450  -1.252  0.00  0.00    -0.387 OA
ATOM     26  H   UNL     1       4.790   0.514  -1.310  0.00  0.00    +0.210 HD
ENDBRANCH  10  25
BRANCH  15  27
ATOM     27  O   UNL     1      -1.175  -3.053  -1.762  0.00  0.00    -0.362 OA
ATOM     28  H   UNL     1      -0.371  -3.582  -1.887  0.00  0.00    +0.213 HD
ENDBRANCH  15  27
BRANCH  23  29
ATOM     29  O   UNL     1      -5.161  -0.677  -0.705  0.00  0.00    -0.357 OA
ATOM     30  H   UNL     1      -5.626  -1.433  -1.097  0.00  0.00    +0.213 HD
ENDBRANCH  23  29
BRANCH  12  31
ATOM     31  O   UNL     1       0.175   2.876  -0.477  0.00  0.00    -0.452 OA
BRANCH  31  33
ATOM     32  O   UNL     1      -1.461   3.453  -2.002  0.00  0.00    -0.250 OA
ATOM     33  C   UNL     1      -0.735   3.710  -1.051  0.00  0.00    +0.317 C 
ATOM     34  C   UNL     1      -0.724   5.027  -0.336  0.00  0.00    +0.121 C 
ENDBRANCH  31  33
ENDBRANCH  12  31
TORSDOF 5
