REMARK  Name = 11201041
REMARK  0 active torsions:
REMARK  status: ('A' for Active; 'I' for Inactive)
REMARK                            x       y       z     vdW  Elec       q    Type
REMARK                         _______ _______ _______ _____ _____    ______ ____
ROOT
ATOM      1  S   UNL     1       4.984  -1.349  -0.133  0.00  0.00    +0.015 S 
ATOM      2  O   UNL     1      -4.968   1.762  -0.457  0.00  0.00    -0.448 OA
ATOM      3  O   UNL     1      -2.574   3.220   0.303  0.00  0.00    -0.283 OA
ATOM      4  O   UNL     1       2.176  -2.367   0.198  0.00  0.00    -0.285 OA
ATOM      5  O   UNL     1       2.383   2.962  -0.053  0.00  0.00    -0.285 OA
ATOM      6  O   UNL     1       5.436  -1.631   1.218  0.00  0.00    -0.168 OA
ATOM      7  O   UNL     1       4.817  -2.428  -1.089  0.00  0.00    -0.168 OA
ATOM      8  N   UNL     1       4.750   1.659  -0.192  0.00  0.00    -0.328 N 
ATOM      9  C   UNL     1      -2.786  -1.041   0.511  0.00  0.00    +0.041 C 
ATOM     10  C   UNL     1      -2.951  -2.367  -0.294  0.00  0.00    +0.009 C 
ATOM     11  C   UNL     1      -3.862  -0.123   0.049  0.00  0.00    +0.018 C 
ATOM     12  C   UNL     1      -1.464  -0.274   0.287  0.00  0.00    -0.016 C 
ATOM     13  C   UNL     1      -4.408  -2.901  -0.269  0.00  0.00    +0.005 C 
ATOM     14  C   UNL     1      -5.104  -0.496  -0.507  0.00  0.00    +0.015 C 
ATOM     15  C   UNL     1      -5.462  -1.906  -0.806  0.00  0.00    +0.029 C 
ATOM     16  C   UNL     1      -2.922  -1.306   2.027  0.00  0.00    +0.009 C 
ATOM     17  C   UNL     1      -3.796   1.238  -0.021  0.00  0.00    +0.180 C 
ATOM     18  C   UNL     1      -1.378   1.149   0.228  0.00  0.00    +0.038 C 
ATOM     19  C   UNL     1      -0.258  -0.997   0.248  0.00  0.00    -0.001 C 
ATOM     20  C   UNL     1      -2.616   2.002   0.201  0.00  0.00    +0.229 C 
ATOM     21  C   UNL     1       0.981  -0.346   0.142  0.00  0.00    +0.043 C 
ATOM     22  C   UNL     1      -5.767   0.689  -0.755  0.00  0.00    +0.175 C 
ATOM     23  C   UNL     1      -0.138   1.794   0.129  0.00  0.00    +0.006 C 
ATOM     24  C   UNL     1       1.042   1.042   0.085  0.00  0.00    +0.043 C 
ATOM     25  C   UNL     1       3.504  -0.421  -0.045  0.00  0.00    +0.161 C 
ATOM     26  C   UNL     1       2.217  -1.145   0.104  0.00  0.00    +0.214 C 
ATOM     27  C   UNL     1       3.590   0.919  -0.086  0.00  0.00    +0.105 C 
ATOM     28  C   UNL     1       2.339   1.736  -0.020  0.00  0.00    +0.210 C 
ATOM     29  C   UNL     1       6.141  -0.205  -0.858  0.00  0.00    +0.177 C 
ATOM     30  C   UNL     1       6.093   1.130  -0.144  0.00  0.00    +0.113 C 
ATOM     31  H   UNL     1       4.653   2.631  -0.312  0.00  0.00    +0.147 HD
ENDROOT
TORSDOF 0
