REMARK  Name = 11207624
REMARK  5 active torsions:
REMARK  status: ('A' for Active; 'I' for Inactive)
REMARK    1  A    between atoms: C_2  and  O_16
REMARK    2  A    between atoms: C_3  and  O_18
REMARK    3  A    between atoms: C_4  and  C_10
REMARK    4  A    between atoms: C_5  and  C_20
REMARK    5  A    between atoms: C_20  and  O_21
REMARK                            x       y       z     vdW  Elec       q    Type
REMARK                         _______ _______ _______ _____ _____    ______ ____
ROOT
ATOM      1  O   UNL     1       1.679   0.518   0.998  0.00  0.00    -0.346 OA
ATOM      2  C   UNL     1       1.566  -0.981  -0.830  0.00  0.00    +0.171 C 
ATOM      3  C   UNL     1       3.023  -0.775  -0.469  0.00  0.00    +0.169 C 
ATOM      4  C   UNL     1       0.862  -0.527   0.441  0.00  0.00    +0.172 C 
ATOM      5  C   UNL     1       2.969   0.512   0.346  0.00  0.00    +0.174 C 
ENDROOT
BRANCH   4  10
ATOM      6  O   UNL     1      -1.453  -2.114   0.662  0.00  0.00    -0.270 OA
ATOM      7  O   UNL     1      -4.287   1.440  -0.436  0.00  0.00    -0.252 OA
ATOM      8  N   UNL     1      -2.930  -0.382   0.124  0.00  0.00    -0.209 N 
ATOM      9  N   UNL     1      -2.023   1.742  -0.342  0.00  0.00    -0.267 N 
ATOM     10  C   UNL     1      -0.512   0.001   0.207  0.00  0.00    +0.076 C 
ATOM     11  C   UNL     1      -1.662  -0.940   0.356  0.00  0.00    +0.256 C 
ATOM     12  C   UNL     1      -0.762   1.269  -0.130  0.00  0.00    +0.068 C 
ATOM     13  C   UNL     1      -3.166   0.967  -0.232  0.00  0.00    +0.314 C 
ATOM     14  C   UNL     1      -4.103  -1.238   0.253  0.00  0.00    +0.125 C 
ATOM     15  H   UNL     1      -2.128   2.690  -0.588  0.00  0.00    +0.156 HD
ENDBRANCH   4  10
BRANCH   2  16
ATOM     16  O   UNL     1       1.262  -2.323  -1.152  0.00  0.00    -0.379 OA
ATOM     17  H   UNL     1       1.727  -2.574  -1.965  0.00  0.00    +0.211 HD
ENDBRANCH   2  16
BRANCH   3  18
ATOM     18  O   UNL     1       3.462  -1.839   0.376  0.00  0.00    -0.379 OA
ATOM     19  H   UNL     1       3.500  -2.662  -0.135  0.00  0.00    +0.211 HD
ENDBRANCH   3  18
BRANCH   5  20
ATOM     20  C   UNL     1       3.073   1.768  -0.509  0.00  0.00    +0.169 C 
BRANCH  20  21
ATOM     21  O   UNL     1       3.001   2.901   0.339  0.00  0.00    -0.379 OA
ATOM     22  H   UNL     1       3.066   3.708  -0.195  0.00  0.00    +0.211 HD
ENDBRANCH  20  21
ENDBRANCH   5  20
TORSDOF 5
