REMARK  Name = 11205154
REMARK  7 active torsions:
REMARK  status: ('A' for Active; 'I' for Inactive)
REMARK    1  A    between atoms: C_2  and  C_22
REMARK    2  A    between atoms: C_3  and  C_13
REMARK    3  A    between atoms: C_4  and  S_8
REMARK    4  A    between atoms: C_13  and  C_16
REMARK    5  A    between atoms: C_22  and  O_23
REMARK    6  A    between atoms: O_23  and  C_24
REMARK    7  A    between atoms: C_24  and  C_26
REMARK                            x       y       z     vdW  Elec       q    Type
REMARK                         _______ _______ _______ _____ _____    ______ ____
ROOT
ATOM      1 CL   UNL     1      -0.078  -0.910   2.035  0.00  0.00    -0.082 Cl
ATOM      2  C   UNL     1       0.902   1.196   0.630  0.00  0.00    +0.035 C 
ATOM      3  C   UNL     1      -1.485   0.844   0.516  0.00  0.00    +0.046 C 
ATOM      4  C   UNL     1       0.779   2.303  -0.209  0.00  0.00    +0.105 C 
ATOM      5  C   UNL     1      -0.230   0.466   0.992  0.00  0.00    +0.060 C 
ATOM      6  C   UNL     1      -1.609   1.951  -0.323  0.00  0.00    +0.005 C 
ATOM      7  C   UNL     1      -0.476   2.681  -0.686  0.00  0.00    +0.018 C 
ENDROOT
BRANCH   4   8
ATOM      8  S   UNL     1       2.174   3.248  -0.688  0.00  0.00    +0.010 S 
ATOM      9  O   UNL     1       3.232   2.320  -1.055  0.00  0.00    -0.169 OA
ATOM     10  O   UNL     1       1.745   4.270  -1.629  0.00  0.00    -0.169 OA
ATOM     11  C   UNL     1       2.667   4.083   0.801  0.00  0.00    +0.182 C 
ENDBRANCH   4   8
BRANCH   3  13
ATOM     12  O   UNL     1      -3.067  -0.001   2.048  0.00  0.00    -0.290 OA
ATOM     13  C   UNL     1      -2.726   0.100   0.872  0.00  0.00    +0.187 C 
BRANCH  13  16
ATOM     14  O   UNL     1      -5.243   1.156   0.196  0.00  0.00    -0.295 OA
ATOM     15  O   UNL     1      -2.844  -2.700   0.564  0.00  0.00    -0.295 OA
ATOM     16  C   UNL     1      -3.546  -0.519  -0.223  0.00  0.00    +0.176 C 
ATOM     17  C   UNL     1      -5.955  -2.088  -0.958  0.00  0.00    +0.016 C 
ATOM     18  C   UNL     1      -5.902  -0.602  -1.279  0.00  0.00    +0.066 C 
ATOM     19  C   UNL     1      -4.580  -2.727  -1.076  0.00  0.00    +0.066 C 
ATOM     20  C   UNL     1      -4.935   0.096  -0.348  0.00  0.00    +0.165 C 
ATOM     21  C   UNL     1      -3.606  -2.041  -0.144  0.00  0.00    +0.165 C 
ENDBRANCH  13  16
ENDBRANCH   3  13
BRANCH   2  22
ATOM     22  C   UNL     1       2.256   0.801   1.135  0.00  0.00    +0.171 C 
BRANCH  22  23
ATOM     23  O   UNL     1       2.845  -0.114   0.222  0.00  0.00    -0.346 OA
BRANCH  23  24
ATOM     24  C   UNL     1       4.136  -0.524   0.653  0.00  0.00    +0.172 C 
BRANCH  24  26
ATOM     25  O   UNL     1       3.876  -2.663  -0.442  0.00  0.00    -0.354 OA
ATOM     26  C   UNL     1       4.710  -1.495  -0.360  0.00  0.00    +0.145 C 
ATOM     27  C   UNL     1       6.100  -1.992  -0.004  0.00  0.00    +0.035 C 
ATOM     28  C   UNL     1       6.137  -3.320  -0.719  0.00  0.00    +0.035 C 
ATOM     29  C   UNL     1       4.722  -3.820  -0.522  0.00  0.00    +0.142 C 
ENDBRANCH  24  26
ENDBRANCH  23  24
ENDBRANCH  22  23
ENDBRANCH   2  22
TORSDOF 7
