REMARK  Name = 112072
REMARK  8 active torsions:
REMARK  status: ('A' for Active; 'I' for Inactive)
REMARK    1  A    between atoms: CA_1  and  N_3
REMARK    2  A    between atoms: CA_1  and  C_13
REMARK    3  A    between atoms: CA_1  and  C_16
REMARK    4  A    between atoms: C_4  and  C_6
REMARK    5  A    between atoms: C_6  and  C_7
REMARK    6  A    between atoms: C_7  and  N_8
REMARK    7  A    between atoms: C_13  and  O_14
REMARK    8  A    between atoms: C_16  and  C_19
REMARK                            x       y       z     vdW  Elec       q    Type
REMARK                         _______ _______ _______ _____ _____    ______ ____
ROOT
ATOM      1  CA  UNL     1       0.192   1.256   0.006  0.00  0.00    +0.177 C 
ENDROOT
BRANCH   1   3
ATOM      2  O   UNL     1      -2.057   0.315   1.512  0.00  0.00    -0.275 OA
ATOM      3  N   UNL     1      -0.818   0.330  -0.450  0.00  0.00    -0.297 N 
ATOM      4  C   UNL     1      -1.872  -0.066   0.360  0.00  0.00    +0.221 C 
ATOM      5  H   UNL     1      -0.755  -0.031  -1.363  0.00  0.00    +0.150 HD
BRANCH   4   6
ATOM      6  C   UNL     1      -2.792  -1.040  -0.355  0.00  0.00    +0.061 C 
BRANCH   6   7
ATOM      7  C   UNL     1      -3.957  -1.485   0.523  0.00  0.00    -0.077 C 
BRANCH   7   8
ATOM      8  N   UNL     1      -4.803  -2.429  -0.198  0.00  0.00    +0.381 N 
ATOM      9  H   UNL     1      -5.577  -2.717   0.400  0.00  0.00    -0.089 HD
ATOM     10  H   UNL     1      -4.253  -3.247  -0.460  0.00  0.00    -0.089 HD
ATOM     11  H   UNL     1      -5.171  -1.983  -1.038  0.00  0.00    -0.089 HD
ENDBRANCH   7   8
ENDBRANCH   6   7
ENDBRANCH   4   6
ENDBRANCH   1   3
BRANCH   1  13
ATOM     12  OXT UNL     1       0.402   3.660   0.172  0.00  0.00    -0.248 OA
ATOM     13  C   UNL     1      -0.251   2.696  -0.212  0.00  0.00    +0.332 C 
BRANCH  13  14
ATOM     14  O   UNL     1      -1.431   2.836  -0.861  0.00  0.00    -0.479 OA
ATOM     15  H   UNL     1      -1.905   2.077  -1.141  0.00  0.00    +0.295 HD
ENDBRANCH  13  14
ENDBRANCH   1  13
BRANCH   1  16
ATOM     16  C   UNL     1       1.536   1.008  -0.693  0.00  0.00    +0.073 C 
BRANCH  16  19
ATOM     17  N   UNL     1       2.865  -0.715   0.544  0.00  0.00    -0.291 N 
ATOM     18  N   UNL     1       2.555  -2.563  -0.648  0.00  0.00    -0.314 N 
ATOM     19  C   UNL     1       2.062  -0.386  -0.490  0.00  0.00    +0.043 C 
ATOM     20  C   UNL     1       1.875  -1.515  -1.216  0.00  0.00    +0.069 C 
ATOM     21  C   UNL     1       3.141  -2.047   0.409  0.00  0.00    +0.185 C 
ATOM     22  C   UNL     1       3.353   0.144   1.597  0.00  0.00    +0.113 C 
ATOM     23  H   UNL     1       2.596  -3.494  -0.963  0.00  0.00    +0.148 HD
ENDBRANCH  16  19
ENDBRANCH   1  16
TORSDOF 8
