REMARK  Name = 11202081
REMARK  6 active torsions:
REMARK  status: ('A' for Active; 'I' for Inactive)
REMARK    1  A    between atoms: N_2  and  S_16
REMARK    2  A    between atoms: C_4  and  C_24
REMARK    3  A    between atoms: C_5  and  C_20
REMARK    4  A    between atoms: C_6  and  C_10
REMARK    5  A    between atoms: C_23  and  C_28
REMARK    6  A    between atoms: C_29  and  O_32
REMARK                            x       y       z     vdW  Elec       q    Type
REMARK                         _______ _______ _______ _____ _____    ______ ____
ROOT
ATOM      1  N   UNL     1       2.767  -1.348   0.611  0.00  0.00    -0.335 NA
ATOM      2  N   UNL     1       4.589   0.077   0.149  0.00  0.00    -0.116 N 
ATOM      3  N   UNL     1       2.425   1.010   0.250  0.00  0.00    -0.331 NA
ATOM      4  C   UNL     1       0.565  -0.419   0.721  0.00  0.00    +0.124 C 
ATOM      5  C   UNL     1       1.436  -1.475   0.795  0.00  0.00    +0.110 C 
ATOM      6  C   UNL     1       1.105   0.810   0.445  0.00  0.00    +0.133 C 
ATOM      7  C   UNL     1       3.187  -0.096   0.346  0.00  0.00    +0.221 C 
ATOM      8  C   UNL     1       5.182   1.392   0.530  0.00  0.00    +0.153 C 
ENDROOT
BRANCH   6  10
ATOM      9  F   UNL     1      -1.946   5.458   0.014  0.00  0.00    -0.204 F 
ATOM     10  C   UNL     1       0.313   2.017   0.333  0.00  0.00    +0.027 C 
ATOM     11  C   UNL     1       0.073   2.801   1.461  0.00  0.00    +0.005 C 
ATOM     12  C   UNL     1      -0.211   2.395  -0.903  0.00  0.00    +0.005 C 
ATOM     13  C   UNL     1      -0.690   3.963   1.353  0.00  0.00    +0.030 C 
ATOM     14  C   UNL     1      -0.974   3.558  -1.011  0.00  0.00    +0.030 C 
ATOM     15  C   UNL     1      -1.213   4.342   0.117  0.00  0.00    +0.140 C 
ENDBRANCH   6  10
BRANCH   2  16
ATOM     16  S   UNL     1       5.318  -0.772  -1.167  0.00  0.00    +0.068 S 
ATOM     17  O   UNL     1       4.980  -2.181  -1.080  0.00  0.00    -0.154 OA
ATOM     18  O   UNL     1       6.702  -0.362  -1.313  0.00  0.00    -0.154 OA
ATOM     19  C   UNL     1       4.418  -0.111  -2.554  0.00  0.00    +0.201 C 
ENDBRANCH   2  16
BRANCH   5  20
ATOM     20  C   UNL     1       0.962  -2.863   1.087  0.00  0.00    +0.050 C 
ATOM     21  C   UNL     1       1.548  -3.417   2.397  0.00  0.00    +0.007 C 
ATOM     22  C   UNL     1       1.251  -3.835  -0.071  0.00  0.00    +0.007 C 
ENDBRANCH   5  20
BRANCH   4  24
ATOM     23  C   UNL     1      -1.773  -0.870  -0.040  0.00  0.00    +0.013 C 
ATOM     24  C   UNL     1      -0.881  -0.609   0.927  0.00  0.00    -0.014 C 
BRANCH  23  28
ATOM     25  O   UNL     1      -3.937   0.001  -0.488  0.00  0.00    -0.448 OA
ATOM     26  O   UNL     1      -5.958   0.811  -1.117  0.00  0.00    -0.250 OA
ATOM     27  C   UNL     1      -3.734  -2.397  -0.285  0.00  0.00    +0.078 C 
ATOM     28  C   UNL     1      -3.235  -1.046   0.215  0.00  0.00    +0.193 C 
ATOM     29  C   UNL     1      -5.248  -2.521  -0.102  0.00  0.00    +0.126 C 
ATOM     30  C   UNL     1      -5.923  -1.191   0.214  0.00  0.00    +0.139 C 
ATOM     31  C   UNL     1      -5.295  -0.046  -0.541  0.00  0.00    +0.320 C 
BRANCH  29  32
ATOM     32  O   UNL     1      -5.802  -3.076  -1.294  0.00  0.00    -0.384 OA
ATOM     33  H   UNL     1      -5.369  -3.921  -1.490  0.00  0.00    +0.210 HD
ENDBRANCH  29  32
ENDBRANCH  23  28
ENDBRANCH   4  24
TORSDOF 6
