REMARK  Name = 11211175
REMARK  6 active torsions:
REMARK  status: ('A' for Active; 'I' for Inactive)
REMARK    1  A    between atoms: C_5  and  S_11
REMARK    2  A    between atoms: C_5  and  C_15
REMARK    3  A    between atoms: C_6  and  S_13
REMARK    4  A    between atoms: C_6  and  C_26
REMARK    5  A    between atoms: C_15  and  C_17
REMARK    6  A    between atoms: C_26  and  O_27
REMARK                            x       y       z     vdW  Elec       q    Type
REMARK                         _______ _______ _______ _____ _____    ______ ____
ROOT
ATOM      1  O   UNL     1      -2.420   2.480   1.225  0.00  0.00    -0.272 OA
ATOM      2  O   UNL     1      -0.610  -1.971  -1.255  0.00  0.00    -0.272 OA
ATOM      3  N   UNL     1      -2.857   0.318   0.486  0.00  0.00    -0.261 N 
ATOM      4  N   UNL     1      -0.511   0.265  -0.861  0.00  0.00    -0.290 N 
ATOM      5  C   UNL     1      -0.633   1.349   0.086  0.00  0.00    +0.170 C 
ATOM      6  C   UNL     1      -2.276  -1.031   0.254  0.00  0.00    +0.196 C 
ATOM      7  C   UNL     1      -2.052   1.456   0.640  0.00  0.00    +0.253 C 
ATOM      8  C   UNL     1      -1.077  -0.975  -0.701  0.00  0.00    +0.252 C 
ATOM      9  C   UNL     1      -4.250   0.421   0.938  0.00  0.00    +0.116 C 
ATOM     10  H   UNL     1       0.014   0.427  -1.678  0.00  0.00    +0.151 HD
ENDROOT
BRANCH   5  11
ATOM     11  S   UNL     1      -0.292   2.902  -0.853  0.00  0.00    -0.114 S 
ATOM     12  C   UNL     1      -1.616   2.756  -2.071  0.00  0.00    +0.071 C 
ENDBRANCH   5  11
BRANCH   6  13
ATOM     13  S   UNL     1      -3.489  -2.164  -0.592  0.00  0.00    -0.112 S 
ATOM     14  C   UNL     1      -3.705  -1.201  -2.103  0.00  0.00    +0.071 C 
ENDBRANCH   6  13
BRANCH   5  15
ATOM     15  C   UNL     1       0.401   1.244   1.206  0.00  0.00    +0.065 C 
BRANCH  15  17
ATOM     16  N   UNL     1       3.798   1.687  -0.058  0.00  0.00    -0.312 N 
ATOM     17  C   UNL     1       1.792   1.139   0.674  0.00  0.00    -0.003 C 
ATOM     18  C   UNL     1       2.474  -0.059   0.359  0.00  0.00    +0.011 C 
ATOM     19  C   UNL     1       2.617   2.196   0.413  0.00  0.00    +0.058 C 
ATOM     20  C   UNL     1       3.739   0.313  -0.102  0.00  0.00    +0.048 C 
ATOM     21  C   UNL     1       2.148  -1.429   0.417  0.00  0.00    +0.001 C 
ATOM     22  C   UNL     1       4.698  -0.621  -0.510  0.00  0.00    +0.015 C 
ATOM     23  C   UNL     1       3.098  -2.374   0.012  0.00  0.00    +0.000 C 
ATOM     24  C   UNL     1       4.353  -1.974  -0.444  0.00  0.00    +0.001 C 
ATOM     25  H   UNL     1       4.576   2.226  -0.327  0.00  0.00    +0.152 HD
ENDBRANCH  15  17
ENDBRANCH   5  15
BRANCH   6  26
ATOM     26  C   UNL     1      -1.878  -1.708   1.569  0.00  0.00    +0.175 C 
BRANCH  26  27
ATOM     27  O   UNL     1      -1.452  -3.019   1.271  0.00  0.00    -0.379 OA
ATOM     28  H   UNL     1      -1.194  -3.469   2.090  0.00  0.00    +0.211 HD
ENDBRANCH  26  27
ENDBRANCH   6  26
TORSDOF 6
