REMARK  Name = 11210971
REMARK  11 active torsions:
REMARK  status: ('A' for Active; 'I' for Inactive)
REMARK    1  A    between atoms: N_1  and  C1*_13
REMARK    2  A    between atoms: C_9  and  C_25
REMARK    3  A    between atoms: C2*_11  and  O2*_15
REMARK    4  A    between atoms: C3*_12  and  O3*_17
REMARK    5  A    between atoms: C4*_14  and  C5*_19
REMARK    6  A    between atoms: C5*_19  and  O5*_20
REMARK    7  A    between atoms: C_26  and  C_27
REMARK    8  A    between atoms: C_27  and  C_28
REMARK    9  A    between atoms: C_28  and  C_29
REMARK   10  A    between atoms: C_29  and  C_30
REMARK   11  A    between atoms: C_30  and  C_32
REMARK                            x       y       z     vdW  Elec       q    Type
REMARK                         _______ _______ _______ _____ _____    ______ ____
ROOT
ATOM      1  N   UNL     1      -2.655   1.179   0.445  0.00  0.00    -0.236 N 
ATOM      2  N   UNL     1      -2.136   3.339   0.242  0.00  0.00    -0.240 NA
ATOM      3  N   UNL     1      -0.529   0.182  -0.179  0.00  0.00    -0.316 NA
ATOM      4  N   UNL     1       1.129   1.891  -0.716  0.00  0.00    -0.317 NA
ATOM      5  C   UNL     1      -1.348   1.221   0.048  0.00  0.00    +0.221 C 
ATOM      6  C   UNL     1      -3.084   2.477   0.547  0.00  0.00    +0.224 C 
ATOM      7  C   UNL     1      -1.046   2.568  -0.071  0.00  0.00    +0.167 C 
ATOM      8  C   UNL     1       0.248   2.890  -0.469  0.00  0.00    +0.211 C 
ATOM      9  C   UNL     1       0.692   0.618  -0.558  0.00  0.00    +0.188 C 
ATOM     10  N   UNL     1       0.642   4.231  -0.616  0.00  0.00    -0.331 N 
ATOM     11  H   UNL     1       1.560   4.446  -0.898  0.00  0.00    +0.145 HD
ATOM     12  H   UNL     1      -0.001   4.955  -0.436  0.00  0.00    +0.145 HD
ENDROOT
BRANCH   1  16
ATOM     13  O4* UNL     1      -2.611  -1.053   1.248  0.00  0.00    -0.333 OA
ATOM     14  C2* UNL     1      -4.119  -0.605  -0.523  0.00  0.00    +0.187 C 
ATOM     15  C3* UNL     1      -4.293  -2.053  -0.109  0.00  0.00    +0.171 C 
ATOM     16  C1* UNL     1      -3.454  -0.015   0.712  0.00  0.00    +0.226 C 
ATOM     17  C4* UNL     1      -3.015  -2.321   0.681  0.00  0.00    +0.175 C 
BRANCH  14  18
ATOM     18  O2* UNL     1      -5.342   0.036  -0.820  0.00  0.00    -0.378 OA
ATOM     19  H2* UNL     1      -5.734  -0.366  -1.611  0.00  0.00    +0.211 HD
ENDBRANCH  14  18
BRANCH  15  20
ATOM     20  O3* UNL     1      -5.411  -2.165   0.772  0.00  0.00    -0.379 OA
ATOM     21  H3* UNL     1      -6.229  -1.996   0.279  0.00  0.00    +0.211 HD
ENDBRANCH  15  20
BRANCH  17  22
ATOM     22  C5* UNL     1      -1.879  -2.843  -0.187  0.00  0.00    +0.169 C 
BRANCH  22  23
ATOM     23  O5* UNL     1      -0.741  -3.049   0.631  0.00  0.00    -0.379 OA
ATOM     24  H5* UNL     1      -0.009  -3.382   0.089  0.00  0.00    +0.211 HD
ENDBRANCH  22  23
ENDBRANCH  17  22
ENDBRANCH   1  16
BRANCH   9  25
ATOM     25  C   UNL     1       1.653  -0.399  -0.827  0.00  0.00    +0.032 C 
ATOM     26  C   UNL     1       2.473  -1.256  -1.051  0.00  0.00    -0.074 C 
BRANCH  26  27
ATOM     27  C   UNL     1       3.475  -2.296  -1.321  0.00  0.00    +0.077 C 
BRANCH  27  28
ATOM     28  C   UNL     1       4.899  -1.734  -1.339  0.00  0.00    +0.015 C 
BRANCH  28  29
ATOM     29  C   UNL     1       5.294  -1.076  -0.009  0.00  0.00    +0.017 C 
BRANCH  29  30
ATOM     30  C   UNL     1       6.716  -0.512  -0.028  0.00  0.00    +0.105 C 
BRANCH  30  32
ATOM     31  N   UNL     1       7.366   0.625   2.252  0.00  0.00    -0.196 NA
ATOM     32  C   UNL     1       7.078   0.123   1.246  0.00  0.00    +0.073 C 
ENDBRANCH  30  32
ENDBRANCH  29  30
ENDBRANCH  28  29
ENDBRANCH  27  28
ENDBRANCH  26  27
ENDBRANCH   9  25
TORSDOF 11
