REMARK  Name = 11219303
REMARK  2 active torsions:
REMARK  status: ('A' for Active; 'I' for Inactive)
REMARK    1  A    between atoms: S_1  and  N_5
REMARK    2  A    between atoms: S_1  and  C_14
REMARK                            x       y       z     vdW  Elec       q    Type
REMARK                         _______ _______ _______ _____ _____    ______ ____
ROOT
ATOM      1  S   UNL     1      -0.005  -1.683  -0.265  0.00  0.00    +0.090 S 
ATOM      2  O   UNL     1       0.043  -2.494   0.938  0.00  0.00    -0.149 OA
ATOM      3  O   UNL     1      -0.049  -2.310  -1.573  0.00  0.00    -0.149 OA
ENDROOT
BRANCH   1   5
ATOM      4  O   UNL     1       1.320  -0.521   2.080  0.00  0.00    -0.191 OA
ATOM      5  N   UNL     1       1.250  -0.537  -0.229  0.00  0.00    -0.083 N 
ATOM      6  N   UNL     1       2.958   0.643   1.031  0.00  0.00    -0.305 NA
ATOM      7  N   UNL     1       4.564   1.903  -0.078  0.00  0.00    -0.332 N 
ATOM      8  C   UNL     1       1.726   0.030  -1.438  0.00  0.00    +0.107 C 
ATOM      9  C   UNL     1       1.827  -0.144   1.027  0.00  0.00    +0.293 C 
ATOM     10  C   UNL     1       2.787   0.830  -1.389  0.00  0.00    +0.067 C 
ATOM     11  C   UNL     1       3.436   1.115  -0.086  0.00  0.00    +0.193 C 
ATOM     12  H   UNL     1       5.015   2.108   0.773  0.00  0.00    +0.145 HD
ATOM     13  H   UNL     1       4.920   2.261  -0.923  0.00  0.00    +0.145 HD
ENDBRANCH   1   5
BRANCH   1  14
ATOM     14  C   UNL     1      -1.413  -0.622  -0.134  0.00  0.00    +0.126 C 
ATOM     15  C   UNL     1      -1.996  -0.128  -1.288  0.00  0.00    +0.020 C 
ATOM     16  C   UNL     1      -1.905  -0.303   1.120  0.00  0.00    +0.020 C 
ATOM     17  C   UNL     1      -3.616   1.041   0.070  0.00  0.00    -0.022 C 
ATOM     18  C   UNL     1      -3.107   0.710  -1.185  0.00  0.00    -0.003 C 
ATOM     19  C   UNL     1      -3.016   0.534   1.222  0.00  0.00    -0.003 C 
ATOM     20  C   UNL     1      -4.804   1.937   0.180  0.00  0.00    +0.031 C 
ENDBRANCH   1  14
TORSDOF 2
