11219303
  -OEChem-03292013303D

 29 30  0     0  0  0  0  0  0999 V2000
   -0.0054   -1.6831   -0.2653 S   0  0  0  0  0  0  0  0  0  0  0  0
    0.0433   -2.4937    0.9376 O   0  0  0  0  0  0  0  0  0  0  0  0
   -0.0486   -2.3102   -1.5735 O   0  0  0  0  0  0  0  0  0  0  0  0
    1.3201   -0.5208    2.0796 O   0  0  0  0  0  0  0  0  0  0  0  0
    1.2497   -0.5369   -0.2293 N   0  0  0  0  0  0  0  0  0  0  0  0
    2.9580    0.6427    1.0309 N   0  0  0  0  0  0  0  0  0  0  0  0
    4.5640    1.9026   -0.0782 N   0  0  0  0  0  0  0  0  0  0  0  0
   -1.4129   -0.6216   -0.1341 C   0  0  0  0  0  0  0  0  0  0  0  0
   -1.9963   -0.1281   -1.2882 C   0  0  0  0  0  0  0  0  0  0  0  0
   -1.9054   -0.3035    1.1198 C   0  0  0  0  0  0  0  0  0  0  0  0
   -3.6164    1.0410    0.0699 C   0  0  0  0  0  0  0  0  0  0  0  0
   -3.1066    0.7099   -1.1854 C   0  0  0  0  0  0  0  0  0  0  0  0
   -3.0158    0.5344    1.2225 C   0  0  0  0  0  0  0  0  0  0  0  0
    1.7256    0.0298   -1.4378 C   0  0  0  0  0  0  0  0  0  0  0  0
    1.8271   -0.1437    1.0270 C   0  0  0  0  0  0  0  0  0  0  0  0
    2.7874    0.8297   -1.3895 C   0  0  0  0  0  0  0  0  0  0  0  0
   -4.8039    1.9366    0.1802 C   0  0  0  0  0  0  0  0  0  0  0  0
    3.4362    1.1150   -0.0863 C   0  0  0  0  0  0  0  0  0  0  0  0
   -1.6112   -0.3695   -2.2740 H   0  0  0  0  0  0  0  0  0  0  0  0
   -1.4537   -0.6859    2.0294 H   0  0  0  0  0  0  0  0  0  0  0  0
    1.2265   -0.2172   -2.3653 H   0  0  0  0  0  0  0  0  0  0  0  0
   -3.5661    1.0979   -2.0905 H   0  0  0  0  0  0  0  0  0  0  0  0
   -3.4049    0.7840    2.2060 H   0  0  0  0  0  0  0  0  0  0  0  0
    3.1973    1.2777   -2.2870 H   0  0  0  0  0  0  0  0  0  0  0  0
   -4.7697    2.5261    1.1027 H   0  0  0  0  0  0  0  0  0  0  0  0
   -4.8419    2.6473   -0.6525 H   0  0  0  0  0  0  0  0  0  0  0  0
   -5.7235    1.3430    0.1768 H   0  0  0  0  0  0  0  0  0  0  0  0
    4.9591    2.2856   -0.9307 H   0  0  0  0  0  0  0  0  0  0  0  0
    5.0379    2.1239    0.7909 H   0  0  0  0  0  0  0  0  0  0  0  0
  1  2  2  0  0  0  0
  1  3  2  0  0  0  0
  1  5  1  0  0  0  0
  1  8  1  0  0  0  0
  4 15  2  0  0  0  0
  5 14  1  0  0  0  0
  5 15  1  0  0  0  0
  6 15  1  0  0  0  0
  6 18  2  0  0  0  0
  7 18  1  0  0  0  0
  7 28  1  0  0  0  0
  7 29  1  0  0  0  0
  8  9  2  0  0  0  0
  8 10  1  0  0  0  0
  9 12  1  0  0  0  0
  9 19  1  0  0  0  0
 10 13  2  0  0  0  0
 10 20  1  0  0  0  0
 11 12  2  0  0  0  0
 11 13  1  0  0  0  0
 11 17  1  0  0  0  0
 12 22  1  0  0  0  0
 13 23  1  0  0  0  0
 14 16  2  0  0  0  0
 14 21  1  0  0  0  0
 16 18  1  0  0  0  0
 16 24  1  0  0  0  0
 17 25  1  0  0  0  0
 17 26  1  0  0  0  0
 17 27  1  0  0  0  0
M  END
> <PUBCHEM_COMPOUND_CID>
11219303

> <PUBCHEM_CONFORMER_RMSD>
0.6

> <PUBCHEM_CONFORMER_DIVERSEORDER>
1
5
3
4
2
6

> <PUBCHEM_MMFF94_PARTIAL_CHARGES>
26
1 1.45
10 -0.15
11 -0.14
12 -0.15
13 -0.15
14 0.04
15 1.02
16 -0.14
17 0.14
18 0.49
19 0.15
2 -0.65
20 0.15
21 0.15
22 0.15
23 0.15
24 0.15
28 0.4
29 0.4
3 -0.65
4 -0.57
5 -0.57
6 -0.66
7 -0.85
8 -0.01
9 -0.15

> <PUBCHEM_EFFECTIVE_ROTOR_COUNT>
2

> <PUBCHEM_PHARMACOPHORE_FEATURES>
7
1 2 acceptor
1 3 acceptor
1 4 acceptor
1 6 donor
1 7 donor
6 5 6 14 15 16 18 rings
6 8 9 10 11 12 13 rings

> <PUBCHEM_HEAVY_ATOM_COUNT>
18

> <PUBCHEM_ATOM_DEF_STEREO_COUNT>
0

> <PUBCHEM_ATOM_UDEF_STEREO_COUNT>
0

> <PUBCHEM_BOND_DEF_STEREO_COUNT>
0

> <PUBCHEM_BOND_UDEF_STEREO_COUNT>
0

> <PUBCHEM_ISOTOPIC_ATOM_COUNT>
0

> <PUBCHEM_COMPONENT_COUNT>
1

> <PUBCHEM_CACTVS_TAUTO_COUNT>
3

> <PUBCHEM_CONFORMER_ID>
00AB316700000001

> <PUBCHEM_MMFF94_ENERGY>
44.4096

> <PUBCHEM_FEATURE_SELFOVERLAP>
35.595

> <PUBCHEM_SHAPE_FINGERPRINT>
10498660 4 18060697269565724449
10618630 7 8574438629274544276
11046707 91 8430327830787276612
11640471 11 18337090341712303347
12138202 97 17774723194268735942
12251169 10 15791731914258502093
12363563 72 8502653701330419957
12507560 40 16370717085335492093
12633257 1 15791736325211449385
12824470 246 10159703490648639277
12892183 10 15936682684027333653
13296908 3 8790886250619519447
13764800 53 18339653312312739987
14251764 38 17694490847454303776
14341114 328 16805899466851430373
15210252 30 18201727197559439089
15342168 16 18409730634554331421
15534591 1 18264205975355359074
15775835 57 18410004451060761285
1813 80 17481151102772222830
18186145 218 17845952774272191222
19765921 60 18343295942880493243
19784866 240 9439401337592655817
19862831 5 16343982490276417153
20361792 2 9223228546524674347
20559304 39 13696737792260303487
20645477 70 10591172723061612449
20671657 53 12751244700766918888
21524375 3 18411134749051259279
21713013 43 14764053623515138973
21731228 192 17749391485361695154
21731516 1 8862940606362862975
21756936 100 17098079379512871820
22646028 28 8430312441956501677
22802520 49 15697994180251698075
23402539 116 17988921180700964932
23419403 2 17551286939167843015
23559900 14 17315654906530181767
25 1 17203061724062628750
27216 239 18188777282924759577
2838139 119 17985541393880260176
3082319 5 15410900643119648885
4028521 119 17632860828029582857
465052 167 9510879519310460833
474 4 18411699846809977905
5262128 65 14764346059042342297
549884 4 16630527297711837259
6442390 28 18199206108065650939
81228 2 17905614654423361939

> <PUBCHEM_SHAPE_MULTIPOLES>
341.73
7.51
1.98
1.63
1.42
0.72
0.06
-6.84
0.29
-0.21
-0.14
-0.25
0.29
-0.2

> <PUBCHEM_SHAPE_SELFOVERLAP>
717.474

> <PUBCHEM_SHAPE_VOLUME>
192.4

> <PUBCHEM_COORDINATE_TYPE>
2
5
10

$$$$
