11212363
  -OEChem-03292013303D

 56 58  0     1  0  0  0  0  0999 V2000
    0.4469    0.7180    0.6571 O   0  0  0  0  0  0  0  0  0  0  0  0
    2.5652    0.4716   -1.5866 O   0  0  0  0  0  0  0  0  0  0  0  0
    2.3618    0.8753    1.9493 O   0  0  0  0  0  0  0  0  0  0  0  0
    2.7055   -1.7783   -1.9543 O   0  0  0  0  0  0  0  0  0  0  0  0
    1.3154    3.3119    0.1179 O   0  0  0  0  0  0  0  0  0  0  0  0
   -0.6969   -3.8841   -0.1703 O   0  0  0  0  0  0  0  0  0  0  0  0
    1.1674    2.6149   -2.0474 O   0  0  0  0  0  0  0  0  0  0  0  0
   -3.9163   -0.4232   -0.7905 O   0  0  0  0  0  0  0  0  0  0  0  0
   -1.9474    2.2720   -1.0168 O   0  0  0  0  0  0  0  0  0  0  0  0
    2.3416   -0.9362    0.3129 C   0  0  1  0  0  0  0  0  0  0  0  0
    1.8715    0.4966    0.6673 C   0  0  1  0  0  0  0  0  0  0  0  0
    2.4929    1.3548   -0.4569 C   0  0  1  0  0  0  0  0  0  0  0  0
    1.3087   -2.0136    0.6603 C   0  0  0  0  0  0  0  0  0  0  0  0
    2.5543   -0.8360   -1.1900 C   0  0  0  0  0  0  0  0  0  0  0  0
    3.6801   -1.3584    0.9457 C   0  0  0  0  0  0  0  0  0  0  0  0
   -0.0617   -1.6059    0.2346 C   0  0  0  0  0  0  0  0  0  0  0  0
   -0.4103   -0.2620    0.2699 C   0  0  0  0  0  0  0  0  0  0  0  0
    3.8786    1.9540   -0.2172 C   0  0  0  0  0  0  0  0  0  0  0  0
    1.5925    2.4734   -0.9105 C   0  0  0  0  0  0  0  0  0  0  0  0
   -1.0194   -2.5583   -0.1356 C   0  0  0  0  0  0  0  0  0  0  0  0
   -1.7072    0.1362   -0.0638 C   0  0  0  0  0  0  0  0  0  0  0  0
   -2.3106   -2.1610   -0.4824 C   0  0  0  0  0  0  0  0  0  0  0  0
    1.8921   -0.0065    2.9527 C   0  0  0  0  0  0  0  0  0  0  0  0
   -2.6548   -0.8122   -0.4462 C   0  0  0  0  0  0  0  0  0  0  0  0
   -2.0828    1.5461   -0.0146 C   0  0  0  0  0  0  0  0  0  0  0  0
   -3.3218   -3.1803   -0.8996 C   0  0  0  0  0  0  0  0  0  0  0  0
   -2.6509    2.1387    1.2849 C   0  0  0  0  0  0  0  0  0  0  0  0
   -0.8974   -4.6277    1.0282 C   0  0  0  0  0  0  0  0  0  0  0  0
   -3.6437    3.2763    1.0459 C   0  0  0  0  0  0  0  0  0  0  0  0
   -4.8532    2.8037    0.2558 C   0  0  0  0  0  0  0  0  0  0  0  0
    1.2792   -2.2432    1.7302 H   0  0  0  0  0  0  0  0  0  0  0  0
    1.5952   -2.9455    0.1553 H   0  0  0  0  0  0  0  0  0  0  0  0
    3.5654   -2.0393    1.7949 H   0  0  0  0  0  0  0  0  0  0  0  0
    4.2980   -1.9078    0.2240 H   0  0  0  0  0  0  0  0  0  0  0  0
    4.2881   -0.5123    1.2771 H   0  0  0  0  0  0  0  0  0  0  0  0
    4.6432    1.1784   -0.1186 H   0  0  0  0  0  0  0  0  0  0  0  0
    4.1885    2.5696   -1.0710 H   0  0  0  0  0  0  0  0  0  0  0  0
    3.9032    2.5892    0.6740 H   0  0  0  0  0  0  0  0  0  0  0  0
    0.8326   -0.2591    2.8615 H   0  0  0  0  0  0  0  0  0  0  0  0
    1.9812    0.5383    3.8999 H   0  0  0  0  0  0  0  0  0  0  0  0
    2.5090   -0.8914    3.0870 H   0  0  0  0  0  0  0  0  0  0  0  0
    0.7265    4.0466   -0.1570 H   0  0  0  0  0  0  0  0  0  0  0  0
   -3.8931   -3.5196   -0.0298 H   0  0  0  0  0  0  0  0  0  0  0  0
   -4.0207   -2.7750   -1.6393 H   0  0  0  0  0  0  0  0  0  0  0  0
   -2.8564   -4.0497   -1.3757 H   0  0  0  0  0  0  0  0  0  0  0  0
   -1.8029    2.5079    1.8726 H   0  0  0  0  0  0  0  0  0  0  0  0
   -3.1342    1.3392    1.8583 H   0  0  0  0  0  0  0  0  0  0  0  0
   -3.9435    0.5336   -0.9419 H   0  0  0  0  0  0  0  0  0  0  0  0
   -1.9505   -4.6123    1.3254 H   0  0  0  0  0  0  0  0  0  0  0  0
   -0.2767   -4.2348    1.8391 H   0  0  0  0  0  0  0  0  0  0  0  0
   -0.6055   -5.6645    0.8394 H   0  0  0  0  0  0  0  0  0  0  0  0
   -3.1604    4.1035    0.5139 H   0  0  0  0  0  0  0  0  0  0  0  0
   -3.9758    3.6646    2.0155 H   0  0  0  0  0  0  0  0  0  0  0  0
   -4.5986    2.5838   -0.7843 H   0  0  0  0  0  0  0  0  0  0  0  0
   -5.6148    3.5905    0.2397 H   0  0  0  0  0  0  0  0  0  0  0  0
   -5.3022    1.9130    0.7064 H   0  0  0  0  0  0  0  0  0  0  0  0
  1 11  1  0  0  0  0
  1 17  1  0  0  0  0
  2 12  1  0  0  0  0
  2 14  1  0  0  0  0
  3 11  1  0  0  0  0
  3 23  1  0  0  0  0
  4 14  2  0  0  0  0
  5 19  1  0  0  0  0
  5 42  1  0  0  0  0
  6 20  1  0  0  0  0
  6 28  1  0  0  0  0
  7 19  2  0  0  0  0
  8 24  1  0  0  0  0
  8 48  1  0  0  0  0
  9 25  2  0  0  0  0
 10 11  1  0  0  0  0
 10 13  1  0  0  0  0
 10 14  1  0  0  0  0
 10 15  1  0  0  0  0
 11 12  1  0  0  0  0
 12 18  1  0  0  0  0
 12 19  1  0  0  0  0
 13 16  1  0  0  0  0
 13 31  1  0  0  0  0
 13 32  1  0  0  0  0
 15 33  1  0  0  0  0
 15 34  1  0  0  0  0
 15 35  1  0  0  0  0
 16 17  1  0  0  0  0
 16 20  2  0  0  0  0
 17 21  2  0  0  0  0
 18 36  1  0  0  0  0
 18 37  1  0  0  0  0
 18 38  1  0  0  0  0
 20 22  1  0  0  0  0
 21 24  1  0  0  0  0
 21 25  1  0  0  0  0
 22 24  2  0  0  0  0
 22 26  1  0  0  0  0
 23 39  1  0  0  0  0
 23 40  1  0  0  0  0
 23 41  1  0  0  0  0
 25 27  1  0  0  0  0
 26 43  1  0  0  0  0
 26 44  1  0  0  0  0
 26 45  1  0  0  0  0
 27 29  1  0  0  0  0
 27 46  1  0  0  0  0
 27 47  1  0  0  0  0
 28 49  1  0  0  0  0
 28 50  1  0  0  0  0
 28 51  1  0  0  0  0
 29 30  1  0  0  0  0
 29 52  1  0  0  0  0
 29 53  1  0  0  0  0
 30 54  1  0  0  0  0
 30 55  1  0  0  0  0
 30 56  1  0  0  0  0
M  END
> <PUBCHEM_COMPOUND_CID>
11212363

> <PUBCHEM_CONFORMER_RMSD>
0.8

> <PUBCHEM_CONFORMER_DIVERSEORDER>
5
1
8
4
6
2
9
7
3

> <PUBCHEM_MMFF94_PARTIAL_CHARGES>
28
1 -0.36
10 0.06
11 0.56
12 0.34
13 0.14
14 0.66
16 -0.14
17 0.08
19 0.66
2 -0.43
20 0.08
21 0.09
22 -0.14
23 0.28
24 0.08
25 0.42
26 0.14
27 0.06
28 0.28
3 -0.56
4 -0.57
42 0.5
48 0.45
5 -0.65
6 -0.36
7 -0.57
8 -0.53
9 -0.57

> <PUBCHEM_EFFECTIVE_ROTOR_COUNT>
6.8

> <PUBCHEM_PHARMACOPHORE_FEATURES>
13
1 1 acceptor
1 3 acceptor
1 30 hydrophobe
1 4 acceptor
1 5 acceptor
1 6 acceptor
1 7 acceptor
1 8 donor
1 9 acceptor
3 5 7 19 anion
5 2 10 11 12 14 rings
6 1 10 11 13 16 17 rings
6 16 17 20 21 22 24 rings

> <PUBCHEM_HEAVY_ATOM_COUNT>
30

> <PUBCHEM_ATOM_DEF_STEREO_COUNT>
3

> <PUBCHEM_ATOM_UDEF_STEREO_COUNT>
0

> <PUBCHEM_BOND_DEF_STEREO_COUNT>
0

> <PUBCHEM_BOND_UDEF_STEREO_COUNT>
0

> <PUBCHEM_ISOTOPIC_ATOM_COUNT>
0

> <PUBCHEM_COMPONENT_COUNT>
1

> <PUBCHEM_CACTVS_TAUTO_COUNT>
9

> <PUBCHEM_CONFORMER_ID>
00AB164B00000005

> <PUBCHEM_MMFF94_ENERGY>
117.8355

> <PUBCHEM_FEATURE_SELFOVERLAP>
66.434

> <PUBCHEM_SHAPE_FINGERPRINT>
10064457 181 18127686041610380977
10165383 225 18051145695774320461
10675989 125 18193816332420487285
10764073 3 17698411388322747874
10863032 1 18341896307744252564
1100329 8 18267585715011038992
11578080 2 17417535833620571913
12156800 1 14724837277503845317
12422481 6 16966888542140557344
12553582 1 17908416210599301479
12788726 201 18268425918384172171
13140716 1 18265895765565359392
13583140 156 17167854249972465705
13965767 371 17832965179611032705
14178342 30 18268411474219096123
14790565 3 17979092491636606804
14955137 171 17903929859207170874
1601671 61 17831594071479084573
16752209 62 18341887498687005763
16945 1 18264771145801604210
19591789 44 18268441131242607127
20465049 17 17981067231551710015
20600515 1 18056475054984216226
20691752 17 17895192165065925440
20715895 44 18045185368453322093
20905425 154 17398666191184420022
22149856 69 18271815563364059273
2334 1 18410007715198885538
23557571 272 18125720346763721966
23558518 356 18338240461177001047
23559900 14 18269269226517552686
3060560 45 18121229679198607277
3380486 77 17828162727922861563
350125 39 18411419479845003123
474 4 18265333898534683113
5895379 119 18413102883602502000
7832392 63 18410301280688259428
81228 2 18341048644160976651

> <PUBCHEM_SHAPE_MULTIPOLES>
564.56
6.6
5.02
1.68
3.46
2.74
0.53
-3.67
-0.06
3.54
0
-1.22
-0.32
-1.33

> <PUBCHEM_SHAPE_SELFOVERLAP>
1226.536

> <PUBCHEM_SHAPE_VOLUME>
308.5

> <PUBCHEM_COORDINATE_TYPE>
2
5
10

$$$$
