REMARK  Name = 11212363
REMARK  8 active torsions:
REMARK  status: ('A' for Active; 'I' for Inactive)
REMARK    1  A    between atoms: C_5  and  O_18
REMARK    2  A    between atoms: C_6  and  C_23
REMARK    3  A    between atoms: C_13  and  O_20
REMARK    4  A    between atoms: C_14  and  C_29
REMARK    5  A    between atoms: C_16  and  O_26
REMARK    6  A    between atoms: C_23  and  O_24
REMARK    7  A    between atoms: C_29  and  C_30
REMARK    8  A    between atoms: C_30  and  C_31
REMARK                            x       y       z     vdW  Elec       q    Type
REMARK                         _______ _______ _______ _____ _____    ______ ____
ROOT
ATOM      1  O   UNL     1       0.447   0.718   0.657  0.00  0.00    -0.454 OA
ATOM      2  O   UNL     1       2.565   0.472  -1.587  0.00  0.00    -0.438 OA
ATOM      3  O   UNL     1       2.705  -1.778  -1.954  0.00  0.00    -0.250 OA
ATOM      4  C   UNL     1       2.342  -0.936   0.313  0.00  0.00    +0.156 C 
ATOM      5  C   UNL     1       1.871   0.497   0.667  0.00  0.00    +0.282 C 
ATOM      6  C   UNL     1       2.493   1.355  -0.457  0.00  0.00    +0.281 C 
ATOM      7  C   UNL     1       1.309  -2.014   0.660  0.00  0.00    +0.049 C 
ATOM      8  C   UNL     1       2.554  -0.836  -1.190  0.00  0.00    +0.323 C 
ATOM      9  C   UNL     1       3.680  -1.358   0.946  0.00  0.00    +0.018 C 
ATOM     10  C   UNL     1      -0.062  -1.606   0.235  0.00  0.00    +0.046 A 
ATOM     11  C   UNL     1      -0.410  -0.262   0.270  0.00  0.00    +0.146 A 
ATOM     12  C   UNL     1       3.879   1.954  -0.217  0.00  0.00    +0.062 C 
ATOM     13  C   UNL     1      -1.019  -2.558  -0.136  0.00  0.00    +0.136 A 
ATOM     14  C   UNL     1      -1.707   0.136  -0.064  0.00  0.00    +0.102 A 
ATOM     15  C   UNL     1      -2.311  -2.161  -0.482  0.00  0.00    +0.046 A 
ATOM     16  C   UNL     1      -2.655  -0.812  -0.446  0.00  0.00    +0.138 A 
ATOM     17  C   UNL     1      -3.322  -3.180  -0.900  0.00  0.00    +0.037 C 
ENDROOT
BRANCH   5  18
ATOM     18  O   UNL     1       2.362   0.875   1.949  0.00  0.00    -0.319 OA
ATOM     19  C   UNL     1       1.892  -0.006   2.953  0.00  0.00    +0.178 C 
ENDBRANCH   5  18
BRANCH  13  20
ATOM     20  O   UNL     1      -0.697  -3.884  -0.170  0.00  0.00    -0.472 OA
ATOM     21  C   UNL     1      -0.897  -4.628   1.028  0.00  0.00    +0.252 C 
ENDBRANCH  13  20
BRANCH   6  23
ATOM     22  O   UNL     1       1.167   2.615  -2.047  0.00  0.00    -0.246 OA
ATOM     23  C   UNL     1       1.593   2.473  -0.910  0.00  0.00    +0.357 C 
BRANCH  23  24
ATOM     24  O   UNL     1       1.315   3.312   0.118  0.00  0.00    -0.478 OA
ATOM     25  H   UNL     1       1.674   3.146   0.967  0.00  0.00    +0.295 HD
ENDBRANCH  23  24
ENDBRANCH   6  23
BRANCH  16  26
ATOM     26  O   UNL     1      -3.916  -0.423  -0.790  0.00  0.00    -0.506 OA
ATOM     27  H   UNL     1      -4.150   0.484  -0.767  0.00  0.00    +0.292 HD
ENDBRANCH  16  26
BRANCH  14  29
ATOM     28  O   UNL     1      -1.947   2.272  -1.017  0.00  0.00    -0.291 OA
ATOM     29  C   UNL     1      -2.083   1.546  -0.015  0.00  0.00    +0.179 C 
BRANCH  29  30
ATOM     30  C   UNL     1      -2.651   2.139   1.285  0.00  0.00    +0.069 C 
BRANCH  30  31
ATOM     31  C   UNL     1      -3.644   3.276   1.046  0.00  0.00    +0.008 C 
ATOM     32  C   UNL     1      -4.853   2.804   0.256  0.00  0.00    +0.000 C 
ENDBRANCH  30  31
ENDBRANCH  29  30
ENDBRANCH  14  29
TORSDOF 8
