REMARK  Name = 11225555
REMARK  1 active torsions:
REMARK  status: ('A' for Active; 'I' for Inactive)
REMARK    1  A    between atoms: C_13  and  C_34
REMARK                            x       y       z     vdW  Elec       q    Type
REMARK                         _______ _______ _______ _____ _____    ______ ____
ROOT
ATOM      1  S   UNL     1       3.694   3.152  -1.093  0.00  0.00    -0.077 S 
ATOM      2  S   UNL     1       0.757  -4.926  -0.990  0.00  0.00    -0.077 S 
ATOM      3  O   UNL     1      -4.401   1.535  -0.116  0.00  0.00    -0.450 OA
ATOM      4  O   UNL     1       4.305  -2.059  -0.893  0.00  0.00    -0.268 OA
ATOM      5  O   UNL     1      -0.545   4.846  -0.875  0.00  0.00    -0.268 OA
ATOM      6  O   UNL     1      -4.163  -2.716  -0.189  0.00  0.00    -0.268 OA
ATOM      7  N   UNL     1       2.723  -0.549  -0.125  0.00  0.00    -0.294 N 
ATOM      8  N   UNL     1       1.592   2.054  -0.096  0.00  0.00    -0.397 NA
ATOM      9  N   UNL     1      -1.004   2.796   0.102  0.00  0.00    -0.292 N 
ATOM     10  N   UNL     1      -1.921  -2.236   0.177  0.00  0.00    -0.294 N 
ATOM     11  N   UNL     1       0.831  -2.518  -0.084  0.00  0.00    -0.397 NA
ATOM     12  N   UNL     1      -2.467   0.424   0.236  0.00  0.00    -0.366 NA
ATOM     13  C   UNL     1       3.616   0.597   0.041  0.00  0.00    +0.130 C 
ATOM     14  C   UNL     1       2.871   1.849  -0.326  0.00  0.00    +0.152 C 
ATOM     15  C   UNL     1      -2.448   2.949   0.259  0.00  0.00    +0.162 C 
ATOM     16  C   UNL     1       3.153  -1.795  -0.559  0.00  0.00    +0.273 C 
ATOM     17  C   UNL     1      -1.402  -3.600   0.202  0.00  0.00    +0.131 C 
ATOM     18  C   UNL     1       1.208   3.303  -0.567  0.00  0.00    +0.173 C 
ATOM     19  C   UNL     1       2.091  -2.793  -0.593  0.00  0.00    +0.173 C 
ATOM     20  C   UNL     1      -3.058   1.597   0.142  0.00  0.00    +0.271 C 
ATOM     21  C   UNL     1       2.231   4.042  -1.130  0.00  0.00    +0.128 C 
ATOM     22  C   UNL     1       0.037  -3.558  -0.234  0.00  0.00    +0.152 C 
ATOM     23  C   UNL     1      -0.177   3.747  -0.470  0.00  0.00    +0.273 C 
ATOM     24  C   UNL     1      -3.477  -0.480   0.009  0.00  0.00    +0.205 C 
ATOM     25  C   UNL     1      -2.771   3.591   1.601  0.00  0.00    +0.033 C 
ATOM     26  C   UNL     1      -4.657   0.198  -0.194  0.00  0.00    +0.224 C 
ATOM     27  C   UNL     1      -1.537  -4.187   1.605  0.00  0.00    +0.030 C 
ATOM     28  C   UNL     1      -3.255  -1.911  -0.013  0.00  0.00    +0.275 C 
ATOM     29  C   UNL     1       2.234  -4.066  -1.113  0.00  0.00    +0.128 C 
ATOM     30  C   UNL     1      -6.045  -0.190  -0.475  0.00  0.00    +0.055 C 
ATOM     31  H   UNL     1       1.767  -0.430   0.081  0.00  0.00    +0.150 HD
ATOM     32  H   UNL     1      -0.592   1.962   0.424  0.00  0.00    +0.150 HD
ATOM     33  H   UNL     1      -1.282  -1.498   0.304  0.00  0.00    +0.150 HD
ENDROOT
BRANCH  13  34
ATOM     34  C   UNL     1       4.120   0.659   1.480  0.00  0.00    +0.025 C 
ATOM     35  C   UNL     1       2.956   0.853   2.450  0.00  0.00    +0.002 C 
ATOM     36  C   UNL     1       4.905  -0.604   1.830  0.00  0.00    +0.002 C 
ENDBRANCH  13  34
TORSDOF 1
