REMARK  Name = 11222428
REMARK  10 active torsions:
REMARK  status: ('A' for Active; 'I' for Inactive)
REMARK    1  A    between atoms: C_1  and  C_18
REMARK    2  A    between atoms: C_8  and  C_11
REMARK    3  A    between atoms: C_12  and  C_14
REMARK    4  A    between atoms: C_14  and  C_16
REMARK    5  A    between atoms: C_18  and  C_19
REMARK    6  A    between atoms: C_19  and  N_21
REMARK    7  A    between atoms: C_19  and  C_31
REMARK    8  A    between atoms: C_22  and  CA_24
REMARK    9  A    between atoms: CA_24  and  N_26
REMARK   10  A    between atoms: C_31  and  O_32
REMARK                            x       y       z     vdW  Elec       q    Type
REMARK                         _______ _______ _______ _____ _____    ______ ____
ROOT
ATOM      1  O   ALA A   1       4.943   1.548   0.294  0.00  0.00    -0.277 OA
ATOM      2  N   UNK A   2       3.406   0.014  -0.523  0.00  0.00    -0.298 N 
ATOM      3  C   ALA A   1       4.009   1.264  -0.453  0.00  0.00    +0.202 C 
ATOM      4  H   UNK A   2       2.662  -0.114  -1.156  0.00  0.00    +0.150 HD
ENDROOT
BRANCH   3   5
ATOM      5  CA  ALA A   1       3.369   2.265  -1.408  0.00  0.00    +0.013 C 
ATOM      6  CB  ALA A   1       4.089   2.249  -2.750  0.00  0.00    -0.015 C 
BRANCH   5   7
ATOM      7  N   ALA A   1       3.453   3.592  -0.804  0.00  0.00    +0.387 N 
ATOM      8  H1  ALA A   1       2.968   3.589   0.093  0.00  0.00    -0.089 HD
ATOM      9  H2  ALA A   1       3.017   4.275  -1.424  0.00  0.00    -0.089 HD
ATOM     10  H3  ALA A   1       4.432   3.839  -0.661  0.00  0.00    -0.089 HD
ENDBRANCH   5   7
ENDBRANCH   3   5
BRANCH   2  11
ATOM     11  C   UNK A   2       3.820  -1.102   0.289  0.00  0.00    +0.171 C 
BRANCH  11  13
ATOM     12  O   UNK A   2       4.021  -3.498  -0.023  0.00  0.00    -0.248 OA
ATOM     13  C   UNK A   2       3.664  -2.412  -0.465  0.00  0.00    +0.332 C 
BRANCH  13  14
ATOM     14  O   UNK A   2       3.081  -2.270  -1.680  0.00  0.00    -0.479 OA
ATOM     15  H   UNK A   2       2.823  -1.420  -1.979  0.00  0.00    +0.295 HD
ENDBRANCH  13  14
ENDBRANCH  11  13
BRANCH  11  16
ATOM     16  C   UNK A   2       3.034  -1.137   1.610  0.00  0.00    +0.031 C 
BRANCH  16  17
ATOM     17  C   UNK A   2       1.573  -1.318   1.420  0.00  0.00    +0.002 C 
ATOM     18  C   UNK A   2       0.676  -1.331   2.622  0.00  0.00    +0.000 C 
ENDBRANCH  16  17
ENDBRANCH  11  16
ENDBRANCH   2  11
TORSDOF 7
REMARK  Name = 11222428
REMARK  10 active torsions:
REMARK  status: ('A' for Active; 'I' for Inactive)
REMARK    1  A    between atoms: C_1  and  C_18
REMARK    2  A    between atoms: C_8  and  C_11
REMARK    3  A    between atoms: C_12  and  C_14
REMARK    4  A    between atoms: C_14  and  C_16
REMARK    5  A    between atoms: C_18  and  C_19
REMARK    6  A    between atoms: C_19  and  N_21
REMARK    7  A    between atoms: C_19  and  C_31
REMARK    8  A    between atoms: C_22  and  CA_24
REMARK    9  A    between atoms: CA_24  and  N_26
REMARK   10  A    between atoms: C_31  and  O_32
REMARK                            x       y       z     vdW  Elec       q    Type
REMARK                         _______ _______ _______ _____ _____    ______ ____
ROOT
ATOM      1  C   UNK A   2       0.659  -0.165   1.686  0.00  0.00    +0.000 C 
ENDROOT
TORSDOF 0
REMARK  Name = 11222428
REMARK  10 active torsions:
REMARK  status: ('A' for Active; 'I' for Inactive)
REMARK    1  A    between atoms: C_1  and  C_18
REMARK    2  A    between atoms: C_8  and  C_11
REMARK    3  A    between atoms: C_12  and  C_14
REMARK    4  A    between atoms: C_14  and  C_16
REMARK    5  A    between atoms: C_18  and  C_19
REMARK    6  A    between atoms: C_19  and  N_21
REMARK    7  A    between atoms: C_19  and  C_31
REMARK    8  A    between atoms: C_22  and  CA_24
REMARK    9  A    between atoms: CA_24  and  N_26
REMARK   10  A    between atoms: C_31  and  O_32
REMARK                            x       y       z     vdW  Elec       q    Type
REMARK                         _______ _______ _______ _____ _____    ______ ____
ROOT
ATOM      1  O   UNK A   2      -3.524   2.059   0.362  0.00  0.00    -0.442 OA
ATOM      2  O   UNK A   2      -5.808   1.678   0.473  0.00  0.00    -0.250 OA
ATOM      3  C   UNK A   2      -2.676   0.891   0.184  0.00  0.00    +0.254 C 
ATOM      4  C   UNK A   2      -3.899  -0.006   0.193  0.00  0.00    +0.148 C 
ATOM      5  C   UNK A   2      -4.660   1.311   0.363  0.00  0.00    +0.321 C 
ENDROOT
BRANCH   3  10
ATOM      6  N   UNK A   2      -0.472   0.080   0.839  0.00  0.00    -0.326 N 
ATOM      7  H   UNK A   2      -0.448  -0.249  -0.089  0.00  0.00    +0.145 HD
ATOM      8  H   UNK A   2      -0.615  -0.613   1.523  0.00  0.00    +0.145 HD
ATOM      9  O   UNK A   2      -1.728   1.215   2.415  0.00  0.00    -0.271 OA
ATOM     10  C   UNK A   2      -1.600   0.763   1.273  0.00  0.00    +0.260 C 
ENDBRANCH   3  10
BRANCH   4  11
ATOM     11  C   UNK A   2      -4.229  -0.740  -1.108  0.00  0.00    +0.015 C 
ATOM     12  C   UNK A   2      -3.375  -2.007  -1.190  0.00  0.00    +0.001 C 
BRANCH  11  13
ATOM     13  C   UNK A   2      -5.721  -1.102  -1.173  0.00  0.00    +0.001 C 
ATOM     14  C   UNK A   2      -6.105  -1.843  -2.447  0.00  0.00    +0.000 C 
ENDBRANCH  11  13
ENDBRANCH   4  11
TORSDOF 3
