11221147
  -OEChem-03292013303D

 40 42  0     1  0  0  0  0  0999 V2000
   -2.1873    1.4328   -0.0286 O   0  0  0  0  0  0  0  0  0  0  0  0
    3.6311   -1.4668   -1.1298 O   0  0  0  0  0  0  0  0  0  0  0  0
    1.2485   -1.9413    0.5803 O   0  0  0  0  0  0  0  0  0  0  0  0
    2.3438    2.7002    0.4775 O   0  0  0  0  0  0  0  0  0  0  0  0
   -1.2828   -2.5454    0.2863 O   0  0  0  0  0  0  0  0  0  0  0  0
   -4.7400    2.2598   -0.3938 O   0  0  0  0  0  0  0  0  0  0  0  0
    1.7995    0.3654    0.5315 C   0  0  0  0  0  0  0  0  0  0  0  0
    3.2412    0.0208    0.7322 C   0  0  0  0  0  0  0  0  0  0  0  0
   -0.5024   -0.3091    0.2741 C   0  0  0  0  0  0  0  0  0  0  0  0
    3.9915   -0.1901   -0.5989 C   0  0  1  0  0  0  0  0  0  0  0  0
    0.8406   -0.6454    0.4626 C   0  0  0  0  0  0  0  0  0  0  0  0
   -0.8889    1.0258    0.1567 C   0  0  0  0  0  0  0  0  0  0  0  0
    1.4182    1.7021    0.4129 C   0  0  0  0  0  0  0  0  0  0  0  0
   -1.5356   -1.3532    0.1956 C   0  0  0  0  0  0  0  0  0  0  0  0
    0.0755    2.0330    0.2262 C   0  0  0  0  0  0  0  0  0  0  0  0
   -2.9198   -0.8967   -0.0028 C   0  0  0  0  0  0  0  0  0  0  0  0
   -3.1658    0.4723   -0.1033 C   0  0  0  0  0  0  0  0  0  0  0  0
    5.4965   -0.1217   -0.4350 C   0  0  0  0  0  0  0  0  0  0  0  0
   -3.9696   -1.8150   -0.0894 C   0  0  0  0  0  0  0  0  0  0  0  0
   -4.4724    0.9276   -0.2917 C   0  0  0  0  0  0  0  0  0  0  0  0
    6.1469   -1.0822    0.5214 C   0  0  0  0  0  0  0  0  0  0  0  0
   -5.2727   -1.3539   -0.2778 C   0  0  0  0  0  0  0  0  0  0  0  0
   -5.5239    0.0146   -0.3785 C   0  0  0  0  0  0  0  0  0  0  0  0
    6.2277    0.7662   -1.1274 C   0  0  0  0  0  0  0  0  0  0  0  0
    3.3119   -0.8821    1.3542 H   0  0  0  0  0  0  0  0  0  0  0  0
    3.7314    0.7929    1.3392 H   0  0  0  0  0  0  0  0  0  0  0  0
    3.6640    0.5548   -1.3343 H   0  0  0  0  0  0  0  0  0  0  0  0
   -0.2178    3.0761    0.1347 H   0  0  0  0  0  0  0  0  0  0  0  0
   -3.7945   -2.8844   -0.0132 H   0  0  0  0  0  0  0  0  0  0  0  0
    5.7816   -0.9236    1.5405 H   0  0  0  0  0  0  0  0  0  0  0  0
    5.9398   -2.1169    0.2318 H   0  0  0  0  0  0  0  0  0  0  0  0
    7.2357   -0.9624    0.5437 H   0  0  0  0  0  0  0  0  0  0  0  0
    3.7537   -2.1364   -0.4359 H   0  0  0  0  0  0  0  0  0  0  0  0
    0.4943   -2.5464    0.5158 H   0  0  0  0  0  0  0  0  0  0  0  0
   -6.0936   -2.0620   -0.3461 H   0  0  0  0  0  0  0  0  0  0  0  0
   -6.5426    0.3635   -0.5252 H   0  0  0  0  0  0  0  0  0  0  0  0
    3.2203    2.3689    0.2266 H   0  0  0  0  0  0  0  0  0  0  0  0
    5.7662    1.4617   -1.8206 H   0  0  0  0  0  0  0  0  0  0  0  0
    7.3057    0.8198   -1.0168 H   0  0  0  0  0  0  0  0  0  0  0  0
   -3.9015    2.7468   -0.3124 H   0  0  0  0  0  0  0  0  0  0  0  0
  1 12  1  0  0  0  0
  1 17  1  0  0  0  0
  2 10  1  0  0  0  0
  2 33  1  0  0  0  0
  3 11  1  0  0  0  0
  3 34  1  0  0  0  0
  4 13  1  0  0  0  0
  4 37  1  0  0  0  0
  5 14  2  0  0  0  0
  6 20  1  0  0  0  0
  6 40  1  0  0  0  0
  7  8  1  0  0  0  0
  7 11  2  0  0  0  0
  7 13  1  0  0  0  0
  8 10  1  0  0  0  0
  8 25  1  0  0  0  0
  8 26  1  0  0  0  0
  9 11  1  0  0  0  0
  9 12  2  0  0  0  0
  9 14  1  0  0  0  0
 10 18  1  0  0  0  0
 10 27  1  0  0  0  0
 12 15  1  0  0  0  0
 13 15  2  0  0  0  0
 14 16  1  0  0  0  0
 15 28  1  0  0  0  0
 16 17  2  0  0  0  0
 16 19  1  0  0  0  0
 17 20  1  0  0  0  0
 18 21  1  0  0  0  0
 18 24  2  0  0  0  0
 19 22  2  0  0  0  0
 19 29  1  0  0  0  0
 20 23  2  0  0  0  0
 21 30  1  0  0  0  0
 21 31  1  0  0  0  0
 21 32  1  0  0  0  0
 22 23  1  0  0  0  0
 22 35  1  0  0  0  0
 23 36  1  0  0  0  0
 24 38  1  0  0  0  0
 24 39  1  0  0  0  0
M  END
> <PUBCHEM_COMPOUND_CID>
11221147

> <PUBCHEM_CONFORMER_RMSD>
0.6

> <PUBCHEM_CONFORMER_DIVERSEORDER>
2
11
4
9
7
10
8
3
1
5
6

> <PUBCHEM_MMFF94_PARTIAL_CHARGES>
34
1 -0.17
10 0.42
11 0.08
12 0.08
13 0.08
14 0.4
15 -0.15
16 0.09
17 0.08
18 -0.28
19 -0.15
2 -0.68
20 0.08
21 0.14
22 -0.15
23 -0.15
24 -0.3
28 0.15
29 0.15
3 -0.53
33 0.4
34 0.45
35 0.15
36 0.15
37 0.45
38 0.15
39 0.15
4 -0.53
40 0.45
5 -0.57
6 -0.53
7 -0.14
8 0.14
9 0.09

> <PUBCHEM_EFFECTIVE_ROTOR_COUNT>
3

> <PUBCHEM_PHARMACOPHORE_FEATURES>
10
1 1 acceptor
1 2 acceptor
1 2 donor
1 3 donor
1 4 donor
1 5 acceptor
1 6 donor
6 1 9 12 14 16 17 rings
6 16 17 19 20 22 23 rings
6 7 9 11 12 13 15 rings

> <PUBCHEM_HEAVY_ATOM_COUNT>
24

> <PUBCHEM_ATOM_DEF_STEREO_COUNT>
0

> <PUBCHEM_ATOM_UDEF_STEREO_COUNT>
1

> <PUBCHEM_BOND_DEF_STEREO_COUNT>
0

> <PUBCHEM_BOND_UDEF_STEREO_COUNT>
0

> <PUBCHEM_ISOTOPIC_ATOM_COUNT>
0

> <PUBCHEM_COMPONENT_COUNT>
1

> <PUBCHEM_CACTVS_TAUTO_COUNT>
36

> <PUBCHEM_CONFORMER_ID>
00AB389B00000002

> <PUBCHEM_MMFF94_ENERGY>
69.3752

> <PUBCHEM_FEATURE_SELFOVERLAP>
50.805

> <PUBCHEM_SHAPE_FINGERPRINT>
10906281 52 18270138849914847266
11315181 36 17988929976814755256
11578080 2 16952513699413772743
11963148 33 18343013407190364142
12011746 2 18410289216320017975
12166972 35 17894634730325097460
12236239 1 17821728325720771570
12403259 415 18409439306943911401
12516196 113 17917711314428138672
12788726 201 18200030629874344496
13288520 33 18341895199362907397
13402501 40 18343023281066034182
13668630 136 16343985831750476631
13862211 1 18411415111868804138
14251752 14 18114176402548494892
14790565 3 18335987484526881192
15099037 51 18412263943134519374
15183329 4 18411139129854259740
15196674 1 18410852208996447257
15536298 74 18341607178840434409
1601671 61 18409164376979927488
17492 89 18052252096820218207
18608769 82 18115315587375305595
18681886 176 18342449387372146056
19591789 44 18338232769107124667
200 152 17275105024333208179
20374829 77 18412261735742725928
20871999 31 18408042918095584244
21033648 29 16987981834984428859
21033650 10 17824563871883140636
21267235 1 18410577327438068691
21279426 13 18267304235628851366
21285901 2 18272095933594430852
21709351 56 18410283731704965941
221357 26 18341609352225650909
221490 88 18338519775822085299
2215653 11 18202843244752307421
22393880 68 18336817654787228613
23175994 123 17275105050282483969
23402539 116 18411978048831594750
23522609 53 18194430902769181193
23559900 14 18270956967907047696
3004659 81 18260549992578535158
335352 9 18411416224702891517
3411729 13 18125989697950558016
34797466 226 17845946225143780444
350125 39 18408886231236094793
4214541 1 18412260636605982337
4340502 62 16298396712155205616
5104073 3 18339640148348865201
5283173 99 18409728435214798420
59755656 215 18408879621376268111
6138700 20 18410855421848489714
9709674 26 18194399128995893859

> <PUBCHEM_SHAPE_MULTIPOLES>
458.69
13.62
2.32
0.83
7.45
0.41
-0.08
-1.55
-3.5
-0.99
0.17
0.74
-0.03
0.11

> <PUBCHEM_SHAPE_SELFOVERLAP>
1013.173

> <PUBCHEM_SHAPE_VOLUME>
245.6

> <PUBCHEM_COORDINATE_TYPE>
2
5
10

$$$$
