REMARK  Name = 11225639
REMARK  2 active torsions:
REMARK  status: ('A' for Active; 'I' for Inactive)
REMARK    1  A    between atoms: C_9  and  C_35
REMARK    2  A    between atoms: C_40  and  O_41
REMARK                            x       y       z     vdW  Elec       q    Type
REMARK                         _______ _______ _______ _____ _____    ______ ____
ROOT
ATOM      1  O   UNL     1      -2.352  -0.473   2.316  0.00  0.00    -0.474 OA
ATOM      2  O   UNL     1      -1.071   2.769   0.811  0.00  0.00    -0.274 OA
ATOM      3  O   UNL     1       4.440   1.590   0.114  0.00  0.00    -0.275 OA
ATOM      4  N   UNL     1       0.008   2.064  -1.121  0.00  0.00    -0.279 N 
ATOM      5  N   UNL     1       3.713  -1.620   0.404  0.00  0.00    +0.388 N 
ATOM      6  N   UNL     1       2.503   2.171   1.263  0.00  0.00    -0.304 N 
ATOM      7  N   UNL     1       2.677  -1.793  -2.527  0.00  0.00    +0.384 N 
ATOM      8  C   UNL     1      -1.394   0.459   0.237  0.00  0.00    +0.146 C 
ATOM      9  C   UNL     1      -2.618   0.425   1.200  0.00  0.00    +0.201 C 
ATOM     10  C   UNL     1      -0.428  -0.312   1.067  0.00  0.00    +0.024 C 
ATOM     11  C   UNL     1      -0.834   1.870  -0.006  0.00  0.00    +0.233 C 
ATOM     12  C   UNL     1      -1.020  -0.767   2.225  0.00  0.00    +0.135 C 
ATOM     13  C   UNL     1       3.223  -1.122   1.701  0.00  0.00    -0.029 C 
ATOM     14  C   UNL     1       1.709  -1.096   1.837  0.00  0.00    -0.042 C 
ATOM     15  C   UNL     1       0.921  -0.511   0.841  0.00  0.00    -0.007 C 
ATOM     16  C   UNL     1       0.143   1.103  -2.243  0.00  0.00    +0.093 C 
ATOM     17  C   UNL     1       0.598   3.398  -1.296  0.00  0.00    +0.095 C 
ATOM     18  C   UNL     1      -0.295  -1.426   3.199  0.00  0.00    +0.036 C 
ATOM     19  C   UNL     1       1.539   1.012  -2.870  0.00  0.00    +0.019 C 
ATOM     20  C   UNL     1       3.830   0.262   2.026  0.00  0.00    +0.068 C 
ATOM     21  C   UNL     1       1.083  -1.572   3.008  0.00  0.00    -0.003 C 
ATOM     22  C   UNL     1       2.058   3.538  -0.831  0.00  0.00    +0.043 C 
ATOM     23  C   UNL     1       1.649  -0.054  -3.965  0.00  0.00    -0.022 C 
ATOM     24  C   UNL     1       3.517  -3.060   0.245  0.00  0.00    -0.083 C 
ATOM     25  C   UNL     1       2.293   3.490   0.681  0.00  0.00    +0.091 C 
ATOM     26  C   UNL     1       3.824  -3.543  -1.178  0.00  0.00    -0.047 C 
ATOM     27  C   UNL     1       1.599  -1.506  -3.475  0.00  0.00    -0.082 C 
ATOM     28  C   UNL     1       3.628   1.392   1.016  0.00  0.00    +0.221 C 
ATOM     29  C   UNL     1       2.732  -3.218  -2.207  0.00  0.00    -0.084 C 
ATOM     30  H   UNL     1       4.710  -1.415   0.332  0.00  0.00    -0.084 HD
ATOM     31  H   UNL     1       3.180  -1.152  -0.328  0.00  0.00    -0.084 HD
ATOM     32  H   UNL     1       1.812   1.812   1.864  0.00  0.00    +0.149 HD
ATOM     33  H   UNL     1       2.516  -1.265  -1.669  0.00  0.00    -0.085 HD
ATOM     34  H   UNL     1       3.563  -1.523  -2.954  0.00  0.00    -0.085 HD
ENDROOT
BRANCH   9  35
ATOM     35  C   UNL     1      -3.887   0.002   0.487  0.00  0.00    +0.018 C 
ATOM     36  C   UNL     1      -4.736   0.968  -0.050  0.00  0.00    +0.002 C 
ATOM     37  C   UNL     1      -4.201  -1.350   0.371  0.00  0.00    +0.002 C 
ATOM     38  C   UNL     1      -5.904   0.579  -0.707  0.00  0.00    +0.036 C 
ATOM     39  C   UNL     1      -5.369  -1.739  -0.285  0.00  0.00    +0.036 C 
ATOM     40  C   UNL     1      -6.220  -0.775  -0.824  0.00  0.00    +0.134 C 
BRANCH  40  41
ATOM     41  O   UNL     1      -7.360  -1.154  -1.464  0.00  0.00    -0.506 OA
ATOM     42  H   UNL     1      -7.932  -0.505  -1.826  0.00  0.00    +0.292 HD
ENDBRANCH  40  41
ENDBRANCH   9  35
TORSDOF 2
