REMARK  Name = 11223118
REMARK  13 active torsions:
REMARK  status: ('A' for Active; 'I' for Inactive)
REMARK    1  A    between atoms: N_2  and  CA_22
REMARK    2  A    between atoms: C_3  and  CA_5
REMARK    3  A    between atoms: CA_5  and  N_7
REMARK    4  A    between atoms: CA_5  and  CB_19
REMARK    5  A    between atoms: C_8  and  CA_10
REMARK    6  A    between atoms: CA_10  and  N_11
REMARK    7  A    between atoms: CA_10  and  CB_15
REMARK    8  A    between atoms: CB_15  and  CG1_17
REMARK    9  A    between atoms: CA_22  and  C_24
REMARK   10  A    between atoms: CA_22  and  CB_27
REMARK   11  A    between atoms: C_24  and  O_25
REMARK   12  A    between atoms: CB_27  and  CG_28
REMARK   13  A    between atoms: CZ_33  and  OH_34
REMARK                            x       y       z     vdW  Elec       q    Type
REMARK                         _______ _______ _______ _____ _____    ______ ____
ROOT
ATOM      1  O   VAL A   2       0.550   1.048   1.518  0.00  0.00    -0.273 OA
ATOM      2  N   TYR A   3       1.983   1.162  -0.304  0.00  0.00    -0.295 N 
ATOM      3  C   VAL A   2       0.815   1.450   0.387  0.00  0.00    +0.241 C 
ATOM      4  H   TYR A   3       2.098   1.534  -1.208  0.00  0.00    +0.150 HD
ENDROOT
BRANCH   3   5
ATOM      5  CA  VAL A   2      -0.148   2.301  -0.437  0.00  0.00    +0.148 C 
BRANCH   5   7
ATOM      6  O   ILE A   1      -1.545   0.119  -1.711  0.00  0.00    -0.277 OA
ATOM      7  N   VAL A   2      -1.493   1.848  -0.164  0.00  0.00    -0.300 N 
ATOM      8  C   ILE A   1      -2.086   0.784  -0.830  0.00  0.00    +0.202 C 
ATOM      9  H   VAL A   2      -2.014   2.316   0.528  0.00  0.00    +0.150 HD
BRANCH   8  10
ATOM     10  CA  ILE A   1      -3.513   0.524  -0.345  0.00  0.00    +0.013 C 
BRANCH  10  11
ATOM     11  N   ILE A   1      -4.424   0.784  -1.460  0.00  0.00    +0.387 N 
ATOM     12  H1  ILE A   1      -5.385   0.617  -1.160  0.00  0.00    -0.089 HD
ATOM     13  H2  ILE A   1      -4.197   0.163  -2.236  0.00  0.00    -0.089 HD
ATOM     14  H3  ILE A   1      -4.325   1.754  -1.760  0.00  0.00    -0.089 HD
ENDBRANCH  10  11
BRANCH  10  15
ATOM     15  CB  ILE A   1      -3.663  -0.902   0.251  0.00  0.00    -0.011 C 
ATOM     16  CG2 ILE A   1      -2.659  -1.120   1.392  0.00  0.00    -0.002 C 
BRANCH  15  17
ATOM     17  CG1 ILE A   1      -5.111  -1.199   0.707  0.00  0.00    -0.002 C 
ATOM     18  CD1 ILE A   1      -5.603  -0.269   1.808  0.00  0.00    -0.000 C 
ENDBRANCH  15  17
ENDBRANCH  10  15
ENDBRANCH   8  10
ENDBRANCH   5   7
BRANCH   5  19
ATOM     19  CB  VAL A   2       0.044   3.812  -0.184  0.00  0.00    +0.027 C 
ATOM     20  CG1 VAL A   2      -0.128   4.147   1.301  0.00  0.00    +0.002 C 
ATOM     21  CG2 VAL A   2      -0.890   4.687  -1.026  0.00  0.00    +0.002 C 
ENDBRANCH   5  19
ENDBRANCH   3   5
BRANCH   2  22
ATOM     22  CA  TYR A   3       3.038   0.340   0.242  0.00  0.00    +0.176 C 
BRANCH  22  24
ATOM     23  OXT TYR A   3       5.326   0.677   0.951  0.00  0.00    -0.248 OA
ATOM     24  C   TYR A   3       4.318   1.141   0.427  0.00  0.00    +0.332 C 
BRANCH  24  25
ATOM     25  O   TYR A   3       4.266   2.412  -0.039  0.00  0.00    -0.479 OA
ATOM     26  H   TYR A   3       3.480   2.734  -0.434  0.00  0.00    +0.295 HD
ENDBRANCH  24  25
ENDBRANCH  22  24
BRANCH  22  27
ATOM     27  CB  TYR A   3       3.307  -0.879  -0.650  0.00  0.00    +0.057 C 
BRANCH  27  28
ATOM     28  CG  TYR A   3       2.286  -1.977  -0.471  0.00  0.00    -0.020 C 
ATOM     29  CD1 TYR A   3       2.505  -2.960   0.481  0.00  0.00    -0.001 C 
ATOM     30  CD2 TYR A   3       1.149  -1.982  -1.263  0.00  0.00    -0.001 C 
ATOM     31  CE1 TYR A   3       1.562  -3.974   0.645  0.00  0.00    +0.036 C 
ATOM     32  CE2 TYR A   3       0.206  -2.996  -1.099  0.00  0.00    +0.036 C 
ATOM     33  CZ  TYR A   3       0.413  -3.993  -0.145  0.00  0.00    +0.134 C 
BRANCH  33  34
ATOM     34  OH  TYR A   3      -0.507  -4.982   0.017  0.00  0.00    -0.506 OA
ATOM     35  HH  TYR A   3      -0.368  -5.652   0.658  0.00  0.00    +0.292 HD
ENDBRANCH  33  34
ENDBRANCH  27  28
ENDBRANCH  22  27
ENDBRANCH   2  22
TORSDOF 13
