REMARK  Name = 1122738
REMARK  3 active torsions:
REMARK  status: ('A' for Active; 'I' for Inactive)
REMARK    1  A    between atoms: S_1  and  N_4
REMARK    2  A    between atoms: S_1  and  C_15
REMARK    3  A    between atoms: C_18  and  N_23
REMARK                            x       y       z     vdW  Elec       q    Type
REMARK                         _______ _______ _______ _____ _____    ______ ____
ROOT
ATOM      1  S   UNL     1      -0.182  -0.063  -1.411  0.00  0.00    +0.083 S 
ATOM      2  O   UNL     1       0.230   1.053  -2.264  0.00  0.00    -0.149 OA
ATOM      3  O   UNL     1      -0.711  -1.296  -2.000  0.00  0.00    -0.149 OA
ENDROOT
BRANCH   1   4
ATOM      4  N   UNL     1      -1.325   0.563  -0.378  0.00  0.00    -0.143 N 
ATOM      5  N   UNL     1      -2.254   1.898   1.137  0.00  0.00    -0.392 NA
ATOM      6  C   UNL     1      -2.599   0.086  -0.202  0.00  0.00    +0.102 C 
ATOM      7  C   UNL     1      -1.167   1.645   0.442  0.00  0.00    +0.183 C 
ATOM      8  C   UNL     1      -3.158   0.936   0.749  0.00  0.00    +0.130 C 
ATOM      9  C   UNL     1      -3.289  -0.983  -0.775  0.00  0.00    +0.019 C 
ATOM     10  C   UNL     1       0.094   2.412   0.510  0.00  0.00    +0.086 C 
ATOM     11  C   UNL     1      -4.483   0.721   1.164  0.00  0.00    +0.086 C 
ATOM     12  C   UNL     1      -4.606  -1.182  -0.349  0.00  0.00    -0.003 C 
ATOM     13  C   UNL     1      -5.195  -0.346   0.603  0.00  0.00    -0.019 C 
ENDBRANCH   1   4
BRANCH   1  15
ATOM     14 CL   UNL     1      -0.293  -2.589   0.607  0.00  0.00    -0.081 Cl
ATOM     15  C   UNL     1       1.209  -0.550  -0.420  0.00  0.00    +0.138 C 
ATOM     16  C   UNL     1       2.365   0.201  -0.544  0.00  0.00    +0.045 C 
ATOM     17  C   UNL     1       1.135  -1.634   0.434  0.00  0.00    +0.077 C 
ATOM     18  C   UNL     1       3.484  -0.145   0.214  0.00  0.00    +0.144 C 
ATOM     19  C   UNL     1       2.254  -1.980   1.192  0.00  0.00    +0.014 C 
ATOM     20  C   UNL     1       3.429  -1.235   1.082  0.00  0.00    +0.025 C 
BRANCH  18  23
ATOM     21  O   UNL     1       5.675   0.284   0.792  0.00  0.00    -0.126 OA
ATOM     22  O   UNL     1       4.709   1.590  -0.685  0.00  0.00    -0.126 OA
ATOM     23  N   UNL     1       4.679   0.613   0.102  0.00  0.00    +0.058 N 
ENDBRANCH  18  23
ENDBRANCH   1  15
TORSDOF 3
