REMARK  Name = 11221963
REMARK  4 active torsions:
REMARK  status: ('A' for Active; 'I' for Inactive)
REMARK    1  A    between atoms: C_1  and  C_9
REMARK    2  A    between atoms: C_2  and  C_24
REMARK    3  A    between atoms: C_14  and  C_20
REMARK    4  A    between atoms: C_27  and  C_32
REMARK                            x       y       z     vdW  Elec       q    Type
REMARK                         _______ _______ _______ _____ _____    ______ ____
ROOT
ATOM      1  C   UNL     1      -0.250   1.351  -0.250  0.00  0.00    +0.014 C 
ATOM      2  C   UNL     1       2.163   1.295  -0.152  0.00  0.00    -0.000 C 
ATOM      3  C   UNL     1       0.938   0.628  -0.143  0.00  0.00    -0.001 C 
ATOM      4  C   UNL     1      -0.213   2.740  -0.367  0.00  0.00    -0.001 C 
ATOM      5  C   UNL     1       2.200   2.685  -0.269  0.00  0.00    -0.000 C 
ATOM      6  C   UNL     1       1.012   3.407  -0.376  0.00  0.00    -0.000 C 
ENDROOT
BRANCH   1   9
ATOM      7  N   UNL     1      -2.654   1.244   0.250  0.00  0.00    -0.315 N 
ATOM      8  N   UNL     1      -1.739  -0.557  -0.677  0.00  0.00    -0.315 N 
ATOM      9  C   UNL     1      -1.517   0.662  -0.239  0.00  0.00    +0.168 C 
ATOM     10  C   UNL     1      -3.677   0.340   0.118  0.00  0.00    +0.059 C 
ATOM     11  C   UNL     1      -3.080  -0.775  -0.463  0.00  0.00    +0.059 C 
ATOM     12  C   UNL     1      -5.031   0.401   0.448  0.00  0.00    +0.018 C 
ATOM     13  C   UNL     1      -3.867  -1.907  -0.738  0.00  0.00    +0.016 C 
ATOM     14  C   UNL     1      -5.799  -0.734   0.167  0.00  0.00    +0.032 C 
ATOM     15  C   UNL     1      -5.229  -1.868  -0.416  0.00  0.00    +0.004 C 
ATOM     16  H   UNL     1      -2.725   2.150   0.628  0.00  0.00    +0.149 HD
ATOM     17  H   UNL     1      -1.087  -1.179  -1.073  0.00  0.00    +0.149 HD
BRANCH  14  20
ATOM     18  N   UNL     1      -8.023  -1.837   0.229  0.00  0.00    -0.343 N 
ATOM     19  N   UNL     1      -7.765   0.340   1.037  0.00  0.00    -0.285 NA
ATOM     20  C   UNL     1      -7.218  -0.730   0.489  0.00  0.00    +0.117 C 
ATOM     21  H   UNL     1      -8.981  -1.814   0.455  0.00  0.00    +0.144 HD
ATOM     22  H   UNL     1      -7.633  -2.643  -0.182  0.00  0.00    +0.144 HD
ATOM     23  H   UNL     1      -8.725   0.345   1.256  0.00  0.00    +0.188 HD
ENDBRANCH  14  20
ENDBRANCH   1   9
BRANCH   2  24
ATOM     24  C   UNL     1       3.396   0.546  -0.041  0.00  0.00    -0.000 C 
ATOM     25  C   UNL     1       4.514   1.127   0.558  0.00  0.00    +0.000 C 
ATOM     26  C   UNL     1       3.467  -0.757  -0.535  0.00  0.00    +0.000 C 
ATOM     27  C   UNL     1       5.774  -0.898   0.171  0.00  0.00    +0.031 C 
ATOM     28  C   UNL     1       5.703   0.405   0.664  0.00  0.00    +0.003 C 
ATOM     29  C   UNL     1       4.656  -1.479  -0.429  0.00  0.00    +0.003 C 
BRANCH  27  32
ATOM     30  N   UNL     1       8.147  -1.098   0.874  0.00  0.00    -0.343 N 
ATOM     31  N   UNL     1       7.079  -2.883  -0.191  0.00  0.00    -0.285 NA
ATOM     32  C   UNL     1       7.013  -1.651   0.281  0.00  0.00    +0.117 C 
ATOM     33  H   UNL     1       8.976  -1.625   0.938  0.00  0.00    +0.144 HD
ATOM     34  H   UNL     1       8.119  -0.180   1.229  0.00  0.00    +0.144 HD
ATOM     35  H   UNL     1       7.917  -3.394  -0.117  0.00  0.00    +0.188 HD
ENDBRANCH  27  32
ENDBRANCH   2  24
TORSDOF 4
