REMARK  Name = 11222457
REMARK  3 active torsions:
REMARK  status: ('A' for Active; 'I' for Inactive)
REMARK    1  A    between atoms: C_9  and  O_25
REMARK    2  A    between atoms: C_20  and  O_27
REMARK    3  A    between atoms: C_23  and  O_29
REMARK                            x       y       z     vdW  Elec       q    Type
REMARK                         _______ _______ _______ _____ _____    ______ ____
ROOT
ATOM      1  O   UNL     1       0.962   2.287  -0.007  0.00  0.00    -0.479 OA
ATOM      2  O   UNL     1      -0.184  -2.309  -0.698  0.00  0.00    -0.286 OA
ATOM      3  O   UNL     1      -1.682   2.741  -0.058  0.00  0.00    -0.283 OA
ATOM      4  C   UNL     1       2.776   0.781  -0.734  0.00  0.00    +0.059 C 
ATOM      5  C   UNL     1       2.390   2.061   0.061  0.00  0.00    +0.137 C 
ATOM      6  C   UNL     1       4.283   0.462  -0.831  0.00  0.00    +0.011 C 
ATOM      7  C   UNL     1       1.948  -0.374  -0.204  0.00  0.00    -0.015 C 
ATOM      8  C   UNL     1       4.789  -0.472   0.266  0.00  0.00    +0.032 C 
ATOM      9  C   UNL     1       3.976  -1.773   0.324  0.00  0.00    +0.107 C 
ATOM     10  C   UNL     1       2.494  -1.515   0.253  0.00  0.00    -0.004 C 
ATOM     11  C   UNL     1       0.515  -0.081  -0.191  0.00  0.00    +0.072 C 
ATOM     12  C   UNL     1       3.002   3.317  -0.584  0.00  0.00    +0.044 C 
ATOM     13  C   UNL     1       2.781   2.042   1.546  0.00  0.00    +0.044 C 
ATOM     14  C   UNL     1       0.112   1.202  -0.092  0.00  0.00    +0.180 C 
ATOM     15  C   UNL     1       4.329  -2.549   1.597  0.00  0.00    +0.034 C 
ATOM     16  C   UNL     1      -0.497  -1.170  -0.368  0.00  0.00    +0.199 C 
ATOM     17  C   UNL     1      -1.329   1.567  -0.068  0.00  0.00    +0.232 C 
ATOM     18  C   UNL     1      -1.919  -0.840  -0.173  0.00  0.00    +0.048 C 
ATOM     19  C   UNL     1      -2.323   0.484  -0.035  0.00  0.00    +0.079 C 
ATOM     20  C   UNL     1      -3.679   0.791   0.128  0.00  0.00    +0.136 C 
ATOM     21  C   UNL     1      -2.873  -1.865  -0.150  0.00  0.00    +0.040 C 
ATOM     22  C   UNL     1      -4.627  -0.232   0.154  0.00  0.00    +0.046 C 
ATOM     23  C   UNL     1      -4.224  -1.558   0.015  0.00  0.00    +0.133 C 
ATOM     24  C   UNL     1      -6.077   0.089   0.332  0.00  0.00    +0.037 C 
ENDROOT
BRANCH   9  25
ATOM     25  O   UNL     1       4.311  -2.594  -0.797  0.00  0.00    -0.383 OA
ATOM     26  H   UNL     1       4.096  -2.124  -1.618  0.00  0.00    +0.211 HD
ENDBRANCH   9  25
BRANCH  20  27
ATOM     27  O   UNL     1      -4.116   2.076   0.277  0.00  0.00    -0.506 OA
ATOM     28  H   UNL     1      -3.502   2.784   0.263  0.00  0.00    +0.292 HD
ENDBRANCH  20  27
BRANCH  23  29
ATOM     29  O   UNL     1      -5.137  -2.571   0.037  0.00  0.00    -0.506 OA
ATOM     30  H   UNL     1      -4.853  -3.459  -0.057  0.00  0.00    +0.292 HD
ENDBRANCH  23  29
TORSDOF 3
