REMARK  Name = 11221147
REMARK  7 active torsions:
REMARK  status: ('A' for Active; 'I' for Inactive)
REMARK    1  A    between atoms: C_3  and  C_22
REMARK    2  A    between atoms: C_5  and  O_16
REMARK    3  A    between atoms: C_7  and  O_18
REMARK    4  A    between atoms: C_13  and  O_20
REMARK    5  A    between atoms: C_22  and  C_23
REMARK    6  A    between atoms: C_23  and  C_24
REMARK    7  A    between atoms: C_23  and  O_27
REMARK                            x       y       z     vdW  Elec       q    Type
REMARK                         _______ _______ _______ _____ _____    ______ ____
ROOT
ATOM      1  O   UNL     1      -2.187   1.433  -0.029  0.00  0.00    -0.450 OA
ATOM      2  O   UNL     1      -1.283  -2.545   0.286  0.00  0.00    -0.286 OA
ATOM      3  C   UNL     1       1.800   0.365   0.531  0.00  0.00    +0.048 C 
ATOM      4  C   UNL     1      -0.502  -0.309   0.274  0.00  0.00    +0.107 A 
ATOM      5  C   UNL     1       0.841  -0.645   0.463  0.00  0.00    +0.139 C 
ATOM      6  C   UNL     1      -0.889   1.026   0.157  0.00  0.00    +0.154 A 
ATOM      7  C   UNL     1       1.418   1.702   0.413  0.00  0.00    +0.136 C 
ATOM      8  C   UNL     1      -1.536  -1.353   0.196  0.00  0.00    +0.204 A 
ATOM      9  C   UNL     1       0.075   2.033   0.226  0.00  0.00    +0.074 C 
ATOM     10  C   UNL     1      -2.920  -0.897  -0.003  0.00  0.00    +0.077 A 
ATOM     11  C   UNL     1      -3.166   0.472  -0.103  0.00  0.00    +0.182 A 
ATOM     12  C   UNL     1      -3.970  -1.815  -0.089  0.00  0.00    +0.006 C 
ATOM     13  C   UNL     1      -4.472   0.928  -0.292  0.00  0.00    +0.168 C 
ATOM     14  C   UNL     1      -5.273  -1.354  -0.278  0.00  0.00    +0.003 C 
ATOM     15  C   UNL     1      -5.524   0.015  -0.379  0.00  0.00    +0.040 C 
ENDROOT
BRANCH   5  16
ATOM     16  O   UNL     1       1.248  -1.941   0.580  0.00  0.00    -0.506 OA
ATOM     17  H   UNL     1       2.156  -2.137   0.706  0.00  0.00    +0.292 HD
ENDBRANCH   5  16
BRANCH   7  18
ATOM     18  O   UNL     1       2.344   2.700   0.477  0.00  0.00    -0.506 OA
ATOM     19  H   UNL     1       3.249   2.492   0.603  0.00  0.00    +0.292 HD
ENDBRANCH   7  18
BRANCH  13  20
ATOM     20  O   UNL     1      -4.740   2.260  -0.394  0.00  0.00    -0.503 OA
ATOM     21  H   UNL     1      -4.043   2.883  -0.337  0.00  0.00    +0.292 HD
ENDBRANCH  13  20
BRANCH   3  22
ATOM     22  C   UNL     1       3.241   0.021   0.732  0.00  0.00    +0.066 C 
BRANCH  22  23
ATOM     23  C   UNL     1       3.991  -0.190  -0.599  0.00  0.00    +0.133 C 
BRANCH  23  24
ATOM     24  C   UNL     1       5.497  -0.122  -0.435  0.00  0.00    -0.017 C 
ATOM     25  C   UNL     1       6.147  -1.082   0.521  0.00  0.00    +0.029 C 
ATOM     26  C   UNL     1       6.228   0.766  -1.127  0.00  0.00    -0.007 C 
ENDBRANCH  23  24
BRANCH  23  27
ATOM     27  O   UNL     1       3.631  -1.467  -1.130  0.00  0.00    -0.380 OA
ATOM     28  H   UNL     1       2.668  -1.513  -1.236  0.00  0.00    +0.211 HD
ENDBRANCH  23  27
ENDBRANCH  22  23
ENDBRANCH   3  22
TORSDOF 7
