REMARK  Name = 11225326
REMARK  2 active torsions:
REMARK  status: ('A' for Active; 'I' for Inactive)
REMARK    1  A    between atoms: C_10  and  O_34
REMARK    2  A    between atoms: C_14  and  O_36
REMARK                            x       y       z     vdW  Elec       q    Type
REMARK                         _______ _______ _______ _____ _____    ______ ____
ROOT
ATOM      1  S   UNL     1       3.502  -0.085  -1.953  0.00  0.00    -0.107 S 
ATOM      2  O   UNL     1       3.706   1.855   0.656  0.00  0.00    -0.451 OA
ATOM      3  O   UNL     1      -4.033   3.113  -0.518  0.00  0.00    -0.447 OA
ATOM      4  O   UNL     1       1.933   0.727   1.618  0.00  0.00    -0.248 OA
ATOM      5  O   UNL     1      -0.067   3.516  -1.965  0.00  0.00    -0.268 OA
ATOM      6  O   UNL     1       2.863  -3.116  -1.769  0.00  0.00    -0.270 OA
ATOM      7  N   UNL     1       0.350   1.977  -0.281  0.00  0.00    -0.291 N 
ATOM      8  N   UNL     1      -2.308   1.971   0.389  0.00  0.00    -0.367 NA
ATOM      9  N   UNL     1       2.210  -2.728   0.429  0.00  0.00    -0.297 N 
ATOM     10  C   UNL     1      -4.514  -0.022   1.232  0.00  0.00    +0.124 C 
ATOM     11  C   UNL     1      -4.579  -0.652  -0.174  0.00  0.00    +0.064 C 
ATOM     12  C   UNL     1      -4.655   1.511   1.206  0.00  0.00    +0.128 C 
ATOM     13  C   UNL     1       1.742   1.693  -0.607  0.00  0.00    +0.183 C 
ATOM     14  C   UNL     1      -4.516  -2.189  -0.234  0.00  0.00    +0.135 C 
ATOM     15  C   UNL     1       4.689   1.233   1.513  0.00  0.00    +0.173 C 
ATOM     16  C   UNL     1       5.429   0.173   0.680  0.00  0.00    +0.070 C 
ATOM     17  C   UNL     1       1.811   0.508  -1.582  0.00  0.00    +0.093 C 
ATOM     18  C   UNL     1      -3.608   2.180   0.387  0.00  0.00    +0.255 C 
ATOM     19  C   UNL     1       2.424   1.386   0.712  0.00  0.00    +0.336 C 
ATOM     20  C   UNL     1       4.563  -1.029   0.392  0.00  0.00    -0.012 C 
ATOM     21  C   UNL     1       5.643   2.332   1.963  0.00  0.00    +0.048 C 
ATOM     22  C   UNL     1       3.732  -1.209  -0.651  0.00  0.00    +0.075 C 
ATOM     23  C   UNL     1      -3.158  -2.751   0.092  0.00  0.00    +0.003 C 
ATOM     24  C   UNL     1      -1.840   2.789  -0.614  0.00  0.00    +0.209 C 
ATOM     25  C   UNL     1      -0.453   2.823  -1.029  0.00  0.00    +0.276 C 
ATOM     26  C   UNL     1      -2.890   3.496  -1.153  0.00  0.00    +0.271 C 
ATOM     27  C   UNL     1       2.918  -2.460  -0.733  0.00  0.00    +0.251 C 
ATOM     28  C   UNL     1      -2.284  -3.150  -0.846  0.00  0.00    -0.002 C 
ATOM     29  C   UNL     1       1.258  -3.818   0.547  0.00  0.00    +0.116 C 
ATOM     30  C   UNL     1      -0.969  -3.696  -0.594  0.00  0.00    -0.003 C 
ATOM     31  C   UNL     1      -0.119  -3.262   0.351  0.00  0.00    -0.005 C 
ATOM     32  H   UNL     1      -0.040   1.545   0.513  0.00  0.00    +0.150 HD
ATOM     33  H   UNL     1       2.361  -2.151   1.212  0.00  0.00    +0.150 HD
ENDROOT
BRANCH  10  34
ATOM     34  O   UNL     1      -3.297  -0.374   1.883  0.00  0.00    -0.384 OA
ATOM     35  H   UNL     1      -3.207  -1.340   1.900  0.00  0.00    +0.210 HD
ENDBRANCH  10  34
BRANCH  14  36
ATOM     36  O   UNL     1      -5.487  -2.743   0.651  0.00  0.00    -0.380 OA
ATOM     37  H   UNL     1      -6.361  -2.380   0.439  0.00  0.00    +0.211 HD
ENDBRANCH  14  36
TORSDOF 2
