REMARK  Name = 11232530
REMARK  7 active torsions:
REMARK  status: ('A' for Active; 'I' for Inactive)
REMARK    1  A    between atoms: C_6  and  O_17
REMARK    2  A    between atoms: C_8  and  C_21
REMARK    3  A    between atoms: C_11  and  O_19
REMARK    4  A    between atoms: C_13  and  C_28
REMARK    5  A    between atoms: C_21  and  O_22
REMARK    6  A    between atoms: O_22  and  C_25
REMARK    7  A    between atoms: C_28  and  O_29
REMARK                            x       y       z     vdW  Elec       q    Type
REMARK                         _______ _______ _______ _____ _____    ______ ____
ROOT
ATOM      1  O   UNL     1       1.225  -1.348  -1.086  0.00  0.00    -0.236 OA
ATOM      2  N   UNL     1      -0.818  -2.816   1.098  0.00  0.00    +0.388 N 
ATOM      3  N   UNL     1      -0.150  -1.190  -1.331  0.00  0.00    -0.239 N 
ATOM      4  C   UNL     1       0.593  -2.866   0.708  0.00  0.00    -0.024 C 
ATOM      5  C   UNL     1      -0.504  -3.329  -0.228  0.00  0.00    -0.051 C 
ATOM      6  C   UNL     1       1.377  -1.613   0.326  0.00  0.00    +0.196 C 
ATOM      7  C   UNL     1      -0.809  -2.495  -1.441  0.00  0.00    +0.109 C 
ATOM      8  C   UNL     1       0.982  -0.327   1.126  0.00  0.00    +0.122 C 
ATOM      9  C   UNL     1      -0.327   0.262   0.606  0.00  0.00    +0.037 C 
ATOM     10  C   UNL     1      -0.853  -0.194  -0.621  0.00  0.00    +0.081 C 
ATOM     11  C   UNL     1      -1.033   1.218   1.349  0.00  0.00    +0.131 C 
ATOM     12  C   UNL     1      -2.074   0.316  -1.081  0.00  0.00    +0.017 C 
ATOM     13  C   UNL     1      -2.762   1.275  -0.337  0.00  0.00    +0.011 C 
ATOM     14  C   UNL     1      -2.243   1.724   0.875  0.00  0.00    +0.035 C 
ATOM     15  H   UNL     1      -1.282  -1.913   1.192  0.00  0.00    -0.084 HD
ATOM     16  H   UNL     1      -1.345  -3.181   1.891  0.00  0.00    -0.084 HD
ENDROOT
BRANCH   6  17
ATOM     17  O   UNL     1       2.756  -1.923   0.572  0.00  0.00    -0.363 OA
ATOM     18  H   UNL     1       3.002  -2.720   0.076  0.00  0.00    +0.213 HD
ENDBRANCH   6  17
BRANCH  11  19
ATOM     19  O   UNL     1      -0.577   1.653   2.558  0.00  0.00    -0.506 OA
ATOM     20  H   UNL     1       0.234   1.327   2.898  0.00  0.00    +0.292 HD
ENDBRANCH  11  19
BRANCH   8  21
ATOM     21  C   UNL     1       2.076   0.755   1.002  0.00  0.00    +0.219 C 
BRANCH  21  22
ATOM     22  O   UNL     1       2.195   1.097  -0.361  0.00  0.00    -0.434 OA
BRANCH  22  25
ATOM     23  O   UNL     1       3.849   2.617   0.145  0.00  0.00    -0.227 OA
ATOM     24  N   UNL     1       3.153   2.303  -2.024  0.00  0.00    -0.295 N 
ATOM     25  C   UNL     1       3.129   2.055  -0.674  0.00  0.00    +0.398 C 
ATOM     26  H   UNL     1       2.545   1.814  -2.625  0.00  0.00    +0.148 HD
ATOM     27  H   UNL     1       3.777   2.969  -2.391  0.00  0.00    +0.148 HD
ENDBRANCH  22  25
ENDBRANCH  21  22
ENDBRANCH   8  21
BRANCH  13  28
ATOM     28  C   UNL     1      -4.060   1.814  -0.837  0.00  0.00    +0.164 C 
BRANCH  28  29
ATOM     29  O   UNL     1      -5.126   1.011  -0.346  0.00  0.00    -0.377 OA
ATOM     30  H   UNL     1      -5.970   1.361  -0.670  0.00  0.00    +0.211 HD
ENDBRANCH  28  29
ENDBRANCH  13  28
TORSDOF 7
