REMARK  Name = 11233399
REMARK  3 active torsions:
REMARK  status: ('A' for Active; 'I' for Inactive)
REMARK    1  A    between atoms: C_7  and  C_15
REMARK    2  A    between atoms: C_12  and  O_27
REMARK    3  A    between atoms: C_22  and  O_25
REMARK                            x       y       z     vdW  Elec       q    Type
REMARK                         _______ _______ _______ _____ _____    ______ ____
ROOT
ATOM      1  O   UNL     1      -4.391  -1.855  -0.408  0.00  0.00    -0.337 OA
ATOM      2  O   UNL     1      -1.311  -2.572   0.313  0.00  0.00    -0.289 OA
ATOM      3  O   UNL     1      -4.978   1.332  -0.144  0.00  0.00    -0.289 OA
ATOM      4  C   UNL     1      -3.498  -1.912   0.714  0.00  0.00    +0.211 C 
ATOM      5  C   UNL     1      -4.520  -0.827   0.586  0.00  0.00    +0.211 C 
ATOM      6  C   UNL     1      -1.704  -0.228   0.113  0.00  0.00    +0.039 C 
ATOM      7  C   UNL     1      -0.347   0.077  -0.037  0.00  0.00    -0.015 C 
ATOM      8  C   UNL     1      -2.092  -1.634   0.375  0.00  0.00    +0.203 C 
ATOM      9  C   UNL     1      -4.113   0.510   0.122  0.00  0.00    +0.206 C 
ATOM     10  C   UNL     1      -2.663   0.789  -0.008  0.00  0.00    +0.073 C 
ATOM     11  C   UNL     1       0.053   1.387  -0.300  0.00  0.00    -0.001 C 
ATOM     12  C   UNL     1      -2.255   2.101  -0.276  0.00  0.00    +0.136 C 
ATOM     13  C   UNL     1      -0.899   2.397  -0.419  0.00  0.00    +0.036 C 
ENDROOT
BRANCH   7  15
ATOM     14  O   UNL     1       4.089  -0.071  -2.321  0.00  0.00    -0.291 OA
ATOM     15  C   UNL     1       0.771  -0.950   0.086  0.00  0.00    +0.045 C 
ATOM     16  C   UNL     1       1.029  -1.688  -1.236  0.00  0.00    +0.017 C 
ATOM     17  C   UNL     1       2.066  -0.410   0.662  0.00  0.00    -0.013 C 
ATOM     18  C   UNL     1       1.836  -0.858  -2.221  0.00  0.00    +0.070 C 
ATOM     19  C   UNL     1       3.182  -0.136  -0.146  0.00  0.00    +0.065 C 
ATOM     20  C   UNL     1       3.124  -0.350  -1.615  0.00  0.00    +0.176 C 
ATOM     21  C   UNL     1       2.154  -0.167   2.043  0.00  0.00    -0.004 C 
ATOM     22  C   UNL     1       4.361   0.362   0.423  0.00  0.00    +0.136 C 
ATOM     23  C   UNL     1       3.330   0.330   2.606  0.00  0.00    +0.003 C 
ATOM     24  C   UNL     1       4.432   0.592   1.797  0.00  0.00    +0.037 C 
BRANCH  22  25
ATOM     25  O   UNL     1       5.477   0.642  -0.310  0.00  0.00    -0.505 OA
ATOM     26  H   UNL     1       5.475   0.503  -1.236  0.00  0.00    +0.292 HD
ENDBRANCH  22  25
ENDBRANCH   7  15
BRANCH  12  27
ATOM     27  O   UNL     1      -3.133   3.138  -0.398  0.00  0.00    -0.505 OA
ATOM     28  H   UNL     1      -4.053   2.985  -0.309  0.00  0.00    +0.292 HD
ENDBRANCH  12  27
TORSDOF 3
