REMARK  Name = 11236201
REMARK  5 active torsions:
REMARK  status: ('A' for Active; 'I' for Inactive)
REMARK    1  A    between atoms: C_7  and  S_23
REMARK    2  A    between atoms: C_9  and  C_11
REMARK    3  A    between atoms: C_11  and  C_13
REMARK    4  A    between atoms: C_18  and  S_19
REMARK    5  A    between atoms: S_23  and  C_24
REMARK                            x       y       z     vdW  Elec       q    Type
REMARK                         _______ _______ _______ _____ _____    ______ ____
ROOT
ATOM      1  O   UNL     1      -0.620  -2.320  -0.729  0.00  0.00    -0.291 OA
ATOM      2  C   UNL     1       3.361  -1.574  -0.608  0.00  0.00    +0.029 C 
ATOM      3  C   UNL     1       1.589  -2.734  -1.576  0.00  0.00    +0.062 C 
ATOM      4  C   UNL     1       2.647  -1.709  -1.952  0.00  0.00    +0.013 C 
ATOM      5  C   UNL     1       3.580  -3.044  -0.212  0.00  0.00    +0.005 C 
ATOM      6  C   UNL     1       2.365  -3.793  -0.784  0.00  0.00    +0.008 C 
ATOM      7  C   UNL     1       2.438  -0.884   0.399  0.00  0.00    +0.013 C 
ATOM      8  C   UNL     1       0.579  -2.053  -0.662  0.00  0.00    +0.176 C 
ATOM      9  C   UNL     1       1.099  -1.078   0.364  0.00  0.00    +0.076 C 
ENDROOT
BRANCH   9  11
ATOM     10  O   UNL     1       0.513  -0.106   2.416  0.00  0.00    -0.286 OA
ATOM     11  C   UNL     1       0.155  -0.423   1.287  0.00  0.00    +0.199 C 
BRANCH  11  13
ATOM     12 CL   UNL     1      -2.174  -1.674   2.860  0.00  0.00    -0.082 Cl
ATOM     13  C   UNL     1      -1.222  -0.135   0.818  0.00  0.00    +0.050 C 
ATOM     14  C   UNL     1      -2.322  -0.659   1.470  0.00  0.00    +0.062 C 
ATOM     15  C   UNL     1      -1.353   0.677  -0.294  0.00  0.00    +0.005 C 
ATOM     16  C   UNL     1      -3.599  -0.363   0.993  0.00  0.00    +0.030 C 
ATOM     17  C   UNL     1      -2.630   0.974  -0.771  0.00  0.00    +0.018 C 
ATOM     18  C   UNL     1      -3.753   0.454  -0.127  0.00  0.00    +0.107 C 
BRANCH  18  19
ATOM     19  S   UNL     1      -5.351   0.827  -0.723  0.00  0.00    +0.010 S 
ATOM     20  O   UNL     1      -6.286   0.690   0.384  0.00  0.00    -0.169 OA
ATOM     21  O   UNL     1      -5.296   2.075  -1.473  0.00  0.00    -0.169 OA
ATOM     22  C   UNL     1      -5.698  -0.466  -1.894  0.00  0.00    +0.182 C 
ENDBRANCH  18  19
ENDBRANCH  11  13
ENDBRANCH   9  11
BRANCH   7  23
ATOM     23  S   UNL     1       3.220   0.167   1.560  0.00  0.00    -0.091 S 
BRANCH  23  24
ATOM     24  C   UNL     1       3.167   1.675   0.616  0.00  0.00    +0.029 C 
ATOM     25  C   UNL     1       2.072   2.533   0.728  0.00  0.00    +0.006 C 
ATOM     26  C   UNL     1       4.222   2.003  -0.238  0.00  0.00    +0.006 C 
ATOM     27  C   UNL     1       2.031   3.715  -0.011  0.00  0.00    +0.001 C 
ATOM     28  C   UNL     1       4.181   3.185  -0.978  0.00  0.00    +0.001 C 
ATOM     29  C   UNL     1       3.085   4.041  -0.864  0.00  0.00    +0.000 C 
ENDBRANCH  23  24
ENDBRANCH   7  23
TORSDOF 5
