11234049
  -OEChem-03292013303D

 42 45  0     1  0  0  0  0  0999 V2000
    0.1878    2.1002    0.9082 F   0  0  0  0  0  0  0  0  0  0  0  0
    6.5187    0.6450    0.0034 O   0  0  0  0  0  0  0  0  0  0  0  0
    8.2681   -1.3354    1.0378 O   0  0  0  0  0  0  0  0  0  0  0  0
    4.9366    2.0582    0.8054 O   0  0  0  0  0  0  0  0  0  0  0  0
    4.3639    0.0472   -0.3019 N   0  0  0  0  0  0  0  0  0  0  0  0
   -3.3526   -0.6121    0.8599 N   0  0  0  0  0  0  0  0  0  0  0  0
   -6.1076   -0.6679    0.9443 N   0  0  0  0  0  0  0  0  0  0  0  0
   -7.3678   -0.4470    0.5446 N   0  0  0  0  0  0  0  0  0  0  0  0
   -6.2708    0.4419   -1.0228 N   0  0  0  0  0  0  0  0  0  0  0  0
   -7.5123    0.2079   -0.6157 N   0  0  0  0  0  0  0  0  0  0  0  0
    6.5455   -0.7011   -0.4913 C   0  0  2  0  0  0  0  0  0  0  0  0
    5.1405   -0.9417   -1.0003 C   0  0  0  0  0  0  0  0  0  0  0  0
    2.9399    0.0412   -0.2877 C   0  0  0  0  0  0  0  0  0  0  0  0
    6.9401   -1.6347    0.6447 C   0  0  0  0  0  0  0  0  0  0  0  0
    5.2121    1.0127    0.2341 C   0  0  0  0  0  0  0  0  0  0  0  0
    2.2374    1.0900    0.3135 C   0  0  0  0  0  0  0  0  0  0  0  0
    2.2343   -1.0132   -0.8756 C   0  0  0  0  0  0  0  0  0  0  0  0
    0.1438    0.0302   -0.2615 C   0  0  0  0  0  0  0  0  0  0  0  0
    0.8426    1.0846    0.3266 C   0  0  0  0  0  0  0  0  0  0  0  0
    0.8396   -1.0186   -0.8624 C   0  0  0  0  0  0  0  0  0  0  0  0
   -1.3035    0.0202   -0.2506 C   0  0  0  0  0  0  0  0  0  0  0  0
   -2.0290    0.6017   -1.2823 C   0  0  0  0  0  0  0  0  0  0  0  0
   -2.0032   -0.5685    0.7883 C   0  0  0  0  0  0  0  0  0  0  0  0
   -3.4187    0.5769   -1.2442 C   0  0  0  0  0  0  0  0  0  0  0  0
   -4.0269   -0.0367   -0.1610 C   0  0  0  0  0  0  0  0  0  0  0  0
   -5.4578   -0.0933   -0.0697 C   0  0  0  0  0  0  0  0  0  0  0  0
   -8.5008   -0.8876    1.3162 C   0  0  0  0  0  0  0  0  0  0  0  0
    7.2785   -0.7570   -1.3035 H   0  0  0  0  0  0  0  0  0  0  0  0
    5.0729   -0.7294   -2.0734 H   0  0  0  0  0  0  0  0  0  0  0  0
    4.8074   -1.9646   -0.8024 H   0  0  0  0  0  0  0  0  0  0  0  0
    6.8941   -2.6844    0.3387 H   0  0  0  0  0  0  0  0  0  0  0  0
    6.3003   -1.4948    1.5217 H   0  0  0  0  0  0  0  0  0  0  0  0
    2.7156    1.9364    0.7879 H   0  0  0  0  0  0  0  0  0  0  0  0
    2.7318   -1.8460   -1.3622 H   0  0  0  0  0  0  0  0  0  0  0  0
    0.3099   -1.8472   -1.3270 H   0  0  0  0  0  0  0  0  0  0  0  0
    8.8463   -1.4976    0.2730 H   0  0  0  0  0  0  0  0  0  0  0  0
   -1.5283    1.0775   -2.1218 H   0  0  0  0  0  0  0  0  0  0  0  0
   -1.4940   -1.0394    1.6242 H   0  0  0  0  0  0  0  0  0  0  0  0
   -3.9818    1.0322   -2.0523 H   0  0  0  0  0  0  0  0  0  0  0  0
   -8.8654   -1.8211    0.8814 H   0  0  0  0  0  0  0  0  0  0  0  0
   -8.1914   -1.0464    2.3522 H   0  0  0  0  0  0  0  0  0  0  0  0
   -9.2754   -0.1179    1.2759 H   0  0  0  0  0  0  0  0  0  0  0  0
  1 19  1  0  0  0  0
  2 11  1  0  0  0  0
  2 15  1  0  0  0  0
  3 14  1  0  0  0  0
  3 36  1  0  0  0  0
  4 15  2  0  0  0  0
  5 12  1  0  0  0  0
  5 13  1  0  0  0  0
  5 15  1  0  0  0  0
  6 23  1  0  0  0  0
  6 25  2  0  0  0  0
  7  8  1  0  0  0  0
  7 26  2  0  0  0  0
  8 10  1  0  0  0  0
  8 27  1  0  0  0  0
  9 10  2  0  0  0  0
  9 26  1  0  0  0  0
 11 12  1  0  0  0  0
 11 14  1  0  0  0  0
 11 28  1  0  0  0  0
 12 29  1  0  0  0  0
 12 30  1  0  0  0  0
 13 16  2  0  0  0  0
 13 17  1  0  0  0  0
 14 31  1  0  0  0  0
 14 32  1  0  0  0  0
 16 19  1  0  0  0  0
 16 33  1  0  0  0  0
 17 20  2  0  0  0  0
 17 34  1  0  0  0  0
 18 19  2  0  0  0  0
 18 20  1  0  0  0  0
 18 21  1  0  0  0  0
 20 35  1  0  0  0  0
 21 22  1  0  0  0  0
 21 23  2  0  0  0  0
 22 24  2  0  0  0  0
 22 37  1  0  0  0  0
 23 38  1  0  0  0  0
 24 25  1  0  0  0  0
 24 39  1  0  0  0  0
 25 26  1  0  0  0  0
 27 40  1  0  0  0  0
 27 41  1  0  0  0  0
 27 42  1  0  0  0  0
M  END
> <PUBCHEM_COMPOUND_CID>
11234049

> <PUBCHEM_CONFORMER_RMSD>
0.8

> <PUBCHEM_CONFORMER_DIVERSEORDER>
2
12
29
25
6
18
28
9
5
16
14
21
10
27
22
24
15
4
23
19
26
1
13
7
3
11
17
20
8

> <PUBCHEM_MMFF94_PARTIAL_CHARGES>
32
1 -0.19
10 -0.42
11 0.28
12 0.3
13 0.12
14 0.28
15 0.78
16 -0.15
17 -0.15
19 0.19
2 -0.43
20 -0.15
22 -0.15
23 0.16
24 -0.15
25 0.36
26 0.46
27 0.26
3 -0.68
33 0.15
34 0.15
35 0.15
36 0.4
37 0.15
38 0.15
39 0.15
4 -0.57
5 -0.48
6 -0.62
7 -0.71
8 0.58
9 -0.23

> <PUBCHEM_EFFECTIVE_ROTOR_COUNT>
4.8

> <PUBCHEM_PHARMACOPHORE_FEATURES>
9
1 3 acceptor
1 3 donor
1 4 acceptor
1 6 acceptor
3 7 9 26 cation
5 2 5 11 12 15 rings
5 7 8 9 10 26 rings
6 13 16 17 18 19 20 rings
6 6 21 22 23 24 25 rings

> <PUBCHEM_HEAVY_ATOM_COUNT>
27

> <PUBCHEM_ATOM_DEF_STEREO_COUNT>
1

> <PUBCHEM_ATOM_UDEF_STEREO_COUNT>
0

> <PUBCHEM_BOND_DEF_STEREO_COUNT>
0

> <PUBCHEM_BOND_UDEF_STEREO_COUNT>
0

> <PUBCHEM_ISOTOPIC_ATOM_COUNT>
0

> <PUBCHEM_COMPONENT_COUNT>
1

> <PUBCHEM_CACTVS_TAUTO_COUNT>
1

> <PUBCHEM_CONFORMER_ID>
00AB6B0100000002

> <PUBCHEM_MMFF94_ENERGY>
73.1327

> <PUBCHEM_FEATURE_SELFOVERLAP>
45.672

> <PUBCHEM_SHAPE_FINGERPRINT>
10 15 18335137635300740360
10066227 49 17531804645875859042
10299344 5 14273454786459601115
11135926 11 18060413591407928783
11315181 36 10375870788928209519
11456790 92 18202568371203530955
11524674 6 18342739633057989463
11638347 137 18260832587676780962
11719270 70 18201438065051255806
12166972 35 17967817150233275196
12236239 1 16702304563882737445
12516196 113 17132395012297147656
12741549 16 18409727344124780853
13533116 47 16415485908958329486
13685833 64 18412829083521138286
13782708 43 18115595988129994955
13885169 127 18040433257306752653
14170010 4 18343582975070390865
14251764 18 17132115740453939361
14251764 46 18060419109902436766
14849402 71 17631732806662429233
15183329 4 14345794946169209451
15419008 47 18260260850073073029
15849732 13 16271928216375043693
17093844 174 14117798025518220151
18681886 176 16081371895009638997
19841028 212 17677604256376034282
2026 5 17823691972359381818
21267235 1 18272938189924767556
21521721 280 18130507526081041928
21792934 111 18131340895950522936
21792961 116 18336538309629104388
22224240 67 16415476047771297086
23559900 14 17967815010890914973
246663 6 18040721368102783499
3004659 81 15936413351054674254
3178227 256 18272374182528708946
328311 84 18334014994946845835
335352 9 18131071550430415380
34797466 226 17386010593991221252
4073 2 18338237192517491546
4340502 62 18040150721468026850
5758199 1 16200433559068142215
59755656 215 17240482489843849506
59755656 520 18060412543456936015
636775 72 13110975193699633531

> <PUBCHEM_SHAPE_MULTIPOLES>
500.88
23.84
1.39
1.14
10.94
0.27
0.06
-7.55
-5.3
-1.94
-0.35
0.57
-0.05
1.18

> <PUBCHEM_SHAPE_SELFOVERLAP>
1104.014

> <PUBCHEM_SHAPE_VOLUME>
274

> <PUBCHEM_COORDINATE_TYPE>
2
5
10

$$$$
