11235347
  -OEChem-03292013303D

 49 53  0     1  0  0  0  0  0999 V2000
    1.3422    0.5990    2.7769 O   0  0  0  0  0  0  0  0  0  0  0  0
    0.5751    0.9504   -1.8979 O   0  0  0  0  0  0  0  0  0  0  0  0
   -2.0174    2.1203   -1.7918 O   0  0  0  0  0  0  0  0  0  0  0  0
   -1.5018    0.7365    2.3149 O   0  0  0  0  0  0  0  0  0  0  0  0
   -2.1234    2.9360    0.3670 O   0  0  0  0  0  0  0  0  0  0  0  0
   -2.4590   -2.3429   -1.4050 N   0  0  0  0  0  0  0  0  0  0  0  0
    4.8567    1.4069   -0.2788 N   0  0  0  0  0  0  0  0  0  0  0  0
   -1.0645    0.8153   -0.0919 C   0  0  2  0  0  0  0  0  0  0  0  0
   -1.8738   -0.4112   -0.4816 C   0  0  0  0  0  0  0  0  0  0  0  0
    0.3315    0.8391   -0.7047 C   0  0  0  0  0  0  0  0  0  0  0  0
    1.3795    0.7404    0.3603 C   0  0  0  0  0  0  0  0  0  0  0  0
   -0.7143    0.7466    1.3819 C   0  0  0  0  0  0  0  0  0  0  0  0
    0.7566    0.6979    1.5484 C   0  0  0  0  0  0  0  0  0  0  0  0
   -3.2022   -0.7155   -0.0721 C   0  0  0  0  0  0  0  0  0  0  0  0
    2.7815    0.7077    0.0844 C   0  0  0  0  0  0  0  0  0  0  0  0
   -1.7937    2.0843   -0.4473 C   0  0  0  0  0  0  0  0  0  0  0  0
   -1.4442   -1.4299   -1.3004 C   0  0  0  0  0  0  0  0  0  0  0  0
   -3.5452   -1.9322   -0.6654 C   0  0  0  0  0  0  0  0  0  0  0  0
    3.6014   -0.4325   -0.1447 C   0  0  0  0  0  0  0  0  0  0  0  0
    3.5817    1.8235   -0.0047 C   0  0  0  0  0  0  0  0  0  0  0  0
   -4.1487   -0.0705    0.7487 C   0  0  0  0  0  0  0  0  0  0  0  0
    4.8984    0.0339   -0.3701 C   0  0  0  0  0  0  0  0  0  0  0  0
   -4.7925   -2.5387   -0.4783 C   0  0  0  0  0  0  0  0  0  0  0  0
    3.3641   -1.8210   -0.1823 C   0  0  0  0  0  0  0  0  0  0  0  0
   -5.4004   -0.6652    0.9448 C   0  0  0  0  0  0  0  0  0  0  0  0
   -5.7152   -1.8804    0.3398 C   0  0  0  0  0  0  0  0  0  0  0  0
    5.9739   -0.8221   -0.6323 C   0  0  0  0  0  0  0  0  0  0  0  0
    4.4303   -2.6892   -0.4437 C   0  0  0  0  0  0  0  0  0  0  0  0
    0.9167   -0.5707    3.4601 C   0  0  0  0  0  0  0  0  0  0  0  0
    5.7143   -2.1953   -0.6649 C   0  0  0  0  0  0  0  0  0  0  0  0
   -2.7075    3.2795   -2.2694 C   0  0  0  0  0  0  0  0  0  0  0  0
   -0.5116   -1.6012   -1.8195 H   0  0  0  0  0  0  0  0  0  0  0  0
   -2.4176   -3.1954   -1.9460 H   0  0  0  0  0  0  0  0  0  0  0  0
    3.3628    2.8774    0.1013 H   0  0  0  0  0  0  0  0  0  0  0  0
   -3.9325    0.8800    1.2262 H   0  0  0  0  0  0  0  0  0  0  0  0
   -5.0385   -3.4847   -0.9489 H   0  0  0  0  0  0  0  0  0  0  0  0
    5.6526    2.0183   -0.3974 H   0  0  0  0  0  0  0  0  0  0  0  0
    2.3689   -2.2223   -0.0121 H   0  0  0  0  0  0  0  0  0  0  0  0
   -6.1351   -0.1714    1.5752 H   0  0  0  0  0  0  0  0  0  0  0  0
   -6.6935   -2.3244    0.5054 H   0  0  0  0  0  0  0  0  0  0  0  0
    6.9740   -0.4387   -0.8047 H   0  0  0  0  0  0  0  0  0  0  0  0
    4.2530   -3.7610   -0.4741 H   0  0  0  0  0  0  0  0  0  0  0  0
    1.6470   -0.7801    4.2482 H   0  0  0  0  0  0  0  0  0  0  0  0
    0.8799   -1.4458    2.8005 H   0  0  0  0  0  0  0  0  0  0  0  0
   -0.0507   -0.4144    3.9458 H   0  0  0  0  0  0  0  0  0  0  0  0
    6.5278   -2.8876   -0.8660 H   0  0  0  0  0  0  0  0  0  0  0  0
   -3.7012    3.3416   -1.8157 H   0  0  0  0  0  0  0  0  0  0  0  0
   -2.8213    3.1850   -3.3525 H   0  0  0  0  0  0  0  0  0  0  0  0
   -2.1264    4.1813   -2.0544 H   0  0  0  0  0  0  0  0  0  0  0  0
  1 13  1  0  0  0  0
  1 29  1  0  0  0  0
  2 10  2  0  0  0  0
  3 16  1  0  0  0  0
  3 31  1  0  0  0  0
  4 12  2  0  0  0  0
  5 16  2  0  0  0  0
  6 17  1  0  0  0  0
  6 18  1  0  0  0  0
  6 33  1  0  0  0  0
  7 20  1  0  0  0  0
  7 22  1  0  0  0  0
  7 37  1  0  0  0  0
  8  9  1  0  0  0  0
  8 10  1  0  0  0  0
  8 12  1  0  0  0  0
  8 16  1  0  0  0  0
  9 14  1  0  0  0  0
  9 17  2  0  0  0  0
 10 11  1  0  0  0  0
 11 13  2  0  0  0  0
 11 15  1  0  0  0  0
 12 13  1  0  0  0  0
 14 18  1  0  0  0  0
 14 21  2  0  0  0  0
 15 19  1  0  0  0  0
 15 20  2  0  0  0  0
 17 32  1  0  0  0  0
 18 23  2  0  0  0  0
 19 22  1  0  0  0  0
 19 24  2  0  0  0  0
 20 34  1  0  0  0  0
 21 25  1  0  0  0  0
 21 35  1  0  0  0  0
 22 27  2  0  0  0  0
 23 26  1  0  0  0  0
 23 36  1  0  0  0  0
 24 28  1  0  0  0  0
 24 38  1  0  0  0  0
 25 26  2  0  0  0  0
 25 39  1  0  0  0  0
 26 40  1  0  0  0  0
 27 30  1  0  0  0  0
 27 41  1  0  0  0  0
 28 30  2  0  0  0  0
 28 42  1  0  0  0  0
 29 43  1  0  0  0  0
 29 44  1  0  0  0  0
 29 45  1  0  0  0  0
 30 46  1  0  0  0  0
 31 47  1  0  0  0  0
 31 48  1  0  0  0  0
 31 49  1  0  0  0  0
M  END
> <PUBCHEM_COMPOUND_CID>
11235347

> <PUBCHEM_CONFORMER_RMSD>
0.8

> <PUBCHEM_CONFORMER_DIVERSEORDER>
1
56
10
72
64
71
87
39
20
61
11
92
42
62
84
67
17
8
25
103
44
77
82
93
88
99
78
58
69
45
51
12
40
86
19
83
46
65
100
85
73
33
97
2
50
37
101
75
3
48
49
89
59
36
95
80
24
18
98
7
91
38
94
81
102
22
23
35
57
14
90
5
53
4
63
52
9
28
70
32
54
55
68
21
30
13
66
96
27
26
47
43
6
16
31
79
76
60
34
74
29
41
15

> <PUBCHEM_MMFF94_PARTIAL_CHARGES>
41
1 -0.36
10 0.49
11 0.06
12 0.49
13 0.09
15 -0.05
16 0.66
17 -0.3
18 -0.15
2 -0.57
20 -0.3
21 -0.15
22 -0.15
23 -0.15
24 -0.15
25 -0.15
26 -0.15
27 -0.15
28 -0.15
29 0.28
3 -0.43
30 -0.15
31 0.28
32 0.15
33 0.27
34 0.15
35 0.15
36 0.15
37 0.27
38 0.15
39 0.15
4 -0.57
40 0.15
41 0.15
42 0.15
46 0.15
5 -0.57
6 0.03
7 0.03
8 0.36
9 -0.18

> <PUBCHEM_EFFECTIVE_ROTOR_COUNT>
5.2

> <PUBCHEM_PHARMACOPHORE_FEATURES>
13
1 1 acceptor
1 2 acceptor
1 4 acceptor
1 5 acceptor
1 6 cation
1 6 donor
1 7 cation
1 7 donor
5 6 9 14 17 18 rings
5 7 15 19 20 22 rings
5 8 10 11 12 13 rings
6 14 18 21 23 25 26 rings
6 19 22 24 27 28 30 rings

> <PUBCHEM_HEAVY_ATOM_COUNT>
31

> <PUBCHEM_ATOM_DEF_STEREO_COUNT>
0

> <PUBCHEM_ATOM_UDEF_STEREO_COUNT>
1

> <PUBCHEM_BOND_DEF_STEREO_COUNT>
0

> <PUBCHEM_BOND_UDEF_STEREO_COUNT>
0

> <PUBCHEM_ISOTOPIC_ATOM_COUNT>
0

> <PUBCHEM_COMPONENT_COUNT>
1

> <PUBCHEM_CACTVS_TAUTO_COUNT>
4

> <PUBCHEM_CONFORMER_ID>
00AB701300000001

> <PUBCHEM_MMFF94_ENERGY>
74.3409

> <PUBCHEM_FEATURE_SELFOVERLAP>
66.159

> <PUBCHEM_SHAPE_FINGERPRINT>
10190108 129 17605012342277405473
10290309 65 18058450898559618814
1100329 8 16336151601244638659
11456790 92 16987737813210145387
11578080 2 18129361817638220864
117089 54 18119543273529351603
12160290 23 17976784707034780397
12422481 6 18270133322592825567
12633257 1 16558755667071143159
12760667 363 18060699485557703391
12788726 201 17968645073914515905
13140716 1 14979383088541565185
13383661 66 17170984696541757107
13690498 29 18337682914719986214
13782708 43 18202281433276852207
14251751 93 18263360308968435194
14347332 77 18334572417403983750
14713325 29 18266463096697048541
14955137 171 18191035693273024345
15219462 58 17095522868284869968
15238133 3 16630541621369728043
16120349 21 18058182634585181454
17349148 13 16732700558463959776
17492 89 18341614759727230990
1813 80 18114460166811476365
19784866 135 18202282498328112051
19784866 140 17749382689563961595
21344244 181 17822018626782229082
22393880 68 18189330187413847174
22950370 63 18341897449778226799
23522609 53 17983048722887520561
23559900 14 18341881996396504380
23569914 152 17323477867016085287
24893992 56 17131560514392581379
2838139 119 10953457457527495550
3004659 81 18202291316386749902
3411729 13 15696861748142561666
350125 39 18342743996437968966
44062 13 18191583052136783470
46194498 28 18261114101861871084
463206 1 18339363097014908358
497634 4 18201450168100153984
5104073 3 18130220463905839074
513202 73 18261397707005164491
57527295 17 17677897830042780970
6086070 43 17203597191311334609
70251023 43 18261956353005820409
7970288 3 18194402419052489319

> <PUBCHEM_SHAPE_MULTIPOLES>
598.66
12.1
3.06
2.09
5.76
0.5
1.64
-8.23
-2.1
-1.49
-1.65
-0.51
0.62
0.9

> <PUBCHEM_SHAPE_SELFOVERLAP>
1361.155

> <PUBCHEM_SHAPE_VOLUME>
312.6

> <PUBCHEM_COORDINATE_TYPE>
2
5
10

$$$$
