REMARK  Name = 11235347
REMARK  5 active torsions:
REMARK  status: ('A' for Active; 'I' for Inactive)
REMARK    1  A    between atoms: C_3  and  C_9
REMARK    2  A    between atoms: C_3  and  C_31
REMARK    3  A    between atoms: C_5  and  C_19
REMARK    4  A    between atoms: C_7  and  O_28
REMARK    5  A    between atoms: C_31  and  O_32
REMARK                            x       y       z     vdW  Elec       q    Type
REMARK                         _______ _______ _______ _____ _____    ______ ____
ROOT
ATOM      1  O   UNL     1       0.575   0.950  -1.898  0.00  0.00    -0.290 OA
ATOM      2  O   UNL     1      -1.502   0.737   2.315  0.00  0.00    -0.287 OA
ATOM      3  C   UNL     1      -1.065   0.815  -0.092  0.00  0.00    +0.222 C 
ATOM      4  C   UNL     1       0.332   0.839  -0.705  0.00  0.00    +0.196 C 
ATOM      5  C   UNL     1       1.379   0.740   0.360  0.00  0.00    +0.074 C 
ATOM      6  C   UNL     1      -0.714   0.747   1.382  0.00  0.00    +0.227 C 
ATOM      7  C   UNL     1       0.757   0.698   1.548  0.00  0.00    +0.177 C 
ENDROOT
BRANCH   3   9
ATOM      8  N   UNL     1      -2.459  -2.343  -1.405  0.00  0.00    -0.312 N 
ATOM      9  C   UNL     1      -1.874  -0.411  -0.482  0.00  0.00    +0.017 C 
ATOM     10  C   UNL     1      -3.202  -0.716  -0.072  0.00  0.00    +0.012 C 
ATOM     11  C   UNL     1      -1.444  -1.430  -1.300  0.00  0.00    +0.059 C 
ATOM     12  C   UNL     1      -3.545  -1.932  -0.665  0.00  0.00    +0.048 C 
ATOM     13  C   UNL     1      -4.149  -0.070   0.749  0.00  0.00    +0.001 C 
ATOM     14  C   UNL     1      -4.793  -2.539  -0.478  0.00  0.00    +0.015 C 
ATOM     15  C   UNL     1      -5.400  -0.665   0.945  0.00  0.00    +0.000 C 
ATOM     16  C   UNL     1      -5.715  -1.880   0.340  0.00  0.00    +0.001 C 
ATOM     17  H   UNL     1      -2.418  -3.173  -1.933  0.00  0.00    +0.152 HD
ENDBRANCH   3   9
BRANCH   5  19
ATOM     18  N   UNL     1       4.857   1.407  -0.279  0.00  0.00    -0.312 N 
ATOM     19  C   UNL     1       2.781   0.708   0.084  0.00  0.00    +0.022 C 
ATOM     20  C   UNL     1       3.601  -0.432  -0.145  0.00  0.00    +0.015 C 
ATOM     21  C   UNL     1       3.582   1.823  -0.005  0.00  0.00    +0.062 C 
ATOM     22  C   UNL     1       4.898   0.034  -0.370  0.00  0.00    +0.048 C 
ATOM     23  C   UNL     1       3.364  -1.821  -0.182  0.00  0.00    +0.001 C 
ATOM     24  C   UNL     1       5.974  -0.822  -0.632  0.00  0.00    +0.015 C 
ATOM     25  C   UNL     1       4.430  -2.689  -0.444  0.00  0.00    +0.000 C 
ATOM     26  C   UNL     1       5.714  -2.195  -0.665  0.00  0.00    +0.001 C 
ATOM     27  H   UNL     1       5.632   2.003  -0.394  0.00  0.00    +0.152 HD
ENDBRANCH   5  19
BRANCH   7  28
ATOM     28  O   UNL     1       1.342   0.599   2.777  0.00  0.00    -0.468 OA
ATOM     29  C   UNL     1       0.917  -0.571   3.460  0.00  0.00    +0.253 C 
ENDBRANCH   7  28
BRANCH   3  31
ATOM     30  O   UNL     1      -2.123   2.936   0.367  0.00  0.00    -0.249 OA
ATOM     31  C   UNL     1      -1.794   2.084  -0.447  0.00  0.00    +0.334 C 
BRANCH  31  32
ATOM     32  O   UNL     1      -2.017   2.120  -1.792  0.00  0.00    -0.444 OA
ATOM     33  C   UNL     1      -2.708   3.280  -2.269  0.00  0.00    +0.256 C 
ENDBRANCH  31  32
ENDBRANCH   3  31
TORSDOF 5
