REMARK  Name = 11245813
REMARK  11 active torsions:
REMARK  status: ('A' for Active; 'I' for Inactive)
REMARK    1  A    between atoms: C_1  and  C_4
REMARK    2  A    between atoms: C_1  and  CA_17
REMARK    3  A    between atoms: N_2  and  C_8
REMARK    4  A    between atoms: C_8  and  O_9
REMARK    5  A    between atoms: O_9  and  C_10
REMARK    6  A    between atoms: C_10  and  C_11
REMARK    7  A    between atoms: CA_17  and  N_19
REMARK    8  A    between atoms: CA_17  and  C_28
REMARK    9  A    between atoms: C_20  and  O_22
REMARK   10  A    between atoms: O_22  and  C_23
REMARK   11  A    between atoms: C_28  and  O_29
REMARK                            x       y       z     vdW  Elec       q    Type
REMARK                         _______ _______ _______ _____ _____    ______ ____
ROOT
ATOM      1  C   UNL     1       3.584  -1.605  -0.297  0.00  0.00    +0.070 C 
ENDROOT
BRANCH   1   4
ATOM      2  N   UNL     1       0.048  -2.829  -0.202  0.00  0.00    +0.423 N 
ATOM      3  N   UNL     1       1.860  -2.836   1.083  0.00  0.00    -0.304 NA
ATOM      4  C   UNL     1       2.214  -2.175  -0.059  0.00  0.00    +0.011 C 
ATOM      5  C   UNL     1       1.080  -2.183  -0.837  0.00  0.00    -0.029 C 
ATOM      6  C   UNL     1       0.551  -3.210   0.952  0.00  0.00    +0.057 C 
ATOM      7  H   UNL     1      -0.842  -2.530   0.094  0.00  0.00    -0.072 HD
BRANCH   2   8
ATOM      8  C   UNL     1      -1.284  -3.031  -0.710  0.00  0.00    +0.075 C 
BRANCH   8   9
ATOM      9  O   UNL     1      -2.070  -1.919  -0.304  0.00  0.00    -0.371 OA
BRANCH   9  10
ATOM     10  C   UNL     1      -3.402  -2.020  -0.788  0.00  0.00    +0.166 C 
BRANCH  10  11
ATOM     11  C   UNL     1      -4.182  -0.823  -0.330  0.00  0.00    +0.007 C 
ATOM     12  C   UNL     1      -4.864  -0.859   0.887  0.00  0.00    -0.002 C 
ATOM     13  C   UNL     1      -4.224   0.326  -1.119  0.00  0.00    -0.002 C 
ATOM     14  C   UNL     1      -5.588   0.254   1.313  0.00  0.00    -0.000 C 
ATOM     15  C   UNL     1      -4.949   1.439  -0.692  0.00  0.00    -0.000 C 
ATOM     16  C   UNL     1      -5.631   1.403   0.524  0.00  0.00    -0.000 C 
ENDBRANCH  10  11
ENDBRANCH   9  10
ENDBRANCH   8   9
ENDBRANCH   2   8
ENDBRANCH   1   4
BRANCH   1  17
ATOM     17  CA  UNL     1       3.730  -0.155   0.188  0.00  0.00    +0.179 C 
BRANCH  17  19
ATOM     18  O   UNL     1       1.695   1.487   1.453  0.00  0.00    -0.226 OA
ATOM     19  N   UNL     1       2.769   0.714  -0.453  0.00  0.00    -0.262 N 
ATOM     20  C   UNL     1       1.835   1.460   0.234  0.00  0.00    +0.402 C 
ATOM     21  H   UNL     1       2.783   0.777  -1.435  0.00  0.00    +0.153 HD
BRANCH  20  22
ATOM     22  O   UNL     1       1.074   2.178  -0.648  0.00  0.00    -0.442 OA
BRANCH  22  23
ATOM     23  C   UNL     1       0.059   3.001  -0.073  0.00  0.00    +0.138 C 
ATOM     24  C   UNL     1       0.725   4.015   0.857  0.00  0.00    +0.044 C 
ATOM     25  C   UNL     1      -0.659   3.712  -1.218  0.00  0.00    +0.044 C 
ATOM     26  C   UNL     1      -0.912   2.110   0.699  0.00  0.00    +0.044 C 
ENDBRANCH  22  23
ENDBRANCH  20  22
ENDBRANCH  17  19
BRANCH  17  28
ATOM     27  OXT UNL     1       6.133  -0.192   0.464  0.00  0.00    -0.248 OA
ATOM     28  C   UNL     1       5.151   0.333  -0.051  0.00  0.00    +0.332 C 
BRANCH  28  29
ATOM     29  O   UNL     1       5.254   1.405  -0.874  0.00  0.00    -0.479 OA
ATOM     30  H   UNL     1       4.483   1.782  -1.250  0.00  0.00    +0.295 HD
ENDBRANCH  28  29
ENDBRANCH  17  28
ENDBRANCH   1  17
TORSDOF 11
