11245813
  -OEChem-03292013303D

 52 53  0     1  0  0  0  0  0999 V2000
    1.0744    2.1775   -0.6477 O   0  0  0  0  0  0  0  0  0  0  0  0
   -2.0698   -1.9194   -0.3039 O   0  0  0  0  0  0  0  0  0  0  0  0
    5.2540    1.4046   -0.8735 O   0  0  0  0  0  0  0  0  0  0  0  0
    1.6954    1.4871    1.4529 O   0  0  0  0  0  0  0  0  0  0  0  0
    6.1328   -0.1923    0.4637 O   0  0  0  0  0  0  0  0  0  0  0  0
    2.7695    0.7139   -0.4525 N   0  0  0  0  0  0  0  0  0  0  0  0
    0.0484   -2.8291   -0.2015 N   0  0  0  0  0  0  0  0  0  0  0  0
    1.8599   -2.8359    1.0830 N   0  0  0  0  0  0  0  0  0  0  0  0
    0.0593    3.0014   -0.0731 C   0  0  0  0  0  0  0  0  0  0  0  0
    3.7297   -0.1554    0.1875 C   0  0  1  0  0  0  0  0  0  0  0  0
    3.5838   -1.6050   -0.2967 C   0  0  0  0  0  0  0  0  0  0  0  0
    2.2137   -2.1747   -0.0592 C   0  0  0  0  0  0  0  0  0  0  0  0
    0.7246    4.0152    0.8566 C   0  0  0  0  0  0  0  0  0  0  0  0
   -0.6588    3.7125   -1.2180 C   0  0  0  0  0  0  0  0  0  0  0  0
   -0.9120    2.1095    0.6989 C   0  0  0  0  0  0  0  0  0  0  0  0
    1.0797   -2.1833   -0.8367 C   0  0  0  0  0  0  0  0  0  0  0  0
    1.8353    1.4601    0.2345 C   0  0  0  0  0  0  0  0  0  0  0  0
    5.1512    0.3333   -0.0509 C   0  0  0  0  0  0  0  0  0  0  0  0
   -1.2838   -3.0312   -0.7102 C   0  0  0  0  0  0  0  0  0  0  0  0
    0.5515   -3.2097    0.9518 C   0  0  0  0  0  0  0  0  0  0  0  0
   -3.4020   -2.0200   -0.7882 C   0  0  0  0  0  0  0  0  0  0  0  0
   -4.1816   -0.8228   -0.3296 C   0  0  0  0  0  0  0  0  0  0  0  0
   -4.8635   -0.8589    0.8868 C   0  0  0  0  0  0  0  0  0  0  0  0
   -4.2242    0.3264   -1.1191 C   0  0  0  0  0  0  0  0  0  0  0  0
   -5.5881    0.2540    1.3135 C   0  0  0  0  0  0  0  0  0  0  0  0
   -4.9488    1.4393   -0.6923 C   0  0  0  0  0  0  0  0  0  0  0  0
   -5.6307    1.4031    0.5240 C   0  0  0  0  0  0  0  0  0  0  0  0
    3.5650   -0.1091    1.2710 H   0  0  0  0  0  0  0  0  0  0  0  0
    4.3207   -2.2440    0.2059 H   0  0  0  0  0  0  0  0  0  0  0  0
    3.8071   -1.6649   -1.3702 H   0  0  0  0  0  0  0  0  0  0  0  0
    2.8009    0.8044   -1.4637 H   0  0  0  0  0  0  0  0  0  0  0  0
    1.0359    3.6111    1.8231 H   0  0  0  0  0  0  0  0  0  0  0  0
    1.6130    4.4542    0.3879 H   0  0  0  0  0  0  0  0  0  0  0  0
    0.0308    4.8319    1.0898 H   0  0  0  0  0  0  0  0  0  0  0  0
   -1.0970    2.9858   -1.9121 H   0  0  0  0  0  0  0  0  0  0  0  0
    0.0450    4.3150   -1.8037 H   0  0  0  0  0  0  0  0  0  0  0  0
   -1.4570    4.3678   -0.8545 H   0  0  0  0  0  0  0  0  0  0  0  0
   -1.1729    1.2183    0.1161 H   0  0  0  0  0  0  0  0  0  0  0  0
   -0.5399    1.7620    1.6659 H   0  0  0  0  0  0  0  0  0  0  0  0
   -1.8400    2.6516    0.9165 H   0  0  0  0  0  0  0  0  0  0  0  0
    0.9193   -1.7656   -1.8221 H   0  0  0  0  0  0  0  0  0  0  0  0
   -1.6787   -3.9632   -0.2914 H   0  0  0  0  0  0  0  0  0  0  0  0
   -1.2328   -3.0998   -1.8022 H   0  0  0  0  0  0  0  0  0  0  0  0
    0.0135   -3.7521    1.7184 H   0  0  0  0  0  0  0  0  0  0  0  0
   -3.4002   -2.0716   -1.8842 H   0  0  0  0  0  0  0  0  0  0  0  0
   -3.8684   -2.9403   -0.4149 H   0  0  0  0  0  0  0  0  0  0  0  0
    6.1860    1.6857   -0.9949 H   0  0  0  0  0  0  0  0  0  0  0  0
   -4.8359   -1.7475    1.5119 H   0  0  0  0  0  0  0  0  0  0  0  0
   -3.6940    0.3681   -2.0669 H   0  0  0  0  0  0  0  0  0  0  0  0
   -6.1183    0.2263    2.2609 H   0  0  0  0  0  0  0  0  0  0  0  0
   -4.9804    2.3347   -1.3061 H   0  0  0  0  0  0  0  0  0  0  0  0
   -6.1941    2.2699    0.8566 H   0  0  0  0  0  0  0  0  0  0  0  0
  1  9  1  0  0  0  0
  1 17  1  0  0  0  0
  2 19  1  0  0  0  0
  2 21  1  0  0  0  0
  3 18  1  0  0  0  0
  3 47  1  0  0  0  0
  4 17  2  0  0  0  0
  5 18  2  0  0  0  0
  6 10  1  0  0  0  0
  6 17  1  0  0  0  0
  6 31  1  0  0  0  0
  7 16  1  0  0  0  0
  7 19  1  0  0  0  0
  7 20  1  0  0  0  0
  8 12  1  0  0  0  0
  8 20  2  0  0  0  0
  9 13  1  0  0  0  0
  9 14  1  0  0  0  0
  9 15  1  0  0  0  0
 10 11  1  0  0  0  0
 10 18  1  0  0  0  0
 10 28  1  0  0  0  0
 11 12  1  0  0  0  0
 11 29  1  0  0  0  0
 11 30  1  0  0  0  0
 12 16  2  0  0  0  0
 13 32  1  0  0  0  0
 13 33  1  0  0  0  0
 13 34  1  0  0  0  0
 14 35  1  0  0  0  0
 14 36  1  0  0  0  0
 14 37  1  0  0  0  0
 15 38  1  0  0  0  0
 15 39  1  0  0  0  0
 15 40  1  0  0  0  0
 16 41  1  0  0  0  0
 19 42  1  0  0  0  0
 19 43  1  0  0  0  0
 20 44  1  0  0  0  0
 21 22  1  0  0  0  0
 21 45  1  0  0  0  0
 21 46  1  0  0  0  0
 22 23  2  0  0  0  0
 22 24  1  0  0  0  0
 23 25  1  0  0  0  0
 23 48  1  0  0  0  0
 24 26  2  0  0  0  0
 24 49  1  0  0  0  0
 25 27  2  0  0  0  0
 25 50  1  0  0  0  0
 26 27  1  0  0  0  0
 26 51  1  0  0  0  0
 27 52  1  0  0  0  0
M  END
> <PUBCHEM_COMPOUND_CID>
11245813

> <PUBCHEM_CONFORMER_RMSD>
1

> <PUBCHEM_CONFORMER_DIVERSEORDER>
1
42
20
143
38
103
75
22
168
152
159
36
163
19
146
137
138
117
126
165
101
119
30
27
89
153
45
61
92
43
139
113
100
140
112
80
10
104
115
78
114
135
68
133
50
48
71
134
170
65
9
85
74
59
99
161
35
120
118
67
130
109
91
13
154
77
51
156
41
111
56
46
136
5
127
102
108
123
69
96
110
33
40
81
17
160
155
3
164
124
70
6
172
171
106
8
52
29
23
174
15
169
90
141
31
147
95
60
63
66
151
162
7
94
53
144
54
131
145
150
47
62
32
86
76
167
93
21
166
28
158
97
121
87
105
107
73
84
25
129
79
44
98
72
122
39
82
16
175
88
55
64
14
37
148
4
83
173
12
24
128
142
116
58
125
149
11
57
26
2
132
18
49
157
34

> <PUBCHEM_MMFF94_PARTIAL_CHARGES>
33
1 -0.43
10 0.36
11 0.18
12 0.05
16 -0.3
17 0.78
18 0.66
19 0.54
2 -0.56
20 0.04
21 0.42
22 -0.14
23 -0.15
24 -0.15
25 -0.15
26 -0.15
27 -0.15
3 -0.65
31 0.37
4 -0.57
41 0.15
44 0.15
47 0.5
48 0.15
49 0.15
5 -0.57
50 0.15
51 0.15
52 0.15
6 -0.73
7 0.05
8 -0.57
9 0.28

> <PUBCHEM_EFFECTIVE_ROTOR_COUNT>
11

> <PUBCHEM_PHARMACOPHORE_FEATURES>
10
1 2 acceptor
1 3 acceptor
1 4 acceptor
1 5 acceptor
1 6 donor
3 3 5 18 anion
3 7 8 20 cation
4 9 13 14 15 hydrophobe
5 7 8 12 16 20 rings
6 22 23 24 25 26 27 rings

> <PUBCHEM_HEAVY_ATOM_COUNT>
27

> <PUBCHEM_ATOM_DEF_STEREO_COUNT>
1

> <PUBCHEM_ATOM_UDEF_STEREO_COUNT>
0

> <PUBCHEM_BOND_DEF_STEREO_COUNT>
0

> <PUBCHEM_BOND_UDEF_STEREO_COUNT>
0

> <PUBCHEM_ISOTOPIC_ATOM_COUNT>
0

> <PUBCHEM_COMPONENT_COUNT>
1

> <PUBCHEM_CACTVS_TAUTO_COUNT>
2

> <PUBCHEM_CONFORMER_ID>
00AB98F500000001

> <PUBCHEM_MMFF94_ENERGY>
59.4974

> <PUBCHEM_FEATURE_SELFOVERLAP>
50.806

> <PUBCHEM_SHAPE_FINGERPRINT>
10006869 2 18195798583543346742
1100329 8 18339363088339928036
11273773 38 18335987566131409645
11578080 2 13841418254299242732
12422481 6 18196060327666919850
12788726 201 18408319982921564938
12838862 33 18339905057183202449
12925494 130 18339925910431164401
13122387 1 17259338869916154301
13402501 40 18409167688689778671
14394314 77 18412545414012020136
14466204 15 18337947999690083378
14765038 42 18272384074049589841
14790565 3 18336830908851011196
14840074 17 18341905047807391361
15081414 286 18342185448662547670
151778 21 18191317168107784373
15210252 30 18260837050627537844
15475509 84 17756418266728200507
1601671 61 18341891904996715602
16112460 7 18271253840405078160
16760501 71 18339933632639710195
17093844 170 18341323479134013544
20721686 56 18336265635636605227
21298829 104 18200879462079485209
21585483 110 18337100165046613645
3014063 31 18339923705872809127
338550 245 18335708251312031364
3680242 22 18335134263741123730
3737641 26 18268432334595586749
463206 1 18411141324888691681
550186 83 17968639597478110792
59755656 215 18270967847691932070

> <PUBCHEM_SHAPE_MULTIPOLES>
511.36
12.05
4.95
1.15
3.54
1.43
-0.09
0.95
-0.87
-0.8
0.07
0.61
0.16
-0.29

> <PUBCHEM_SHAPE_SELFOVERLAP>
1060.804

> <PUBCHEM_SHAPE_VOLUME>
292.1

> <PUBCHEM_COORDINATE_TYPE>
2
5
10

$$$$
