11248709
  -OEChem-03292013303D

 56 61  0     1  0  0  0  0  0999 V2000
    1.0330    3.3921   -0.5631 S   0  0  0  0  0  0  0  0  0  0  0  0
   -0.5898    3.4363    0.7215 S   0  0  0  0  0  0  0  0  0  0  0  0
   -0.1923    0.7708   -2.5785 O   0  0  0  0  0  0  0  0  0  0  0  0
    0.4254    0.6556    2.6576 O   0  0  0  0  0  0  0  0  0  0  0  0
    1.8452   -1.6727   -0.3324 O   0  0  0  0  0  0  0  0  0  0  0  0
   -2.1969   -1.5572    0.2843 O   0  0  0  0  0  0  0  0  0  0  0  0
    3.9795   -3.1694    0.7644 O   0  0  0  0  0  0  0  0  0  0  0  0
   -4.2712   -2.6028   -1.1776 O   0  0  0  0  0  0  0  0  0  0  0  0
    5.6410    0.6862   -1.4353 O   0  0  0  0  0  0  0  0  0  0  0  0
   -4.8530    0.2745    2.0585 O   0  0  0  0  0  0  0  0  0  0  0  0
    1.3498    0.9228    0.5361 N   0  0  0  0  0  0  0  0  0  0  0  0
   -1.0944    1.0314   -0.4433 N   0  0  0  0  0  0  0  0  0  0  0  0
    1.2195    1.5770   -0.7698 C   0  0  2  0  0  0  0  0  0  0  0  0
   -0.9135    1.6374    0.8771 C   0  0  2  0  0  0  0  0  0  0  0  0
    2.6725    0.3445    0.7495 C   0  0  2  0  0  0  0  0  0  0  0  0
   -2.4723    0.6391   -0.7049 C   0  0  2  0  0  0  0  0  0  0  0  0
    3.5097    0.9534   -0.3864 C   0  0  2  0  0  0  0  0  0  0  0  0
   -3.2617    1.1810    0.4988 C   0  0  2  0  0  0  0  0  0  0  0  0
    2.4977    1.1879   -1.5154 C   0  0  0  0  0  0  0  0  0  0  0  0
   -2.2125    1.3251    1.6143 C   0  0  0  0  0  0  0  0  0  0  0  0
   -0.0682    1.0408   -1.3883 C   0  0  0  0  0  0  0  0  0  0  0  0
    0.3272    0.9823    1.4796 C   0  0  0  0  0  0  0  0  0  0  0  0
    2.6212   -1.1894    0.7663 C   0  0  2  0  0  0  0  0  0  0  0  0
   -2.6301   -0.8726   -0.8923 C   0  0  2  0  0  0  0  0  0  0  0  0
    4.7123    0.1430   -0.8322 C   0  0  0  0  0  0  0  0  0  0  0  0
   -4.4106    0.2730    0.9087 C   0  0  0  0  0  0  0  0  0  0  0  0
    4.0391   -1.7494    0.6708 C   0  0  2  0  0  0  0  0  0  0  0  0
   -4.1037   -1.1863   -1.1678 C   0  0  2  0  0  0  0  0  0  0  0  0
    4.6964   -1.3553   -0.6451 C   0  0  0  0  0  0  0  0  0  0  0  0
   -5.0813   -0.5464   -0.1756 C   0  0  0  0  0  0  0  0  0  0  0  0
    3.3721   -3.5863    1.9793 C   0  0  0  0  0  0  0  0  0  0  0  0
   -5.5899   -2.9664   -1.5591 C   0  0  0  0  0  0  0  0  0  0  0  0
    3.0534    0.6899    1.7190 H   0  0  0  0  0  0  0  0  0  0  0  0
   -2.7909    1.1452   -1.6253 H   0  0  0  0  0  0  0  0  0  0  0  0
    3.8898    1.9262   -0.0438 H   0  0  0  0  0  0  0  0  0  0  0  0
   -3.6776    2.1652    0.2501 H   0  0  0  0  0  0  0  0  0  0  0  0
    2.8418    1.9484   -2.2253 H   0  0  0  0  0  0  0  0  0  0  0  0
    2.3605    0.2660   -2.0946 H   0  0  0  0  0  0  0  0  0  0  0  0
   -2.4976    2.0894    2.3463 H   0  0  0  0  0  0  0  0  0  0  0  0
   -2.1289    0.3839    2.1734 H   0  0  0  0  0  0  0  0  0  0  0  0
    2.1009   -1.4988    1.6772 H   0  0  0  0  0  0  0  0  0  0  0  0
   -2.0051   -1.2382   -1.7148 H   0  0  0  0  0  0  0  0  0  0  0  0
    4.6494   -1.3667    1.5003 H   0  0  0  0  0  0  0  0  0  0  0  0
   -4.3366   -0.8107   -2.1741 H   0  0  0  0  0  0  0  0  0  0  0  0
    4.1856   -1.8106   -1.5010 H   0  0  0  0  0  0  0  0  0  0  0  0
    5.7276   -1.7269   -0.6608 H   0  0  0  0  0  0  0  0  0  0  0  0
   -5.6996   -1.2802    0.3482 H   0  0  0  0  0  0  0  0  0  0  0  0
   -5.7565    0.1325   -0.7100 H   0  0  0  0  0  0  0  0  0  0  0  0
    0.9436   -1.3248   -0.2266 H   0  0  0  0  0  0  0  0  0  0  0  0
   -2.3667   -2.5048    0.1471 H   0  0  0  0  0  0  0  0  0  0  0  0
    2.2827   -3.6078    1.8844 H   0  0  0  0  0  0  0  0  0  0  0  0
    3.6849   -2.9759    2.8328 H   0  0  0  0  0  0  0  0  0  0  0  0
    3.6924   -4.6152    2.1706 H   0  0  0  0  0  0  0  0  0  0  0  0
   -5.9666   -2.3526   -2.3838 H   0  0  0  0  0  0  0  0  0  0  0  0
   -6.2782   -2.9389   -0.7109 H   0  0  0  0  0  0  0  0  0  0  0  0
   -5.5572   -4.0042   -1.9051 H   0  0  0  0  0  0  0  0  0  0  0  0
  1  2  1  0  0  0  0
  1 13  1  0  0  0  0
  2 14  1  0  0  0  0
  3 21  2  0  0  0  0
  4 22  2  0  0  0  0
  5 23  1  0  0  0  0
  5 49  1  0  0  0  0
  6 24  1  0  0  0  0
  6 50  1  0  0  0  0
  7 27  1  0  0  0  0
  7 31  1  0  0  0  0
  8 28  1  0  0  0  0
  8 32  1  0  0  0  0
  9 25  2  0  0  0  0
 10 26  2  0  0  0  0
 11 13  1  0  0  0  0
 11 15  1  0  0  0  0
 11 22  1  0  0  0  0
 12 14  1  0  0  0  0
 12 16  1  0  0  0  0
 12 21  1  0  0  0  0
 13 19  1  0  0  0  0
 13 21  1  0  0  0  0
 14 20  1  0  0  0  0
 14 22  1  0  0  0  0
 15 17  1  0  0  0  0
 15 23  1  0  0  0  0
 15 33  1  0  0  0  0
 16 18  1  0  0  0  0
 16 24  1  0  0  0  0
 16 34  1  0  0  0  0
 17 19  1  0  0  0  0
 17 25  1  0  0  0  0
 17 35  1  0  0  0  0
 18 20  1  0  0  0  0
 18 26  1  0  0  0  0
 18 36  1  0  0  0  0
 19 37  1  0  0  0  0
 19 38  1  0  0  0  0
 20 39  1  0  0  0  0
 20 40  1  0  0  0  0
 23 27  1  0  0  0  0
 23 41  1  0  0  0  0
 24 28  1  0  0  0  0
 24 42  1  0  0  0  0
 25 29  1  0  0  0  0
 26 30  1  0  0  0  0
 27 29  1  0  0  0  0
 27 43  1  0  0  0  0
 28 30  1  0  0  0  0
 28 44  1  0  0  0  0
 29 45  1  0  0  0  0
 29 46  1  0  0  0  0
 30 47  1  0  0  0  0
 30 48  1  0  0  0  0
 31 51  1  0  0  0  0
 31 52  1  0  0  0  0
 31 53  1  0  0  0  0
 32 54  1  0  0  0  0
 32 55  1  0  0  0  0
 32 56  1  0  0  0  0
M  END
> <PUBCHEM_COMPOUND_CID>
11248709

> <PUBCHEM_CONFORMER_RMSD>
0.8

> <PUBCHEM_CONFORMER_DIVERSEORDER>
1
5
4
3
2

> <PUBCHEM_MMFF94_PARTIAL_CHARGES>
32
1 -0.23
10 -0.57
11 -0.66
12 -0.66
13 0.59
14 0.59
15 0.3
16 0.3
17 0.06
18 0.06
2 -0.23
21 0.57
22 0.57
23 0.28
24 0.28
25 0.45
26 0.45
27 0.28
28 0.28
29 0.06
3 -0.57
30 0.06
31 0.28
32 0.28
4 -0.57
49 0.4
5 -0.68
50 0.4
6 -0.68
7 -0.56
8 -0.56
9 -0.57

> <PUBCHEM_EFFECTIVE_ROTOR_COUNT>
4

> <PUBCHEM_PHARMACOPHORE_FEATURES>
15
1 10 acceptor
1 3 acceptor
1 4 acceptor
1 5 acceptor
1 5 donor
1 6 acceptor
1 6 donor
1 7 acceptor
1 8 acceptor
1 9 acceptor
5 11 13 15 17 19 rings
5 12 14 16 18 20 rings
6 15 17 23 25 27 29 rings
6 16 18 24 26 28 30 rings
8 1 2 11 12 13 14 21 22 rings

> <PUBCHEM_HEAVY_ATOM_COUNT>
32

> <PUBCHEM_ATOM_DEF_STEREO_COUNT>
10

> <PUBCHEM_ATOM_UDEF_STEREO_COUNT>
0

> <PUBCHEM_BOND_DEF_STEREO_COUNT>
0

> <PUBCHEM_BOND_UDEF_STEREO_COUNT>
0

> <PUBCHEM_ISOTOPIC_ATOM_COUNT>
0

> <PUBCHEM_COMPONENT_COUNT>
1

> <PUBCHEM_CACTVS_TAUTO_COUNT>
6

> <PUBCHEM_CONFORMER_ID>
00ABA44500000001

> <PUBCHEM_MMFF94_ENERGY>
122.3599

> <PUBCHEM_FEATURE_SELFOVERLAP>
76.48

> <PUBCHEM_SHAPE_FINGERPRINT>
10622 236 18190165794138395467
10928967 22 18190460450475440218
11578080 2 18198881683078818816
11796584 16 18202004291700148861
12236239 1 18272381853736165884
12422481 6 17771920328712872275
12553582 1 18410854356379965888
12596602 18 17846500361349212376
12633257 1 17561086878179642385
12788726 201 18199480873939267024
12824470 246 18341888593318188268
13004483 165 18265050219696599625
13009979 54 17845385486771644329
13103583 49 17988931050382486387
13140716 1 17417819495421645905
13544653 18 18259987045907140404
13726171 33 16843067431010674305
13911987 19 16082524148798737340
14251757 17 16153710907567125881
15537594 2 18411145726945437283
17138139 8 18269834388279047526
17357779 13 17022911107786334364
17492 54 17676485107450196750
1813 80 18336274448271115549
19319366 153 18187646933891195286
200 152 18187656790397826576
20600515 1 17417553361778199609
20626108 58 18059857319869929133
20775530 9 18339063948089616615
21421861 104 18268728116103196011
21703447 108 17913757586594727489
22950370 63 18343304768579194588
23559900 14 18128526245199590265
23598288 3 18119250554106005777
25222932 49 17051604242582599431
2838139 119 7853565825183075726
314194 84 18333171669444056186
345986 75 18340482262111785889
392239 28 12895070717147799055
46194498 28 16154573010772636767
463206 1 18335424594608134706
484985 159 17759787161691626094
5104073 3 17203055200582092307
70251023 43 18189327030671147309
7970288 3 18342172254513114790

> <PUBCHEM_SHAPE_MULTIPOLES>
609.33
10.82
3.62
1.96
3.16
1.11
0.31
8.87
-1.96
-0.77
0.47
0.3
0.15
-3.27

> <PUBCHEM_SHAPE_SELFOVERLAP>
1320.305

> <PUBCHEM_SHAPE_VOLUME>
336.9

> <PUBCHEM_COORDINATE_TYPE>
2
5
10

$$$$
