REMARK  Name = 11247668
REMARK  12 active torsions:
REMARK  status: ('A' for Active; 'I' for Inactive)
REMARK    1  A    between atoms: C_3  and  C_12
REMARK    2  A    between atoms: C_8  and  C_26
REMARK    3  A    between atoms: C_9  and  O_22
REMARK    4  A    between atoms: C_11  and  O_24
REMARK    5  A    between atoms: C_15  and  O_18
REMARK    6  A    between atoms: C_17  and  O_20
REMARK    7  A    between atoms: C_26  and  C_28
REMARK    8  A    between atoms: C_27  and  C_30
REMARK    9  A    between atoms: C_30  and  C_31
REMARK   10  A    between atoms: C_31  and  C_32
REMARK   11  A    between atoms: C_32  and  C_33
REMARK   12  A    between atoms: C_32  and  O_36
REMARK                            x       y       z     vdW  Elec       q    Type
REMARK                         _______ _______ _______ _____ _____    ______ ____
ROOT
ATOM      1  O   UNL     1      -2.431   0.892  -0.464  0.00  0.00    -0.474 OA
ATOM      2  O   UNL     1      -0.390  -0.694   2.722  0.00  0.00    -0.291 OA
ATOM      3  C   UNL     1      -2.804  -0.382   0.086  0.00  0.00    +0.196 C 
ATOM      4  C   UNL     1      -2.484  -0.449   1.578  0.00  0.00    +0.117 C 
ATOM      5  C   UNL     1      -0.356   0.674   0.798  0.00  0.00    +0.102 C 
ATOM      6  C   UNL     1      -1.111   1.198  -0.256  0.00  0.00    +0.147 C 
ATOM      7  C   UNL     1      -1.008  -0.220   1.776  0.00  0.00    +0.183 C 
ATOM      8  C   UNL     1       1.570   1.918   0.043  0.00  0.00    +0.050 C 
ATOM      9  C   UNL     1       0.988   1.027   0.946  0.00  0.00    +0.138 C 
ATOM     10  C   UNL     1      -0.529   2.104  -1.143  0.00  0.00    +0.073 C 
ATOM     11  C   UNL     1       0.812   2.459  -0.996  0.00  0.00    +0.136 C 
ENDROOT
BRANCH   3  12
ATOM     12  C   UNL     1      -4.281  -0.598  -0.166  0.00  0.00    +0.021 C 
ATOM     13  C   UNL     1      -5.220   0.257   0.410  0.00  0.00    +0.039 C 
ATOM     14  C   UNL     1      -4.702  -1.654  -0.975  0.00  0.00    +0.002 C 
ATOM     15  C   UNL     1      -6.580   0.056   0.179  0.00  0.00    +0.167 C 
ATOM     16  C   UNL     1      -6.062  -1.855  -1.207  0.00  0.00    +0.040 C 
ATOM     17  C   UNL     1      -7.002  -1.000  -0.630  0.00  0.00    +0.167 C 
BRANCH  15  18
ATOM     18  O   UNL     1      -7.488   0.898   0.746  0.00  0.00    -0.503 OA
ATOM     19  H   UNL     1      -7.196   1.605   1.288  0.00  0.00    +0.292 HD
ENDBRANCH  15  18
BRANCH  17  20
ATOM     20  O   UNL     1      -8.328  -1.206  -0.864  0.00  0.00    -0.503 OA
ATOM     21  H   UNL     1      -8.965  -0.636  -0.481  0.00  0.00    +0.292 HD
ENDBRANCH  17  20
ENDBRANCH   3  12
BRANCH   9  22
ATOM     22  O   UNL     1       1.755   0.528   1.961  0.00  0.00    -0.506 OA
ATOM     23  H   UNL     1       1.384  -0.071   2.578  0.00  0.00    +0.292 HD
ENDBRANCH   9  22
BRANCH  11  24
ATOM     24  O   UNL     1       1.365   3.338  -1.882  0.00  0.00    -0.506 OA
ATOM     25  H   UNL     1       2.265   3.586  -1.797  0.00  0.00    +0.292 HD
ENDBRANCH  11  24
BRANCH   8  26
ATOM     26  C   UNL     1       3.013   2.304   0.190  0.00  0.00    +0.058 C 
BRANCH  26  28
ATOM     27  C   UNL     1       5.216   1.099  -0.303  0.00  0.00    -0.048 C 
ATOM     28  C   UNL     1       3.929   1.389  -0.575  0.00  0.00    -0.030 C 
ATOM     29  C   UNL     1       5.898   1.719   0.889  0.00  0.00    +0.026 C 
BRANCH  27  30
ATOM     30  C   UNL     1       6.068   0.140  -1.105  0.00  0.00    +0.025 C 
BRANCH  30  31
ATOM     31  C   UNL     1       6.506  -1.072  -0.277  0.00  0.00    +0.038 C 
BRANCH  31  32
ATOM     32  C   UNL     1       5.329  -1.845   0.340  0.00  0.00    +0.129 C 
BRANCH  32  33
ATOM     33  C   UNL     1       4.401  -2.486  -0.670  0.00  0.00    -0.018 C 
ATOM     34  C   UNL     1       4.989  -3.463  -1.651  0.00  0.00    +0.029 C 
ATOM     35  C   UNL     1       3.089  -2.198  -0.687  0.00  0.00    -0.007 C 
ENDBRANCH  32  33
BRANCH  32  36
ATOM     36  O   UNL     1       5.848  -2.875   1.184  0.00  0.00    -0.380 OA
ATOM     37  H   UNL     1       6.446  -2.484   1.840  0.00  0.00    +0.211 HD
ENDBRANCH  32  36
ENDBRANCH  31  32
ENDBRANCH  30  31
ENDBRANCH  27  30
ENDBRANCH  26  28
ENDBRANCH   8  26
TORSDOF 12
