11247802
  -OEChem-03292013303D

 56 61  0     1  0  0  0  0  0999 V2000
   -1.9573   -2.5090   -0.0586 O   0  0  0  0  0  0  0  0  0  0  0  0
   -5.0105    2.2705    1.1412 O   0  0  0  0  0  0  0  0  0  0  0  0
   -0.1703   -2.9830   -1.6210 O   0  0  0  0  0  0  0  0  0  0  0  0
    1.3795    1.6367   -1.3040 O   0  0  0  0  0  0  0  0  0  0  0  0
   -3.7178    0.4282    0.4704 N   0  0  0  0  0  0  0  0  0  0  0  0
   -2.8350   -0.2071    2.4517 N   0  0  0  0  0  0  0  0  0  0  0  0
    1.8198   -0.3856   -0.2158 N   0  0  0  0  0  0  0  0  0  0  0  0
    1.5938   -3.0796   -0.1484 N   0  0  0  0  0  0  0  0  0  0  0  0
    3.8815   -0.6939    0.9320 N   0  0  0  0  0  0  0  0  0  0  0  0
   -1.9289   -1.0985    0.1250 C   0  0  1  0  0  0  0  0  0  0  0  0
   -3.0725   -0.6954    1.0935 C   0  0  2  0  0  0  0  0  0  0  0  0
   -0.5411   -0.6564    0.5514 C   0  0  0  0  0  0  0  0  0  0  0  0
   -2.3806   -0.3954   -1.1469 C   0  0  0  0  0  0  0  0  0  0  0  0
   -3.4049    0.5219   -0.8720 C   0  0  0  0  0  0  0  0  0  0  0  0
    0.4918   -0.9349   -0.5342 C   0  0  2  0  0  0  0  0  0  0  0  0
   -3.9976    0.6894    2.7216 C   0  0  2  0  0  0  0  0  0  0  0  0
   -4.3488    1.2694    1.3543 C   0  0  0  0  0  0  0  0  0  0  0  0
   -1.8640   -0.4986   -2.4276 C   0  0  0  0  0  0  0  0  0  0  0  0
    0.6121   -2.4168   -0.8597 C   0  0  0  0  0  0  0  0  0  0  0  0
   -3.9114    1.3776   -1.8299 C   0  0  0  0  0  0  0  0  0  0  0  0
   -3.6511    1.7686    3.7315 C   0  0  0  0  0  0  0  0  0  0  0  0
    2.7124   -1.1193    0.5690 C   0  0  0  0  0  0  0  0  0  0  0  0
    2.2148   -2.4836    1.0191 C   0  0  2  0  0  0  0  0  0  0  0  0
   -2.3848    0.3371   -3.4203 C   0  0  0  0  0  0  0  0  0  0  0  0
   -3.3949    1.2698   -3.1225 C   0  0  0  0  0  0  0  0  0  0  0  0
    2.1280    0.9082   -0.6590 C   0  0  0  0  0  0  0  0  0  0  0  0
    3.3193   -3.3810    1.5615 C   0  0  0  0  0  0  0  0  0  0  0  0
    3.4716    1.3961   -0.2820 C   0  0  0  0  0  0  0  0  0  0  0  0
    4.2905    0.5741    0.4978 C   0  0  0  0  0  0  0  0  0  0  0  0
    3.9104    2.6585   -0.6962 C   0  0  0  0  0  0  0  0  0  0  0  0
    5.5617    1.0351    0.8592 C   0  0  0  0  0  0  0  0  0  0  0  0
    5.1795    3.1035   -0.3290 C   0  0  0  0  0  0  0  0  0  0  0  0
    6.0046    2.2931    0.4479 C   0  0  0  0  0  0  0  0  0  0  0  0
   -3.8161   -1.5042    1.1504 H   0  0  0  0  0  0  0  0  0  0  0  0
   -0.2717   -1.1678    1.4807 H   0  0  0  0  0  0  0  0  0  0  0  0
   -0.5308    0.4197    0.7707 H   0  0  0  0  0  0  0  0  0  0  0  0
   -1.9884    0.3605    2.4585 H   0  0  0  0  0  0  0  0  0  0  0  0
    0.2495   -0.4271   -1.4606 H   0  0  0  0  0  0  0  0  0  0  0  0
   -4.8464    0.0913    3.0731 H   0  0  0  0  0  0  0  0  0  0  0  0
   -2.7029   -2.7359   -0.6401 H   0  0  0  0  0  0  0  0  0  0  0  0
   -1.1242   -1.2214   -2.7321 H   0  0  0  0  0  0  0  0  0  0  0  0
   -4.6886    2.0988   -1.6057 H   0  0  0  0  0  0  0  0  0  0  0  0
   -4.5189    2.4085    3.9242 H   0  0  0  0  0  0  0  0  0  0  0  0
   -3.3363    1.3296    4.6839 H   0  0  0  0  0  0  0  0  0  0  0  0
   -2.8448    2.4162    3.3684 H   0  0  0  0  0  0  0  0  0  0  0  0
    1.4513   -2.3516    1.7904 H   0  0  0  0  0  0  0  0  0  0  0  0
    1.6827   -4.0811   -0.2928 H   0  0  0  0  0  0  0  0  0  0  0  0
   -2.0077    0.2651   -4.4372 H   0  0  0  0  0  0  0  0  0  0  0  0
   -3.7772    1.9133   -3.9106 H   0  0  0  0  0  0  0  0  0  0  0  0
    3.7757   -2.9474    2.4576 H   0  0  0  0  0  0  0  0  0  0  0  0
    2.9228   -4.3668    1.8277 H   0  0  0  0  0  0  0  0  0  0  0  0
    4.1116   -3.5328    0.8196 H   0  0  0  0  0  0  0  0  0  0  0  0
    3.2820    3.3052   -1.3022 H   0  0  0  0  0  0  0  0  0  0  0  0
    6.2169    0.4142    1.4657 H   0  0  0  0  0  0  0  0  0  0  0  0
    5.5250    4.0824   -0.6482 H   0  0  0  0  0  0  0  0  0  0  0  0
    6.9931    2.6403    0.7341 H   0  0  0  0  0  0  0  0  0  0  0  0
  1 10  1  0  0  0  0
  1 40  1  0  0  0  0
  2 17  2  0  0  0  0
  3 19  2  0  0  0  0
  4 26  2  0  0  0  0
  5 11  1  0  0  0  0
  5 14  1  0  0  0  0
  5 17  1  0  0  0  0
  6 11  1  0  0  0  0
  6 16  1  0  0  0  0
  6 37  1  0  0  0  0
  7 15  1  0  0  0  0
  7 22  1  0  0  0  0
  7 26  1  0  0  0  0
  8 19  1  0  0  0  0
  8 23  1  0  0  0  0
  8 47  1  0  0  0  0
  9 22  2  0  0  0  0
  9 29  1  0  0  0  0
 10 11  1  0  0  0  0
 10 12  1  0  0  0  0
 10 13  1  0  0  0  0
 11 34  1  0  0  0  0
 12 15  1  0  0  0  0
 12 35  1  0  0  0  0
 12 36  1  0  0  0  0
 13 14  1  0  0  0  0
 13 18  2  0  0  0  0
 14 20  2  0  0  0  0
 15 19  1  0  0  0  0
 15 38  1  0  0  0  0
 16 17  1  0  0  0  0
 16 21  1  0  0  0  0
 16 39  1  0  0  0  0
 18 24  1  0  0  0  0
 18 41  1  0  0  0  0
 20 25  1  0  0  0  0
 20 42  1  0  0  0  0
 21 43  1  0  0  0  0
 21 44  1  0  0  0  0
 21 45  1  0  0  0  0
 22 23  1  0  0  0  0
 23 27  1  0  0  0  0
 23 46  1  0  0  0  0
 24 25  2  0  0  0  0
 24 48  1  0  0  0  0
 25 49  1  0  0  0  0
 26 28  1  0  0  0  0
 27 50  1  0  0  0  0
 27 51  1  0  0  0  0
 27 52  1  0  0  0  0
 28 29  1  0  0  0  0
 28 30  2  0  0  0  0
 29 31  2  0  0  0  0
 30 32  1  0  0  0  0
 30 53  1  0  0  0  0
 31 33  1  0  0  0  0
 31 54  1  0  0  0  0
 32 33  2  0  0  0  0
 32 55  1  0  0  0  0
 33 56  1  0  0  0  0
M  END
> <PUBCHEM_COMPOUND_CID>
11247802

> <PUBCHEM_CONFORMER_RMSD>
0.8

> <PUBCHEM_CONFORMER_DIVERSEORDER>
1
2

> <PUBCHEM_MMFF94_PARTIAL_CHARGES>
41
1 -0.68
10 0.42
11 0.57
13 -0.14
14 0.12
15 0.36
16 0.33
17 0.57
18 -0.15
19 0.57
2 -0.57
20 -0.15
22 0.45
23 0.36
24 -0.15
25 -0.15
26 0.54
28 0.09
29 0.18
3 -0.57
30 -0.15
31 -0.15
32 -0.15
33 -0.15
37 0.36
4 -0.57
40 0.4
41 0.15
42 0.15
47 0.37
48 0.15
49 0.15
5 -0.48
53 0.15
54 0.15
55 0.15
56 0.15
6 -0.9
7 -0.42
8 -0.73
9 -0.63

> <PUBCHEM_EFFECTIVE_ROTOR_COUNT>
3.2

> <PUBCHEM_PHARMACOPHORE_FEATURES>
14
1 1 acceptor
1 1 donor
1 2 acceptor
1 3 acceptor
1 4 acceptor
1 6 cation
1 6 donor
1 8 donor
5 5 10 11 13 14 rings
5 5 6 11 16 17 rings
6 13 14 18 20 24 25 rings
6 28 29 30 31 32 33 rings
6 7 8 15 19 22 23 rings
6 7 9 22 26 28 29 rings

> <PUBCHEM_HEAVY_ATOM_COUNT>
33

> <PUBCHEM_ATOM_DEF_STEREO_COUNT>
5

> <PUBCHEM_ATOM_UDEF_STEREO_COUNT>
0

> <PUBCHEM_BOND_DEF_STEREO_COUNT>
0

> <PUBCHEM_BOND_UDEF_STEREO_COUNT>
0

> <PUBCHEM_ISOTOPIC_ATOM_COUNT>
0

> <PUBCHEM_COMPONENT_COUNT>
1

> <PUBCHEM_CACTVS_TAUTO_COUNT>
2

> <PUBCHEM_CONFORMER_ID>
00ABA0BA00000001

> <PUBCHEM_MMFF94_ENERGY>
129.46

> <PUBCHEM_FEATURE_SELFOVERLAP>
71.504

> <PUBCHEM_SHAPE_FINGERPRINT>
10319926 262 16298657301275700176
11049842 53 16486132764958210830
11370993 144 17895760578207327801
11621639 183 16588565562331953492
11640471 11 17489023747939665847
1200032 147 16126161501593814075
12128747 34 16589692466901764394
12422481 6 17749112205440651740
12549972 3 17096644288493025091
12633257 1 17168435968210271072
12788726 201 17474967892033087142
13383661 66 9577815561899823189
13383668 251 18260825990644022162
13544653 18 9223241749565352630
13583140 156 17458614593256888506
14705955 166 17241045393022596333
14790565 3 17897158242776720532
15131766 46 18412260679260717665
15295992 7 17679013799573752535
15463212 79 16702025274912531573
15513586 35 17466795204824030752
17780758 139 14779256544595312448
17913733 40 18261387875856620784
17974551 9 16227999299224120227
19311894 1 18199471150618059700
20511986 3 18060414686076047280
21033648 144 18335413569416185734
21033648 29 17023740109562571349
21033650 10 16487257690012763698
21756936 100 17774449394271787634
22122407 14 18122065304358558441
22393880 68 14117801327672961092
23559900 14 16806726153878132470
244849 19 17386565747983141570
3380486 145 17967816089396834725
3459 110 17749394814161653817
3552219 110 17907867550065507503
376196 1 17100270456804340445
38570 142 17916325903769921212
392239 28 15864359111254952553
4169191 19 17982441900972493912
469060 322 17751640090104723639
497634 4 18268148832621334735
50150288 127 16688560887342408745
5081480 168 17914349978464554502
563151 74 18408323263754735793
56638632 10 18265331900895563740
57724786 102 18339641135980209466
6034566 193 18343021116186057101
633830 44 18202572778304342622
6608658 132 17346317064450876521
7970288 3 11025799833477289065
9981440 41 17823955966063744741

> <PUBCHEM_SHAPE_MULTIPOLES>
630.74
11.6
3.45
3
8.3
1.7
-0.54
-9.54
-4.81
4.16
0.08
-6.18
-1.2
-0.74

> <PUBCHEM_SHAPE_SELFOVERLAP>
1420.669

> <PUBCHEM_SHAPE_VOLUME>
329.1

> <PUBCHEM_COORDINATE_TYPE>
2
5
10

$$$$
