REMARK  Name = 11248709
REMARK  4 active torsions:
REMARK  status: ('A' for Active; 'I' for Inactive)
REMARK    1  A    between atoms: C_19  and  O_27
REMARK    2  A    between atoms: C_20  and  O_29
REMARK    3  A    between atoms: C_23  and  O_31
REMARK    4  A    between atoms: C_24  and  O_33
REMARK                            x       y       z     vdW  Elec       q    Type
REMARK                         _______ _______ _______ _____ _____    ______ ____
ROOT
ATOM      1  S   UNL     1       1.033   3.392  -0.563  0.00  0.00    -0.054 S 
ATOM      2  S   UNL     1      -0.590   3.436   0.722  0.00  0.00    -0.054 S 
ATOM      3  O   UNL     1      -0.192   0.771  -2.579  0.00  0.00    -0.272 OA
ATOM      4  O   UNL     1       0.425   0.656   2.658  0.00  0.00    -0.272 OA
ATOM      5  O   UNL     1       5.641   0.686  -1.435  0.00  0.00    -0.296 OA
ATOM      6  O   UNL     1      -4.853   0.275   2.058  0.00  0.00    -0.296 OA
ATOM      7  N   UNL     1       1.350   0.923   0.536  0.00  0.00    -0.263 N 
ATOM      8  N   UNL     1      -1.094   1.031  -0.443  0.00  0.00    -0.263 N 
ATOM      9  C   UNL     1       1.220   1.577  -0.770  0.00  0.00    +0.178 C 
ATOM     10  C   UNL     1      -0.913   1.637   0.877  0.00  0.00    +0.178 C 
ATOM     11  C   UNL     1       2.672   0.344   0.750  0.00  0.00    +0.113 C 
ATOM     12  C   UNL     1      -2.472   0.639  -0.705  0.00  0.00    +0.113 C 
ATOM     13  C   UNL     1       3.510   0.953  -0.386  0.00  0.00    +0.081 C 
ATOM     14  C   UNL     1      -3.262   1.181   0.499  0.00  0.00    +0.081 C 
ATOM     15  C   UNL     1       2.498   1.188  -1.515  0.00  0.00    +0.048 C 
ATOM     16  C   UNL     1      -2.212   1.325   1.614  0.00  0.00    +0.048 C 
ATOM     17  C   UNL     1      -0.068   1.041  -1.388  0.00  0.00    +0.253 C 
ATOM     18  C   UNL     1       0.327   0.982   1.480  0.00  0.00    +0.253 C 
ATOM     19  C   UNL     1       2.621  -1.189   0.766  0.00  0.00    +0.156 C 
ATOM     20  C   UNL     1      -2.630  -0.873  -0.892  0.00  0.00    +0.156 C 
ATOM     21  C   UNL     1       4.712   0.143  -0.832  0.00  0.00    +0.155 C 
ATOM     22  C   UNL     1      -4.411   0.273   0.909  0.00  0.00    +0.155 C 
ATOM     23  C   UNL     1       4.039  -1.749   0.671  0.00  0.00    +0.151 C 
ATOM     24  C   UNL     1      -4.104  -1.186  -1.168  0.00  0.00    +0.151 C 
ATOM     25  C   UNL     1       4.696  -1.355  -0.645  0.00  0.00    +0.097 C 
ATOM     26  C   UNL     1      -5.081  -0.546  -0.176  0.00  0.00    +0.097 C 
ENDROOT
BRANCH  19  27
ATOM     27  O   UNL     1       1.845  -1.673  -0.332  0.00  0.00    -0.380 OA
ATOM     28  H   UNL     1       0.944  -1.318  -0.273  0.00  0.00    +0.211 HD
ENDBRANCH  19  27
BRANCH  20  29
ATOM     29  O   UNL     1      -2.197  -1.557   0.284  0.00  0.00    -0.380 OA
ATOM     30  H   UNL     1      -1.263  -1.353   0.452  0.00  0.00    +0.211 HD
ENDBRANCH  20  29
BRANCH  23  31
ATOM     31  O   UNL     1       3.979  -3.169   0.764  0.00  0.00    -0.351 OA
ATOM     32  C   UNL     1       3.372  -3.586   1.979  0.00  0.00    +0.174 C 
ENDBRANCH  23  31
BRANCH  24  33
ATOM     33  O   UNL     1      -4.271  -2.603  -1.178  0.00  0.00    -0.351 OA
ATOM     34  C   UNL     1      -5.590  -2.966  -1.559  0.00  0.00    +0.174 C 
ENDBRANCH  24  33
TORSDOF 4
