REMARK  Name = 11242465
REMARK  7 active torsions:
REMARK  status: ('A' for Active; 'I' for Inactive)
REMARK    1  A    between atoms: C_1  and  C_3
REMARK    2  A    between atoms: C_1  and  O_6
REMARK    3  A    between atoms: C_1  and  C_11
REMARK    4  A    between atoms: C_3  and  O_4
REMARK    5  A    between atoms: O_6  and  S_7
REMARK    6  A    between atoms: C_11  and  C_12
REMARK    7  A    between atoms: C_17  and  O_18
REMARK                            x       y       z     vdW  Elec       q    Type
REMARK                         _______ _______ _______ _____ _____    ______ ____
ROOT
ATOM      1  C   UNL     1       1.028  -0.694  -0.057  0.00  0.00    +0.249 C 
ENDROOT
BRANCH   1   3
ATOM      2  O   UNL     1       2.835  -1.902   1.035  0.00  0.00    -0.247 OA
ATOM      3  C   UNL     1       2.262  -1.571   0.005  0.00  0.00    +0.344 C 
BRANCH   3   4
ATOM      4  O   UNL     1       2.665  -1.974  -1.228  0.00  0.00    -0.478 OA
ATOM      5  H   UNL     1       2.196  -1.695  -1.989  0.00  0.00    +0.295 HD
ENDBRANCH   3   4
ENDBRANCH   1   3
BRANCH   1   6
ATOM      6  O   UNL     1       1.382   0.582   0.462  0.00  0.00    -0.191 OA
BRANCH   6   7
ATOM      7  S   UNL     1       2.565   1.450  -0.258  0.00  0.00    +0.239 S 
ATOM      8  O   UNL     1       2.761   2.728   0.737  0.00  0.00    -0.022 OA
ATOM      9  O   UNL     1       3.781   0.661  -0.201  0.00  0.00    -0.116 OA
ATOM     10  O   UNL     1       2.077   1.947  -1.531  0.00  0.00    -0.116 OA
ENDBRANCH   6   7
ENDBRANCH   1   6
BRANCH   1  11
ATOM     11  C   UNL     1      -0.112  -1.270   0.799  0.00  0.00    +0.070 C 
BRANCH  11  12
ATOM     12  C   UNL     1      -1.441  -0.690   0.451  0.00  0.00    -0.019 C 
ATOM     13  C   UNL     1      -1.893   0.457   1.103  0.00  0.00    -0.001 C 
ATOM     14  C   UNL     1      -2.232  -1.295  -0.526  0.00  0.00    -0.001 C 
ATOM     15  C   UNL     1      -3.136   1.000   0.777  0.00  0.00    +0.036 C 
ATOM     16  C   UNL     1      -3.475  -0.751  -0.852  0.00  0.00    +0.036 C 
ATOM     17  C   UNL     1      -3.927   0.396  -0.200  0.00  0.00    +0.134 C 
BRANCH  17  18
ATOM     18  O   UNL     1      -5.140   0.926  -0.517  0.00  0.00    -0.506 OA
ATOM     19  H   UNL     1      -5.443   1.697  -0.079  0.00  0.00    +0.292 HD
ENDBRANCH  17  18
ENDBRANCH  11  12
ENDBRANCH   1  11
TORSDOF 7
