REMARK  Name = 11248094
REMARK  7 active torsions:
REMARK  status: ('A' for Active; 'I' for Inactive)
REMARK    1  A    between atoms: C_17  and  C_20
REMARK    2  A    between atoms: C_18  and  C_34
REMARK    3  A    between atoms: CA_21  and  C_26
REMARK    4  A    between atoms: CA_24  and  C_30
REMARK    5  A    between atoms: C_26  and  O_27
REMARK    6  A    between atoms: C_30  and  O_31
REMARK    7  A    between atoms: C_34  and  O_35
REMARK                            x       y       z     vdW  Elec       q    Type
REMARK                         _______ _______ _______ _____ _____    ______ ____
ROOT
ATOM      1  O   UNL     1      -0.742  -2.393  -0.390  0.00  0.00    -0.477 OA
ATOM      2  C   UNL     1      -2.857   0.743   0.506  0.00  0.00    +0.004 C 
ATOM      3  C   UNL     1      -4.131   0.171  -0.211  0.00  0.00    +0.000 C 
ATOM      4  C   UNL     1      -1.626  -0.164   0.111  0.00  0.00    +0.041 C 
ATOM      5  C   UNL     1      -5.442   1.026  -0.028  0.00  0.00    +0.000 C 
ATOM      6  C   UNL     1      -1.801  -1.694   0.313  0.00  0.00    +0.134 C 
ATOM      7  C   UNL     1      -2.595   2.193  -0.024  0.00  0.00    +0.000 C 
ATOM      8  C   UNL     1      -4.329  -1.335   0.059  0.00  0.00    +0.004 C 
ATOM      9  C   UNL     1      -3.108  -2.150  -0.362  0.00  0.00    +0.040 C 
ATOM     10  C   UNL     1      -5.114   2.534   0.132  0.00  0.00    +0.000 C 
ATOM     11  C   UNL     1      -3.824   2.927  -0.569  0.00  0.00    +0.000 C 
ATOM     12  C   UNL     1      -3.035   0.829   2.039  0.00  0.00    +0.000 C 
ATOM     13  C   UNL     1      -0.261   0.281   0.673  0.00  0.00    +0.033 C 
ATOM     14  C   UNL     1      -6.316   0.858  -1.299  0.00  0.00    +0.000 C 
ATOM     15  C   UNL     1      -6.314   0.586   1.166  0.00  0.00    +0.000 C 
ATOM     16  C   UNL     1      -1.764  -2.209   1.764  0.00  0.00    +0.044 C 
ATOM     17  C   UNL     1       0.828  -0.672   0.238  0.00  0.00    +0.021 C 
ATOM     18  C   UNL     1       0.537  -1.887  -0.271  0.00  0.00    +0.209 C 
ENDROOT
BRANCH  17  20
ATOM     19  N   UNL     1       4.085   1.069  -0.489  0.00  0.00    -0.393 NA
ATOM     20  C   UNL     1       2.196  -0.149   0.395  0.00  0.00    +0.031 C 
ATOM     21  CA  UNL     1       2.831   0.576  -0.599  0.00  0.00    +0.206 C 
ATOM     22  C   UNL     1       2.887  -0.384   1.576  0.00  0.00    -0.016 C 
ATOM     23  C   UNL     1       4.179   0.107   1.726  0.00  0.00    +0.092 C 
ATOM     24  CA  UNL     1       4.728   0.821   0.674  0.00  0.00    +0.188 C 
BRANCH  21  26
ATOM     25  OXT UNL     1       1.041   0.518  -2.186  0.00  0.00    -0.242 OA
ATOM     26  C   UNL     1       2.181   0.869  -1.870  0.00  0.00    +0.368 C 
BRANCH  26  27
ATOM     27  O   UNL     1       2.976   1.592  -2.703  0.00  0.00    -0.475 OA
ATOM     28  H   UNL     1       3.837   1.841  -2.430  0.00  0.00    +0.295 HD
ENDBRANCH  26  27
ENDBRANCH  21  26
BRANCH  24  30
ATOM     29  OXT UNL     1       6.822   1.237   1.753  0.00  0.00    -0.243 OA
ATOM     30  C   UNL     1       6.074   1.356   0.776  0.00  0.00    +0.364 C 
BRANCH  30  31
ATOM     31  O   UNL     1       6.456   2.027  -0.346  0.00  0.00    -0.476 OA
ATOM     32  H   UNL     1       5.867   2.101  -1.071  0.00  0.00    +0.295 HD
ENDBRANCH  30  31
ENDBRANCH  24  30
ENDBRANCH  17  20
BRANCH  18  34
ATOM     33  O   UNL     1       2.650  -2.422  -1.221  0.00  0.00    -0.242 OA
ATOM     34  C   UNL     1       1.593  -2.792  -0.750  0.00  0.00    +0.372 C 
BRANCH  34  35
ATOM     35  O   UNL     1       1.197  -4.069  -0.583  0.00  0.00    -0.475 OA
ATOM     36  H   UNL     1       0.358  -4.255  -0.208  0.00  0.00    +0.296 HD
ENDBRANCH  34  35
ENDBRANCH  18  34
TORSDOF 7
