REMARK  Name = 11247802
REMARK  3 active torsions:
REMARK  status: ('A' for Active; 'I' for Inactive)
REMARK    1  A    between atoms: C_1  and  C_7
REMARK    2  A    between atoms: C_1  and  C_23
REMARK    3  A    between atoms: C_23  and  O_36
REMARK                            x       y       z     vdW  Elec       q    Type
REMARK                         _______ _______ _______ _____ _____    ______ ____
ROOT
ATOM      1  C   UNL     1      -0.541  -0.656   0.551  0.00  0.00    +0.060 C 
ENDROOT
BRANCH   1   7
ATOM      2  O   UNL     1      -0.170  -2.983  -1.621  0.00  0.00    -0.273 OA
ATOM      3  O   UNL     1       1.379   1.637  -1.304  0.00  0.00    -0.269 OA
ATOM      4  N   UNL     1       1.820  -0.386  -0.216  0.00  0.00    -0.226 N 
ATOM      5  N   UNL     1       1.594  -3.080  -0.148  0.00  0.00    -0.298 N 
ATOM      6  N   UNL     1       3.881  -0.694   0.932  0.00  0.00    -0.393 NA
ATOM      7  C   UNL     1       0.492  -0.935  -0.534  0.00  0.00    +0.161 C 
ATOM      8  C   UNL     1       0.612  -2.417  -0.860  0.00  0.00    +0.241 C 
ATOM      9  C   UNL     1       2.712  -1.119   0.569  0.00  0.00    +0.184 C 
ATOM     10  C   UNL     1       2.215  -2.484   1.019  0.00  0.00    +0.139 C 
ATOM     11  C   UNL     1       2.128   0.908  -0.659  0.00  0.00    +0.257 C 
ATOM     12  C   UNL     1       3.319  -3.381   1.562  0.00  0.00    +0.030 C 
ATOM     13  C   UNL     1       3.472   1.396  -0.282  0.00  0.00    +0.080 C 
ATOM     14  C   UNL     1       4.290   0.574   0.498  0.00  0.00    +0.119 C 
ATOM     15  C   UNL     1       3.910   2.659  -0.696  0.00  0.00    +0.006 C 
ATOM     16  C   UNL     1       5.562   1.035   0.859  0.00  0.00    +0.085 C 
ATOM     17  C   UNL     1       5.179   3.103  -0.329  0.00  0.00    -0.004 C 
ATOM     18  C   UNL     1       6.005   2.293   0.448  0.00  0.00    -0.019 C 
ATOM     19  H   UNL     1       1.878  -3.976  -0.440  0.00  0.00    +0.150 HD
ENDBRANCH   1   7
BRANCH   1  23
ATOM     20  O   UNL     1      -5.011   2.271   1.141  0.00  0.00    -0.277 OA
ATOM     21  N   UNL     1      -3.718   0.428   0.470  0.00  0.00    -0.279 N 
ATOM     22  N   UNL     1      -2.835  -0.207   2.452  0.00  0.00    +0.405 N 
ATOM     23  C   UNL     1      -1.929  -1.099   0.125  0.00  0.00    +0.109 C 
ATOM     24  C   UNL     1      -3.072  -0.695   1.093  0.00  0.00    +0.052 C 
ATOM     25  C   UNL     1      -2.381  -0.395  -1.147  0.00  0.00    +0.015 C 
ATOM     26  C   UNL     1      -3.405   0.522  -0.872  0.00  0.00    +0.050 C 
ATOM     27  C   UNL     1      -3.998   0.689   2.722  0.00  0.00    +0.020 C 
ATOM     28  C   UNL     1      -4.349   1.269   1.354  0.00  0.00    +0.208 C 
ATOM     29  C   UNL     1      -1.864  -0.499  -2.428  0.00  0.00    -0.001 C 
ATOM     30  C   UNL     1      -3.911   1.378  -1.830  0.00  0.00    +0.015 C 
ATOM     31  C   UNL     1      -3.651   1.769   3.732  0.00  0.00    -0.014 C 
ATOM     32  C   UNL     1      -2.385   0.337  -3.420  0.00  0.00    -0.000 C 
ATOM     33  C   UNL     1      -3.395   1.270  -3.123  0.00  0.00    +0.001 C 
ATOM     34  H   UNL     1      -1.958   0.311   2.502  0.00  0.00    -0.081 HD
ATOM     35  H   UNL     1      -2.756  -0.963   3.132  0.00  0.00    -0.081 HD
BRANCH  23  36
ATOM     36  O   UNL     1      -1.957  -2.509  -0.059  0.00  0.00    -0.383 OA
ATOM     37  H   UNL     1      -1.668  -2.947   0.757  0.00  0.00    +0.211 HD
ENDBRANCH  23  36
ENDBRANCH   1  23
TORSDOF 3
