REMARK  Name = 11242315
REMARK  5 active torsions:
REMARK  status: ('A' for Active; 'I' for Inactive)
REMARK    1  A    between atoms: C_2  and  N_8
REMARK    2  A    between atoms: C_3  and  O_17
REMARK    3  A    between atoms: C_4  and  O_19
REMARK    4  A    between atoms: C_5  and  C_21
REMARK    5  A    between atoms: C_21  and  O_22
REMARK                            x       y       z     vdW  Elec       q    Type
REMARK                         _______ _______ _______ _____ _____    ______ ____
ROOT
ATOM      1  F   UNL     1       0.819  -1.266  -1.831  0.00  0.00    -0.208 F 
ATOM      2  C   UNL     1       0.367   0.704  -0.363  0.00  0.00    +0.168 C 
ATOM      3  C   UNL     1       1.105   1.107   0.922  0.00  0.00    +0.167 C 
ATOM      4  C   UNL     1       2.550   0.605   0.752  0.00  0.00    +0.162 C 
ATOM      5  C   UNL     1       2.399  -0.489  -0.261  0.00  0.00    +0.039 C 
ATOM      6  C   UNL     1       1.206  -0.422  -0.859  0.00  0.00    +0.136 C 
ENDROOT
BRANCH   2   8
ATOM      7  O   UNL     1      -1.969   1.747  -1.544  0.00  0.00    -0.193 OA
ATOM      8  N   UNL     1      -0.970   0.247  -0.103  0.00  0.00    -0.197 N 
ATOM      9  N   UNL     1      -3.358   0.332  -0.439  0.00  0.00    -0.306 NA
ATOM     10  N   UNL     1      -4.775  -1.120   0.698  0.00  0.00    -0.332 N 
ATOM     11  C   UNL     1      -1.155  -0.789   0.799  0.00  0.00    +0.081 C 
ATOM     12  C   UNL     1      -2.099   0.823  -0.738  0.00  0.00    +0.274 C 
ATOM     13  C   UNL     1      -2.357  -1.275   1.102  0.00  0.00    +0.065 C 
ATOM     14  C   UNL     1      -3.515  -0.646   0.415  0.00  0.00    +0.193 C 
ATOM     15  H   UNL     1      -5.561  -0.723   0.258  0.00  0.00    +0.145 HD
ATOM     16  H   UNL     1      -4.890  -1.857   1.341  0.00  0.00    +0.145 HD
ENDBRANCH   2   8
BRANCH   3  17
ATOM     17  O   UNL     1       1.064   2.510   1.120  0.00  0.00    -0.380 OA
ATOM     18  H   UNL     1       0.143   2.796   1.223  0.00  0.00    +0.211 HD
ENDBRANCH   3  17
BRANCH   4  19
ATOM     19  O   UNL     1       3.411   1.601   0.222  0.00  0.00    -0.378 OA
ATOM     20  H   UNL     1       3.516   2.316   0.869  0.00  0.00    +0.211 HD
ENDBRANCH   4  19
BRANCH   5  21
ATOM     21  C   UNL     1       3.491  -1.459  -0.532  0.00  0.00    +0.164 C 
BRANCH  21  22
ATOM     22  O   UNL     1       3.785  -2.209   0.638  0.00  0.00    -0.377 OA
ATOM     23  H   UNL     1       4.499  -2.838   0.448  0.00  0.00    +0.211 HD
ENDBRANCH  21  22
ENDBRANCH   5  21
TORSDOF 5
