11248094
  -OEChem-03292013303D

 64 67  0     1  0  0  0  0  0999 V2000
   -0.7416   -2.3933   -0.3900 O   0  0  0  0  0  0  0  0  0  0  0  0
    1.1967   -4.0692   -0.5829 O   0  0  0  0  0  0  0  0  0  0  0  0
    2.6497   -2.4225   -1.2212 O   0  0  0  0  0  0  0  0  0  0  0  0
    2.9764    1.5919   -2.7034 O   0  0  0  0  0  0  0  0  0  0  0  0
    1.0412    0.5179   -2.1857 O   0  0  0  0  0  0  0  0  0  0  0  0
    6.4560    2.0273   -0.3465 O   0  0  0  0  0  0  0  0  0  0  0  0
    6.8223    1.2370    1.7529 O   0  0  0  0  0  0  0  0  0  0  0  0
    4.0850    1.0686   -0.4894 N   0  0  0  0  0  0  0  0  0  0  0  0
   -2.8570    0.7430    0.5058 C   0  0  1  0  0  0  0  0  0  0  0  0
   -4.1315    0.1711   -0.2111 C   0  0  2  0  0  0  0  0  0  0  0  0
   -1.6264   -0.1636    0.1114 C   0  0  2  0  0  0  0  0  0  0  0  0
   -5.4422    1.0264   -0.0281 C   0  0  0  0  0  0  0  0  0  0  0  0
   -1.8014   -1.6935    0.3132 C   0  0  1  0  0  0  0  0  0  0  0  0
   -2.5952    2.1927   -0.0240 C   0  0  0  0  0  0  0  0  0  0  0  0
   -4.3290   -1.3351    0.0588 C   0  0  0  0  0  0  0  0  0  0  0  0
   -3.1076   -2.1495   -0.3616 C   0  0  0  0  0  0  0  0  0  0  0  0
   -5.1145    2.5341    0.1315 C   0  0  0  0  0  0  0  0  0  0  0  0
   -3.8236    2.9272   -0.5686 C   0  0  0  0  0  0  0  0  0  0  0  0
   -3.0349    0.8291    2.0391 C   0  0  0  0  0  0  0  0  0  0  0  0
   -0.2613    0.2806    0.6733 C   0  0  0  0  0  0  0  0  0  0  0  0
   -6.3165    0.8578   -1.2988 C   0  0  0  0  0  0  0  0  0  0  0  0
   -6.3144    0.5864    1.1659 C   0  0  0  0  0  0  0  0  0  0  0  0
   -1.7642   -2.2095    1.7641 C   0  0  0  0  0  0  0  0  0  0  0  0
    0.8279   -0.6716    0.2385 C   0  0  0  0  0  0  0  0  0  0  0  0
    0.5373   -1.8867   -0.2706 C   0  0  0  0  0  0  0  0  0  0  0  0
    2.1960   -0.1486    0.3945 C   0  0  0  0  0  0  0  0  0  0  0  0
    1.5926   -2.7918   -0.7503 C   0  0  0  0  0  0  0  0  0  0  0  0
    2.8310    0.5757   -0.5990 C   0  0  0  0  0  0  0  0  0  0  0  0
    2.8867   -0.3842    1.5761 C   0  0  0  0  0  0  0  0  0  0  0  0
    4.1790    0.1068    1.7265 C   0  0  0  0  0  0  0  0  0  0  0  0
    2.1811    0.8689   -1.8698 C   0  0  0  0  0  0  0  0  0  0  0  0
    4.7281    0.8206    0.6736 C   0  0  0  0  0  0  0  0  0  0  0  0
    6.0745    1.3562    0.7756 C   0  0  0  0  0  0  0  0  0  0  0  0
   -3.8923    0.2313   -1.2860 H   0  0  0  0  0  0  0  0  0  0  0  0
   -1.5268   -0.0386   -0.9815 H   0  0  0  0  0  0  0  0  0  0  0  0
   -2.1402    2.7995    0.7702 H   0  0  0  0  0  0  0  0  0  0  0  0
   -1.8566    2.1824   -0.8357 H   0  0  0  0  0  0  0  0  0  0  0  0
   -5.1898   -1.7079   -0.5078 H   0  0  0  0  0  0  0  0  0  0  0  0
   -4.5521   -1.5208    1.1139 H   0  0  0  0  0  0  0  0  0  0  0  0
   -3.2860   -3.2140   -0.1605 H   0  0  0  0  0  0  0  0  0  0  0  0
   -2.9936   -2.0842   -1.4527 H   0  0  0  0  0  0  0  0  0  0  0  0
   -5.0397    2.8102    1.1893 H   0  0  0  0  0  0  0  0  0  0  0  0
   -5.9360    3.1463   -0.2627 H   0  0  0  0  0  0  0  0  0  0  0  0
   -3.6653    4.0083   -0.4780 H   0  0  0  0  0  0  0  0  0  0  0  0
   -3.9177    2.7247   -1.6428 H   0  0  0  0  0  0  0  0  0  0  0  0
   -3.4584   -0.0777    2.4688 H   0  0  0  0  0  0  0  0  0  0  0  0
   -2.0912    1.0318    2.5523 H   0  0  0  0  0  0  0  0  0  0  0  0
   -3.7001    1.6445    2.3325 H   0  0  0  0  0  0  0  0  0  0  0  0
   -0.2678    0.3161    1.7673 H   0  0  0  0  0  0  0  0  0  0  0  0
   -0.0343    1.2945    0.3244 H   0  0  0  0  0  0  0  0  0  0  0  0
   -5.7896    1.2010   -2.1960 H   0  0  0  0  0  0  0  0  0  0  0  0
   -6.6006   -0.1874   -1.4587 H   0  0  0  0  0  0  0  0  0  0  0  0
   -7.2438    1.4375   -1.2217 H   0  0  0  0  0  0  0  0  0  0  0  0
   -6.7033   -0.4290    1.0346 H   0  0  0  0  0  0  0  0  0  0  0  0
   -5.7662    0.6141    2.1106 H   0  0  0  0  0  0  0  0  0  0  0  0
   -7.1827    1.2472    1.2767 H   0  0  0  0  0  0  0  0  0  0  0  0
   -1.6851   -3.3042    1.7711 H   0  0  0  0  0  0  0  0  0  0  0  0
   -0.8887   -1.8480    2.3115 H   0  0  0  0  0  0  0  0  0  0  0  0
   -2.6526   -1.9533    2.3402 H   0  0  0  0  0  0  0  0  0  0  0  0
    2.4341   -0.9475    2.3883 H   0  0  0  0  0  0  0  0  0  0  0  0
    1.8736   -4.7088   -0.8908 H   0  0  0  0  0  0  0  0  0  0  0  0
    4.7229   -0.0746    2.6472 H   0  0  0  0  0  0  0  0  0  0  0  0
    2.5313    1.7854   -3.5560 H   0  0  0  0  0  0  0  0  0  0  0  0
    7.3664    2.3838   -0.2664 H   0  0  0  0  0  0  0  0  0  0  0  0
  1 13  1  0  0  0  0
  1 25  1  0  0  0  0
  2 27  1  0  0  0  0
  2 61  1  0  0  0  0
  3 27  2  0  0  0  0
  4 31  1  0  0  0  0
  4 63  1  0  0  0  0
  5 31  2  0  0  0  0
  6 33  1  0  0  0  0
  6 64  1  0  0  0  0
  7 33  2  0  0  0  0
  8 28  1  0  0  0  0
  8 32  2  0  0  0  0
  9 10  1  0  0  0  0
  9 11  1  0  0  0  0
  9 14  1  0  0  0  0
  9 19  1  0  0  0  0
 10 12  1  0  0  0  0
 10 15  1  0  0  0  0
 10 34  1  0  0  0  0
 11 13  1  0  0  0  0
 11 20  1  0  0  0  0
 11 35  1  0  0  0  0
 12 17  1  0  0  0  0
 12 21  1  0  0  0  0
 12 22  1  0  0  0  0
 13 16  1  0  0  0  0
 13 23  1  0  0  0  0
 14 18  1  0  0  0  0
 14 36  1  0  0  0  0
 14 37  1  0  0  0  0
 15 16  1  0  0  0  0
 15 38  1  0  0  0  0
 15 39  1  0  0  0  0
 16 40  1  0  0  0  0
 16 41  1  0  0  0  0
 17 18  1  0  0  0  0
 17 42  1  0  0  0  0
 17 43  1  0  0  0  0
 18 44  1  0  0  0  0
 18 45  1  0  0  0  0
 19 46  1  0  0  0  0
 19 47  1  0  0  0  0
 19 48  1  0  0  0  0
 20 24  1  0  0  0  0
 20 49  1  0  0  0  0
 20 50  1  0  0  0  0
 21 51  1  0  0  0  0
 21 52  1  0  0  0  0
 21 53  1  0  0  0  0
 22 54  1  0  0  0  0
 22 55  1  0  0  0  0
 22 56  1  0  0  0  0
 23 57  1  0  0  0  0
 23 58  1  0  0  0  0
 23 59  1  0  0  0  0
 24 25  2  0  0  0  0
 24 26  1  0  0  0  0
 25 27  1  0  0  0  0
 26 28  2  0  0  0  0
 26 29  1  0  0  0  0
 28 31  1  0  0  0  0
 29 30  2  0  0  0  0
 29 60  1  0  0  0  0
 30 32  1  0  0  0  0
 30 62  1  0  0  0  0
 32 33  1  0  0  0  0
M  END
> <PUBCHEM_COMPOUND_CID>
11248094

> <PUBCHEM_CONFORMER_RMSD>
0.8

> <PUBCHEM_CONFORMER_DIVERSEORDER>
1
4
3
2
5
7
6

> <PUBCHEM_MMFF94_PARTIAL_CHARGES>
25
1 -0.36
13 0.28
2 -0.65
20 0.14
24 -0.17
25 0.09
26 0.03
27 0.71
28 0.4
29 -0.15
3 -0.57
30 -0.15
31 0.63
32 0.4
33 0.63
4 -0.65
5 -0.57
6 -0.65
60 0.15
61 0.5
62 0.15
63 0.5
64 0.5
7 -0.57
8 -0.62

> <PUBCHEM_EFFECTIVE_ROTOR_COUNT>
5.6

> <PUBCHEM_PHARMACOPHORE_FEATURES>
16
1 1 acceptor
1 2 acceptor
1 3 acceptor
1 4 acceptor
1 5 acceptor
1 6 acceptor
1 7 acceptor
1 8 acceptor
3 12 21 22 hydrophobe
3 2 3 27 anion
3 4 5 31 anion
3 6 7 33 anion
6 1 11 13 20 24 25 rings
6 8 26 28 29 30 32 rings
6 9 10 11 13 15 16 rings
6 9 10 12 14 17 18 rings

> <PUBCHEM_HEAVY_ATOM_COUNT>
33

> <PUBCHEM_ATOM_DEF_STEREO_COUNT>
4

> <PUBCHEM_ATOM_UDEF_STEREO_COUNT>
0

> <PUBCHEM_BOND_DEF_STEREO_COUNT>
0

> <PUBCHEM_BOND_UDEF_STEREO_COUNT>
0

> <PUBCHEM_ISOTOPIC_ATOM_COUNT>
0

> <PUBCHEM_COMPONENT_COUNT>
1

> <PUBCHEM_CACTVS_TAUTO_COUNT>
1

> <PUBCHEM_CONFORMER_ID>
00ABA1DE00000001

> <PUBCHEM_MMFF94_ENERGY>
134.8068

> <PUBCHEM_FEATURE_SELFOVERLAP>
81.452

> <PUBCHEM_SHAPE_FINGERPRINT>
10411042 1 17619342547621137311
10906281 52 18408893940169427129
11578080 2 18201727214675068450
12236239 1 18113893914297034728
12403259 415 18267872683746838801
12422481 6 18041831819244221556
12633257 1 16805602603143612866
12760667 363 8286201660791229585
12788726 201 17753628032945785979
13224815 77 18340215107078278963
13540713 4 18339943536075373395
13911987 19 15338281319658888360
14294032 229 18200036273667391383
14466204 15 18411697716501093432
15131766 46 15432032290258890935
17349148 13 18260548948083791855
17980427 23 18187642561128431724
18608769 82 18342739672028699627
20511986 3 17895743097279223132
20554085 129 17917129655496975898
20715895 44 17823970148790009717
20775438 99 9436537053541099732
21033648 29 18042413439483944485
22122407 14 17531256105295044148
22149856 69 18267328477679401697
23559900 14 18264781977535480335
3411729 13 18410288078523398114
4098825 35 15913061867285541529
44802255 64 17986120828107022174
469060 322 18195546985139869427
474 4 18040724640920662551
5104073 3 18192719947586970913
513202 73 16589688086509590336
513532 50 18200602380315638062
5265222 85 18197499734959988752
57527295 17 16700082377995068022
59755656 215 18340771434039292206
6371009 1 18260543429341486997
6669772 16 17418375788138705606
6700243 42 17622764163039006359
9981440 41 18408888464092029883

> <PUBCHEM_SHAPE_MULTIPOLES>
633.06
14.34
3.19
1.74
3.83
1.96
0.24
-10.88
-2.69
-0.42
0.78
1.24
-0.34
0.54

> <PUBCHEM_SHAPE_SELFOVERLAP>
1372.863

> <PUBCHEM_SHAPE_VOLUME>
340.5

> <PUBCHEM_COORDINATE_TYPE>
2
5
10

$$$$
