11248240
  -OEChem-03292013303D

 51 55  0     1  0  0  0  0  0999 V2000
   -1.0226   -4.6668    1.4693 Cl  0  0  0  0  0  0  0  0  0  0  0  0
   -7.4695    3.0656    1.6073 Cl  0  0  0  0  0  0  0  0  0  0  0  0
    5.7037    0.2241   -2.0546 O   0  0  0  0  0  0  0  0  0  0  0  0
    4.5127   -2.1068   -1.5077 O   0  0  0  0  0  0  0  0  0  0  0  0
    3.9937    2.7917    0.6404 O   0  0  0  0  0  0  0  0  0  0  0  0
    1.5160   -0.6421   -0.1292 N   0  0  0  0  0  0  0  0  0  0  0  0
    6.2828    2.3647    0.6542 N   0  0  0  0  0  0  0  0  0  0  0  0
   -0.2606    0.6348   -0.5331 N   0  0  0  0  0  0  0  0  0  0  0  0
    0.4174   -2.6573    0.6633 N   0  0  0  0  0  0  0  0  0  0  0  0
   -2.0093   -2.3974    0.6620 N   0  0  0  0  0  0  0  0  0  0  0  0
   -3.0855   -0.3812   -0.0463 N   0  0  0  0  0  0  0  0  0  0  0  0
    4.7152    0.6261    0.1095 C   0  0  1  0  0  0  0  0  0  0  0  0
    3.7393   -0.1774    0.9050 C   0  0  2  0  0  0  0  0  0  0  0  0
    5.2191   -0.4033    1.0848 C   0  0  0  0  0  0  0  0  0  0  0  0
    2.9261   -1.0424   -0.0341 C   0  0  2  0  0  0  0  0  0  0  0  0
    4.4831    0.3369   -1.3455 C   0  0  2  0  0  0  0  0  0  0  0  0
    3.6616   -0.9673   -1.3953 C   0  0  1  0  0  0  0  0  0  0  0  0
    4.9494    2.0386    0.4952 C   0  0  0  0  0  0  0  0  0  0  0  0
    0.4307   -1.4001    0.1953 C   0  0  0  0  0  0  0  0  0  0  0  0
    1.0542    0.5701   -0.5605 C   0  0  0  0  0  0  0  0  0  0  0  0
   -0.6634   -0.5898   -0.0628 C   0  0  0  0  0  0  0  0  0  0  0  0
    6.7342    3.6864    1.0260 C   0  0  0  0  0  0  0  0  0  0  0  0
   -1.9202   -1.1314    0.1876 C   0  0  0  0  0  0  0  0  0  0  0  0
   -0.8521   -3.0717    0.8673 C   0  0  0  0  0  0  0  0  0  0  0  0
   -4.4035   -0.8892    0.1941 C   0  0  0  0  0  0  0  0  0  0  0  0
   -5.4662    0.1113   -0.1754 C   0  0  0  0  0  0  0  0  0  0  0  0
   -5.9166    1.0141    0.7779 C   0  0  0  0  0  0  0  0  0  0  0  0
   -5.9803    0.1172   -1.4645 C   0  0  0  0  0  0  0  0  0  0  0  0
   -6.9005    1.9416    0.4350 C   0  0  0  0  0  0  0  0  0  0  0  0
   -6.9644    1.0444   -1.8073 C   0  0  0  0  0  0  0  0  0  0  0  0
   -7.4244    1.9567   -0.8577 C   0  0  0  0  0  0  0  0  0  0  0  0
    3.1914    0.2554    1.7294 H   0  0  0  0  0  0  0  0  0  0  0  0
    5.6542   -0.0785    2.0237 H   0  0  0  0  0  0  0  0  0  0  0  0
    5.6631   -1.3141    0.7040 H   0  0  0  0  0  0  0  0  0  0  0  0
    2.9316   -2.0688    0.3522 H   0  0  0  0  0  0  0  0  0  0  0  0
    3.9015    1.1536   -1.7886 H   0  0  0  0  0  0  0  0  0  0  0  0
    2.9935   -0.9821   -2.2630 H   0  0  0  0  0  0  0  0  0  0  0  0
    5.4886   -0.0525   -2.9616 H   0  0  0  0  0  0  0  0  0  0  0  0
    3.9428   -2.8944   -1.5323 H   0  0  0  0  0  0  0  0  0  0  0  0
    6.9909    1.6559    0.4870 H   0  0  0  0  0  0  0  0  0  0  0  0
    1.7070    1.3712   -0.8770 H   0  0  0  0  0  0  0  0  0  0  0  0
    5.8957    4.3282    1.3062 H   0  0  0  0  0  0  0  0  0  0  0  0
    7.2622    4.1184    0.1724 H   0  0  0  0  0  0  0  0  0  0  0  0
    7.4249    3.5875    1.8669 H   0  0  0  0  0  0  0  0  0  0  0  0
   -2.9645    0.5624   -0.3986 H   0  0  0  0  0  0  0  0  0  0  0  0
   -4.5176   -1.1640    1.2508 H   0  0  0  0  0  0  0  0  0  0  0  0
   -4.5660   -1.8122   -0.3779 H   0  0  0  0  0  0  0  0  0  0  0  0
   -5.5043    1.0003    1.7839 H   0  0  0  0  0  0  0  0  0  0  0  0
   -5.6273   -0.5873   -2.2124 H   0  0  0  0  0  0  0  0  0  0  0  0
   -7.3719    1.0565   -2.8140 H   0  0  0  0  0  0  0  0  0  0  0  0
   -8.1916    2.6734   -1.1392 H   0  0  0  0  0  0  0  0  0  0  0  0
  1 24  1  0  0  0  0
  2 29  1  0  0  0  0
  3 16  1  0  0  0  0
  3 38  1  0  0  0  0
  4 17  1  0  0  0  0
  4 39  1  0  0  0  0
  5 18  2  0  0  0  0
  6 15  1  0  0  0  0
  6 19  1  0  0  0  0
  6 20  1  0  0  0  0
  7 18  1  0  0  0  0
  7 22  1  0  0  0  0
  7 40  1  0  0  0  0
  8 20  2  0  0  0  0
  8 21  1  0  0  0  0
  9 19  2  0  0  0  0
  9 24  1  0  0  0  0
 10 23  1  0  0  0  0
 10 24  2  0  0  0  0
 11 23  1  0  0  0  0
 11 25  1  0  0  0  0
 11 45  1  0  0  0  0
 12 13  1  0  0  0  0
 12 14  1  0  0  0  0
 12 16  1  0  0  0  0
 12 18  1  0  0  0  0
 13 14  1  0  0  0  0
 13 15  1  0  0  0  0
 13 32  1  0  0  0  0
 14 33  1  0  0  0  0
 14 34  1  0  0  0  0
 15 17  1  0  0  0  0
 15 35  1  0  0  0  0
 16 17  1  0  0  0  0
 16 36  1  0  0  0  0
 17 37  1  0  0  0  0
 19 21  1  0  0  0  0
 20 41  1  0  0  0  0
 21 23  2  0  0  0  0
 22 42  1  0  0  0  0
 22 43  1  0  0  0  0
 22 44  1  0  0  0  0
 25 26  1  0  0  0  0
 25 46  1  0  0  0  0
 25 47  1  0  0  0  0
 26 27  2  0  0  0  0
 26 28  1  0  0  0  0
 27 29  1  0  0  0  0
 27 48  1  0  0  0  0
 28 30  2  0  0  0  0
 28 49  1  0  0  0  0
 29 31  2  0  0  0  0
 30 31  1  0  0  0  0
 30 50  1  0  0  0  0
 31 51  1  0  0  0  0
M  END
> <PUBCHEM_COMPOUND_CID>
11248240

> <PUBCHEM_CONFORMER_RMSD>
1

> <PUBCHEM_CONFORMER_DIVERSEORDER>
1
134
104
51
246
207
28
39
192
182
143
226
44
184
119
197
162
32
230
213
220
252
124
58
87
144
4
242
146
152
75
218
150
171
161
222
132
91
67
233
227
84
93
196
82
133
122
52
250
13
112
35
189
126
65
145
194
98
200
27
61
199
47
209
88
111
113
172
166
206
115
235
56
241
153
38
64
232
42
195
225
7
239
121
164
20
244
60
92
135
167
31
158
165
174
221
48
248
96
78
105
245
191
204
22
33
8
66
108
237
243
201
148
236
41
76
251
6
79
229
114
116
131
106
37
120
100
136
62
193
137
125
176
57
216
26
69
142
231
10
70
202
238
2
18
190
55
205
128
170
223
59
24
117
224
219
159
240
95
186
110
173
15
25
86
23
149
123
183
160
147
89
40
154
118
102
72
228
103
141
157
19
36
215
249
185
127
198
68
73
45
139
187
151
169
253
11
179
53
83
234
97
77
217
155
156
49
21
129
208
46
14
9
85
211
180
178
188
168
130
30
43
109
94
81
107
177
203
12
212
140
3
175
74
247
90
99
34
54
71
101
17
80
50
29
138
210
16
181
63
163
5
214

> <PUBCHEM_MMFF94_PARTIAL_CHARGES>
43
1 -0.18
10 -0.62
11 -0.87
12 -0.09
13 -0.19
14 -0.2
15 0.35
16 0.38
17 0.28
18 0.63
19 0.11
2 -0.18
20 0.04
21 0.23
22 0.3
23 0.41
24 0.8
25 0.51
26 -0.14
27 -0.15
28 -0.15
29 0.18
3 -0.68
30 -0.15
31 -0.15
32 0.1
33 0.1
34 0.1
38 0.4
39 0.4
4 -0.68
40 0.37
41 0.15
45 0.4
48 0.15
49 0.15
5 -0.57
50 0.15
51 0.15
6 0.05
7 -0.73
8 -0.57
9 -0.57

> <PUBCHEM_EFFECTIVE_ROTOR_COUNT>
6.8

> <PUBCHEM_PHARMACOPHORE_FEATURES>
15
1 11 cation
1 11 donor
1 3 acceptor
1 3 donor
1 4 acceptor
1 4 donor
1 5 acceptor
1 7 donor
3 6 8 20 cation
3 6 9 19 cation
3 9 10 24 cation
5 6 8 19 20 21 rings
6 12 13 14 15 16 17 rings
6 26 27 28 29 30 31 rings
6 9 10 19 21 23 24 rings

> <PUBCHEM_HEAVY_ATOM_COUNT>
31

> <PUBCHEM_ATOM_DEF_STEREO_COUNT>
5

> <PUBCHEM_ATOM_UDEF_STEREO_COUNT>
0

> <PUBCHEM_BOND_DEF_STEREO_COUNT>
0

> <PUBCHEM_BOND_UDEF_STEREO_COUNT>
0

> <PUBCHEM_ISOTOPIC_ATOM_COUNT>
0

> <PUBCHEM_COMPONENT_COUNT>
1

> <PUBCHEM_CACTVS_TAUTO_COUNT>
6

> <PUBCHEM_CONFORMER_ID>
00ABA27000000001

> <PUBCHEM_MMFF94_ENERGY>
72.7627

> <PUBCHEM_FEATURE_SELFOVERLAP>
76.744

> <PUBCHEM_SHAPE_FINGERPRINT>
10 15 16732995198058569941
10280341 67 17842264059688041592
10675989 125 18339080385039838706
10835480 77 18341890830954269709
10906281 52 18336555987682722719
11475781 23 18343021099122219630
11497681 19 9007063491473833274
12120059 9 8646212442339490665
12166972 35 13614237109616946491
12342043 65 7997704090487094798
12422481 6 16732979800174033671
12596602 18 13045952287523665437
12925494 130 18195801006242953960
13540713 4 18267603453764983446
13782708 43 7925642097890842424
14347332 77 10447667785028581680
14790565 3 18334293150267212631
15183329 4 16773799147995963935
15350500 55 18270113656201925600
15352257 5 7925912595295771609
16664035 1 18195248807173117506
17492 89 10231219025812951584
18222031 100 10447920668556235007
20715895 44 18409727383073976408
21033648 29 18187650231845102343
21424621 283 18409729564980490931
21781055 127 18339085870314332586
21859007 373 17822838806426159332
23559900 14 18263379100358282238
24771293 8 18337668723726540348
249057 25 16988571147595052810
2748736 6 18409160005220360337
2838139 119 18338228276771468261
3504750 166 11025792090620937507
3663271 9 13262406548840691693
3918712 181 18410845539319178697
4169191 19 18340203089602250253
465052 167 11025789886759467656
5104073 3 17967809487431214714
5385378 56 18116436943064311091
5718773 13 9150909273378826192
5758199 1 18408606934013317177
59682541 52 17275108275750338143
6328613 192 18343861130622950713

> <PUBCHEM_SHAPE_MULTIPOLES>
594.21
21.55
4.12
1.51
20.78
1.75
-0.4
-24.32
-1.03
-1.18
2.68
0.2
-0.09
1.25

> <PUBCHEM_SHAPE_SELFOVERLAP>
1287.392

> <PUBCHEM_SHAPE_VOLUME>
328.5

> <PUBCHEM_COORDINATE_TYPE>
2
5
10

$$$$
