11242465
  -OEChem-03292013303D

 27 27  0     1  0  0  0  0  0999 V2000
    2.5648    1.4500   -0.2577 S   0  0  0  0  0  0  0  0  0  0  0  0
    1.3817    0.5822    0.4620 O   0  0  0  0  0  0  0  0  0  0  0  0
    2.6652   -1.9745   -1.2277 O   0  0  0  0  0  0  0  0  0  0  0  0
    2.8346   -1.9018    1.0348 O   0  0  0  0  0  0  0  0  0  0  0  0
   -5.1398    0.9258   -0.5171 O   0  0  0  0  0  0  0  0  0  0  0  0
    2.7613    2.7279    0.7371 O   0  0  0  0  0  0  0  0  0  0  0  0
    3.7811    0.6608   -0.2007 O   0  0  0  0  0  0  0  0  0  0  0  0
    2.0770    1.9466   -1.5309 O   0  0  0  0  0  0  0  0  0  0  0  0
   -0.1120   -1.2701    0.7991 C   0  0  0  0  0  0  0  0  0  0  0  0
    1.0276   -0.6939   -0.0571 C   0  0  2  0  0  0  0  0  0  0  0  0
   -1.4411   -0.6903    0.4512 C   0  0  0  0  0  0  0  0  0  0  0  0
   -1.8931    0.4574    1.1026 C   0  0  0  0  0  0  0  0  0  0  0  0
   -2.2320   -1.2946   -0.5259 C   0  0  0  0  0  0  0  0  0  0  0  0
    2.2622   -1.5705    0.0048 C   0  0  0  0  0  0  0  0  0  0  0  0
   -3.1359    1.0005    0.7770 C   0  0  0  0  0  0  0  0  0  0  0  0
   -3.4749   -0.7515   -0.8516 C   0  0  0  0  0  0  0  0  0  0  0  0
   -3.9268    0.3960   -0.2000 C   0  0  0  0  0  0  0  0  0  0  0  0
   -0.1559   -2.3606    0.6762 H   0  0  0  0  0  0  0  0  0  0  0  0
    0.0923   -1.1013    1.8651 H   0  0  0  0  0  0  0  0  0  0  0  0
    0.7110   -0.5811   -1.1013 H   0  0  0  0  0  0  0  0  0  0  0  0
   -1.2863    0.9389    1.8649 H   0  0  0  0  0  0  0  0  0  0  0  0
   -1.8903   -2.1876   -1.0425 H   0  0  0  0  0  0  0  0  0  0  0  0
   -3.4764    1.8950    1.2917 H   0  0  0  0  0  0  0  0  0  0  0  0
   -4.0862   -1.2266   -1.6140 H   0  0  0  0  0  0  0  0  0  0  0  0
    3.4600   -2.5477   -1.1827 H   0  0  0  0  0  0  0  0  0  0  0  0
   -5.2913    1.7157    0.0299 H   0  0  0  0  0  0  0  0  0  0  0  0
    1.9288    3.1769    1.0156 H   0  0  0  0  0  0  0  0  0  0  0  0
  1  2  1  0  0  0  0
  1  6  1  0  0  0  0
  1  7  2  0  0  0  0
  1  8  2  0  0  0  0
  2 10  1  0  0  0  0
  3 14  1  0  0  0  0
  3 25  1  0  0  0  0
  4 14  2  0  0  0  0
  5 17  1  0  0  0  0
  5 26  1  0  0  0  0
  6 27  1  0  0  0  0
  9 10  1  0  0  0  0
  9 11  1  0  0  0  0
  9 18  1  0  0  0  0
  9 19  1  0  0  0  0
 10 14  1  0  0  0  0
 10 20  1  0  0  0  0
 11 12  2  0  0  0  0
 11 13  1  0  0  0  0
 12 15  1  0  0  0  0
 12 21  1  0  0  0  0
 13 16  2  0  0  0  0
 13 22  1  0  0  0  0
 15 17  2  0  0  0  0
 15 23  1  0  0  0  0
 16 17  1  0  0  0  0
 16 24  1  0  0  0  0
M  END
> <PUBCHEM_COMPOUND_CID>
11242465

> <PUBCHEM_CONFORMER_RMSD>
0.6

> <PUBCHEM_CONFORMER_DIVERSEORDER>
1
6
16
4
19
13
14
2
7
15
17
18
3
20
5
11
12
10
9
8

> <PUBCHEM_MMFF94_PARTIAL_CHARGES>
24
1 1.67
10 0.34
11 -0.14
12 -0.15
13 -0.15
14 0.66
15 -0.15
16 -0.15
17 0.08
2 -0.46
21 0.15
22 0.15
23 0.15
24 0.15
25 0.5
26 0.45
27 0.5
3 -0.65
4 -0.57
5 -0.53
6 -0.68
7 -0.65
8 -0.65
9 0.14

> <PUBCHEM_EFFECTIVE_ROTOR_COUNT>
5

> <PUBCHEM_PHARMACOPHORE_FEATURES>
9
1 3 acceptor
1 4 acceptor
1 5 donor
1 6 acceptor
1 7 acceptor
1 8 acceptor
3 3 4 14 anion
4 1 6 7 8 anion
6 11 12 13 15 16 17 rings

> <PUBCHEM_HEAVY_ATOM_COUNT>
17

> <PUBCHEM_ATOM_DEF_STEREO_COUNT>
1

> <PUBCHEM_ATOM_UDEF_STEREO_COUNT>
0

> <PUBCHEM_BOND_DEF_STEREO_COUNT>
0

> <PUBCHEM_BOND_UDEF_STEREO_COUNT>
0

> <PUBCHEM_ISOTOPIC_ATOM_COUNT>
0

> <PUBCHEM_COMPONENT_COUNT>
1

> <PUBCHEM_CACTVS_TAUTO_COUNT>
2

> <PUBCHEM_CONFORMER_ID>
00AB8BE100000001

> <PUBCHEM_MMFF94_ENERGY>
31.2936

> <PUBCHEM_FEATURE_SELFOVERLAP>
45.791

> <PUBCHEM_SHAPE_FINGERPRINT>
14115302 16 17846210025923879299
14181834 199 18411419501520351406
14250199 8 18412550890136818585
14252887 29 8502386528842893660
14897335 6 18411698815701211939
15342168 16 17895201060059298965
15442244 35 18196937677752824266
15536298 74 18413389821571657367
15775835 57 18411984676071711749
18186145 218 18187364307562107719
18981168 100 17678486218243379743
192875 21 18200868466266225473
20645476 183 18060134383978608879
20645477 70 18412826850476254775
21486144 27 17967253113394229271
21524375 3 18193838378186930336
22096605 113 18339359768182456945
2255824 54 18335140869189886570
231179 274 17822006532106031244
23402655 69 18342177752091715653
23557571 272 17531819064206879313
23559900 14 18059852844424504794
23598291 2 18058181526498943307
3060560 45 18273220785619346222
3082319 5 18201719569902326359
474 4 18114183085317303237
67856867 119 18271228517361536696
7364860 26 18343867714675400962
74978 22 18334862701258905131
81228 2 17616266788543373482
84936 182 18342453785318703368
9971528 1 18200027322897283970
9981440 41 18050838124781937920

> <PUBCHEM_SHAPE_MULTIPOLES>
312.62
7.91
2.27
1.11
4.84
0.48
0.09
2.21
1.36
-2.5
0.07
-0.12
0.04
-0.37

> <PUBCHEM_SHAPE_SELFOVERLAP>
636.074

> <PUBCHEM_SHAPE_VOLUME>
181.6

> <PUBCHEM_COORDINATE_TYPE>
2
5
10

$$$$
