REMARK  Name = 11248240
REMARK  6 active torsions:
REMARK  status: ('A' for Active; 'I' for Inactive)
REMARK    1  A    between atoms: N_2  and  C_14
REMARK    2  A    between atoms: C_11  and  C_19
REMARK    3  A    between atoms: C_15  and  O_22
REMARK    4  A    between atoms: C_16  and  O_24
REMARK    5  A    between atoms: N_26  and  C_28
REMARK    6  A    between atoms: C_28  and  C_30
REMARK                            x       y       z     vdW  Elec       q    Type
REMARK                         _______ _______ _______ _____ _____    ______ ____
ROOT
ATOM      1 CL   UNL     1      -1.023  -4.667   1.469  0.00  0.00    +0.024 Cl
ATOM      2  N   UNL     1       1.516  -0.642  -0.129  0.00  0.00    -0.260 N 
ATOM      3  N   UNL     1      -0.261   0.635  -0.533  0.00  0.00    -0.240 NA
ATOM      4  N   UNL     1       0.417  -2.657   0.663  0.00  0.00    -0.314 NA
ATOM      5  N   UNL     1      -2.009  -2.397   0.662  0.00  0.00    -0.314 NA
ATOM      6  C   UNL     1       0.431  -1.400   0.195  0.00  0.00    +0.219 C 
ATOM      7  C   UNL     1       1.054   0.570  -0.560  0.00  0.00    +0.222 C 
ATOM      8  C   UNL     1      -0.663  -0.590  -0.063  0.00  0.00    +0.167 C 
ATOM      9  C   UNL     1      -1.920  -1.131   0.188  0.00  0.00    +0.215 C 
ATOM     10  C   UNL     1      -0.852  -3.072   0.867  0.00  0.00    +0.207 C 
ATOM     11  N   UNL     1      -3.086  -0.381  -0.046  0.00  0.00    -0.302 N 
ATOM     12  H   UNL     1      -2.992   0.536  -0.391  0.00  0.00    +0.150 HD
ENDROOT
BRANCH   2  16
ATOM     13  C   UNL     1       4.715   0.626   0.110  0.00  0.00    +0.097 C 
ATOM     14  C   UNL     1       3.739  -0.177   0.905  0.00  0.00    +0.032 C 
ATOM     15  C   UNL     1       5.219  -0.403   1.085  0.00  0.00    +0.013 C 
ATOM     16  C   UNL     1       2.926  -1.042  -0.034  0.00  0.00    +0.107 C 
ATOM     17  C   UNL     1       4.483   0.337  -1.345  0.00  0.00    +0.147 C 
ATOM     18  C   UNL     1       3.662  -0.967  -1.395  0.00  0.00    +0.156 C 
BRANCH  13  21
ATOM     19  O   UNL     1       3.994   2.792   0.640  0.00  0.00    -0.275 OA
ATOM     20  N   UNL     1       6.283   2.365   0.654  0.00  0.00    -0.303 N 
ATOM     21  C   UNL     1       4.949   2.039   0.495  0.00  0.00    +0.224 C 
ATOM     22  C   UNL     1       6.734   3.686   1.026  0.00  0.00    +0.111 C 
ATOM     23  H   UNL     1       6.958   1.663   0.507  0.00  0.00    +0.149 HD
ENDBRANCH  13  21
BRANCH  17  24
ATOM     24  O   UNL     1       5.704   0.224  -2.055  0.00  0.00    -0.381 OA
ATOM     25  H   UNL     1       6.189   1.062  -1.999  0.00  0.00    +0.210 HD
ENDBRANCH  17  24
BRANCH  18  26
ATOM     26  O   UNL     1       4.513  -2.107  -1.508  0.00  0.00    -0.380 OA
ATOM     27  H   UNL     1       3.973  -2.912  -1.537  0.00  0.00    +0.211 HD
ENDBRANCH  18  26
ENDBRANCH   2  16
BRANCH  11  28
ATOM     28  C   UNL     1      -4.404  -0.889   0.194  0.00  0.00    +0.116 C 
BRANCH  28  30
ATOM     29 CL   UNL     1      -7.470   3.066   1.607  0.00  0.00    -0.082 Cl
ATOM     30  C   UNL     1      -5.466   0.111  -0.175  0.00  0.00    -0.002 C 
ATOM     31  C   UNL     1      -5.917   1.014   0.778  0.00  0.00    +0.009 C 
ATOM     32  C   UNL     1      -5.980   0.117  -1.464  0.00  0.00    -0.003 C 
ATOM     33  C   UNL     1      -6.901   1.942   0.435  0.00  0.00    +0.057 C 
ATOM     34  C   UNL     1      -6.964   1.044  -1.807  0.00  0.00    +0.001 C 
ATOM     35  C   UNL     1      -7.424   1.957  -0.858  0.00  0.00    +0.011 C 
ENDBRANCH  28  30
ENDBRANCH  11  28
TORSDOF 6
