REMARK  Name = 112500531
REMARK  6 active torsions:
REMARK  status: ('A' for Active; 'I' for Inactive)
REMARK    1  A    between atoms: C_7  and  C_26
REMARK    2  A    between atoms: C_9  and  C_13
REMARK    3  A    between atoms: C_14  and  O_23
REMARK    4  A    between atoms: C_16  and  S_19
REMARK    5  A    between atoms: O_23  and  C_24
REMARK    6  A    between atoms: C_26  and  C_27
REMARK                            x       y       z     vdW  Elec       q    Type
REMARK                         _______ _______ _______ _____ _____    ______ ____
ROOT
ATOM      1  S   UNL     1       1.202  -3.971   1.226  0.00  0.00    +0.026 S 
ATOM      2  N   UNL     1       3.559  -2.090   0.045  0.00  0.00    -0.238 N 
ATOM      3  N   UNL     1       1.045   0.228  -0.421  0.00  0.00    -0.285 N 
ATOM      4  N   UNL     1       4.351  -1.134  -0.487  0.00  0.00    -0.172 NA
ATOM      5  N   UNL     1      -0.090  -1.670   0.549  0.00  0.00    -0.345 NA
ATOM      6  C   UNL     1       2.201  -0.453  -0.361  0.00  0.00    +0.093 A 
ATOM      7  C   UNL     1       3.505  -0.127  -0.736  0.00  0.00    +0.094 A 
ATOM      8  C   UNL     1       2.245  -1.726   0.142  0.00  0.00    +0.155 A 
ATOM      9  C   UNL     1      -0.080  -0.449   0.061  0.00  0.00    +0.197 C 
ATOM     10  C   UNL     1       1.079  -2.413   0.629  0.00  0.00    +0.060 C 
ATOM     11  C   UNL     1       4.191  -3.332   0.427  0.00  0.00    +0.155 C 
ATOM     12  H   UNL     1       0.992   1.142  -0.782  0.00  0.00    +0.155 HD
ENDROOT
BRANCH   9  13
ATOM     13  C   UNL     1      -1.396   0.267   0.023  0.00  0.00    +0.080 C 
ATOM     14  C   UNL     1      -1.459   1.656   0.136  0.00  0.00    +0.142 C 
ATOM     15  C   UNL     1      -2.568  -0.475  -0.128  0.00  0.00    +0.026 C 
ATOM     16  C   UNL     1      -3.803   0.173  -0.167  0.00  0.00    +0.113 C 
ATOM     17  C   UNL     1      -2.694   2.303   0.098  0.00  0.00    +0.038 C 
ATOM     18  C   UNL     1      -3.866   1.562  -0.054  0.00  0.00    +0.022 C 
BRANCH  16  19
ATOM     19  S   UNL     1      -5.270  -0.755  -0.358  0.00  0.00    +0.042 S 
ATOM     20  O   UNL     1      -5.511  -0.850  -1.972  0.00  0.00    -0.065 OA
ATOM     21  O   UNL     1      -5.011  -2.107   0.114  0.00  0.00    -0.065 OA
ATOM     22  O   UNL     1      -6.348   0.036   0.214  0.00  0.00    -0.065 OA
ENDBRANCH  16  19
BRANCH  14  23
ATOM     23  O   UNL     1      -0.326   2.398   0.286  0.00  0.00    -0.475 OA
BRANCH  23  24
ATOM     24  C   UNL     1      -0.221   3.186   1.470  0.00  0.00    +0.206 C 
ATOM     25  C   UNL     1       1.238   3.307   1.854  0.00  0.00    +0.051 C 
ENDBRANCH  23  24
ENDBRANCH  14  23
ENDBRANCH   9  13
BRANCH   7  26
ATOM     26  C   UNL     1       4.005   1.123  -1.331  0.00  0.00    +0.049 C 
BRANCH  26  27
ATOM     27  C   UNL     1       4.737   2.022  -0.314  0.00  0.00    +0.006 C 
ATOM     28  C   UNL     1       5.285   3.293  -0.944  0.00  0.00    +0.000 C 
ENDBRANCH  26  27
ENDBRANCH   7  26
TORSDOF 6
