REMARK  Name = 11256664
REMARK  7 active torsions:
REMARK  status: ('A' for Active; 'I' for Inactive)
REMARK    1  A    between atoms: C_5  and  O_21
REMARK    2  A    between atoms: CA_7  and  C_14
REMARK    3  A    between atoms: C_9  and  O_23
REMARK    4  A    between atoms: N_13  and  CA_16
REMARK    5  A    between atoms: CA_16  and  C_18
REMARK    6  A    between atoms: C_18  and  O_19
REMARK    7  A    between atoms: O_23  and  C_24
REMARK                            x       y       z     vdW  Elec       q    Type
REMARK                         _______ _______ _______ _____ _____    ______ ____
ROOT
ATOM      1  N   UNL     1       1.677  -0.778   0.238  0.00  0.00    -0.403 NA
ATOM      2  C   UNL     1      -0.532   0.231   0.380  0.00  0.00    +0.027 C 
ATOM      3  C   UNL     1       0.013   1.484   0.032  0.00  0.00    +0.014 C 
ATOM      4  C   UNL     1       0.346  -0.852   0.466  0.00  0.00    +0.109 C 
ATOM      5  C   UNL     1       1.388   1.582  -0.208  0.00  0.00    +0.190 C 
ATOM      6  C   UNL     1      -1.910   0.112   0.625  0.00  0.00    +0.039 C 
ATOM      7  CA  UNL     1       2.163   0.438  -0.093  0.00  0.00    +0.192 C 
ATOM      8  C   UNL     1      -0.839   2.597  -0.064  0.00  0.00    +0.002 C 
ATOM      9  C   UNL     1      -2.741   1.227   0.525  0.00  0.00    +0.145 C 
ATOM     10  C   UNL     1      -2.207   2.467   0.182  0.00  0.00    +0.037 C 
ATOM     11  C   UNL     1      -0.141  -2.219   0.829  0.00  0.00    +0.066 C 
ENDROOT
BRANCH   7  14
ATOM     12  O   UNL     1       4.251   1.503  -0.076  0.00  0.00    -0.268 OA
ATOM     13  N   UNL     1       4.191  -0.691  -0.826  0.00  0.00    -0.290 N 
ATOM     14  C   ACE A   1       3.598   0.476  -0.330  0.00  0.00    +0.275 C 
ATOM     15  H   UNL     1       3.612  -1.467  -1.005  0.00  0.00    +0.150 HD
BRANCH  13  16
ATOM     16  CA  UNL     1       5.606  -0.817  -1.089  0.00  0.00    +0.201 C 
BRANCH  16  18
ATOM     17  OXT UNL     1       7.596  -1.486   0.089  0.00  0.00    -0.248 OA
ATOM     18  C   UNL     1       6.382  -1.318   0.101  0.00  0.00    +0.334 C 
BRANCH  18  19
ATOM     19  O   UNL     1       5.611  -1.565   1.185  0.00  0.00    -0.479 OA
ATOM     20  H   UNL     1       4.686  -1.421   1.145  0.00  0.00    +0.295 HD
ENDBRANCH  18  19
ENDBRANCH  16  18
ENDBRANCH  13  16
ENDBRANCH   7  14
BRANCH   5  21
ATOM     21  O   UNL     1       1.968   2.767  -0.547  0.00  0.00    -0.373 OA
ATOM     22  H   UNL     1       1.443   3.540  -0.625  0.00  0.00    +0.211 HD
ENDBRANCH   5  21
BRANCH   9  23
ATOM     23  O   UNL     1      -4.076   1.105   0.765  0.00  0.00    -0.453 OA
BRANCH  23  24
ATOM     24  C   UNL     1      -4.735   0.026   0.199  0.00  0.00    +0.145 C 
ATOM     25  C   UNL     1      -4.491  -0.293  -1.125  0.00  0.00    +0.037 C 
ATOM     26  C   UNL     1      -5.621  -0.703   0.971  0.00  0.00    +0.037 C 
ATOM     27  C   UNL     1      -5.155  -1.379  -1.696  0.00  0.00    +0.003 C 
ATOM     28  C   UNL     1      -6.286  -1.788   0.400  0.00  0.00    +0.003 C 
ATOM     29  C   UNL     1      -6.053  -2.126  -0.933  0.00  0.00    +0.000 C 
ENDBRANCH  23  24
ENDBRANCH   9  23
TORSDOF 7
