REMARK  Name = 11269948
REMARK  7 active torsions:
REMARK  status: ('A' for Active; 'I' for Inactive)
REMARK    1  A    between atoms: C_7  and  O_27
REMARK    2  A    between atoms: C_8  and  O_29
REMARK    3  A    between atoms: C_9  and  C_33
REMARK    4  A    between atoms: C_12  and  O_31
REMARK    5  A    between atoms: C_17  and  C_19
REMARK    6  A    between atoms: C_24  and  O_25
REMARK    7  A    between atoms: C_33  and  O_34
REMARK                            x       y       z     vdW  Elec       q    Type
REMARK                         _______ _______ _______ _____ _____    ______ ____
ROOT
ATOM      1  O   UNL     1      -3.740  -0.736  -0.492  0.00  0.00    -0.345 OA
ATOM      2  O   UNL     1      -2.421   1.809   0.578  0.00  0.00    -0.474 OA
ATOM      3  O   UNL     1       2.196   0.585   0.101  0.00  0.00    -0.453 OA
ATOM      4  O   UNL     1       1.235  -3.344   0.613  0.00  0.00    -0.286 OA
ATOM      5  C   UNL     1      -3.471   1.033   1.225  0.00  0.00    +0.226 C 
ATOM      6  C   UNL     1      -3.259  -0.434   0.814  0.00  0.00    +0.186 C 
ATOM      7  C   UNL     1      -4.852   1.564   0.852  0.00  0.00    +0.183 C 
ATOM      8  C   UNL     1      -5.258   1.151  -0.559  0.00  0.00    +0.170 C 
ATOM      9  C   UNL     1      -5.098  -0.364  -0.713  0.00  0.00    +0.174 C 
ATOM     10  C   UNL     1      -1.777  -0.399   0.712  0.00  0.00    +0.076 C 
ATOM     11  C   UNL     1      -1.372   0.920   0.537  0.00  0.00    +0.143 C 
ATOM     12  C   UNL     1      -0.862  -1.435   0.688  0.00  0.00    +0.141 C 
ATOM     13  C   UNL     1      -0.053   1.262   0.323  0.00  0.00    +0.074 C 
ATOM     14  C   UNL     1       0.485  -1.106   0.490  0.00  0.00    +0.107 C 
ATOM     15  C   UNL     1       0.886   0.228   0.306  0.00  0.00    +0.154 C 
ATOM     16  C   UNL     1       1.510  -2.162   0.460  0.00  0.00    +0.205 C 
ATOM     17  C   UNL     1       3.157  -0.412   0.066  0.00  0.00    +0.148 C 
ATOM     18  C   UNL     1       2.900  -1.718   0.234  0.00  0.00    +0.080 C 
ENDROOT
BRANCH  17  19
ATOM     19  C   UNL     1       4.530   0.087  -0.155  0.00  0.00    +0.035 C 
ATOM     20  C   UNL     1       5.620  -0.593   0.393  0.00  0.00    +0.006 C 
ATOM     21  C   UNL     1       4.743   1.241  -0.913  0.00  0.00    +0.006 C 
ATOM     22  C   UNL     1       6.916  -0.121   0.184  0.00  0.00    +0.037 C 
ATOM     23  C   UNL     1       6.039   1.712  -1.121  0.00  0.00    +0.037 C 
ATOM     24  C   UNL     1       7.126   1.032  -0.573  0.00  0.00    +0.134 C 
BRANCH  24  25
ATOM     25  O   UNL     1       8.391   1.490  -0.777  0.00  0.00    -0.506 OA
ATOM     26  H   UNL     1       9.121   1.033  -0.408  0.00  0.00    +0.292 HD
ENDBRANCH  24  25
ENDBRANCH  17  19
BRANCH   7  27
ATOM     27  O   UNL     1      -4.881   2.983   0.961  0.00  0.00    -0.378 OA
ATOM     28  H   UNL     1      -4.623   3.244   1.859  0.00  0.00    +0.211 HD
ENDBRANCH   7  27
BRANCH   8  29
ATOM     29  O   UNL     1      -6.620   1.507  -0.778  0.00  0.00    -0.379 OA
ATOM     30  H   UNL     1      -6.723   2.467  -0.681  0.00  0.00    +0.211 HD
ENDBRANCH   8  29
BRANCH  12  31
ATOM     31  O   UNL     1      -1.300  -2.711   0.842  0.00  0.00    -0.505 OA
ATOM     32  H   UNL     1      -2.212  -2.881   0.972  0.00  0.00    +0.292 HD
ENDBRANCH  12  31
BRANCH   9  33
ATOM     33  C   UNL     1      -5.476  -0.833  -2.114  0.00  0.00    +0.169 C 
BRANCH  33  34
ATOM     34  O   UNL     1      -5.293  -2.236  -2.184  0.00  0.00    -0.379 OA
ATOM     35  H   UNL     1      -5.530  -2.548  -3.071  0.00  0.00    +0.211 HD
ENDBRANCH  33  34
ENDBRANCH   9  33
TORSDOF 7
