11269948
  -OEChem-03292013303D

 48 52  0     1  0  0  0  0  0999 V2000
   -3.7399   -0.7362   -0.4917 O   0  0  0  0  0  0  0  0  0  0  0  0
   -2.4209    1.8090    0.5779 O   0  0  0  0  0  0  0  0  0  0  0  0
   -4.8814    2.9835    0.9614 O   0  0  0  0  0  0  0  0  0  0  0  0
   -6.6200    1.5074   -0.7776 O   0  0  0  0  0  0  0  0  0  0  0  0
   -5.2934   -2.2357   -2.1843 O   0  0  0  0  0  0  0  0  0  0  0  0
   -1.2996   -2.7109    0.8416 O   0  0  0  0  0  0  0  0  0  0  0  0
    2.1955    0.5853    0.1009 O   0  0  0  0  0  0  0  0  0  0  0  0
    1.2351   -3.3438    0.6134 O   0  0  0  0  0  0  0  0  0  0  0  0
    8.3908    1.4905   -0.7771 O   0  0  0  0  0  0  0  0  0  0  0  0
   -3.4714    1.0330    1.2247 C   0  0  2  0  0  0  0  0  0  0  0  0
   -3.2585   -0.4345    0.8142 C   0  0  2  0  0  0  0  0  0  0  0  0
   -4.8518    1.5637    0.8524 C   0  0  2  0  0  0  0  0  0  0  0  0
   -5.2578    1.1512   -0.5589 C   0  0  1  0  0  0  0  0  0  0  0  0
   -5.0980   -0.3641   -0.7125 C   0  0  1  0  0  0  0  0  0  0  0  0
   -1.7774   -0.3993    0.7117 C   0  0  0  0  0  0  0  0  0  0  0  0
   -1.3724    0.9197    0.5369 C   0  0  0  0  0  0  0  0  0  0  0  0
   -5.4756   -0.8334   -2.1141 C   0  0  0  0  0  0  0  0  0  0  0  0
   -0.8617   -1.4349    0.6883 C   0  0  0  0  0  0  0  0  0  0  0  0
   -0.0527    1.2623    0.3226 C   0  0  0  0  0  0  0  0  0  0  0  0
    0.4847   -1.1063    0.4901 C   0  0  0  0  0  0  0  0  0  0  0  0
    0.8856    0.2277    0.3062 C   0  0  0  0  0  0  0  0  0  0  0  0
    1.5095   -2.1617    0.4595 C   0  0  0  0  0  0  0  0  0  0  0  0
    3.1571   -0.4118    0.0658 C   0  0  0  0  0  0  0  0  0  0  0  0
    2.8995   -1.7184    0.2335 C   0  0  0  0  0  0  0  0  0  0  0  0
    4.5296    0.0869   -0.1551 C   0  0  0  0  0  0  0  0  0  0  0  0
    5.6203   -0.5927    0.3929 C   0  0  0  0  0  0  0  0  0  0  0  0
    4.7432    1.2409   -0.9128 C   0  0  0  0  0  0  0  0  0  0  0  0
    6.9164   -0.1212    0.1844 C   0  0  0  0  0  0  0  0  0  0  0  0
    6.0393    1.7125   -1.1214 C   0  0  0  0  0  0  0  0  0  0  0  0
    7.1259    1.0315   -0.5728 C   0  0  0  0  0  0  0  0  0  0  0  0
   -3.3165    1.1692    2.3056 H   0  0  0  0  0  0  0  0  0  0  0  0
   -3.6478   -1.1426    1.5520 H   0  0  0  0  0  0  0  0  0  0  0  0
   -5.5929    1.1787    1.5636 H   0  0  0  0  0  0  0  0  0  0  0  0
   -4.6440    1.6927   -1.2898 H   0  0  0  0  0  0  0  0  0  0  0  0
   -5.7275   -0.9018    0.0094 H   0  0  0  0  0  0  0  0  0  0  0  0
   -4.8276   -0.3735   -2.8677 H   0  0  0  0  0  0  0  0  0  0  0  0
   -6.5203   -0.6124   -2.3500 H   0  0  0  0  0  0  0  0  0  0  0  0
    0.2432    2.2957    0.1790 H   0  0  0  0  0  0  0  0  0  0  0  0
   -4.1976    3.3401    0.3688 H   0  0  0  0  0  0  0  0  0  0  0  0
   -6.7859    1.4727   -1.7347 H   0  0  0  0  0  0  0  0  0  0  0  0
   -5.5324   -2.5117   -3.0856 H   0  0  0  0  0  0  0  0  0  0  0  0
   -0.5586   -3.3336    0.7869 H   0  0  0  0  0  0  0  0  0  0  0  0
    3.6533   -2.4960    0.1923 H   0  0  0  0  0  0  0  0  0  0  0  0
    5.4980   -1.4811    1.0067 H   0  0  0  0  0  0  0  0  0  0  0  0
    3.9156    1.7869   -1.3593 H   0  0  0  0  0  0  0  0  0  0  0  0
    7.7545   -0.6581    0.6208 H   0  0  0  0  0  0  0  0  0  0  0  0
    6.1965    2.6098   -1.7139 H   0  0  0  0  0  0  0  0  0  0  0  0
    9.0175    0.8982   -0.3272 H   0  0  0  0  0  0  0  0  0  0  0  0
  1 11  1  0  0  0  0
  1 14  1  0  0  0  0
  2 10  1  0  0  0  0
  2 16  1  0  0  0  0
  3 12  1  0  0  0  0
  3 39  1  0  0  0  0
  4 13  1  0  0  0  0
  4 40  1  0  0  0  0
  5 17  1  0  0  0  0
  5 41  1  0  0  0  0
  6 18  1  0  0  0  0
  6 42  1  0  0  0  0
  7 21  1  0  0  0  0
  7 23  1  0  0  0  0
  8 22  2  0  0  0  0
  9 30  1  0  0  0  0
  9 48  1  0  0  0  0
 10 11  1  0  0  0  0
 10 12  1  0  0  0  0
 10 31  1  0  0  0  0
 11 15  1  0  0  0  0
 11 32  1  0  0  0  0
 12 13  1  0  0  0  0
 12 33  1  0  0  0  0
 13 14  1  0  0  0  0
 13 34  1  0  0  0  0
 14 17  1  0  0  0  0
 14 35  1  0  0  0  0
 15 16  2  0  0  0  0
 15 18  1  0  0  0  0
 16 19  1  0  0  0  0
 17 36  1  0  0  0  0
 17 37  1  0  0  0  0
 18 20  2  0  0  0  0
 19 21  2  0  0  0  0
 19 38  1  0  0  0  0
 20 21  1  0  0  0  0
 20 22  1  0  0  0  0
 22 24  1  0  0  0  0
 23 24  2  0  0  0  0
 23 25  1  0  0  0  0
 24 43  1  0  0  0  0
 25 26  2  0  0  0  0
 25 27  1  0  0  0  0
 26 28  1  0  0  0  0
 26 44  1  0  0  0  0
 27 29  2  0  0  0  0
 27 45  1  0  0  0  0
 28 30  2  0  0  0  0
 28 46  1  0  0  0  0
 29 30  1  0  0  0  0
 29 47  1  0  0  0  0
M  END
> <PUBCHEM_COMPOUND_CID>
11269948

> <PUBCHEM_CONFORMER_RMSD>
0.8

> <PUBCHEM_CONFORMER_DIVERSEORDER>
1
3
2

> <PUBCHEM_MMFF94_PARTIAL_CHARGES>
41
1 -0.56
10 0.28
11 0.42
12 0.28
13 0.28
14 0.28
15 -0.14
16 0.08
17 0.28
18 0.08
19 -0.15
2 -0.36
20 0.09
21 0.08
22 0.47
23 0.05
24 -0.14
25 0.03
26 -0.15
27 -0.15
28 -0.15
29 -0.15
3 -0.68
30 0.08
38 0.15
39 0.4
4 -0.68
40 0.4
41 0.4
42 0.45
43 0.15
44 0.15
45 0.15
46 0.15
47 0.15
48 0.45
5 -0.68
6 -0.53
7 -0.16
8 -0.57
9 -0.53

> <PUBCHEM_EFFECTIVE_ROTOR_COUNT>
3

> <PUBCHEM_PHARMACOPHORE_FEATURES>
17
1 1 acceptor
1 2 acceptor
1 3 acceptor
1 3 donor
1 4 acceptor
1 4 donor
1 5 acceptor
1 5 donor
1 6 donor
1 7 acceptor
1 8 acceptor
1 9 donor
5 2 10 11 15 16 rings
6 1 10 11 12 13 14 rings
6 15 16 18 19 20 21 rings
6 25 26 27 28 29 30 rings
6 7 20 21 22 23 24 rings

> <PUBCHEM_HEAVY_ATOM_COUNT>
30

> <PUBCHEM_ATOM_DEF_STEREO_COUNT>
5

> <PUBCHEM_ATOM_UDEF_STEREO_COUNT>
0

> <PUBCHEM_BOND_DEF_STEREO_COUNT>
0

> <PUBCHEM_BOND_UDEF_STEREO_COUNT>
0

> <PUBCHEM_ISOTOPIC_ATOM_COUNT>
0

> <PUBCHEM_COMPONENT_COUNT>
1

> <PUBCHEM_CACTVS_TAUTO_COUNT>
21

> <PUBCHEM_CONFORMER_ID>
00ABF73C00000001

> <PUBCHEM_MMFF94_ENERGY>
100.4365

> <PUBCHEM_FEATURE_SELFOVERLAP>
86.681

> <PUBCHEM_SHAPE_FINGERPRINT>
10 15 17749401359549635160
10411042 1 17761502786600287307
10554248 39 18186519896007573094
10595046 47 18341048532259627179
10906281 52 18337122180515904538
11135609 187 18334008372497717561
12236239 1 18343581820193244942
12422481 6 16226051140897691302
12838862 33 18334565881345246996
13540713 5 18196929977129988763
13631057 29 18201715198105881359
13685833 64 11095881562644377948
13690498 29 17916857028601209759
13782708 43 14405182854967319876
14117953 113 18186527588214853268
14528608 73 18413951689509954704
14674994 50 15266490901791713374
14767858 380 18412538842585001855
14790565 3 18336837415647375816
15183329 4 18259982682758463876
15326921 28 7852484988384879079
15461852 350 17917995010308974028
1577012 14 18410295800863513856
17780758 139 11097851900350391447
17980427 23 18334868215928153477
18335252 98 18260272945881814771
18608769 82 18335429014899576995
18681886 176 17632567284062499064
20511986 3 18114736136098912698
21033648 144 17967249780489350439
21033648 29 16081369588638665583
21054139 6 18342168986005721806
21298829 104 18334298634724906116
22288116 15 18059574740780603975
22393880 68 17988633108606657689
23081809 10 18411135818961962986
23559900 14 18341609381969123840
23569917 315 18408609158501708026
23576562 1 18194965369126652452
24771293 8 18271522087710847928
25147074 1 18339069385428218091
2748736 6 18334011718377708292
2838139 119 18186519895348105228
328310 630 18114190747507707436
34797466 226 16271915038987741720
397830 11 15286224898328319200
4073 2 18187373116165791434
4169191 19 17967818266903341548
44880568 143 16988570100034944232
465052 167 10015574017738572696
504843 32 17822299040743839690
5104073 3 17895769404000943250
54039377 194 18129941321292211711
563151 97 18335980861860987803
6058803 2 17982164522882081771
6328613 192 18261117413313505700
6371009 1 18335139795917807812
8863177 126 12175036861755200909
999808 66 13038909962043366036

> <PUBCHEM_SHAPE_MULTIPOLES>
564.56
19
2.59
1.28
18.4
0.93
0.59
-9.57
7.58
-1.23
-0.27
-1.94
0.19
-2.66

> <PUBCHEM_SHAPE_SELFOVERLAP>
1271.025

> <PUBCHEM_SHAPE_VOLUME>
294.9

> <PUBCHEM_COORDINATE_TYPE>
2
5
10

$$$$
