REMARK  Name = 11269635
REMARK  9 active torsions:
REMARK  status: ('A' for Active; 'I' for Inactive)
REMARK    1  A    between atoms: C_3  and  O_20
REMARK    2  A    between atoms: C_4  and  O_13
REMARK    3  A    between atoms: C_12  and  C_15
REMARK    4  A    between atoms: C_16  and  C_17
REMARK    5  A    between atoms: C_17  and  O_18
REMARK    6  A    between atoms: O_20  and  C_22
REMARK    7  A    between atoms: C_22  and  C_23
REMARK    8  A    between atoms: C_25  and  O_30
REMARK    9  A    between atoms: C_29  and  O_32
REMARK                            x       y       z     vdW  Elec       q    Type
REMARK                         _______ _______ _______ _____ _____    ______ ____
ROOT
ATOM      1  O   UNL     1      -4.461   0.934  -0.777  0.00  0.00    -0.471 OA
ATOM      2  O   UNL     1      -0.288   1.843  -0.878  0.00  0.00    -0.288 OA
ATOM      3  C   UNL     1       0.331   0.132   0.709  0.00  0.00    +0.215 C 
ATOM      4  C   UNL     1      -0.020  -1.360   0.719  0.00  0.00    +0.158 C 
ATOM      5  C   UNL     1      -1.474  -1.613   1.127  0.00  0.00    +0.060 C 
ATOM      6  C   UNL     1      -2.434  -0.663   0.457  0.00  0.00    -0.014 C 
ATOM      7  C   UNL     1      -0.647   0.892  -0.185  0.00  0.00    +0.211 C 
ATOM      8  C   UNL     1      -2.081   0.471  -0.169  0.00  0.00    +0.056 C 
ATOM      9  C   UNL     1       0.313   0.746   2.112  0.00  0.00    +0.054 C 
ATOM     10  C   UNL     1      -3.087   1.348  -0.859  0.00  0.00    +0.235 C 
ATOM     11  C   UNL     1      -3.834  -1.018   0.474  0.00  0.00    +0.033 C 
ATOM     12  C   UNL     1      -4.752  -0.238  -0.117  0.00  0.00    +0.138 C 
ENDROOT
BRANCH   4  13
ATOM     13  O   UNL     1       0.195  -1.897  -0.592  0.00  0.00    -0.380 OA
ATOM     14  H   UNL     1       1.114  -1.742  -0.859  0.00  0.00    +0.211 HD
ENDBRANCH   4  13
BRANCH  12  15
ATOM     15  C   UNL     1      -6.153  -0.562  -0.114  0.00  0.00    +0.035 C 
ATOM     16  C   UNL     1      -7.087   0.200  -0.697  0.00  0.00    +0.008 C 
BRANCH  16  17
ATOM     17  C   UNL     1      -8.543  -0.138  -0.699  0.00  0.00    +0.163 C 
BRANCH  17  18
ATOM     18  O   UNL     1      -9.255   0.911  -0.058  0.00  0.00    -0.377 OA
ATOM     19  H   UNL     1     -10.203   0.702  -0.054  0.00  0.00    +0.211 HD
ENDBRANCH  17  18
ENDBRANCH  16  17
ENDBRANCH  12  15
BRANCH   3  20
ATOM     20  O   UNL     1       1.643   0.284   0.181  0.00  0.00    -0.443 OA
BRANCH  20  22
ATOM     21  O   UNL     1       2.503  -1.005   1.884  0.00  0.00    -0.245 OA
ATOM     22  C   UNL     1       2.639  -0.339   0.869  0.00  0.00    +0.344 C 
BRANCH  22  23
ATOM     23  C   UNL     1       3.953  -0.104   0.219  0.00  0.00    +0.105 C 
ATOM     24  C   UNL     1       4.706   0.993   0.593  0.00  0.00    -0.010 C 
ATOM     25  C   UNL     1       4.388  -0.993  -0.746  0.00  0.00    +0.143 C 
ATOM     26  C   UNL     1       5.939   1.209  -0.021  0.00  0.00    +0.033 C 
ATOM     27  C   UNL     1       5.621  -0.776  -1.360  0.00  0.00    +0.073 C 
ATOM     28  C   UNL     1       4.241   1.958   1.635  0.00  0.00    +0.031 C 
ATOM     29  C   UNL     1       6.397   0.325  -0.997  0.00  0.00    +0.136 C 
BRANCH  25  30
ATOM     30  O   UNL     1       3.646  -2.075  -1.116  0.00  0.00    -0.505 OA
ATOM     31  H   UNL     1       2.815  -2.233  -0.713  0.00  0.00    +0.292 HD
ENDBRANCH  25  30
BRANCH  29  32
ATOM     32  O   UNL     1       7.601   0.536  -1.596  0.00  0.00    -0.505 OA
ATOM     33  H   UNL     1       8.123   1.275  -1.352  0.00  0.00    +0.292 HD
ENDBRANCH  29  32
ENDBRANCH  22  23
ENDBRANCH  20  22
ENDBRANCH   3  20
TORSDOF 9
