REMARK  Name = 11269868
REMARK  7 active torsions:
REMARK  status: ('A' for Active; 'I' for Inactive)
REMARK    1  A    between atoms: C_3  and  O_31
REMARK    2  A    between atoms: C_6  and  O_21
REMARK    3  A    between atoms: C_7  and  O_23
REMARK    4  A    between atoms: C_10  and  O_25
REMARK    5  A    between atoms: C_15  and  O_27
REMARK    6  A    between atoms: C_16  and  O_29
REMARK    7  A    between atoms: O_31  and  C_33
REMARK                            x       y       z     vdW  Elec       q    Type
REMARK                         _______ _______ _______ _____ _____    ______ ____
ROOT
ATOM      1  C   UNL     1       1.057   0.204   0.678  0.00  0.00    +0.045 C 
ATOM      2  C   UNL     1       0.268   1.502   0.224  0.00  0.00    +0.022 C 
ATOM      3  C   UNL     1       1.970  -0.214  -0.498  0.00  0.00    +0.171 C 
ATOM      4  C   UNL     1       3.092   0.844  -0.389  0.00  0.00    +0.065 C 
ATOM      5  C   UNL     1       2.112   0.563   1.811  0.00  0.00    +0.031 C 
ATOM      6  C   UNL     1      -2.175  -0.480   0.369  0.00  0.00    +0.121 C 
ATOM      7  C   UNL     1       3.463   0.784   1.107  0.00  0.00    +0.092 C 
ATOM      8  C   UNL     1       0.199  -0.923   1.286  0.00  0.00    +0.036 C 
ATOM      9  C   UNL     1      -1.928   0.432  -0.855  0.00  0.00    +0.075 C 
ATOM     10  C   UNL     1      -1.015  -1.480   0.542  0.00  0.00    +0.135 C 
ATOM     11  C   UNL     1      -3.616  -1.061   0.054  0.00  0.00    +0.052 C 
ATOM     12  C   UNL     1       1.293   2.654  -0.028  0.00  0.00    +0.004 C 
ATOM     13  C   UNL     1       2.543   2.215  -0.816  0.00  0.00    +0.006 C 
ATOM     14  C   UNL     1      -0.695   1.313  -0.968  0.00  0.00    -0.040 C 
ATOM     15  C   UNL     1      -3.266   1.189  -0.992  0.00  0.00    +0.143 C 
ATOM     16  C   UNL     1      -4.334   0.121  -0.696  0.00  0.00    +0.140 C 
ATOM     17  C   UNL     1       4.257   1.960   1.664  0.00  0.00    +0.029 C 
ATOM     18  C   UNL     1      -4.409  -1.498   1.302  0.00  0.00    +0.005 C 
ATOM     19  C   UNL     1      -3.569  -2.274  -0.909  0.00  0.00    +0.005 C 
ATOM     20  C   UNL     1      -0.534   1.906  -2.171  0.00  0.00    -0.009 C 
ENDROOT
BRANCH   6  21
ATOM     21  O   UNL     1      -2.285   0.332   1.545  0.00  0.00    -0.384 OA
ATOM     22  H   UNL     1      -1.416   0.703   1.764  0.00  0.00    +0.210 HD
ENDBRANCH   6  21
BRANCH   7  23
ATOM     23  O   UNL     1       4.269  -0.382   1.336  0.00  0.00    -0.387 OA
ATOM     24  H   UNL     1       3.808  -1.166   0.998  0.00  0.00    +0.210 HD
ENDBRANCH   7  23
BRANCH  10  25
ATOM     25  O   UNL     1      -1.455  -2.603   1.318  0.00  0.00    -0.382 OA
ATOM     26  H   UNL     1      -2.230  -3.004   0.896  0.00  0.00    +0.210 HD
ENDBRANCH  10  25
BRANCH  15  27
ATOM     27  O   UNL     1      -3.344   2.277  -0.077  0.00  0.00    -0.382 OA
ATOM     28  H   UNL     1      -2.658   2.929  -0.292  0.00  0.00    +0.210 HD
ENDBRANCH  15  27
BRANCH  16  29
ATOM     29  O   UNL     1      -5.423   0.674   0.026  0.00  0.00    -0.382 OA
ATOM     30  H   UNL     1      -6.081  -0.018   0.199  0.00  0.00    +0.210 HD
ENDBRANCH  16  29
BRANCH   3  31
ATOM     31  O   UNL     1       2.485  -1.528  -0.335  0.00  0.00    -0.452 OA
BRANCH  31  33
ATOM     32  O   UNL     1       3.786  -1.280  -2.230  0.00  0.00    -0.250 OA
ATOM     33  C   UNL     1       3.386  -1.932  -1.276  0.00  0.00    +0.317 C 
ATOM     34  C   UNL     1       3.866  -3.314  -1.022  0.00  0.00    +0.121 C 
ENDBRANCH  31  33
ENDBRANCH   3  31
TORSDOF 7
