REMARK  Name = 11270720
REMARK  10 active torsions:
REMARK  status: ('A' for Active; 'I' for Inactive)
REMARK    1  A    between atoms: C_3  and  O_13
REMARK    2  A    between atoms: C_4  and  O_22
REMARK    3  A    between atoms: C_12  and  C_15
REMARK    4  A    between atoms: C_16  and  C_17
REMARK    5  A    between atoms: C_17  and  O_18
REMARK    6  A    between atoms: O_18  and  C_20
REMARK    7  A    between atoms: O_22  and  C_24
REMARK    8  A    between atoms: C_24  and  C_25
REMARK    9  A    between atoms: C_27  and  O_32
REMARK   10  A    between atoms: C_31  and  O_34
REMARK                            x       y       z     vdW  Elec       q    Type
REMARK                         _______ _______ _______ _____ _____    ______ ____
ROOT
ATOM      1  O   UNL     1       2.572   1.442   1.049  0.00  0.00    -0.471 OA
ATOM      2  O   UNL     1      -1.185   2.908   2.460  0.00  0.00    -0.289 OA
ATOM      3  C   UNL     1      -2.167   3.096   0.263  0.00  0.00    +0.180 C 
ATOM      4  C   UNL     1      -2.245   2.058  -0.862  0.00  0.00    +0.205 C 
ATOM      5  C   UNL     1      -0.897   1.859  -1.563  0.00  0.00    +0.073 C 
ATOM      6  C   UNL     1       0.251   1.768  -0.591  0.00  0.00    -0.013 C 
ATOM      7  C   UNL     1       0.193   2.127   0.701  0.00  0.00    +0.055 C 
ATOM      8  C   UNL     1      -1.067   2.714   1.251  0.00  0.00    +0.200 C 
ATOM      9  C   UNL     1      -1.905   4.510  -0.264  0.00  0.00    +0.041 C 
ATOM     10  C   UNL     1       1.364   1.964   1.629  0.00  0.00    +0.235 C 
ATOM     11  C   UNL     1       1.496   1.232  -1.088  0.00  0.00    +0.033 C 
ATOM     12  C   UNL     1       2.562   1.097  -0.283  0.00  0.00    +0.139 C 
ENDROOT
BRANCH   3  13
ATOM     13  O   UNL     1      -3.413   3.109   0.951  0.00  0.00    -0.376 OA
ATOM     14  H   UNL     1      -3.602   2.221   1.294  0.00  0.00    +0.211 HD
ENDBRANCH   3  13
BRANCH  12  15
ATOM     15  C   UNL     1       3.816   0.571  -0.749  0.00  0.00    +0.036 C 
ATOM     16  C   UNL     1       4.891   0.427   0.035  0.00  0.00    +0.024 C 
BRANCH  16  17
ATOM     17  C   UNL     1       6.194  -0.124  -0.446  0.00  0.00    +0.235 C 
BRANCH  17  18
ATOM     18  O   UNL     1       6.501  -1.291   0.303  0.00  0.00    -0.443 OA
BRANCH  18  20
ATOM     19  O   UNL     1       8.463  -1.563  -0.886  0.00  0.00    -0.250 OA
ATOM     20  C   UNL     1       7.673  -1.917  -0.022  0.00  0.00    +0.318 C 
ATOM     21  C   UNL     1       7.864  -3.125   0.845  0.00  0.00    +0.121 C 
ENDBRANCH  18  20
ENDBRANCH  17  18
ENDBRANCH  16  17
ENDBRANCH  12  15
BRANCH   4  22
ATOM     22  O   UNL     1      -2.669   0.805  -0.312  0.00  0.00    -0.446 OA
BRANCH  22  24
ATOM     23  O   UNL     1      -2.603  -0.153  -2.404  0.00  0.00    -0.245 OA
ATOM     24  C   UNL     1      -2.806  -0.211  -1.200  0.00  0.00    +0.344 C 
BRANCH  24  25
ATOM     25  C   UNL     1      -3.250  -1.447  -0.508  0.00  0.00    +0.105 C 
ATOM     26  C   UNL     1      -2.303  -2.324  -0.013  0.00  0.00    -0.010 C 
ATOM     27  C   UNL     1      -4.605  -1.688  -0.378  0.00  0.00    +0.143 C 
ATOM     28  C   UNL     1      -2.726  -3.483   0.636  0.00  0.00    +0.033 C 
ATOM     29  C   UNL     1      -5.028  -2.848   0.271  0.00  0.00    +0.073 C 
ATOM     30  C   UNL     1      -0.837  -2.069  -0.150  0.00  0.00    +0.031 C 
ATOM     31  C   UNL     1      -4.089  -3.745   0.778  0.00  0.00    +0.136 C 
BRANCH  27  32
ATOM     32  O   UNL     1      -5.540  -0.824  -0.865  0.00  0.00    -0.505 OA
ATOM     33  H   UNL     1      -5.271  -0.040  -1.303  0.00  0.00    +0.292 HD
ENDBRANCH  27  32
BRANCH  31  34
ATOM     34  O   UNL     1      -4.502  -4.877   1.411  0.00  0.00    -0.505 OA
ATOM     35  H   UNL     1      -3.871  -5.480   1.752  0.00  0.00    +0.292 HD
ENDBRANCH  31  34
ENDBRANCH  24  25
ENDBRANCH  22  24
ENDBRANCH   4  22
TORSDOF 10
