REMARK  Name = 11270628
REMARK  7 active torsions:
REMARK  status: ('A' for Active; 'I' for Inactive)
REMARK    1  A    between atoms: C_4  and  C_19
REMARK    2  A    between atoms: C_7  and  O_26
REMARK    3  A    between atoms: C_10  and  O_22
REMARK    4  A    between atoms: C_11  and  O_24
REMARK    5  A    between atoms: C_12  and  O_30
REMARK    6  A    between atoms: O_26  and  C_28
REMARK    7  A    between atoms: O_30  and  C_32
REMARK                            x       y       z     vdW  Elec       q    Type
REMARK                         _______ _______ _______ _____ _____    ______ ____
ROOT
ATOM      1  O   UNL     1      -0.715  -0.928   0.892  0.00  0.00    -0.354 OA
ATOM      2  C   UNL     1       1.499  -0.688   0.011  0.00  0.00    +0.035 C 
ATOM      3  C   UNL     1       0.878   0.702   0.223  0.00  0.00    +0.069 C 
ATOM      4  C   UNL     1       2.574  -1.070   1.069  0.00  0.00    +0.003 C 
ATOM      5  C   UNL     1       0.280  -1.625   0.138  0.00  0.00    +0.140 C 
ATOM      6  C   UNL     1      -0.250   0.392   1.214  0.00  0.00    +0.149 C 
ATOM      7  C   UNL     1       1.915   1.797   0.571  0.00  0.00    +0.138 C 
ATOM      8  C   UNL     1       3.586   0.050   1.305  0.00  0.00    +0.004 C 
ATOM      9  C   UNL     1       2.890   1.355   1.668  0.00  0.00    +0.040 C 
ATOM     10  C   UNL     1      -0.309  -2.161  -1.185  0.00  0.00    +0.113 C 
ATOM     11  C   UNL     1      -1.453   1.356   1.208  0.00  0.00    +0.174 C 
ATOM     12  C   UNL     1      -2.702   0.997   0.349  0.00  0.00    +0.163 C 
ATOM     13  C   UNL     1       1.312   3.149   0.951  0.00  0.00    +0.044 C 
ATOM     14  C   UNL     1      -0.934  -1.100  -2.121  0.00  0.00    +0.029 C 
ATOM     15  C   UNL     1      -2.397   0.860  -1.169  0.00  0.00    +0.043 C 
ATOM     16  C   UNL     1      -2.327  -0.551  -1.780  0.00  0.00    +0.006 C 
ATOM     17  C   UNL     1      -1.297  -3.303  -0.886  0.00  0.00    +0.032 C 
ATOM     18  C   UNL     1      -3.757   2.114   0.538  0.00  0.00    +0.046 C 
ENDROOT
BRANCH   4  19
ATOM     19  C   UNL     1       3.325  -2.346   0.664  0.00  0.00    +0.000 C 
ATOM     20  C   UNL     1       4.090  -2.116  -0.633  0.00  0.00    +0.000 C 
ATOM     21  C   UNL     1       4.264  -2.782   1.781  0.00  0.00    +0.000 C 
ENDBRANCH   4  19
BRANCH  10  22
ATOM     22  O   UNL     1       0.789  -2.759  -1.900  0.00  0.00    -0.384 OA
ATOM     23  H   UNL     1       1.445  -2.077  -2.113  0.00  0.00    +0.210 HD
ENDBRANCH  10  22
BRANCH  11  24
ATOM     24  O   UNL     1      -1.894   1.466   2.574  0.00  0.00    -0.379 OA
ATOM     25  H   UNL     1      -1.139   1.690   3.141  0.00  0.00    +0.211 HD
ENDBRANCH  11  24
BRANCH   7  26
ATOM     26  O   UNL     1       2.703   2.027  -0.612  0.00  0.00    -0.456 OA
BRANCH  26  28
ATOM     27  O   UNL     1       0.793   2.613  -1.771  0.00  0.00    -0.250 OA
ATOM     28  C   UNL     1       2.001   2.432  -1.704  0.00  0.00    +0.317 C 
ATOM     29  C   UNL     1       2.944   2.632  -2.851  0.00  0.00    +0.121 C 
ENDBRANCH  26  28
ENDBRANCH   7  26
BRANCH  12  30
ATOM     30  O   UNL     1      -3.297  -0.196   0.865  0.00  0.00    -0.453 OA
BRANCH  30  32
ATOM     31  O   UNL     1      -5.056   0.043  -0.614  0.00  0.00    -0.250 OA
ATOM     32  C   UNL     1      -4.475  -0.550   0.284  0.00  0.00    +0.317 C 
ATOM     33  C   UNL     1      -4.979  -1.810   0.920  0.00  0.00    +0.121 C 
ENDBRANCH  30  32
ENDBRANCH  12  30
TORSDOF 7
