REMARK  Name = 112758627
REMARK  4 active torsions:
REMARK  status: ('A' for Active; 'I' for Inactive)
REMARK    1  A    between atoms: N_1  and  C_18
REMARK    2  A    between atoms: N_4  and  C_11
REMARK    3  A    between atoms: C_8  and  C_30
REMARK    4  A    between atoms: C_19  and  N_24
REMARK                            x       y       z     vdW  Elec       q    Type
REMARK                         _______ _______ _______ _____ _____    ______ ____
ROOT
ATOM      1  N   UNL     1      -2.344   1.084   0.155  0.00  0.00    -0.272 N 
ATOM      2  N   UNL     1      -0.068   0.678   0.343  0.00  0.00    -0.322 NA
ATOM      3  N   UNL     1      -0.901   2.814  -0.399  0.00  0.00    -0.170 NA
ATOM      4  N   UNL     1       2.265   0.301   0.523  0.00  0.00    -0.287 N 
ATOM      5  C   UNL     1      -1.049   1.546   0.028  0.00  0.00    +0.146 C 
ATOM      6  C   UNL     1       1.184   1.162   0.207  0.00  0.00    +0.202 C 
ATOM      7  C   UNL     1       0.376   3.232  -0.512  0.00  0.00    +0.120 C 
ATOM      8  C   UNL     1       1.470   2.442  -0.220  0.00  0.00    +0.118 C 
ATOM      9  H   UNL     1      -3.082   1.697  -0.069  0.00  0.00    +0.159 HD
ATOM     10  H   UNL     1       3.063   0.772   0.858  0.00  0.00    +0.155 HD
ENDROOT
BRANCH   4  11
ATOM     11  C   UNL     1       2.419  -1.092   0.451  0.00  0.00    +0.050 C 
ATOM     12  C   UNL     1       1.725  -1.822  -0.513  0.00  0.00    +0.010 C 
ATOM     13  C   UNL     1       3.266  -1.747   1.346  0.00  0.00    +0.015 C 
ATOM     14  C   UNL     1       1.878  -3.207  -0.584  0.00  0.00    -0.021 C 
ATOM     15  C   UNL     1       3.419  -3.132   1.275  0.00  0.00    +0.001 C 
ATOM     16  C   UNL     1       2.725  -3.862   0.310  0.00  0.00    -0.004 C 
ATOM     17  C   UNL     1       1.135  -3.987  -1.616  0.00  0.00    +0.031 C 
ENDBRANCH   4  11
BRANCH   1  18
ATOM     18  C   UNL     1      -2.674  -0.257   0.602  0.00  0.00    +0.060 C 
ATOM     19  C   UNL     1      -4.120  -0.340   1.127  0.00  0.00    -0.047 C 
ATOM     20  C   UNL     1      -2.445  -1.244  -0.548  0.00  0.00    +0.018 C 
ATOM     21  C   UNL     1      -5.161  -0.203   0.008  0.00  0.00    -0.020 C 
ATOM     22  C   UNL     1      -3.489  -1.113  -1.657  0.00  0.00    +0.002 C 
ATOM     23  C   UNL     1      -4.910  -1.212  -1.111  0.00  0.00    -0.002 C 
BRANCH  19  24
ATOM     24  N   UNL     1      -4.369   0.661   2.166  0.00  0.00    +0.383 N 
ATOM     25  H   UNL     1      -3.673   0.564   2.905  0.00  0.00    -0.089 HD
ATOM     26  H   UNL     1      -5.301   0.522   2.555  0.00  0.00    -0.089 HD
ATOM     27  H   UNL     1      -4.306   1.595   1.760  0.00  0.00    -0.089 HD
ENDBRANCH  19  24
ENDBRANCH   1  18
BRANCH   8  30
ATOM     28  O   UNL     1       3.402   3.524   0.581  0.00  0.00    -0.270 OA
ATOM     29  N   UNL     1       3.447   2.807  -1.596  0.00  0.00    -0.325 N 
ATOM     30  C   UNL     1       2.819   2.966  -0.365  0.00  0.00    +0.248 C 
ATOM     31  H   UNL     1       4.361   3.149  -1.731  0.00  0.00    +0.145 HD
ATOM     32  H   UNL     1       2.978   2.352  -2.333  0.00  0.00    +0.145 HD
ENDBRANCH   8  30
TORSDOF 4
