11270628
  -OEChem-03292013303D

 71 73  0     1  0  0  0  0  0999 V2000
   -0.7152   -0.9285    0.8918 O   0  0  0  0  0  0  0  0  0  0  0  0
    2.7033    2.0274   -0.6122 O   0  0  0  0  0  0  0  0  0  0  0  0
    0.7890   -2.7588   -1.8996 O   0  0  0  0  0  0  0  0  0  0  0  0
   -1.8941    1.4661    2.5740 O   0  0  0  0  0  0  0  0  0  0  0  0
   -3.2975   -0.1957    0.8645 O   0  0  0  0  0  0  0  0  0  0  0  0
    0.7926    2.6134   -1.7708 O   0  0  0  0  0  0  0  0  0  0  0  0
   -5.0564    0.0433   -0.6140 O   0  0  0  0  0  0  0  0  0  0  0  0
    1.4993   -0.6880    0.0113 C   0  0  1  0  0  0  0  0  0  0  0  0
    0.8777    0.7017    0.2231 C   0  0  1  0  0  0  0  0  0  0  0  0
    2.5735   -1.0703    1.0694 C   0  0  2  0  0  0  0  0  0  0  0  0
    0.2803   -1.6250    0.1383 C   0  0  2  0  0  0  0  0  0  0  0  0
   -0.2501    0.3920    1.2144 C   0  0  1  0  0  0  0  0  0  0  0  0
    1.9155    1.7970    0.5711 C   0  0  1  0  0  0  0  0  0  0  0  0
    3.5862    0.0503    1.3050 C   0  0  0  0  0  0  0  0  0  0  0  0
    2.8898    1.3545    1.6678 C   0  0  0  0  0  0  0  0  0  0  0  0
   -0.3094   -2.1614   -1.1845 C   0  0  1  0  0  0  0  0  0  0  0  0
   -1.4527    1.3562    1.2075 C   0  0  1  0  0  0  0  0  0  0  0  0
    3.3248   -2.3457    0.6638 C   0  0  0  0  0  0  0  0  0  0  0  0
   -2.7019    0.9974    0.3492 C   0  0  1  0  0  0  0  0  0  0  0  0
    1.3115    3.1491    0.9509 C   0  0  0  0  0  0  0  0  0  0  0  0
   -0.9343   -1.1004   -2.1210 C   0  0  0  0  0  0  0  0  0  0  0  0
   -2.3970    0.8597   -1.1693 C   0  0  0  0  0  0  0  0  0  0  0  0
   -2.3267   -0.5508   -1.7797 C   0  0  0  0  0  0  0  0  0  0  0  0
   -1.2968   -3.3032   -0.8864 C   0  0  0  0  0  0  0  0  0  0  0  0
    4.0899   -2.1163   -0.6334 C   0  0  0  0  0  0  0  0  0  0  0  0
    4.2643   -2.7816    1.7812 C   0  0  0  0  0  0  0  0  0  0  0  0
   -3.7570    2.1141    0.5378 C   0  0  0  0  0  0  0  0  0  0  0  0
    2.0008    2.4321   -1.7040 C   0  0  0  0  0  0  0  0  0  0  0  0
   -4.4753   -0.5500    0.2845 C   0  0  0  0  0  0  0  0  0  0  0  0
    2.9442    2.6320   -2.8512 C   0  0  0  0  0  0  0  0  0  0  0  0
   -4.9785   -1.8105    0.9204 C   0  0  0  0  0  0  0  0  0  0  0  0
    1.9251   -0.7055   -0.9927 H   0  0  0  0  0  0  0  0  0  0  0  0
    0.3689    0.9052   -0.7067 H   0  0  0  0  0  0  0  0  0  0  0  0
    2.0653   -1.2573    2.0264 H   0  0  0  0  0  0  0  0  0  0  0  0
    0.5527   -2.4985    0.7421 H   0  0  0  0  0  0  0  0  0  0  0  0
    0.1702    0.3272    2.2256 H   0  0  0  0  0  0  0  0  0  0  0  0
    4.2120    0.2418    0.4294 H   0  0  0  0  0  0  0  0  0  0  0  0
    4.2609   -0.1932    2.1323 H   0  0  0  0  0  0  0  0  0  0  0  0
    2.3668    1.2406    2.6250 H   0  0  0  0  0  0  0  0  0  0  0  0
    3.6628    2.1203    1.8133 H   0  0  0  0  0  0  0  0  0  0  0  0
   -1.1292    2.3589    0.9273 H   0  0  0  0  0  0  0  0  0  0  0  0
    2.6122   -3.1618    0.5029 H   0  0  0  0  0  0  0  0  0  0  0  0
    2.0910    3.9211    0.9816 H   0  0  0  0  0  0  0  0  0  0  0  0
    0.5478    3.5264    0.2692 H   0  0  0  0  0  0  0  0  0  0  0  0
    0.8595    3.1070    1.9483 H   0  0  0  0  0  0  0  0  0  0  0  0
   -1.0349   -1.5929   -3.1013 H   0  0  0  0  0  0  0  0  0  0  0  0
   -0.2255   -0.2937   -2.3323 H   0  0  0  0  0  0  0  0  0  0  0  0
   -1.5225    1.4557   -1.4414 H   0  0  0  0  0  0  0  0  0  0  0  0
   -3.1995    1.3677   -1.7238 H   0  0  0  0  0  0  0  0  0  0  0  0
   -2.8369   -0.4596   -2.7513 H   0  0  0  0  0  0  0  0  0  0  0  0
   -2.9066   -1.3080   -1.2634 H   0  0  0  0  0  0  0  0  0  0  0  0
   -0.7817   -4.1571   -0.4302 H   0  0  0  0  0  0  0  0  0  0  0  0
   -2.0955   -2.9998   -0.2055 H   0  0  0  0  0  0  0  0  0  0  0  0
   -1.7462   -3.6798   -1.8123 H   0  0  0  0  0  0  0  0  0  0  0  0
    3.4681   -1.8264   -1.4809 H   0  0  0  0  0  0  0  0  0  0  0  0
    4.5594   -3.0629   -0.9321 H   0  0  0  0  0  0  0  0  0  0  0  0
    4.9147   -1.4052   -0.5393 H   0  0  0  0  0  0  0  0  0  0  0  0
    3.7505   -2.8143    2.7477 H   0  0  0  0  0  0  0  0  0  0  0  0
    4.6375   -3.7922    1.5781 H   0  0  0  0  0  0  0  0  0  0  0  0
    5.1457   -2.1395    1.8735 H   0  0  0  0  0  0  0  0  0  0  0  0
    1.1719   -3.4575   -1.3423 H   0  0  0  0  0  0  0  0  0  0  0  0
   -4.5461    2.1512   -0.2174 H   0  0  0  0  0  0  0  0  0  0  0  0
   -4.2526    2.0376    1.5131 H   0  0  0  0  0  0  0  0  0  0  0  0
   -3.2772    3.0995    0.4855 H   0  0  0  0  0  0  0  0  0  0  0  0
   -1.1685    1.8643    3.0847 H   0  0  0  0  0  0  0  0  0  0  0  0
    3.6719    3.4084   -2.6023 H   0  0  0  0  0  0  0  0  0  0  0  0
    2.3804    2.9518   -3.7323 H   0  0  0  0  0  0  0  0  0  0  0  0
    3.4484    1.6906   -3.0841 H   0  0  0  0  0  0  0  0  0  0  0  0
   -5.1791   -1.6350    1.9803 H   0  0  0  0  0  0  0  0  0  0  0  0
   -4.2479   -2.6125    0.7955 H   0  0  0  0  0  0  0  0  0  0  0  0
   -5.9106   -2.1132    0.4345 H   0  0  0  0  0  0  0  0  0  0  0  0
  1 11  1  0  0  0  0
  1 12  1  0  0  0  0
  2 13  1  0  0  0  0
  2 28  1  0  0  0  0
  3 16  1  0  0  0  0
  3 61  1  0  0  0  0
  4 17  1  0  0  0  0
  4 65  1  0  0  0  0
  5 19  1  0  0  0  0
  5 29  1  0  0  0  0
  6 28  2  0  0  0  0
  7 29  2  0  0  0  0
  8  9  1  0  0  0  0
  8 10  1  0  0  0  0
  8 11  1  0  0  0  0
  8 32  1  0  0  0  0
  9 12  1  0  0  0  0
  9 13  1  0  0  0  0
  9 33  1  0  0  0  0
 10 14  1  0  0  0  0
 10 18  1  0  0  0  0
 10 34  1  0  0  0  0
 11 16  1  0  0  0  0
 11 35  1  0  0  0  0
 12 17  1  0  0  0  0
 12 36  1  0  0  0  0
 13 15  1  0  0  0  0
 13 20  1  0  0  0  0
 14 15  1  0  0  0  0
 14 37  1  0  0  0  0
 14 38  1  0  0  0  0
 15 39  1  0  0  0  0
 15 40  1  0  0  0  0
 16 21  1  0  0  0  0
 16 24  1  0  0  0  0
 17 19  1  0  0  0  0
 17 41  1  0  0  0  0
 18 25  1  0  0  0  0
 18 26  1  0  0  0  0
 18 42  1  0  0  0  0
 19 22  1  0  0  0  0
 19 27  1  0  0  0  0
 20 43  1  0  0  0  0
 20 44  1  0  0  0  0
 20 45  1  0  0  0  0
 21 23  1  0  0  0  0
 21 46  1  0  0  0  0
 21 47  1  0  0  0  0
 22 23  1  0  0  0  0
 22 48  1  0  0  0  0
 22 49  1  0  0  0  0
 23 50  1  0  0  0  0
 23 51  1  0  0  0  0
 24 52  1  0  0  0  0
 24 53  1  0  0  0  0
 24 54  1  0  0  0  0
 25 55  1  0  0  0  0
 25 56  1  0  0  0  0
 25 57  1  0  0  0  0
 26 58  1  0  0  0  0
 26 59  1  0  0  0  0
 26 60  1  0  0  0  0
 27 62  1  0  0  0  0
 27 63  1  0  0  0  0
 27 64  1  0  0  0  0
 28 30  1  0  0  0  0
 29 31  1  0  0  0  0
 30 66  1  0  0  0  0
 30 67  1  0  0  0  0
 30 68  1  0  0  0  0
 31 69  1  0  0  0  0
 31 70  1  0  0  0  0
 31 71  1  0  0  0  0
M  END
> <PUBCHEM_COMPOUND_CID>
11270628

> <PUBCHEM_CONFORMER_RMSD>
1

> <PUBCHEM_CONFORMER_DIVERSEORDER>
8
2
10
12
6
4
7
9
1
11
13
5
3
14

> <PUBCHEM_MMFF94_PARTIAL_CHARGES>
19
1 -0.56
11 0.28
12 0.28
13 0.28
16 0.28
17 0.28
19 0.28
2 -0.43
28 0.66
29 0.66
3 -0.68
30 0.06
31 0.06
4 -0.68
5 -0.43
6 -0.57
61 0.4
65 0.4
7 -0.57

> <PUBCHEM_EFFECTIVE_ROTOR_COUNT>
7.2

> <PUBCHEM_PHARMACOPHORE_FEATURES>
10
1 1 acceptor
1 3 acceptor
1 3 donor
1 4 acceptor
1 4 donor
1 6 acceptor
1 7 acceptor
3 18 25 26 hydrophobe
5 1 8 9 11 12 rings
6 8 9 10 13 14 15 rings

> <PUBCHEM_HEAVY_ATOM_COUNT>
31

> <PUBCHEM_ATOM_DEF_STEREO_COUNT>
9

> <PUBCHEM_ATOM_UDEF_STEREO_COUNT>
0

> <PUBCHEM_BOND_DEF_STEREO_COUNT>
0

> <PUBCHEM_BOND_UDEF_STEREO_COUNT>
0

> <PUBCHEM_ISOTOPIC_ATOM_COUNT>
0

> <PUBCHEM_COMPONENT_COUNT>
1

> <PUBCHEM_CACTVS_TAUTO_COUNT>
1

> <PUBCHEM_CONFORMER_ID>
00ABF9E400000008

> <PUBCHEM_MMFF94_ENERGY>
140.8525

> <PUBCHEM_FEATURE_SELFOVERLAP>
50.889

> <PUBCHEM_SHAPE_FINGERPRINT>
10190108 129 17395038855175472387
10759866 29 18190468344656186043
10863032 1 18261394524492108633
11244481 83 16950856859506681852
11578080 2 16444783572800454525
12156800 1 15251949916802220761
12422481 6 17838327480729315650
12633257 1 18338812100334708827
12788726 201 17203058481494534265
13140716 1 18129097814482488424
133893 2 18116461209006891568
13583140 156 17969764333475189587
14022347 108 17487918888893107105
14178342 30 17700986431173789859
14840074 17 18335140870012221724
14955137 171 18200879474315280334
16945 1 18125698292222812200
17349148 13 18060133215446784675
17357779 13 18046609136958323340
1813 80 18190743038280437166
18336668 15 18341317917103645562
19319366 153 18120094145943772840
20028762 73 17703774908663792583
20739085 24 18337388228318266762
21033648 29 17559369401919707203
21330990 113 17699002882343805614
229495 10 17969492878751554703
23184049 59 18270105817390147122
23559900 14 18187359939680263547
23566358 27 18114746065446622782
3286 77 18259983751952048011
35225 105 17686923999244856415
4409770 3 17176852446558840918
460360 51 18268982258383419175

> <PUBCHEM_SHAPE_MULTIPOLES>
596.88
7.91
3.86
2.27
4.99
0.11
-0.87
2.47
2.08
-2.72
-1.02
-0.9
-0.77
-1.72

> <PUBCHEM_SHAPE_SELFOVERLAP>
1242.566

> <PUBCHEM_SHAPE_VOLUME>
337

> <PUBCHEM_COORDINATE_TYPE>
2
5
10

$$$$
