11277548
  -OEChem-03292013303D

 37 38  0     1  0  0  0  0  0999 V2000
   -1.0466    1.7038    1.8219 O   0  0  0  0  0  0  0  0  0  0  0  0
   -3.6748   -1.8225   -0.2682 O   0  0  0  0  0  0  0  0  0  0  0  0
    0.9879   -2.6484    1.2972 O   0  0  0  0  0  0  0  0  0  0  0  0
    5.1868    1.8729   -0.6618 O   0  0  0  0  0  0  0  0  0  0  0  0
    5.2990   -0.3159   -0.0651 O   0  0  0  0  0  0  0  0  0  0  0  0
   -2.6130    0.2194   -0.3394 N   0  0  0  0  0  0  0  0  0  0  0  0
    0.4555    0.2872    0.9128 N   0  0  0  0  0  0  0  0  0  0  0  0
   -0.7136   -2.4473   -0.1924 N   0  0  0  0  0  0  0  0  0  0  0  0
   -1.4579    1.1086   -0.4846 C   0  0  1  0  0  0  0  0  0  0  0  0
   -2.1023    2.4812   -0.7116 C   0  0  0  0  0  0  0  0  0  0  0  0
   -3.4040    2.4258    0.0826 C   0  0  0  0  0  0  0  0  0  0  0  0
   -3.8181    0.9658    0.0061 C   0  0  0  0  0  0  0  0  0  0  0  0
   -0.6654    1.0783    0.8270 C   0  0  0  0  0  0  0  0  0  0  0  0
    1.0079   -0.6567   -0.0514 C   0  0  1  0  0  0  0  0  0  0  0  0
   -2.6915   -1.1421   -0.5790 C   0  0  0  0  0  0  0  0  0  0  0  0
   -1.5033   -1.8146   -1.2278 C   0  0  0  0  0  0  0  0  0  0  0  0
    2.5325   -0.6453    0.0208 C   0  0  0  0  0  0  0  0  0  0  0  0
    0.4545   -2.0062    0.3871 C   0  0  0  0  0  0  0  0  0  0  0  0
    3.1298    0.6824   -0.4235 C   0  0  0  0  0  0  0  0  0  0  0  0
    4.6365    0.6736   -0.3507 C   0  0  0  0  0  0  0  0  0  0  0  0
   -0.8405    0.8525   -1.3426 H   0  0  0  0  0  0  0  0  0  0  0  0
   -2.3390    2.6025   -1.7762 H   0  0  0  0  0  0  0  0  0  0  0  0
   -1.4664    3.3185   -0.4082 H   0  0  0  0  0  0  0  0  0  0  0  0
   -3.2348    2.7176    1.1246 H   0  0  0  0  0  0  0  0  0  0  0  0
   -4.1692    3.0957   -0.3209 H   0  0  0  0  0  0  0  0  0  0  0  0
   -4.2287    0.5959    0.9510 H   0  0  0  0  0  0  0  0  0  0  0  0
   -4.5603    0.7997   -0.7828 H   0  0  0  0  0  0  0  0  0  0  0  0
    0.7178   -0.4029   -1.0665 H   0  0  0  0  0  0  0  0  0  0  0  0
    0.9089    0.2945    1.8222 H   0  0  0  0  0  0  0  0  0  0  0  0
   -1.8852   -2.6166   -1.8700 H   0  0  0  0  0  0  0  0  0  0  0  0
   -0.9277   -1.1557   -1.8715 H   0  0  0  0  0  0  0  0  0  0  0  0
    2.8720   -0.8676    1.0419 H   0  0  0  0  0  0  0  0  0  0  0  0
    2.9273   -1.4537   -0.6090 H   0  0  0  0  0  0  0  0  0  0  0  0
   -1.0700   -3.3323    0.1560 H   0  0  0  0  0  0  0  0  0  0  0  0
    2.8423    0.8957   -1.4588 H   0  0  0  0  0  0  0  0  0  0  0  0
    2.7724    1.4944    0.2190 H   0  0  0  0  0  0  0  0  0  0  0  0
    6.1667    1.8478   -0.6217 H   0  0  0  0  0  0  0  0  0  0  0  0
  1 13  2  0  0  0  0
  2 15  2  0  0  0  0
  3 18  2  0  0  0  0
  4 20  1  0  0  0  0
  4 37  1  0  0  0  0
  5 20  2  0  0  0  0
  6  9  1  0  0  0  0
  6 12  1  0  0  0  0
  6 15  1  0  0  0  0
  7 13  1  0  0  0  0
  7 14  1  0  0  0  0
  7 29  1  0  0  0  0
  8 16  1  0  0  0  0
  8 18  1  0  0  0  0
  8 34  1  0  0  0  0
  9 10  1  0  0  0  0
  9 13  1  0  0  0  0
  9 21  1  0  0  0  0
 10 11  1  0  0  0  0
 10 22  1  0  0  0  0
 10 23  1  0  0  0  0
 11 12  1  0  0  0  0
 11 24  1  0  0  0  0
 11 25  1  0  0  0  0
 12 26  1  0  0  0  0
 12 27  1  0  0  0  0
 14 17  1  0  0  0  0
 14 18  1  0  0  0  0
 14 28  1  0  0  0  0
 15 16  1  0  0  0  0
 16 30  1  0  0  0  0
 16 31  1  0  0  0  0
 17 19  1  0  0  0  0
 17 32  1  0  0  0  0
 17 33  1  0  0  0  0
 19 20  1  0  0  0  0
 19 35  1  0  0  0  0
 19 36  1  0  0  0  0
M  END
> <PUBCHEM_COMPOUND_CID>
11277548

> <PUBCHEM_CONFORMER_RMSD>
0.6

> <PUBCHEM_CONFORMER_DIVERSEORDER>
2
7
28
24
29
17
19
34
15
18
26
22
31
27
9
11
8
4
32
6
21
14
20
25
16
12
1
3
30
10
5
13
33
23

> <PUBCHEM_MMFF94_PARTIAL_CHARGES>
20
1 -0.57
12 0.3
13 0.57
14 0.36
15 0.57
16 0.36
18 0.57
19 0.06
2 -0.57
20 0.66
29 0.37
3 -0.57
34 0.37
37 0.5
4 -0.65
5 -0.57
6 -0.66
7 -0.73
8 -0.73
9 0.36

> <PUBCHEM_EFFECTIVE_ROTOR_COUNT>
4.4

> <PUBCHEM_PHARMACOPHORE_FEATURES>
9
1 1 acceptor
1 2 acceptor
1 3 acceptor
1 4 acceptor
1 5 acceptor
1 7 donor
1 8 donor
3 4 5 20 anion
5 6 9 10 11 12 rings

> <PUBCHEM_HEAVY_ATOM_COUNT>
20

> <PUBCHEM_ATOM_DEF_STEREO_COUNT>
2

> <PUBCHEM_ATOM_UDEF_STEREO_COUNT>
0

> <PUBCHEM_BOND_DEF_STEREO_COUNT>
0

> <PUBCHEM_BOND_UDEF_STEREO_COUNT>
0

> <PUBCHEM_ISOTOPIC_ATOM_COUNT>
0

> <PUBCHEM_COMPONENT_COUNT>
1

> <PUBCHEM_CACTVS_TAUTO_COUNT>
4

> <PUBCHEM_CONFORMER_ID>
00AC14EC00000002

> <PUBCHEM_MMFF94_ENERGY>
62.6436

> <PUBCHEM_FEATURE_SELFOVERLAP>
45.731

> <PUBCHEM_SHAPE_FINGERPRINT>
10493431 412 18341903935558963921
10759866 29 18336260128871405403
12011746 2 18343292696286040351
121448 382 18410575102212369578
12173636 292 18341041917973328357
12403814 3 18114461171960690253
14142880 1 18260546723243299109
14251751 93 18411696569628384710
14251757 17 17774430685679297944
14790565 3 18056770827549087049
15775835 57 18337111163745325028
16945 1 18337657617362378009
20645476 183 18339355258714663989
20871999 31 18272646874439730741
21501502 16 18194669390055724071
21524375 3 18337394851152367538
23227448 37 18411140272574426588
23402539 116 18413103966361444204
23419403 2 16772379841260915122
23557571 272 18059303157493189038
23559900 14 18059573526217598638
2748010 2 17692506220343778839
353137 74 18410853265431827366
394222 165 18118963598687267723
4340502 62 17459201698644485601
474 4 17967257472812343604
559249 180 18338794521334564398
58051976 378 18340483365965911908
9981440 41 18336825403193561514

> <PUBCHEM_SHAPE_MULTIPOLES>
367.3
8.3
2.95
1.05
10.85
0.61
-0.25
-4.11
1.81
-1.62
-0.03
-0.17
-0.03
-0.91

> <PUBCHEM_SHAPE_SELFOVERLAP>
758.991

> <PUBCHEM_SHAPE_VOLUME>
206.9

> <PUBCHEM_COORDINATE_TYPE>
2
5
10

$$$$
