REMARK  Name = 1127738
REMARK  5 active torsions:
REMARK  status: ('A' for Active; 'I' for Inactive)
REMARK    1  A    between atoms: C_5  and  C_20
REMARK    2  A    between atoms: C_7  and  C_13
REMARK    3  A    between atoms: C_10  and  C_23
REMARK    4  A    between atoms: N_22  and  C_25
REMARK    5  A    between atoms: C_25  and  C_27
REMARK                            x       y       z     vdW  Elec       q    Type
REMARK                         _______ _______ _______ _____ _____    ______ ____
ROOT
ATOM      1 CL   UNL     1      -1.383   2.127   0.082  0.00  0.00    -0.078 Cl
ATOM      2  N   UNL     1       0.930  -0.942   0.367  0.00  0.00    -0.230 N 
ATOM      3  N   UNL     1       1.853   1.238   0.320  0.00  0.00    -0.313 N 
ATOM      4  N   UNL     1      -0.238  -1.611   0.387  0.00  0.00    -0.162 NA
ATOM      5  C   UNL     1       2.211  -1.630   0.483  0.00  0.00    +0.203 C 
ATOM      6  C   UNL     1       3.337  -0.701  -0.010  0.00  0.00    +0.061 C 
ATOM      7  C   UNL     1       3.193   0.714   0.596  0.00  0.00    +0.131 C 
ATOM      8  C   UNL     1       0.782   0.418   0.300  0.00  0.00    +0.138 A 
ATOM      9  C   UNL     1      -0.570   0.647   0.213  0.00  0.00    +0.112 A 
ATOM     10  C   UNL     1      -1.147  -0.637   0.275  0.00  0.00    +0.167 A 
ATOM     11  H   UNL     1       1.733   2.199   0.146  0.00  0.00    +0.149 HD
ENDROOT
BRANCH   7  13
ATOM     12  O   UNL     1       5.455   1.574   0.859  0.00  0.00    -0.453 OA
ATOM     13  C   UNL     1       4.324   1.611   0.119  0.00  0.00    +0.141 C 
ATOM     14  C   UNL     1       4.440   2.474  -0.933  0.00  0.00    +0.038 C 
ATOM     15  C   UNL     1       5.744   3.016  -0.841  0.00  0.00    +0.043 C 
ATOM     16  C   UNL     1       6.321   2.437   0.266  0.00  0.00    +0.179 C 
ENDBRANCH   7  13
BRANCH   5  20
ATOM     17  F   UNL     1       1.268  -3.760   0.153  0.00  0.00    -0.168 F 
ATOM     18  F   UNL     1       2.098  -2.739  -1.589  0.00  0.00    -0.168 F 
ATOM     19  F   UNL     1       3.431  -3.565  -0.069  0.00  0.00    -0.168 F 
ATOM     20  C   UNL     1       2.253  -2.957  -0.275  0.00  0.00    +0.418 C 
ENDBRANCH   5  20
BRANCH  10  23
ATOM     21  O   UNL     1      -3.107  -1.593   1.168  0.00  0.00    -0.268 OA
ATOM     22  N   UNL     1      -3.264  -0.574  -0.894  0.00  0.00    -0.295 N 
ATOM     23  C   UNL     1      -2.541  -0.983   0.238  0.00  0.00    +0.266 C 
ATOM     24  H   UNL     1      -2.783  -0.095  -1.608  0.00  0.00    +0.150 HD
BRANCH  22  25
ATOM     25  C   UNL     1      -4.677  -0.821  -1.065  0.00  0.00    +0.123 C 
BRANCH  25  27
ATOM     26  S   UNL     1      -6.553   0.080   0.748  0.00  0.00    -0.089 S 
ATOM     27  C   UNL     1      -5.457   0.341  -0.530  0.00  0.00    +0.027 C 
ATOM     28  C   UNL     1      -5.412   1.642  -0.943  0.00  0.00    +0.004 C 
ATOM     29  C   UNL     1      -6.304   2.459  -0.189  0.00  0.00    +0.007 C 
ATOM     30  C   UNL     1      -6.987   1.736   0.764  0.00  0.00    +0.035 C 
ENDBRANCH  25  27
ENDBRANCH  22  25
ENDBRANCH  10  23
TORSDOF 5
