REMARK  Name = 11277548
REMARK  4 active torsions:
REMARK  status: ('A' for Active; 'I' for Inactive)
REMARK    1  A    between atoms: CA_12  and  CB_18
REMARK    2  A    between atoms: CB_18  and  CG_19
REMARK    3  A    between atoms: CG_19  and  CD_21
REMARK    4  A    between atoms: CD_21  and  OE1_22
REMARK                            x       y       z     vdW  Elec       q    Type
REMARK                         _______ _______ _______ _____ _____    ______ ____
ROOT
ATOM      1  O   PRO A   1      -1.047   1.704   1.822  0.00  0.00    -0.273 OA
ATOM      2  O   GLY A   3      -3.675  -1.823  -0.268  0.00  0.00    -0.273 OA
ATOM      3  O   GLU A   2       0.988  -2.648   1.297  0.00  0.00    -0.273 OA
ATOM      4  N   PRO A   1      -2.613   0.219  -0.339  0.00  0.00    -0.272 N 
ATOM      5  N   GLU A   2       0.456   0.287   0.913  0.00  0.00    -0.297 N 
ATOM      6  N   GLY A   3      -0.714  -2.447  -0.192  0.00  0.00    -0.295 N 
ATOM      7  CA  PRO A   1      -1.458   1.109  -0.485  0.00  0.00    +0.152 C 
ATOM      8  CB  PRO A   1      -2.102   2.481  -0.712  0.00  0.00    +0.031 C 
ATOM      9  CG  PRO A   1      -3.404   2.426   0.083  0.00  0.00    +0.024 C 
ATOM     10  CD  PRO A   1      -3.818   0.966   0.006  0.00  0.00    +0.094 C 
ATOM     11  C   PRO A   1      -0.665   1.078   0.827  0.00  0.00    +0.241 C 
ATOM     12  CA  GLU A   2       1.008  -0.657  -0.051  0.00  0.00    +0.149 C 
ATOM     13  C   GLY A   3      -2.692  -1.142  -0.579  0.00  0.00    +0.246 C 
ATOM     14  CA  GLY A   3      -1.503  -1.815  -1.228  0.00  0.00    +0.176 C 
ATOM     15  C   GLU A   2       0.455  -2.006   0.387  0.00  0.00    +0.241 C 
ATOM     16  H   GLU A   2       0.962   0.371   1.753  0.00  0.00    +0.150 HD
ATOM     17  H   GLY A   3      -1.058  -3.307   0.142  0.00  0.00    +0.150 HD
ENDROOT
BRANCH  12  18
ATOM     18  CB  GLU A   2       2.533  -0.645   0.021  0.00  0.00    +0.041 C 
BRANCH  18  19
ATOM     19  CG  GLU A   2       3.130   0.682  -0.423  0.00  0.00    +0.112 C 
BRANCH  19  21
ATOM     20  OE2 GLU A   2       5.299  -0.316  -0.065  0.00  0.00    -0.250 OA
ATOM     21  CD  GLU A   2       4.636   0.674  -0.351  0.00  0.00    +0.314 C 
BRANCH  21  22
ATOM     22  OE1 GLU A   2       5.187   1.873  -0.662  0.00  0.00    -0.480 OA
ATOM     23  HE1 GLU A   2       4.636   2.600  -0.873  0.00  0.00    +0.295 HD
ENDBRANCH  21  22
ENDBRANCH  19  21
ENDBRANCH  18  19
ENDBRANCH  12  18
TORSDOF 4
