1127738
  -OEChem-03292013313D

 42 45  0     1  0  0  0  0  0999 V2000
   -1.3831    2.1269    0.0821 Cl  0  0  0  0  0  0  0  0  0  0  0  0
   -6.5525    0.0796    0.7478 S   0  0  0  0  0  0  0  0  0  0  0  0
    1.2677   -3.7602    0.1533 F   0  0  0  0  0  0  0  0  0  0  0  0
    2.0982   -2.7394   -1.5888 F   0  0  0  0  0  0  0  0  0  0  0  0
    3.4307   -3.5646   -0.0690 F   0  0  0  0  0  0  0  0  0  0  0  0
    5.4550    1.5739    0.8591 O   0  0  0  0  0  0  0  0  0  0  0  0
   -3.1070   -1.5931    1.1679 O   0  0  0  0  0  0  0  0  0  0  0  0
    0.9303   -0.9415    0.3672 N   0  0  0  0  0  0  0  0  0  0  0  0
    1.8532    1.2378    0.3195 N   0  0  0  0  0  0  0  0  0  0  0  0
   -0.2378   -1.6105    0.3870 N   0  0  0  0  0  0  0  0  0  0  0  0
   -3.2636   -0.5743   -0.8944 N   0  0  0  0  0  0  0  0  0  0  0  0
    2.2108   -1.6296    0.4833 C   0  0  2  0  0  0  0  0  0  0  0  0
    3.3372   -0.7011   -0.0096 C   0  0  0  0  0  0  0  0  0  0  0  0
    3.1931    0.7137    0.5963 C   0  0  1  0  0  0  0  0  0  0  0  0
    0.7817    0.4181    0.3001 C   0  0  0  0  0  0  0  0  0  0  0  0
    2.2528   -2.9569   -0.2745 C   0  0  0  0  0  0  0  0  0  0  0  0
    4.3241    1.6112    0.1190 C   0  0  0  0  0  0  0  0  0  0  0  0
   -0.5697    0.6475    0.2128 C   0  0  0  0  0  0  0  0  0  0  0  0
   -1.1466   -0.6371    0.2746 C   0  0  0  0  0  0  0  0  0  0  0  0
    4.4400    2.4735   -0.9329 C   0  0  0  0  0  0  0  0  0  0  0  0
   -2.5407   -0.9834    0.2381 C   0  0  0  0  0  0  0  0  0  0  0  0
    5.7441    3.0156   -0.8409 C   0  0  0  0  0  0  0  0  0  0  0  0
    6.3210    2.4367    0.2656 C   0  0  0  0  0  0  0  0  0  0  0  0
   -4.6774   -0.8208   -1.0654 C   0  0  0  0  0  0  0  0  0  0  0  0
   -5.4575    0.3411   -0.5302 C   0  0  0  0  0  0  0  0  0  0  0  0
   -5.4125    1.6424   -0.9430 C   0  0  0  0  0  0  0  0  0  0  0  0
   -6.3043    2.4587   -0.1891 C   0  0  0  0  0  0  0  0  0  0  0  0
   -6.9871    1.7357    0.7641 C   0  0  0  0  0  0  0  0  0  0  0  0
    2.3389   -1.8230    1.5559 H   0  0  0  0  0  0  0  0  0  0  0  0
    3.3089   -0.6278   -1.1062 H   0  0  0  0  0  0  0  0  0  0  0  0
    4.3135   -1.1289    0.2516 H   0  0  0  0  0  0  0  0  0  0  0  0
    3.2875    0.6303    1.6881 H   0  0  0  0  0  0  0  0  0  0  0  0
    1.7402    2.2478    0.3012 H   0  0  0  0  0  0  0  0  0  0  0  0
    3.6896    2.6923   -1.6789 H   0  0  0  0  0  0  0  0  0  0  0  0
    6.2059    3.7375   -1.4987 H   0  0  0  0  0  0  0  0  0  0  0  0
    7.2880    2.5275    0.7384 H   0  0  0  0  0  0  0  0  0  0  0  0
   -2.7790   -0.0647   -1.6281 H   0  0  0  0  0  0  0  0  0  0  0  0
   -4.9430   -1.7663   -0.5806 H   0  0  0  0  0  0  0  0  0  0  0  0
   -4.8625   -0.9290   -2.1397 H   0  0  0  0  0  0  0  0  0  0  0  0
   -4.7794    2.0058   -1.7423 H   0  0  0  0  0  0  0  0  0  0  0  0
   -6.4383    3.5222   -0.3384 H   0  0  0  0  0  0  0  0  0  0  0  0
   -7.7203    2.1009    1.4693 H   0  0  0  0  0  0  0  0  0  0  0  0
  1 18  1  0  0  0  0
  2 25  1  0  0  0  0
  2 28  1  0  0  0  0
  3 16  1  0  0  0  0
  4 16  1  0  0  0  0
  5 16  1  0  0  0  0
  6 17  1  0  0  0  0
  6 23  1  0  0  0  0
  7 21  2  0  0  0  0
  8 10  1  0  0  0  0
  8 12  1  0  0  0  0
  8 15  1  0  0  0  0
  9 14  1  0  0  0  0
  9 15  1  0  0  0  0
  9 33  1  0  0  0  0
 10 19  2  0  0  0  0
 11 21  1  0  0  0  0
 11 24  1  0  0  0  0
 11 37  1  0  0  0  0
 12 13  1  0  0  0  0
 12 16  1  0  0  0  0
 12 29  1  0  0  0  0
 13 14  1  0  0  0  0
 13 30  1  0  0  0  0
 13 31  1  0  0  0  0
 14 17  1  0  0  0  0
 14 32  1  0  0  0  0
 15 18  2  0  0  0  0
 17 20  2  0  0  0  0
 18 19  1  0  0  0  0
 19 21  1  0  0  0  0
 20 22  1  0  0  0  0
 20 34  1  0  0  0  0
 22 23  2  0  0  0  0
 22 35  1  0  0  0  0
 23 36  1  0  0  0  0
 24 25  1  0  0  0  0
 24 38  1  0  0  0  0
 24 39  1  0  0  0  0
 25 26  2  0  0  0  0
 26 27  1  0  0  0  0
 26 40  1  0  0  0  0
 27 28  2  0  0  0  0
 27 41  1  0  0  0  0
 28 42  1  0  0  0  0
M  END
> <PUBCHEM_COMPOUND_CID>
1127738

> <PUBCHEM_CONFORMER_RMSD>
0.8

> <PUBCHEM_CONFORMER_DIVERSEORDER>
1
50
41
44
32
11
51
20
23
10
64
45
68
48
53
2
33
69
52
40
35
15
28
59
37
66
8
60
54
31
57
29
3
56
19
36
38
25
39
46
58
16
30
17
62
6
65
5
26
55
49
13
43
14
34
12
7
24
9
67
42
63
18
47
21
22
70
4
27
61

> <PUBCHEM_MMFF94_PARTIAL_CHARGES>
35
1 -0.12
10 -0.71
11 -0.73
12 0.26
14 0.55
15 -0.07
16 1.02
17 -0.04
18 0.12
19 0.2
2 -0.08
20 -0.15
21 0.72
22 -0.15
23 -0.01
24 0.48
25 -0.14
26 -0.15
27 -0.15
28 -0.11
3 -0.34
33 0.4
34 0.15
35 0.15
36 0.15
37 0.37
4 -0.34
40 0.15
41 0.15
42 0.15
5 -0.34
6 -0.28
7 -0.57
8 0.31
9 -0.85

> <PUBCHEM_EFFECTIVE_ROTOR_COUNT>
6.8

> <PUBCHEM_PHARMACOPHORE_FEATURES>
10
1 10 acceptor
1 11 donor
1 6 acceptor
1 7 acceptor
1 9 cation
1 9 donor
5 2 25 26 27 28 rings
5 6 17 20 22 23 rings
5 8 10 15 18 19 rings
6 8 9 12 13 14 15 rings

> <PUBCHEM_HEAVY_ATOM_COUNT>
28

> <PUBCHEM_ATOM_DEF_STEREO_COUNT>
2

> <PUBCHEM_ATOM_UDEF_STEREO_COUNT>
0

> <PUBCHEM_BOND_DEF_STEREO_COUNT>
0

> <PUBCHEM_BOND_UDEF_STEREO_COUNT>
0

> <PUBCHEM_ISOTOPIC_ATOM_COUNT>
0

> <PUBCHEM_COMPONENT_COUNT>
1

> <PUBCHEM_CACTVS_TAUTO_COUNT>
6

> <PUBCHEM_CONFORMER_ID>
0011353A00000001

> <PUBCHEM_MMFF94_ENERGY>
36.4753

> <PUBCHEM_FEATURE_SELFOVERLAP>
50.862

> <PUBCHEM_SHAPE_FINGERPRINT>
10 15 17749110023929561769
10369192 42 18262237853683802692
10411042 1 17834113048962064906
10554248 39 17987225635260890141
10595046 47 18341887507577926279
10675989 125 18264488373818480411
10721379 63 18270408174724938126
10906281 52 18334020522443428280
11135926 11 18411125944363034580
12293681 160 17988365965598412328
12422481 6 17167853205620511564
12730499 353 18410016528572075258
12788726 201 17274826801280094769
13540713 4 18262820534622588170
14118638 360 18272927250764741303
14790565 3 18193559093148409084
15081414 286 18335420145380809629
15439362 3 18410576193661752046
15840311 113 18263649460054706061
17844677 252 18266181639453568695
17980427 23 17386568114536391806
18335252 98 18337113467013970795
18608769 82 18263648532283332171
20554085 129 17917135200742600352
20715895 44 18336264634919911212
21033648 29 18197769115256598968
21315759 148 17967827011857377715
22149856 69 18263384542134450937
22393880 68 17416956404230777167
23559900 14 18269826541088811787
23569914 152 17126221061223556701
3411729 13 18335137587882040002
34934 24 18412541037445230083
350125 39 18409443649197467562
4058900 60 18334580165635976746
4073 2 18334016112424807507
4340502 62 16443338793352877360
5104073 3 17894910724549245715
59755656 215 18409450271858053836
6328613 192 18342739598882574961
7970288 3 9655035341512839116
8272917 22 18341611494971492950

> <PUBCHEM_SHAPE_MULTIPOLES>
528.46
17.11
3.89
0.99
13.29
2.19
-0.15
-15.48
-0.12
-4.97
-0.62
0.34
0.02
-0.07

> <PUBCHEM_SHAPE_SELFOVERLAP>
1135.12

> <PUBCHEM_SHAPE_VOLUME>
295.5

> <PUBCHEM_COORDINATE_TYPE>
2
5
10

$$$$
