11289630
  -OEChem-03292013303D

 34 35  0     0  0  0  0  0  0999 V2000
    3.6180    0.3170    0.5345 S   0  0  0  0  0  0  0  0  0  0  0  0
   -3.7586   -0.0449    0.1268 P   0  0  0  0  0  0  0  0  0  0  0  0
   -1.0167   -0.1818    0.1980 O   0  0  0  0  0  0  0  0  0  0  0  0
   -4.4371    0.0364   -1.3501 O   0  0  0  0  0  0  0  0  0  0  0  0
   -3.5195    1.5319    0.4501 O   0  0  0  0  0  0  0  0  0  0  0  0
   -4.6467   -0.7239    1.1434 O   0  0  0  0  0  0  0  0  0  0  0  0
    2.3352   -1.8177   -0.1583 N   0  0  0  0  0  0  0  0  0  0  0  0
    4.6902   -2.0255   -0.1264 N   0  0  0  0  0  0  0  0  0  0  0  0
    0.9802    2.5708   -0.3741 C   0  0  0  0  0  0  0  0  0  0  0  0
    1.2113    1.6469    0.8380 C   0  0  0  0  0  0  0  0  0  0  0  0
    1.9204    0.3620    0.4799 C   0  0  0  0  0  0  0  0  0  0  0  0
    1.4007   -0.8339    0.0998 C   0  0  0  0  0  0  0  0  0  0  0  0
    2.2919    2.9706   -1.0549 C   0  0  0  0  0  0  0  0  0  0  0  0
    0.2285    3.8284    0.0699 C   0  0  0  0  0  0  0  0  0  0  0  0
   -0.0444   -1.1001   -0.0381 C   0  0  0  0  0  0  0  0  0  0  0  0
   -0.5936   -2.3008   -0.4208 C   0  0  0  0  0  0  0  0  0  0  0  0
    3.5374   -1.3238    0.0384 C   0  0  0  0  0  0  0  0  0  0  0  0
   -2.2020   -0.8033   -0.0365 C   0  0  0  0  0  0  0  0  0  0  0  0
   -1.9956   -2.1082   -0.4198 C   0  0  0  0  0  0  0  0  0  0  0  0
    0.3591    2.0487   -1.1131 H   0  0  0  0  0  0  0  0  0  0  0  0
    0.2637    1.4351    1.3438 H   0  0  0  0  0  0  0  0  0  0  0  0
    1.8052    2.1862    1.5901 H   0  0  0  0  0  0  0  0  0  0  0  0
    2.1105    3.7454   -1.8087 H   0  0  0  0  0  0  0  0  0  0  0  0
    3.0138    3.3734   -0.3367 H   0  0  0  0  0  0  0  0  0  0  0  0
    2.7455    2.1287   -1.5854 H   0  0  0  0  0  0  0  0  0  0  0  0
   -0.7285    3.5648    0.5327 H   0  0  0  0  0  0  0  0  0  0  0  0
    0.8107    4.4046    0.7970 H   0  0  0  0  0  0  0  0  0  0  0  0
    0.0156    4.4780   -0.7857 H   0  0  0  0  0  0  0  0  0  0  0  0
   -0.0637   -3.2091   -0.6721 H   0  0  0  0  0  0  0  0  0  0  0  0
   -2.7586   -2.8319   -0.6683 H   0  0  0  0  0  0  0  0  0  0  0  0
    4.6872   -2.9972   -0.4187 H   0  0  0  0  0  0  0  0  0  0  0  0
    5.5995   -1.6055    0.0360 H   0  0  0  0  0  0  0  0  0  0  0  0
   -5.3624    0.3534   -1.4246 H   0  0  0  0  0  0  0  0  0  0  0  0
   -4.2967    2.0901    0.6656 H   0  0  0  0  0  0  0  0  0  0  0  0
  1 11  1  0  0  0  0
  1 17  1  0  0  0  0
  2  4  1  0  0  0  0
  2  5  1  0  0  0  0
  2  6  2  0  0  0  0
  2 18  1  0  0  0  0
  3 15  1  0  0  0  0
  3 18  1  0  0  0  0
  4 33  1  0  0  0  0
  5 34  1  0  0  0  0
  7 12  1  0  0  0  0
  7 17  2  0  0  0  0
  8 17  1  0  0  0  0
  8 31  1  0  0  0  0
  8 32  1  0  0  0  0
  9 10  1  0  0  0  0
  9 13  1  0  0  0  0
  9 14  1  0  0  0  0
  9 20  1  0  0  0  0
 10 11  1  0  0  0  0
 10 21  1  0  0  0  0
 10 22  1  0  0  0  0
 11 12  2  0  0  0  0
 12 15  1  0  0  0  0
 13 23  1  0  0  0  0
 13 24  1  0  0  0  0
 13 25  1  0  0  0  0
 14 26  1  0  0  0  0
 14 27  1  0  0  0  0
 14 28  1  0  0  0  0
 15 16  2  0  0  0  0
 16 19  1  0  0  0  0
 16 29  1  0  0  0  0
 18 19  2  0  0  0  0
 19 30  1  0  0  0  0
M  END
> <PUBCHEM_COMPOUND_CID>
11289630

> <PUBCHEM_CONFORMER_RMSD>
0.6

> <PUBCHEM_CONFORMER_DIVERSEORDER>
1
14
22
2
10
21
16
8
19
20
23
12
15
13
5
11
17
7
9
6
4
18
3

> <PUBCHEM_MMFF94_PARTIAL_CHARGES>
22
1 -0.08
10 0.18
11 -0.14
12 0.23
15 0.14
16 -0.15
17 0.46
18 -0.05
19 -0.15
2 1.43
29 0.15
3 -0.28
30 0.15
31 0.4
32 0.4
33 0.5
34 0.5
4 -0.77
5 -0.77
6 -0.7
7 -0.57
8 -0.88

> <PUBCHEM_EFFECTIVE_ROTOR_COUNT>
4

> <PUBCHEM_PHARMACOPHORE_FEATURES>
10
1 3 acceptor
1 4 acceptor
1 5 acceptor
1 6 acceptor
1 8 donor
3 7 8 17 cation
3 9 13 14 hydrophobe
4 2 4 5 6 anion
5 1 7 11 12 17 rings
5 3 15 16 18 19 rings

> <PUBCHEM_HEAVY_ATOM_COUNT>
19

> <PUBCHEM_ATOM_DEF_STEREO_COUNT>
0

> <PUBCHEM_ATOM_UDEF_STEREO_COUNT>
0

> <PUBCHEM_BOND_DEF_STEREO_COUNT>
0

> <PUBCHEM_BOND_UDEF_STEREO_COUNT>
0

> <PUBCHEM_ISOTOPIC_ATOM_COUNT>
0

> <PUBCHEM_COMPONENT_COUNT>
1

> <PUBCHEM_CACTVS_TAUTO_COUNT>
2

> <PUBCHEM_CONFORMER_ID>
00AC441E00000001

> <PUBCHEM_MMFF94_ENERGY>
-15.1874

> <PUBCHEM_FEATURE_SELFOVERLAP>
50.785

> <PUBCHEM_SHAPE_FINGERPRINT>
10366900 7 17458344135304042907
104564 63 18123467172660832744
10967382 1 18411698815796183368
116883 192 18340769226626341132
12035759 4 18264795258233619380
12173636 292 17113256101097425964
12403259 226 18334851740955442247
12403260 363 18413103979315086511
12553582 1 18337100182010412506
12788726 201 18190743034186112202
13132413 78 18341894147170097708
13134695 92 17988633112574869776
13140716 1 18195242453992320731
13464514 151 18119539983826021540
13583140 156 17821717348101212283
14022347 108 18334862675974443650
14178342 30 17982148317907183314
14648413 74 18192429899227945266
15042514 8 17760364397476277290
15081414 286 18411985784374013512
15196674 1 18341331110947896609
15442244 35 18412544322894446218
15848700 24 18341885256503191174
16945 1 17979915239586772642
17357779 13 18267286660728281628
20671657 1 18340490096243039369
20681677 76 18261389018365517499
21029758 27 18336836303129071890
21285901 2 17986399893058830422
21501502 16 18123750013352935911
21524375 3 17179106918064120000
22094290 62 18339640147863340211
23402539 116 18129090139360066686
23558518 356 17904468950643876842
23559900 14 18340475772875487827
2748010 2 18195233434824788316
312423 11 18198344159595040031
350125 39 18050288373004702803
5104073 3 18271239516826322314
68521 5 18266744576263761782
6992083 37 18271536320340156722
7164475 11 17912630604008311151
7364860 26 18194682794395336892
74978 22 18339077210905993319
7832392 63 18268991049948624364
81228 2 18195257615849380674
84936 182 17767404947753377824
9971528 1 18343292678589069714
9981440 41 17402037298273009224

> <PUBCHEM_SHAPE_MULTIPOLES>
365.27
7.77
3.67
0.9
4.89
3.16
0.05
-2.32
-0.3
-2.39
0.66
0.32
0.24
-0.34

> <PUBCHEM_SHAPE_SELFOVERLAP>
740.309

> <PUBCHEM_SHAPE_VOLUME>
216.9

> <PUBCHEM_COORDINATE_TYPE>
2
5
10

$$$$
