REMARK  Name = 11280999
REMARK  4 active torsions:
REMARK  status: ('A' for Active; 'I' for Inactive)
REMARK    1  A    between atoms: C_8  and  O_15
REMARK    2  A    between atoms: C_10  and  C_20
REMARK    3  A    between atoms: O_15  and  S_16
REMARK    4  A    between atoms: C_20  and  C_25
REMARK                            x       y       z     vdW  Elec       q    Type
REMARK                         _______ _______ _______ _____ _____    ______ ____
ROOT
ATOM      1  N   UNL     1       1.266  -1.091   0.048  0.00  0.00    -0.283 N 
ATOM      2  N   UNL     1      -1.065  -1.183   0.255  0.00  0.00    -0.308 N 
ATOM      3  N   UNL     1       0.246  -3.017  -0.590  0.00  0.00    -0.242 NA
ATOM      4  C   UNL     1       1.395   0.271   0.514  0.00  0.00    +0.079 C 
ATOM      5  C   UNL     1       2.353  -1.774  -0.605  0.00  0.00    +0.102 C 
ATOM      6  C   UNL     1       3.616  -1.696   0.258  0.00  0.00    +0.050 C 
ATOM      7  C   UNL     1       2.689   0.403   1.337  0.00  0.00    +0.052 C 
ATOM      8  C   UNL     1       3.903  -0.221   0.629  0.00  0.00    +0.151 C 
ATOM      9  C   UNL     1       0.160   0.624   1.360  0.00  0.00    +0.040 C 
ATOM     10  C   UNL     1      -1.132   0.226   0.627  0.00  0.00    +0.079 C 
ATOM     11  C   UNL     1       0.107  -1.806  -0.101  0.00  0.00    +0.181 C 
ATOM     12  C   UNL     1       1.730  -3.174  -0.762  0.00  0.00    +0.148 C 
ATOM     13  C   UNL     1       4.800  -2.354  -0.450  0.00  0.00    +0.004 C 
ATOM     14  H   UNL     1      -1.895  -1.711   0.260  0.00  0.00    +0.149 HD
ENDROOT
BRANCH   8  15
ATOM     15  O   UNL     1       4.191   0.558  -0.530  0.00  0.00    -0.203 OA
BRANCH  15  16
ATOM     16  S   UNL     1       4.564   2.139  -0.368  0.00  0.00    +0.239 S 
ATOM     17  O   UNL     1       4.643   2.674  -1.908  0.00  0.00    -0.116 OA
ATOM     18  O   UNL     1       3.431   2.790   0.263  0.00  0.00    -0.022 OA
ATOM     19  O   UNL     1       5.889   2.255   0.212  0.00  0.00    -0.116 OA
ENDBRANCH  15  16
ENDBRANCH   8  15
BRANCH  10  20
ATOM     20  C   UNL     1      -2.356   0.468   1.501  0.00  0.00    +0.061 C 
BRANCH  20  25
ATOM     21  O   UNL     1      -6.025  -1.825  -0.408  0.00  0.00    -0.252 OA
ATOM     22  O   UNL     1      -5.770   2.739  -1.072  0.00  0.00    -0.270 OA
ATOM     23  N   UNL     1      -4.268  -0.642   0.491  0.00  0.00    -0.271 N 
ATOM     24  N   UNL     1      -5.920   0.453  -0.754  0.00  0.00    -0.236 N 
ATOM     25  C   UNL     1      -3.606   0.545   0.696  0.00  0.00    +0.035 C 
ATOM     26  C   UNL     1      -4.074   1.695   0.192  0.00  0.00    +0.068 C 
ATOM     27  C   UNL     1      -5.445  -0.752  -0.235  0.00  0.00    +0.310 C 
ATOM     28  C   UNL     1      -5.325   1.696  -0.601  0.00  0.00    +0.254 C 
ATOM     29  H   UNL     1      -3.885  -1.461   0.881  0.00  0.00    +0.156 HD
ATOM     30  H   UNL     1      -6.754   0.417  -1.276  0.00  0.00    +0.159 HD
ENDBRANCH  20  25
ENDBRANCH  10  20
TORSDOF 4
