REMARK  Name = 11288
REMARK  6 active torsions:
REMARK  status: ('A' for Active; 'I' for Inactive)
REMARK    1  A    between atoms: C_1  and  C_8
REMARK    2  A    between atoms: C_2  and  C_12
REMARK    3  A    between atoms: C_3  and  C_16
REMARK    4  A    between atoms: C_8  and  O_9
REMARK    5  A    between atoms: C_12  and  O_13
REMARK    6  A    between atoms: C_16  and  O_17
REMARK                            x       y       z     vdW  Elec       q    Type
REMARK                         _______ _______ _______ _____ _____    ______ ____
ROOT
ATOM      1  C   UNL     1       0.000  -0.134  -0.026  0.00  0.00    +0.088 C 
ATOM      2  C   UNL     1       1.208   0.563  -0.067  0.00  0.00    +0.082 C 
ATOM      3  C   UNL     1      -1.208   0.562  -0.068  0.00  0.00    +0.082 C 
ATOM      4  C   UNL     1       1.208   1.955  -0.149  0.00  0.00    +0.007 C 
ATOM      5  C   UNL     1      -1.208   1.955  -0.150  0.00  0.00    +0.007 C 
ATOM      6  C   UNL     1      -0.001   2.651  -0.191  0.00  0.00    +0.000 C 
ENDROOT
BRANCH   1   8
ATOM      7  O   UNL     1       0.001  -2.360  -0.902  0.00  0.00    -0.245 OA
ATOM      8  C   UNL     1       0.000  -1.592   0.061  0.00  0.00    +0.338 C 
BRANCH   8   9
ATOM      9  O   UNL     1       0.001  -2.030   1.347  0.00  0.00    -0.477 OA
ATOM     10  H   UNL     1       0.001  -1.414   2.052  0.00  0.00    +0.295 HD
ENDBRANCH   8   9
ENDBRANCH   1   8
BRANCH   2  12
ATOM     11  O   UNL     1       2.699  -1.266  -0.462  0.00  0.00    -0.245 OA
ATOM     12  C   UNL     1       2.489  -0.132  -0.025  0.00  0.00    +0.338 C 
BRANCH  12  13
ATOM     13  O   UNL     1       3.463   0.615   0.560  0.00  0.00    -0.477 OA
ATOM     14  H   UNL     1       3.267   1.473   0.881  0.00  0.00    +0.295 HD
ENDBRANCH  12  13
ENDBRANCH   2  12
BRANCH   3  16
ATOM     15  O   UNL     1      -2.699  -1.267  -0.463  0.00  0.00    -0.245 OA
ATOM     16  C   UNL     1      -2.489  -0.133  -0.026  0.00  0.00    +0.338 C 
BRANCH  16  17
ATOM     17  O   UNL     1      -3.463   0.613   0.561  0.00  0.00    -0.477 OA
ATOM     18  H   UNL     1      -3.267   1.472   0.882  0.00  0.00    +0.295 HD
ENDBRANCH  16  17
ENDBRANCH   3  16
TORSDOF 6
