11280999
  -OEChem-03292013303D

 48 51  0     1  0  0  0  0  0999 V2000
    4.5641    2.1389   -0.3684 S   0  0  0  0  0  0  0  0  0  0  0  0
    4.1912    0.5577   -0.5301 O   0  0  0  0  0  0  0  0  0  0  0  0
    4.6425    2.6739   -1.9076 O   0  0  0  0  0  0  0  0  0  0  0  0
    3.4314    2.7897    0.2633 O   0  0  0  0  0  0  0  0  0  0  0  0
    5.8887    2.2554    0.2125 O   0  0  0  0  0  0  0  0  0  0  0  0
   -6.0250   -1.8249   -0.4079 O   0  0  0  0  0  0  0  0  0  0  0  0
   -5.7698    2.7390   -1.0717 O   0  0  0  0  0  0  0  0  0  0  0  0
    1.2656   -1.0912    0.0475 N   0  0  0  0  0  0  0  0  0  0  0  0
   -1.0646   -1.1833    0.2552 N   0  0  0  0  0  0  0  0  0  0  0  0
    0.2464   -3.0170   -0.5902 N   0  0  0  0  0  0  0  0  0  0  0  0
   -4.2681   -0.6425    0.4908 N   0  0  0  0  0  0  0  0  0  0  0  0
   -5.9202    0.4528   -0.7539 N   0  0  0  0  0  0  0  0  0  0  0  0
    1.3955    0.2714    0.5144 C   0  0  2  0  0  0  0  0  0  0  0  0
    2.3526   -1.7739   -0.6052 C   0  0  1  0  0  0  0  0  0  0  0  0
    3.6160   -1.6960    0.2581 C   0  0  2  0  0  0  0  0  0  0  0  0
    2.6894    0.4030    1.3372 C   0  0  0  0  0  0  0  0  0  0  0  0
    3.9032   -0.2207    0.6287 C   0  0  2  0  0  0  0  0  0  0  0  0
    0.1604    0.6237    1.3603 C   0  0  0  0  0  0  0  0  0  0  0  0
   -1.1317    0.2261    0.6270 C   0  0  2  0  0  0  0  0  0  0  0  0
    0.1075   -1.8056   -0.1008 C   0  0  0  0  0  0  0  0  0  0  0  0
    1.7297   -3.1738   -0.7625 C   0  0  0  0  0  0  0  0  0  0  0  0
    4.8004   -2.3545   -0.4497 C   0  0  0  0  0  0  0  0  0  0  0  0
   -2.3557    0.4684    1.5014 C   0  0  0  0  0  0  0  0  0  0  0  0
   -3.6057    0.5451    0.6959 C   0  0  0  0  0  0  0  0  0  0  0  0
   -4.0737    1.6949    0.1919 C   0  0  0  0  0  0  0  0  0  0  0  0
   -5.4448   -0.7525   -0.2349 C   0  0  0  0  0  0  0  0  0  0  0  0
   -5.3255    1.6960   -0.6014 C   0  0  0  0  0  0  0  0  0  0  0  0
    1.4352    0.9391   -0.3545 H   0  0  0  0  0  0  0  0  0  0  0  0
    2.5193   -1.3319   -1.5960 H   0  0  0  0  0  0  0  0  0  0  0  0
    3.4434   -2.2423    1.1961 H   0  0  0  0  0  0  0  0  0  0  0  0
    2.8332    1.4028    1.7408 H   0  0  0  0  0  0  0  0  0  0  0  0
    2.5503   -0.1970    2.2511 H   0  0  0  0  0  0  0  0  0  0  0  0
    4.7735   -0.1835    1.2954 H   0  0  0  0  0  0  0  0  0  0  0  0
    0.2054    0.0931    2.3215 H   0  0  0  0  0  0  0  0  0  0  0  0
    0.1594    1.6969    1.5859 H   0  0  0  0  0  0  0  0  0  0  0  0
   -1.1954    0.8210   -0.2936 H   0  0  0  0  0  0  0  0  0  0  0  0
    1.9445   -3.5880   -1.7528 H   0  0  0  0  0  0  0  0  0  0  0  0
    2.0930   -3.8788   -0.0064 H   0  0  0  0  0  0  0  0  0  0  0  0
   -1.9396   -1.6781    0.1120 H   0  0  0  0  0  0  0  0  0  0  0  0
    5.0068   -1.8789   -1.4143 H   0  0  0  0  0  0  0  0  0  0  0  0
    5.7046   -2.2812    0.1636 H   0  0  0  0  0  0  0  0  0  0  0  0
    4.6075   -3.4165   -0.6325 H   0  0  0  0  0  0  0  0  0  0  0  0
   -2.2321    1.4183    2.0400 H   0  0  0  0  0  0  0  0  0  0  0  0
   -2.4435   -0.2981    2.2832 H   0  0  0  0  0  0  0  0  0  0  0  0
   -3.8786   -1.4859    0.9014 H   0  0  0  0  0  0  0  0  0  0  0  0
   -3.5672    2.6418    0.3395 H   0  0  0  0  0  0  0  0  0  0  0  0
    5.1674    2.1103   -2.5232 H   0  0  0  0  0  0  0  0  0  0  0  0
   -6.7810    0.4148   -1.2924 H   0  0  0  0  0  0  0  0  0  0  0  0
  1  2  1  0  0  0  0
  1  3  1  0  0  0  0
  1  4  2  0  0  0  0
  1  5  2  0  0  0  0
  2 17  1  0  0  0  0
  3 47  1  0  0  0  0
  6 26  2  0  0  0  0
  7 27  2  0  0  0  0
  8 13  1  0  0  0  0
  8 14  1  0  0  0  0
  8 20  1  0  0  0  0
  9 19  1  0  0  0  0
  9 20  1  0  0  0  0
  9 39  1  0  0  0  0
 10 20  2  0  0  0  0
 10 21  1  0  0  0  0
 11 24  1  0  0  0  0
 11 26  1  0  0  0  0
 11 45  1  0  0  0  0
 12 26  1  0  0  0  0
 12 27  1  0  0  0  0
 12 48  1  0  0  0  0
 13 16  1  0  0  0  0
 13 18  1  0  0  0  0
 13 28  1  0  0  0  0
 14 15  1  0  0  0  0
 14 21  1  0  0  0  0
 14 29  1  0  0  0  0
 15 17  1  0  0  0  0
 15 22  1  0  0  0  0
 15 30  1  0  0  0  0
 16 17  1  0  0  0  0
 16 31  1  0  0  0  0
 16 32  1  0  0  0  0
 17 33  1  0  0  0  0
 18 19  1  0  0  0  0
 18 34  1  0  0  0  0
 18 35  1  0  0  0  0
 19 23  1  0  0  0  0
 19 36  1  0  0  0  0
 21 37  1  0  0  0  0
 21 38  1  0  0  0  0
 22 40  1  0  0  0  0
 22 41  1  0  0  0  0
 22 42  1  0  0  0  0
 23 24  1  0  0  0  0
 23 43  1  0  0  0  0
 23 44  1  0  0  0  0
 24 25  2  0  0  0  0
 25 27  1  0  0  0  0
 25 46  1  0  0  0  0
M  END
> <PUBCHEM_COMPOUND_CID>
11280999

> <PUBCHEM_CONFORMER_RMSD>
0.8

> <PUBCHEM_CONFORMER_DIVERSEORDER>
1
28
15
20
23
14
25
7
9
21
12
22
2
8
17
26
16
10
18
27
6
11
24
4
5
19
13
3

> <PUBCHEM_MMFF94_PARTIAL_CHARGES>
28
1 1.67
10 -0.7
11 -0.54
12 -0.49
13 0.37
14 0.37
17 0.28
19 0.37
2 -0.46
20 0.55
21 0.25
23 0.14
24 -0.03
25 -0.14
26 0.69
27 0.62
3 -0.68
39 0.4
4 -0.65
45 0.37
46 0.15
47 0.5
48 0.37
5 -0.65
6 -0.57
7 -0.57
8 -0.79
9 -0.82

> <PUBCHEM_EFFECTIVE_ROTOR_COUNT>
5.4

> <PUBCHEM_PHARMACOPHORE_FEATURES>
14
1 11 donor
1 12 donor
1 3 acceptor
1 4 acceptor
1 5 acceptor
1 6 acceptor
1 7 acceptor
1 9 donor
4 1 3 4 5 anion
4 8 9 10 20 cation
5 8 10 14 20 21 rings
6 11 12 24 25 26 27 rings
6 8 13 14 15 16 17 rings
6 8 9 13 18 19 20 rings

> <PUBCHEM_HEAVY_ATOM_COUNT>
27

> <PUBCHEM_ATOM_DEF_STEREO_COUNT>
5

> <PUBCHEM_ATOM_UDEF_STEREO_COUNT>
0

> <PUBCHEM_BOND_DEF_STEREO_COUNT>
0

> <PUBCHEM_BOND_UDEF_STEREO_COUNT>
0

> <PUBCHEM_ISOTOPIC_ATOM_COUNT>
0

> <PUBCHEM_COMPONENT_COUNT>
1

> <PUBCHEM_CACTVS_TAUTO_COUNT>
12

> <PUBCHEM_CONFORMER_ID>
00AC226700000001

> <PUBCHEM_MMFF94_ENERGY>
65.4724

> <PUBCHEM_FEATURE_SELFOVERLAP>
71.366

> <PUBCHEM_SHAPE_FINGERPRINT>
10763959 59 18261116214732274092
11089746 13 17603863382100085736
12403260 363 18269276768453393610
13836976 161 18343302540097959202
14251764 38 18262802839504819949
14528608 73 18412546517707279885
14767858 380 18130503145330509647
15064986 266 18410299099894418675
15537594 2 17560797762783341447
15961568 22 17967533492801488884
16989378 47 16915118226347007390
17844677 252 18337677421314278569
18681886 176 18272365335529491586
21315763 129 18336543811471517785
21709351 56 18340485552257304719
21860390 5 17241057594802515228
22149856 69 18131079234074647915
22393880 68 18339355250505070099
23522609 53 17773060672975007889
23559900 14 18128245702104046363
2838139 119 18187926239402947828
3004659 81 18341046298734312754
328310 1195 18262508204764008917
335352 9 18341618131856202990
34797466 226 18272940405848395525
4073 2 18335423461506850091
4098825 35 18411136897552850017
474 4 18412827971451955226
484989 97 18272097127495936646
5283173 99 18263921030488256417
633830 44 18113894948941405203
6669772 16 17486756739320128328

> <PUBCHEM_SHAPE_MULTIPOLES>
499.38
14.67
3.44
1.16
14.48
0.2
0.01
-6.77
-4.19
-3.34
-1.36
-0.18
-0.49
0.08

> <PUBCHEM_SHAPE_SELFOVERLAP>
1058.229

> <PUBCHEM_SHAPE_VOLUME>
280.8

> <PUBCHEM_COORDINATE_TYPE>
2
5
10

$$$$
