REMARK  Name = 11289630
REMARK  6 active torsions:
REMARK  status: ('A' for Active; 'I' for Inactive)
REMARK    1  A    between atoms: C_4  and  C_20
REMARK    2  A    between atoms: C_5  and  C_10
REMARK    3  A    between atoms: C_12  and  P_14
REMARK    4  A    between atoms: P_14  and  O_16
REMARK    5  A    between atoms: P_14  and  O_18
REMARK    6  A    between atoms: C_20  and  C_21
REMARK                            x       y       z     vdW  Elec       q    Type
REMARK                         _______ _______ _______ _____ _____    ______ ____
ROOT
ATOM      1  S   UNL     1       3.618   0.317   0.534  0.00  0.00    -0.061 S 
ATOM      2  N   UNL     1       2.335  -1.818  -0.158  0.00  0.00    -0.382 NA
ATOM      3  N   UNL     1       4.690  -2.026  -0.126  0.00  0.00    -0.328 N 
ATOM      4  C   UNL     1       1.920   0.362   0.480  0.00  0.00    +0.111 C 
ATOM      5  C   UNL     1       1.401  -0.834   0.100  0.00  0.00    +0.155 C 
ATOM      6  C   UNL     1       3.537  -1.324   0.038  0.00  0.00    +0.204 C 
ATOM      7  H   UNL     1       5.558  -1.592   0.039  0.00  0.00    +0.145 HD
ATOM      8  H   UNL     1       4.657  -2.967  -0.411  0.00  0.00    +0.145 HD
ENDROOT
BRANCH   5  10
ATOM      9  O   UNL     1      -1.017  -0.182   0.198  0.00  0.00    -0.444 OA
ATOM     10  C   UNL     1      -0.044  -1.100  -0.038  0.00  0.00    +0.172 C 
ATOM     11  C   UNL     1      -0.594  -2.301  -0.421  0.00  0.00    +0.043 C 
ATOM     12  C   UNL     1      -2.202  -0.803  -0.036  0.00  0.00    +0.224 C 
ATOM     13  C   UNL     1      -1.996  -2.108  -0.420  0.00  0.00    +0.048 C 
BRANCH  12  14
ATOM     14  P   UNL     1      -3.759  -0.045   0.127  0.00  0.00    +0.393 P 
ATOM     15  O   UNL     1      -4.647  -0.724   1.143  0.00  0.00    -0.250 OA
BRANCH  14  16
ATOM     16  O   UNL     1      -4.437   0.036  -1.350  0.00  0.00    -0.319 OA
ATOM     17  H   UNL     1      -5.309   0.457  -1.283  0.00  0.00    +0.220 HD
ENDBRANCH  14  16
BRANCH  14  18
ATOM     18  O   UNL     1      -3.519   1.532   0.450  0.00  0.00    -0.319 OA
ATOM     19  H   UNL     1      -4.377   1.976   0.545  0.00  0.00    +0.220 HD
ENDBRANCH  14  18
ENDBRANCH  12  14
ENDBRANCH   5  10
BRANCH   4  20
ATOM     20  C   UNL     1       1.211   1.647   0.838  0.00  0.00    +0.018 C 
BRANCH  20  21
ATOM     21  C   UNL     1       0.980   2.571  -0.374  0.00  0.00    +0.001 C 
ATOM     22  C   UNL     1       2.292   2.971  -1.055  0.00  0.00    +0.000 C 
ATOM     23  C   UNL     1       0.229   3.828   0.070  0.00  0.00    +0.000 C 
ENDBRANCH  20  21
ENDBRANCH   4  20
TORSDOF 6
