REMARK  Name = 11290373
REMARK  10 active torsions:
REMARK  status: ('A' for Active; 'I' for Inactive)
REMARK    1  A    between atoms: C_1  and  C_3
REMARK    2  A    between atoms: C_1  and  O_6
REMARK    3  A    between atoms: C_1  and  C_19
REMARK    4  A    between atoms: C_3  and  O_4
REMARK    5  A    between atoms: O_6  and  C_8
REMARK    6  A    between atoms: C_8  and  C_9
REMARK    7  A    between atoms: C_10  and  C_11
REMARK    8  A    between atoms: C_16  and  O_17
REMARK    9  A    between atoms: C_19  and  C_20
REMARK   10  A    between atoms: C_25  and  O_26
REMARK                            x       y       z     vdW  Elec       q    Type
REMARK                         _______ _______ _______ _____ _____    ______ ____
ROOT
ATOM      1  C   UNL     1      -2.065  -1.586  -0.071  0.00  0.00    +0.271 C 
ENDROOT
BRANCH   1   3
ATOM      2  O   UNL     1      -1.067  -3.513  -1.169  0.00  0.00    -0.246 OA
ATOM      3  C   UNL     1      -1.835  -3.062  -0.331  0.00  0.00    +0.355 C 
BRANCH   3   4
ATOM      4  O   UNL     1      -2.574  -3.847   0.495  0.00  0.00    -0.478 OA
ATOM      5  H   UNL     1      -3.150  -3.457   1.122  0.00  0.00    +0.295 HD
ENDBRANCH   3   4
ENDBRANCH   1   3
BRANCH   1   6
ATOM      6  O   UNL     1      -0.826  -0.909  -0.309  0.00  0.00    -0.437 OA
BRANCH   6   8
ATOM      7  O   UNL     1       0.221  -2.232   1.269  0.00  0.00    -0.245 OA
ATOM      8  C   UNL     1       0.228  -1.340   0.435  0.00  0.00    +0.342 C 
BRANCH   8   9
ATOM      9  C   UNL     1       1.406  -0.529   0.054  0.00  0.00    +0.082 C 
ATOM     10  C   UNL     1       2.605  -0.756   0.636  0.00  0.00    +0.007 C 
BRANCH  10  11
ATOM     11  C   UNL     1       3.833  -0.035   0.340  0.00  0.00    +0.000 C 
ATOM     12  C   UNL     1       3.776   1.218  -0.271  0.00  0.00    +0.003 C 
ATOM     13  C   UNL     1       5.067  -0.597   0.665  0.00  0.00    +0.003 C 
ATOM     14  C   UNL     1       4.953   1.909  -0.556  0.00  0.00    +0.037 C 
ATOM     15  C   UNL     1       6.245   0.095   0.380  0.00  0.00    +0.037 C 
ATOM     16  C   UNL     1       6.188   1.347  -0.230  0.00  0.00    +0.134 C 
BRANCH  16  17
ATOM     17  O   UNL     1       7.337   2.022  -0.508  0.00  0.00    -0.506 OA
ATOM     18  H   UNL     1       7.298   2.863  -0.919  0.00  0.00    +0.292 HD
ENDBRANCH  16  17
ENDBRANCH  10  11
ENDBRANCH   8   9
ENDBRANCH   6   8
ENDBRANCH   1   6
BRANCH   1  19
ATOM     19  C   UNL     1      -3.122  -1.026  -1.025  0.00  0.00    +0.082 C 
BRANCH  19  20
ATOM     20  C   UNL     1      -3.681   0.290  -0.540  0.00  0.00    -0.018 C 
ATOM     21  C   UNL     1      -4.795   0.291   0.285  0.00  0.00    -0.001 C 
ATOM     22  C   UNL     1      -3.071   1.471  -0.930  0.00  0.00    -0.001 C 
ATOM     23  C   UNL     1      -5.312   1.507   0.732  0.00  0.00    +0.036 C 
ATOM     24  C   UNL     1      -3.588   2.687  -0.483  0.00  0.00    +0.036 C 
ATOM     25  C   UNL     1      -4.709   2.705   0.348  0.00  0.00    +0.134 C 
BRANCH  25  26
ATOM     26  O   UNL     1      -5.213   3.891   0.786  0.00  0.00    -0.506 OA
ATOM     27  H   UNL     1      -5.966   3.902   1.344  0.00  0.00    +0.292 HD
ENDBRANCH  25  26
ENDBRANCH  19  20
ENDBRANCH   1  19
TORSDOF 10
