REMARK  Name = 11294179
REMARK  7 active torsions:
REMARK  status: ('A' for Active; 'I' for Inactive)
REMARK    1  A    between atoms: C_1  and  C_9
REMARK    2  A    between atoms: C_2  and  C_23
REMARK    3  A    between atoms: N_8  and  C_12
REMARK    4  A    between atoms: C_13  and  C_19
REMARK    5  A    between atoms: N_18  and  O_21
REMARK    6  A    between atoms: C_23  and  N_24
REMARK    7  A    between atoms: C_27  and  C_36
REMARK                            x       y       z     vdW  Elec       q    Type
REMARK                         _______ _______ _______ _____ _____    ______ ____
ROOT
ATOM      1  C   UNL     1       1.016  -0.343   1.746  0.00  0.00    +0.053 C 
ATOM      2  C   UNL     1      -1.740  -0.464   1.708  0.00  0.00    -0.002 C 
ATOM      3  C   UNL     1       0.392  -1.465   2.249  0.00  0.00    +0.004 C 
ATOM      4  C   UNL     1       0.309   0.721   1.224  0.00  0.00    +0.004 C 
ATOM      5  C   UNL     1      -1.002  -1.526   2.229  0.00  0.00    -0.002 C 
ATOM      6  C   UNL     1      -1.084   0.660   1.205  0.00  0.00    -0.002 C 
ENDROOT
BRANCH   1   9
ATOM      7  O   UNL     1       3.117  -0.924   2.609  0.00  0.00    -0.270 OA
ATOM      8  N   UNL     1       3.087   0.518   0.793  0.00  0.00    -0.302 N 
ATOM      9  C   UNL     1       2.500  -0.276   1.768  0.00  0.00    +0.246 C 
ATOM     10  H   UNL     1       2.505   1.000   0.162  0.00  0.00    +0.150 HD
BRANCH   8  12
ATOM     11  O   UNL     1       6.908   1.153  -0.845  0.00  0.00    -0.353 OA
ATOM     12  C   UNL     1       4.515   0.664   0.669  0.00  0.00    +0.085 C 
ATOM     13  C   UNL     1       5.152  -0.424  -0.207  0.00  0.00    +0.126 C 
ATOM     14  C   UNL     1       4.901   2.062   0.183  0.00  0.00    +0.052 C 
ATOM     15  C   UNL     1       6.654  -0.166  -0.353  0.00  0.00    +0.153 C 
ATOM     16  C   UNL     1       6.413   2.168   0.027  0.00  0.00    +0.144 C 
BRANCH  13  19
ATOM     17  O   UNL     1       4.562   0.454  -2.350  0.00  0.00    -0.273 OA
ATOM     18  N   UNL     1       3.982  -1.727  -1.849  0.00  0.00    -0.197 N 
ATOM     19  C   UNL     1       4.537  -0.504  -1.580  0.00  0.00    +0.248 C 
ATOM     20  H   UNL     1       3.990  -2.461  -1.193  0.00  0.00    +0.182 HD
BRANCH  18  21
ATOM     21  O   UNL     1       3.404  -1.868  -3.118  0.00  0.00    -0.295 OA
ATOM     22  H   UNL     1       3.041  -2.763  -3.211  0.00  0.00    +0.241 HD
ENDBRANCH  18  21
ENDBRANCH  13  19
ENDBRANCH   8  12
ENDBRANCH   1   9
BRANCH   2  23
ATOM     23  C   UNL     1      -3.229  -0.530   1.686  0.00  0.00    +0.124 C 
BRANCH  23  24
ATOM     24  N   UNL     1      -3.778  -0.090   0.399  0.00  0.00    -0.253 N 
ATOM     25  N   UNL     1      -4.513  -0.202  -1.674  0.00  0.00    -0.386 NA
ATOM     26  C   UNL     1      -4.123   1.187   0.090  0.00  0.00    +0.080 C 
ATOM     27  C   UNL     1      -4.022  -0.889  -0.668  0.00  0.00    +0.259 C 
ATOM     28  C   UNL     1      -4.584   1.095  -1.221  0.00  0.00    +0.128 C 
ATOM     29  C   UNL     1      -4.080   2.384   0.805  0.00  0.00    +0.017 C 
ATOM     30  C   UNL     1      -5.032   2.257  -1.872  0.00  0.00    +0.086 C 
ATOM     31  C   UNL     1      -4.531   3.530   0.142  0.00  0.00    -0.003 C 
ATOM     32  C   UNL     1      -4.998   3.470  -1.173  0.00  0.00    -0.019 C 
BRANCH  27  36
ATOM     33  F   UNL     1      -4.070  -2.953  -1.839  0.00  0.00    -0.163 F 
ATOM     34  F   UNL     1      -2.442  -2.645  -0.430  0.00  0.00    -0.163 F 
ATOM     35  F   UNL     1      -4.466  -2.989   0.305  0.00  0.00    -0.163 F 
ATOM     36  C   UNL     1      -3.753  -2.342  -0.660  0.00  0.00    +0.460 C 
ENDBRANCH  27  36
ENDBRANCH  23  24
ENDBRANCH   2  23
TORSDOF 7
