REMARK  Name = 11292000
REMARK  6 active torsions:
REMARK  status: ('A' for Active; 'I' for Inactive)
REMARK    1  A    between atoms: C_3  and  O_21
REMARK    2  A    between atoms: C_5  and  O_23
REMARK    3  A    between atoms: C_7  and  O_25
REMARK    4  A    between atoms: C_10  and  O_27
REMARK    5  A    between atoms: C_15  and  O_29
REMARK    6  A    between atoms: C_16  and  O_31
REMARK                            x       y       z     vdW  Elec       q    Type
REMARK                         _______ _______ _______ _____ _____    ______ ____
ROOT
ATOM      1  C   UNL     1      -1.747   0.349   0.382  0.00  0.00    +0.033 C 
ATOM      2  C   UNL     1      -1.185  -1.129   0.522  0.00  0.00    +0.021 C 
ATOM      3  C   UNL     1      -2.245   0.596  -1.063  0.00  0.00    +0.113 C 
ATOM      4  C   UNL     1      -3.436  -0.379  -1.138  0.00  0.00    +0.052 C 
ATOM      5  C   UNL     1       1.625   0.890   0.305  0.00  0.00    +0.121 C 
ATOM      6  C   UNL     1      -3.106   0.410   1.166  0.00  0.00    +0.030 C 
ATOM      7  C   UNL     1      -4.180  -0.127   0.202  0.00  0.00    +0.091 C 
ATOM      8  C   UNL     1      -0.845   1.478   0.956  0.00  0.00    +0.034 C 
ATOM      9  C   UNL     1       1.236  -0.537  -0.169  0.00  0.00    +0.075 C 
ATOM     10  C   UNL     1       0.431   1.860   0.174  0.00  0.00    +0.135 C 
ATOM     11  C   UNL     1       2.902   1.221  -0.554  0.00  0.00    +0.052 C 
ATOM     12  C   UNL     1      -1.544  -2.052  -0.670  0.00  0.00    +0.004 C 
ATOM     13  C   UNL     1       0.313  -1.256   0.791  0.00  0.00    -0.040 C 
ATOM     14  C   UNL     1      -2.907  -1.805  -1.315  0.00  0.00    +0.005 C 
ATOM     15  C   UNL     1       2.546  -1.194  -0.688  0.00  0.00    +0.148 C 
ATOM     16  C   UNL     1       3.653  -0.143  -0.518  0.00  0.00    +0.140 C 
ATOM     17  C   UNL     1      -4.958  -1.300   0.788  0.00  0.00    +0.029 C 
ATOM     18  C   UNL     1       3.772   2.354   0.024  0.00  0.00    +0.005 C 
ATOM     19  C   UNL     1       2.571   1.591  -2.017  0.00  0.00    +0.005 C 
ATOM     20  C   UNL     1       0.745  -1.954   1.856  0.00  0.00    -0.009 C 
ENDROOT
BRANCH   3  21
ATOM     21  O   UNL     1      -2.717   1.924  -1.263  0.00  0.00    -0.384 OA
ATOM     22  H   UNL     1      -1.971   2.543  -1.217  0.00  0.00    +0.210 HD
ENDBRANCH   3  21
BRANCH   5  23
ATOM     23  O   UNL     1       2.049   0.856   1.677  0.00  0.00    -0.384 OA
ATOM     24  H   UNL     1       1.290   0.654   2.246  0.00  0.00    +0.210 HD
ENDBRANCH   5  23
BRANCH   7  25
ATOM     25  O   UNL     1      -5.132   0.923  -0.035  0.00  0.00    -0.387 OA
ATOM     26  H   UNL     1      -4.678   1.693  -0.410  0.00  0.00    +0.210 HD
ENDBRANCH   7  25
BRANCH  10  27
ATOM     27  O   UNL     1       0.837   3.154   0.635  0.00  0.00    -0.382 OA
ATOM     28  H   UNL     1       1.639   3.428   0.165  0.00  0.00    +0.210 HD
ENDBRANCH  10  27
BRANCH  15  29
ATOM     29  O   UNL     1       2.898  -2.434  -0.114  0.00  0.00    -0.351 OA
ATOM     30  C   UNL     1       4.109  -2.939  -0.661  0.00  0.00    +0.174 C 
ENDBRANCH  15  29
BRANCH  16  31
ATOM     31  O   UNL     1       4.312  -0.358   0.728  0.00  0.00    -0.382 OA
ATOM     32  H   UNL     1       5.013   0.303   0.842  0.00  0.00    +0.210 HD
ENDBRANCH  16  31
TORSDOF 6
