REMARK  Name = 11292556
REMARK  10 active torsions:
REMARK  status: ('A' for Active; 'I' for Inactive)
REMARK    1  A    between atoms: C_1  and  O_19
REMARK    2  A    between atoms: C_4  and  C_9
REMARK    3  A    between atoms: C_5  and  O_7
REMARK    4  A    between atoms: C_10  and  C_11
REMARK    5  A    between atoms: C_16  and  O_17
REMARK    6  A    between atoms: O_19  and  C_24
REMARK    7  A    between atoms: C_21  and  O_26
REMARK    8  A    between atoms: C_22  and  O_28
REMARK    9  A    between atoms: C_23  and  O_30
REMARK   10  A    between atoms: O_30  and  C_32
REMARK                            x       y       z     vdW  Elec       q    Type
REMARK                         _______ _______ _______ _____ _____    ______ ____
ROOT
ATOM      1  C   UNL     1      -0.595   2.327   0.453  0.00  0.00    +0.144 C 
ATOM      2  C   UNL     1       0.590   1.598   0.471  0.00  0.00    +0.037 C 
ATOM      3  C   UNL     1      -0.703   3.480  -0.319  0.00  0.00    +0.074 C 
ATOM      4  C   UNL     1       1.678   2.025  -0.291  0.00  0.00    +0.006 C 
ATOM      5  C   UNL     1       0.385   3.907  -1.081  0.00  0.00    +0.137 C 
ATOM      6  C   UNL     1       1.575   3.180  -1.067  0.00  0.00    +0.037 C 
ENDROOT
BRANCH   5   7
ATOM      7  O   UNL     1       0.283   5.033  -1.839  0.00  0.00    -0.505 OA
ATOM      8  H   UNL     1      -0.516   5.522  -1.848  0.00  0.00    +0.292 HD
ENDBRANCH   5   7
BRANCH   4   9
ATOM      9  C   UNL     1       2.919   1.267  -0.277  0.00  0.00    +0.000 C 
ATOM     10  C   UNL     1       3.038  -0.028   0.101  0.00  0.00    +0.000 C 
BRANCH  10  11
ATOM     11  C   UNL     1       4.292  -0.802   0.097  0.00  0.00    +0.000 C 
ATOM     12  C   UNL     1       5.503  -0.131   0.094  0.00  0.00    +0.003 C 
ATOM     13  C   UNL     1       4.234  -2.186   0.099  0.00  0.00    +0.003 C 
ATOM     14  C   UNL     1       6.690  -0.864   0.091  0.00  0.00    +0.037 C 
ATOM     15  C   UNL     1       5.420  -2.919   0.096  0.00  0.00    +0.037 C 
ATOM     16  C   UNL     1       6.649  -2.258   0.092  0.00  0.00    +0.134 C 
BRANCH  16  17
ATOM     17  O   UNL     1       7.806  -2.973   0.090  0.00  0.00    -0.506 OA
ATOM     18  H   UNL     1       8.631  -2.529   0.088  0.00  0.00    +0.292 HD
ENDBRANCH  16  17
ENDBRANCH  10  11
ENDBRANCH   4   9
BRANCH   1  19
ATOM     19  O   UNL     1      -1.661   1.908   1.201  0.00  0.00    -0.450 OA
BRANCH  19  24
ATOM     20  O   UNL     1      -2.602   0.556  -0.454  0.00  0.00    -0.315 OA
ATOM     21  C   UNL     1      -4.069  -0.957   1.504  0.00  0.00    +0.186 C 
ATOM     22  C   UNL     1      -3.356   0.351   1.846  0.00  0.00    +0.212 C 
ATOM     23  C   UNL     1      -4.363  -1.045   0.006  0.00  0.00    +0.227 C 
ATOM     24  C   UNL     1      -2.177   0.611   0.907  0.00  0.00    +0.318 C 
ATOM     25  C   UNL     1      -3.116  -0.724  -0.805  0.00  0.00    +0.192 C 
BRANCH  21  26
ATOM     26  O   UNL     1      -5.295  -0.999   2.234  0.00  0.00    -0.378 OA
ATOM     27  H   UNL     1      -5.108  -0.943   3.184  0.00  0.00    +0.211 HD
ENDBRANCH  21  26
BRANCH  22  28
ATOM     28  O   UNL     1      -2.882   0.267   3.189  0.00  0.00    -0.377 OA
ATOM     29  H   UNL     1      -3.629   0.102   3.786  0.00  0.00    +0.211 HD
ENDBRANCH  22  28
BRANCH  23  30
ATOM     30  O   UNL     1      -4.793  -2.358  -0.334  0.00  0.00    -0.447 OA
BRANCH  30  32
ATOM     31  O   UNL     1      -5.531  -1.720  -2.429  0.00  0.00    -0.250 OA
ATOM     32  C   UNL     1      -5.098  -2.560  -1.652  0.00  0.00    +0.318 C 
ATOM     33  C   UNL     1      -4.821  -3.985  -2.025  0.00  0.00    +0.121 C 
ENDBRANCH  30  32
ENDBRANCH  23  30
ENDBRANCH  19  24
ENDBRANCH   1  19
TORSDOF 10
