REMARK  Name = 11290362
REMARK  9 active torsions:
REMARK  status: ('A' for Active; 'I' for Inactive)
REMARK    1  A    between atoms: CA_1  and  N_3
REMARK    2  A    between atoms: CA_1  and  C_13
REMARK    3  A    between atoms: CA_1  and  C_16
REMARK    4  A    between atoms: C_4  and  C_6
REMARK    5  A    between atoms: C_7  and  C_9
REMARK    6  A    between atoms: C_9  and  O_10
REMARK    7  A    between atoms: C_13  and  O_14
REMARK    8  A    between atoms: C_16  and  C_18
REMARK    9  A    between atoms: C_23  and  O_24
REMARK                            x       y       z     vdW  Elec       q    Type
REMARK                         _______ _______ _______ _____ _____    ______ ____
ROOT
ATOM      1  CA  UNL     1       1.435   2.054  -0.132  0.00  0.00    +0.176 C 
ENDROOT
BRANCH   1   3
ATOM      2  O   UNL     1      -0.691   1.021  -1.790  0.00  0.00    -0.270 OA
ATOM      3  N   UNL     1       0.150   1.560   0.308  0.00  0.00    -0.293 N 
ATOM      4  C   UNL     1      -0.808   1.083  -0.571  0.00  0.00    +0.247 C 
ATOM      5  H   UNL     1      -0.053   1.564   1.271  0.00  0.00    +0.150 HD
BRANCH   4   6
ATOM      6  C   UNL     1      -2.040   0.640   0.140  0.00  0.00    +0.064 C 
ATOM      7  C   UNL     1      -3.070   0.149  -0.560  0.00  0.00    +0.087 C 
BRANCH   7   9
ATOM      8  O   UNL     1      -4.457  -0.246   1.363  0.00  0.00    -0.245 OA
ATOM      9  C   UNL     1      -4.290  -0.289   0.154  0.00  0.00    +0.342 C 
BRANCH   9  10
ATOM     10  O   UNL     1      -5.173  -0.740  -0.778  0.00  0.00    -0.441 OA
ATOM     11  C   UNL     1      -6.423  -1.210  -0.263  0.00  0.00    +0.256 C 
ENDBRANCH   9  10
ENDBRANCH   7   9
ENDBRANCH   4   6
ENDBRANCH   1   3
BRANCH   1  13
ATOM     12  OXT UNL     1       2.558   4.197  -0.172  0.00  0.00    -0.248 OA
ATOM     13  C   UNL     1       1.587   3.536   0.182  0.00  0.00    +0.332 C 
BRANCH  13  14
ATOM     14  O   UNL     1       0.560   4.077   0.880  0.00  0.00    -0.479 OA
ATOM     15  H   UNL     1      -0.167   3.544   1.134  0.00  0.00    +0.295 HD
ENDBRANCH  13  14
ENDBRANCH   1  13
BRANCH   1  16
ATOM     16  C   UNL     1       2.585   1.264   0.505  0.00  0.00    +0.057 C 
BRANCH  16  18
ATOM     17 CL   UNL     1       0.902  -3.459   1.843  0.00  0.00    -0.079 Cl
ATOM     18  C   UNL     1       2.523  -0.214   0.202  0.00  0.00    -0.019 C 
ATOM     19  C   UNL     1       1.827  -1.054   1.056  0.00  0.00    +0.010 C 
ATOM     20  C   UNL     1       3.165  -0.703  -0.925  0.00  0.00    -0.001 C 
ATOM     21  C   UNL     1       1.770  -2.419   0.775  0.00  0.00    +0.091 C 
ATOM     22  C   UNL     1       3.108  -2.067  -1.206  0.00  0.00    +0.037 C 
ATOM     23  C   UNL     1       2.410  -2.926  -0.356  0.00  0.00    +0.144 C 
BRANCH  23  24
ATOM     24  O   UNL     1       2.372  -4.256  -0.655  0.00  0.00    -0.505 OA
ATOM     25  H   UNL     1       1.909  -4.848  -0.096  0.00  0.00    +0.292 HD
ENDBRANCH  23  24
ENDBRANCH  16  18
ENDBRANCH   1  16
TORSDOF 9
