REMARK  Name = 11293291
REMARK  4 active torsions:
REMARK  status: ('A' for Active; 'I' for Inactive)
REMARK    1  A    between atoms: C_17  and  O_25
REMARK    2  A    between atoms: C_18  and  O_27
REMARK    3  A    between atoms: C_19  and  O_29
REMARK    4  A    between atoms: C_20  and  O_31
REMARK                            x       y       z     vdW  Elec       q    Type
REMARK                         _______ _______ _______ _____ _____    ______ ____
ROOT
ATOM      1  S   UNL     1       0.716   0.744   2.518  0.00  0.00    -0.054 S 
ATOM      2  S   UNL     1      -0.713  -0.745   2.515  0.00  0.00    -0.054 S 
ATOM      3  O   UNL     1      -0.465   2.563  -0.295  0.00  0.00    -0.272 OA
ATOM      4  O   UNL     1       0.470  -2.554  -0.302  0.00  0.00    -0.272 OA
ATOM      5  N   UNL     1       1.284  -0.397   0.098  0.00  0.00    -0.264 N 
ATOM      6  N   UNL     1      -1.284   0.408   0.100  0.00  0.00    -0.264 N 
ATOM      7  C   UNL     1       0.988   0.911   0.713  0.00  0.00    +0.178 C 
ATOM      8  C   UNL     1      -0.986  -0.905   0.709  0.00  0.00    +0.178 C 
ATOM      9  C   UNL     1       2.613  -0.407  -0.513  0.00  0.00    +0.106 C 
ATOM     10  C   UNL     1      -2.615   0.419  -0.511  0.00  0.00    +0.106 C 
ATOM     11  C   UNL     1       3.313   0.723   0.255  0.00  0.00    +0.050 C 
ATOM     12  C   UNL     1      -3.309  -0.719   0.254  0.00  0.00    +0.050 C 
ATOM     13  C   UNL     1       2.214   1.777   0.373  0.00  0.00    +0.043 C 
ATOM     14  C   UNL     1      -2.209  -1.772   0.365  0.00  0.00    +0.043 C 
ATOM     15  C   UNL     1      -0.312   1.407   0.081  0.00  0.00    +0.253 C 
ATOM     16  C   UNL     1       0.315  -1.399   0.076  0.00  0.00    +0.253 C 
ATOM     17  C   UNL     1       3.486  -1.663  -0.456  0.00  0.00    +0.129 C 
ATOM     18  C   UNL     1      -3.499   1.667  -0.448  0.00  0.00    +0.129 C 
ATOM     19  C   UNL     1       4.623   1.110  -0.410  0.00  0.00    +0.112 C 
ATOM     20  C   UNL     1      -4.615  -1.116  -0.408  0.00  0.00    +0.112 C 
ATOM     21  C   UNL     1       4.891  -1.352  -1.011  0.00  0.00    +0.033 C 
ATOM     22  C   UNL     1      -4.902   1.341  -1.000  0.00  0.00    +0.033 C 
ATOM     23  C   UNL     1       5.547  -0.114  -0.398  0.00  0.00    +0.032 C 
ATOM     24  C   UNL     1      -5.550   0.099  -0.389  0.00  0.00    +0.032 C 
ENDROOT
BRANCH  17  25
ATOM     25  O   UNL     1       2.941  -2.705  -1.259  0.00  0.00    -0.383 OA
ATOM     26  H   UNL     1       2.053  -2.930  -0.940  0.00  0.00    +0.210 HD
ENDBRANCH  17  25
BRANCH  18  27
ATOM     27  O   UNL     1      -2.989   2.702  -1.282  0.00  0.00    -0.383 OA
ATOM     28  H   UNL     1      -2.101   2.951  -0.982  0.00  0.00    +0.210 HD
ENDBRANCH  18  27
BRANCH  19  29
ATOM     29  O   UNL     1       5.256   2.161   0.308  0.00  0.00    -0.384 OA
ATOM     30  H   UNL     1       4.683   2.943   0.309  0.00  0.00    +0.210 HD
ENDBRANCH  19  29
BRANCH  20  31
ATOM     31  O   UNL     1      -5.208  -2.185   0.318  0.00  0.00    -0.384 OA
ATOM     32  H   UNL     1      -4.615  -2.953   0.305  0.00  0.00    +0.210 HD
ENDBRANCH  20  31
TORSDOF 4
