11292169
  -OEChem-03292013303D

 48 54  0     1  0  0  0  0  0999 V2000
   -0.0128    0.8476    1.7912 O   0  0  0  0  0  0  0  0  0  0  0  0
    0.0130    0.8470   -1.7907 O   0  0  0  0  0  0  0  0  0  0  0  0
    4.8293    0.0788    0.6700 O   0  0  0  0  0  0  0  0  0  0  0  0
   -4.8282    0.0720   -0.6694 O   0  0  0  0  0  0  0  0  0  0  0  0
    2.7028    2.4400   -1.1956 O   0  0  0  0  0  0  0  0  0  0  0  0
   -2.7233    2.4570    1.1859 O   0  0  0  0  0  0  0  0  0  0  0  0
    3.0564   -2.6120   -0.0988 O   0  0  0  0  0  0  0  0  0  0  0  0
   -3.0522   -2.6156    0.0995 O   0  0  0  0  0  0  0  0  0  0  0  0
    0.5375   -1.2778    0.5883 C   0  0  1  0  0  0  0  0  0  0  0  0
   -0.5344   -1.2788   -0.5869 C   0  0  1  0  0  0  0  0  0  0  0  0
    0.5299    1.4210    0.5802 C   0  0  2  0  0  0  0  0  0  0  0  0
   -0.5303    1.4201   -0.5799 C   0  0  2  0  0  0  0  0  0  0  0  0
    1.8380   -0.5946    0.2175 C   0  0  0  0  0  0  0  0  0  0  0  0
   -1.8357   -0.5971   -0.2164 C   0  0  0  0  0  0  0  0  0  0  0  0
    1.8473    0.7516    0.2301 C   0  0  0  0  0  0  0  0  0  0  0  0
   -1.8469    0.7491   -0.2296 C   0  0  0  0  0  0  0  0  0  0  0  0
    0.0637   -0.5885    1.9025 C   0  0  1  0  0  0  0  0  0  0  0  0
   -0.0615   -0.5893   -1.9014 C   0  0  1  0  0  0  0  0  0  0  0  0
    4.2968    0.8625   -0.4081 C   0  0  2  0  0  0  0  0  0  0  0  0
   -4.2966    0.8573    0.4081 C   0  0  2  0  0  0  0  0  0  0  0  0
    3.0418    1.6105   -0.0829 C   0  0  1  0  0  0  0  0  0  0  0  0
   -3.0426    1.6067    0.0824 C   0  0  1  0  0  0  0  0  0  0  0  0
    4.2746   -0.6374   -0.4453 C   0  0  2  0  0  0  0  0  0  0  0  0
   -4.2723   -0.6424    0.4465 C   0  0  2  0  0  0  0  0  0  0  0  0
    3.0495   -1.3879   -0.1055 C   0  0  0  0  0  0  0  0  0  0  0  0
   -3.0463   -1.3916    0.1069 C   0  0  0  0  0  0  0  0  0  0  0  0
    0.9665   -0.9029    3.1005 C   0  0  0  0  0  0  0  0  0  0  0  0
   -0.9641   -0.9053   -3.0992 C   0  0  0  0  0  0  0  0  0  0  0  0
    0.7292   -2.3313    0.8316 H   0  0  0  0  0  0  0  0  0  0  0  0
   -0.7248   -2.3326   -0.8298 H   0  0  0  0  0  0  0  0  0  0  0  0
    0.7226    2.4683    0.8435 H   0  0  0  0  0  0  0  0  0  0  0  0
   -0.7244    2.4671   -0.8434 H   0  0  0  0  0  0  0  0  0  0  0  0
   -0.9339   -0.9480    2.1792 H   0  0  0  0  0  0  0  0  0  0  0  0
    0.9366   -0.9477   -2.1780 H   0  0  0  0  0  0  0  0  0  0  0  0
    5.0071    1.4111   -1.0103 H   0  0  0  0  0  0  0  0  0  0  0  0
   -5.0080    1.4050    1.0098 H   0  0  0  0  0  0  0  0  0  0  0  0
    3.2413    2.2751    0.7650 H   0  0  0  0  0  0  0  0  0  0  0  0
   -3.2448    2.2607   -0.7733 H   0  0  0  0  0  0  0  0  0  0  0  0
    4.9685   -1.1256   -1.1197 H   0  0  0  0  0  0  0  0  0  0  0  0
   -4.9654   -1.1311    1.1214 H   0  0  0  0  0  0  0  0  0  0  0  0
    1.0601   -1.9822    3.2537 H   0  0  0  0  0  0  0  0  0  0  0  0
    1.9670   -0.4731    2.9866 H   0  0  0  0  0  0  0  0  0  0  0  0
    0.5467   -0.4599    4.0107 H   0  0  0  0  0  0  0  0  0  0  0  0
   -0.5449   -0.4622   -4.0095 H   0  0  0  0  0  0  0  0  0  0  0  0
   -1.0563   -1.9848   -3.2519 H   0  0  0  0  0  0  0  0  0  0  0  0
   -1.9650   -0.4768   -2.9852 H   0  0  0  0  0  0  0  0  0  0  0  0
    2.5157    1.8616   -1.9554 H   0  0  0  0  0  0  0  0  0  0  0  0
   -2.5144    1.8908    1.9491 H   0  0  0  0  0  0  0  0  0  0  0  0
  1 11  1  0  0  0  0
  1 17  1  0  0  0  0
  2 12  1  0  0  0  0
  2 18  1  0  0  0  0
  3 19  1  0  0  0  0
  3 23  1  0  0  0  0
  4 20  1  0  0  0  0
  4 24  1  0  0  0  0
  5 21  1  0  0  0  0
  5 47  1  0  0  0  0
  6 22  1  0  0  0  0
  6 48  1  0  0  0  0
  7 25  2  0  0  0  0
  8 26  2  0  0  0  0
  9 10  1  0  0  0  0
  9 13  1  0  0  0  0
  9 17  1  0  0  0  0
  9 29  1  0  0  0  0
 10 14  1  0  0  0  0
 10 18  1  0  0  0  0
 10 30  1  0  0  0  0
 11 12  1  0  0  0  0
 11 15  1  0  0  0  0
 11 31  1  0  0  0  0
 12 16  1  0  0  0  0
 12 32  1  0  0  0  0
 13 15  2  0  0  0  0
 13 25  1  0  0  0  0
 14 16  2  0  0  0  0
 14 26  1  0  0  0  0
 15 21  1  0  0  0  0
 16 22  1  0  0  0  0
 17 27  1  0  0  0  0
 17 33  1  0  0  0  0
 18 28  1  0  0  0  0
 18 34  1  0  0  0  0
 19 21  1  0  0  0  0
 19 23  1  0  0  0  0
 19 35  1  0  0  0  0
 20 22  1  0  0  0  0
 20 24  1  0  0  0  0
 20 36  1  0  0  0  0
 21 37  1  0  0  0  0
 22 38  1  0  0  0  0
 23 25  1  0  0  0  0
 23 39  1  0  0  0  0
 24 26  1  0  0  0  0
 24 40  1  0  0  0  0
 27 41  1  0  0  0  0
 27 42  1  0  0  0  0
 27 43  1  0  0  0  0
 28 44  1  0  0  0  0
 28 45  1  0  0  0  0
 28 46  1  0  0  0  0
M  END
> <PUBCHEM_COMPOUND_CID>
11292169

> <PUBCHEM_CONFORMER_RMSD>
0.6

> <PUBCHEM_CONFORMER_DIVERSEORDER>
1

> <PUBCHEM_MMFF94_PARTIAL_CHARGES>
32
1 -0.56
10 0.14
11 0.42
12 0.42
13 -0.12
14 -0.12
15 -0.28
16 -0.28
17 0.28
18 0.28
19 -0.05
2 -0.56
20 -0.05
21 0.51
22 0.51
23 0.05
24 0.05
25 0.56
26 0.56
3 -0.3
35 0.1
36 0.1
39 0.1
4 -0.3
40 0.1
47 0.4
48 0.4
5 -0.68
6 -0.68
7 -0.57
8 -0.57
9 0.14

> <PUBCHEM_EFFECTIVE_ROTOR_COUNT>
1.6

> <PUBCHEM_PHARMACOPHORE_FEATURES>
14
1 1 acceptor
1 2 acceptor
1 3 acceptor
1 4 acceptor
1 5 acceptor
1 5 donor
1 6 acceptor
1 6 donor
1 7 acceptor
1 8 acceptor
6 1 9 11 13 15 17 rings
6 2 10 12 14 16 18 rings
7 3 13 15 19 21 23 25 rings
7 4 14 16 20 22 24 26 rings

> <PUBCHEM_HEAVY_ATOM_COUNT>
28

> <PUBCHEM_ATOM_DEF_STEREO_COUNT>
12

> <PUBCHEM_ATOM_UDEF_STEREO_COUNT>
0

> <PUBCHEM_BOND_DEF_STEREO_COUNT>
0

> <PUBCHEM_BOND_UDEF_STEREO_COUNT>
0

> <PUBCHEM_ISOTOPIC_ATOM_COUNT>
0

> <PUBCHEM_COMPONENT_COUNT>
1

> <PUBCHEM_CACTVS_TAUTO_COUNT>
3

> <PUBCHEM_CONFORMER_ID>
00AC4E0900000001

> <PUBCHEM_MMFF94_ENERGY>
98.2082

> <PUBCHEM_FEATURE_SELFOVERLAP>
71.106

> <PUBCHEM_SHAPE_FINGERPRINT>
10366900 7 17346311584214212427
10863032 1 18412549811841564411
10948715 1 18410859862475116324
11370993 70 18410575088963938090
11578080 2 16806714071759855709
12011746 2 18342450427234156109
12236239 1 17988925548687576968
12403814 3 17988640834946874821
12467345 10 18409733954057395513
12592029 89 18201167580621080934
12788726 201 15195297404261561674
13224815 77 15647325308330291054
13583140 156 17988077919121122186
13965767 371 17538299332380982429
14251751 93 18335697204803884253
14341114 176 18411991234338891259
14787075 74 17969508284620078857
15209289 33 17894632556380626936
15238133 3 16486427473314157633
15848702 151 18261112945903510974
1601671 61 16199879371026930555
16752209 62 16558478487061371210
16945 1 18410860961981306949
17349148 13 16805611403199254098
1813 80 16950288394530403046
19930381 70 18119249463342567962
20691752 17 16588576634108099850
21267235 1 18410584984562982018
21330990 113 18187651253936828710
23402539 116 16805320002922419874
23419403 2 16664880670822182184
23559900 14 18340769243648305366
3323516 105 18260548909555465722
474 4 17894917385869590684
633830 44 17676485098517214569
70251023 43 16083870934615836059
9981440 41 17328020378994578376

> <PUBCHEM_SHAPE_MULTIPOLES>
529.27
7.76
2.23
1.99
0
0.07
0
0.32
0
0.01
0
0
-0.47
-0.61

> <PUBCHEM_SHAPE_SELFOVERLAP>
1197.589

> <PUBCHEM_SHAPE_VOLUME>
269.5

> <PUBCHEM_COORDINATE_TYPE>
2
5
10

$$$$
