REMARK  Name = 11292169
REMARK  2 active torsions:
REMARK  status: ('A' for Active; 'I' for Inactive)
REMARK    1  A    between atoms: C_19  and  O_27
REMARK    2  A    between atoms: C_20  and  O_29
REMARK                            x       y       z     vdW  Elec       q    Type
REMARK                         _______ _______ _______ _____ _____    ______ ____
ROOT
ATOM      1  O   UNL     1      -0.013   0.848   1.791  0.00  0.00    -0.351 OA
ATOM      2  O   UNL     1       0.013   0.847  -1.791  0.00  0.00    -0.351 OA
ATOM      3  O   UNL     1       4.829   0.079   0.670  0.00  0.00    -0.343 OA
ATOM      4  O   UNL     1      -4.828   0.072  -0.669  0.00  0.00    -0.343 OA
ATOM      5  O   UNL     1       3.056  -2.612  -0.099  0.00  0.00    -0.289 OA
ATOM      6  O   UNL     1      -3.052  -2.616   0.100  0.00  0.00    -0.289 OA
ATOM      7  C   UNL     1       0.537  -1.278   0.588  0.00  0.00    +0.058 C 
ATOM      8  C   UNL     1      -0.534  -1.279  -0.587  0.00  0.00    +0.058 C 
ATOM      9  C   UNL     1       0.530   1.421   0.580  0.00  0.00    +0.166 C 
ATOM     10  C   UNL     1      -0.530   1.420  -0.580  0.00  0.00    +0.166 C 
ATOM     11  C   UNL     1       1.838  -0.595   0.217  0.00  0.00    +0.014 C 
ATOM     12  C   UNL     1      -1.836  -0.597  -0.216  0.00  0.00    +0.014 C 
ATOM     13  C   UNL     1       1.847   0.752   0.230  0.00  0.00    +0.013 C 
ATOM     14  C   UNL     1      -1.847   0.749  -0.230  0.00  0.00    +0.013 C 
ATOM     15  C   UNL     1       0.064  -0.589   1.903  0.00  0.00    +0.120 C 
ATOM     16  C   UNL     1      -0.061  -0.589  -1.901  0.00  0.00    +0.120 C 
ATOM     17  C   UNL     1       4.297   0.863  -0.408  0.00  0.00    +0.181 C 
ATOM     18  C   UNL     1      -4.297   0.857   0.408  0.00  0.00    +0.181 C 
ATOM     19  C   UNL     1       3.042   1.611  -0.083  0.00  0.00    +0.161 C 
ATOM     20  C   UNL     1      -3.043   1.607   0.082  0.00  0.00    +0.161 C 
ATOM     21  C   UNL     1       4.275  -0.637  -0.445  0.00  0.00    +0.206 C 
ATOM     22  C   UNL     1      -4.272  -0.642   0.447  0.00  0.00    +0.206 C 
ATOM     23  C   UNL     1       3.050  -1.388  -0.105  0.00  0.00    +0.198 C 
ATOM     24  C   UNL     1      -3.046  -1.392   0.107  0.00  0.00    +0.198 C 
ATOM     25  C   UNL     1       0.967  -0.903   3.100  0.00  0.00    +0.032 C 
ATOM     26  C   UNL     1      -0.964  -0.905  -3.099  0.00  0.00    +0.032 C 
ENDROOT
BRANCH  19  27
ATOM     27  O   UNL     1       2.703   2.440  -1.196  0.00  0.00    -0.378 OA
ATOM     28  H   UNL     1       1.890   2.931  -0.997  0.00  0.00    +0.211 HD
ENDBRANCH  19  27
BRANCH  20  29
ATOM     29  O   UNL     1      -2.723   2.457   1.186  0.00  0.00    -0.378 OA
ATOM     30  H   UNL     1      -1.911   2.950   0.990  0.00  0.00    +0.211 HD
ENDBRANCH  20  29
TORSDOF 2
