REMARK  Name = 11299980
REMARK  6 active torsions:
REMARK  status: ('A' for Active; 'I' for Inactive)
REMARK    1  A    between atoms: C_2  and  O_12
REMARK    2  A    between atoms: C_3  and  O_14
REMARK    3  A    between atoms: C_4  and  O_16
REMARK    4  A    between atoms: C_5  and  C_18
REMARK    5  A    between atoms: C_6  and  N_8
REMARK    6  A    between atoms: C_18  and  O_19
REMARK                            x       y       z     vdW  Elec       q    Type
REMARK                         _______ _______ _______ _____ _____    ______ ____
ROOT
ATOM      1  O   UNL     1       0.956   0.818  -0.354  0.00  0.00    -0.333 OA
ATOM      2  C   UNL     1       2.819  -1.302   0.163  0.00  0.00    +0.171 C 
ATOM      3  C   UNL     1       3.270   0.083  -0.305  0.00  0.00    +0.169 C 
ATOM      4  C   UNL     1       1.362  -1.576  -0.213  0.00  0.00    +0.186 C 
ATOM      5  C   UNL     1       2.260   1.152   0.129  0.00  0.00    +0.175 C 
ATOM      6  C   UNL     1       0.466  -0.405   0.188  0.00  0.00    +0.221 C 
ENDROOT
BRANCH   6   8
ATOM      7  O   UNL     1      -1.937   0.674   1.334  0.00  0.00    -0.275 OA
ATOM      8  N   UNL     1      -0.877  -0.587  -0.302  0.00  0.00    -0.281 N 
ATOM      9  C   UNL     1      -1.981  -0.023   0.324  0.00  0.00    +0.225 C 
ATOM     10  C   UNL     1      -3.264  -0.363  -0.398  0.00  0.00    +0.095 C 
ATOM     11  H   UNL     1      -1.018  -1.132  -1.109  0.00  0.00    +0.152 HD
ENDBRANCH   6   8
BRANCH   2  12
ATOM     12  O   UNL     1       3.654  -2.298  -0.431  0.00  0.00    -0.379 OA
ATOM     13  H   UNL     1       4.579  -2.128  -0.195  0.00  0.00    +0.211 HD
ENDBRANCH   2  12
BRANCH   3  14
ATOM     14  O   UNL     1       4.550   0.348   0.263  0.00  0.00    -0.379 OA
ATOM     15  H   UNL     1       5.177  -0.335  -0.020  0.00  0.00    +0.211 HD
ENDBRANCH   3  14
BRANCH   4  16
ATOM     16  O   UNL     1       0.921  -2.751   0.466  0.00  0.00    -0.378 OA
ATOM     17  H   UNL     1       1.485  -3.499   0.216  0.00  0.00    +0.211 HD
ENDBRANCH   4  16
BRANCH   5  18
ATOM     18  C   UNL     1       2.606   2.531  -0.424  0.00  0.00    +0.169 C 
BRANCH  18  19
ATOM     19  O   UNL     1       1.623   3.452   0.013  0.00  0.00    -0.379 OA
ATOM     20  H   UNL     1       1.831   4.334  -0.332  0.00  0.00    +0.211 HD
ENDBRANCH  18  19
ENDBRANCH   5  18
TORSDOF 6
REMARK  Name = 11299980
REMARK  6 active torsions:
REMARK  status: ('A' for Active; 'I' for Inactive)
REMARK    1  A    between atoms: C_2  and  O_12
REMARK    2  A    between atoms: C_3  and  O_14
REMARK    3  A    between atoms: C_4  and  O_16
REMARK    4  A    between atoms: C_5  and  C_18
REMARK    5  A    between atoms: C_6  and  N_8
REMARK    6  A    between atoms: C_18  and  O_19
REMARK                            x       y       z     vdW  Elec       q    Type
REMARK                         _______ _______ _______ _____ _____    ______ ____
ROOT
ATOM      1  N   UNL     1      -5.507   0.076  -0.166  0.00  0.00    +0.000 NA
ATOM      2  N   UNL     1      -6.548  -0.099  -0.600  0.00  0.00    +0.000 NA
ENDROOT
TORSDOF 0
