REMARK  Name = 11303332
REMARK  4 active torsions:
REMARK  status: ('A' for Active; 'I' for Inactive)
REMARK    1  A    between atoms: C_5  and  O_24
REMARK    2  A    between atoms: C_7  and  O_26
REMARK    3  A    between atoms: C_9  and  O_28
REMARK    4  A    between atoms: C_21  and  O_30
REMARK                            x       y       z     vdW  Elec       q    Type
REMARK                         _______ _______ _______ _____ _____    ______ ____
ROOT
ATOM      1  O   UNL     1      -0.482   0.158  -1.253  0.00  0.00    -0.350 OA
ATOM      2  O   UNL     1      -3.030   2.355   0.985  0.00  0.00    -0.293 OA
ATOM      3  O   UNL     1       0.124   2.162   1.259  0.00  0.00    -0.289 OA
ATOM      4  O   UNL     1       1.992  -2.562  -0.347  0.00  0.00    -0.289 OA
ATOM      5  C   UNL     1      -1.913   0.206   0.737  0.00  0.00    +0.193 C 
ATOM      6  C   UNL     1      -0.465   0.053   0.192  0.00  0.00    +0.206 C 
ATOM      7  C   UNL     1      -2.760  -0.908   0.076  0.00  0.00    +0.122 C 
ATOM      8  C   UNL     1      -1.776   0.454  -1.815  0.00  0.00    +0.103 C 
ATOM      9  C   UNL     1       0.145  -1.320   0.568  0.00  0.00    +0.175 C 
ATOM     10  C   UNL     1      -2.752  -0.689  -1.459  0.00  0.00    +0.057 C 
ATOM     11  C   UNL     1      -2.212  -2.296   0.458  0.00  0.00    +0.033 C 
ATOM     12  C   UNL     1      -0.740  -2.482   0.082  0.00  0.00    +0.040 C 
ATOM     13  C   UNL     1      -2.287   1.780  -1.227  0.00  0.00    +0.094 C 
ATOM     14  C   UNL     1      -2.480   1.540   0.251  0.00  0.00    +0.182 C 
ATOM     15  C   UNL     1       0.489   1.158   0.656  0.00  0.00    +0.203 C 
ATOM     16  C   UNL     1      -1.602   0.573  -3.326  0.00  0.00    +0.030 C 
ATOM     17  C   UNL     1       1.566  -1.473   0.027  0.00  0.00    +0.203 C 
ATOM     18  C   UNL     1       1.923   0.987   0.336  0.00  0.00    +0.043 C 
ATOM     19  C   UNL     1       2.434  -0.271   0.010  0.00  0.00    +0.074 C 
ATOM     20  C   UNL     1       2.767   2.104   0.354  0.00  0.00    +0.003 C 
ATOM     21  C   UNL     1       3.790  -0.407  -0.314  0.00  0.00    +0.137 C 
ATOM     22  C   UNL     1       4.117   1.962   0.034  0.00  0.00    +0.003 C 
ATOM     23  C   UNL     1       4.627   0.709  -0.302  0.00  0.00    +0.037 C 
ENDROOT
BRANCH   5  24
ATOM     24  O   UNL     1      -1.990   0.120   2.143  0.00  0.00    -0.375 OA
ATOM     25  H   UNL     1      -1.627  -0.730   2.436  0.00  0.00    +0.211 HD
ENDBRANCH   5  24
BRANCH   7  26
ATOM     26  O   UNL     1      -4.113  -0.837   0.530  0.00  0.00    -0.384 OA
ATOM     27  H   UNL     1      -4.485   0.029   0.303  0.00  0.00    +0.210 HD
ENDBRANCH   7  26
BRANCH   9  28
ATOM     28  O   UNL     1       0.270  -1.470   1.984  0.00  0.00    -0.377 OA
ATOM     29  H   UNL     1      -0.604  -1.384   2.396  0.00  0.00    +0.211 HD
ENDBRANCH   9  28
BRANCH  21  30
ATOM     30  O   UNL     1       4.358  -1.604  -0.639  0.00  0.00    -0.505 OA
ATOM     31  H   UNL     1       3.834  -2.381  -0.660  0.00  0.00    +0.292 HD
ENDBRANCH  21  30
TORSDOF 4
