REMARK  Name = 11302979
REMARK  4 active torsions:
REMARK  status: ('A' for Active; 'I' for Inactive)
REMARK    1  A    between atoms: C_1  and  C_10
REMARK    2  A    between atoms: C_2  and  S_13
REMARK    3  A    between atoms: C_4  and  C_18
REMARK    4  A    between atoms: C_18  and  C_22
REMARK                            x       y       z     vdW  Elec       q    Type
REMARK                         _______ _______ _______ _____ _____    ______ ____
ROOT
ATOM      1  C   UNL     1       1.529  -0.091  -0.199  0.00  0.00    +0.030 C 
ATOM      2  C   UNL     1       1.917   1.219   0.083  0.00  0.00    +0.107 C 
ATOM      3  C   UNL     1       0.216  -0.361  -0.587  0.00  0.00    -0.016 C 
ATOM      4  C   UNL     1      -0.672   0.685  -0.684  0.00  0.00    +0.035 C 
ATOM      5  C   UNL     1       0.993   2.258  -0.024  0.00  0.00    +0.018 C 
ATOM      6  C   UNL     1      -0.319   1.988  -0.413  0.00  0.00    +0.004 C 
ATOM      7  C   UNL     1      -0.205  -1.765  -0.891  0.00  0.00    +0.031 C 
ENDROOT
BRANCH   1  10
ATOM      8  O   UNL     1       4.018  -2.684  -0.588  0.00  0.00    -0.377 OA
ATOM      9  N   UNL     1       3.231  -1.613  -1.075  0.00  0.00    -0.087 NA
ATOM     10  C   UNL     1       2.502  -1.198  -0.087  0.00  0.00    +0.102 C 
ATOM     11  C   UNL     1       2.700  -1.956   1.181  0.00  0.00    +0.099 C 
ATOM     12  C   UNL     1       4.019  -2.595   0.838  0.00  0.00    +0.245 C 
ENDBRANCH   1  10
BRANCH   2  13
ATOM     13  S   UNL     1       3.554   1.603   0.575  0.00  0.00    +0.010 S 
ATOM     14  O   UNL     1       3.598   3.021   0.895  0.00  0.00    -0.169 OA
ATOM     15  O   UNL     1       3.988   0.622   1.557  0.00  0.00    -0.169 OA
ATOM     16  C   UNL     1       4.523   1.339  -0.891  0.00  0.00    +0.182 C 
ENDBRANCH   2  13
BRANCH   4  18
ATOM     17  O   UNL     1      -2.377   0.486  -2.301  0.00  0.00    -0.286 OA
ATOM     18  C   UNL     1      -2.085   0.429  -1.098  0.00  0.00    +0.201 C 
BRANCH  18  22
ATOM     19  O   UNL     1      -5.109  -0.192  -1.353  0.00  0.00    -0.268 OA
ATOM     20  N   UNL     1      -5.050  -0.362   0.995  0.00  0.00    -0.205 N 
ATOM     21  N   UNL     1      -4.029  -0.255   1.898  0.00  0.00    -0.258 N 
ATOM     22  C   UNL     1      -3.088   0.143  -0.093  0.00  0.00    +0.110 C 
ATOM     23  C   UNL     1      -4.538  -0.156  -0.277  0.00  0.00    +0.269 C 
ATOM     24  C   UNL     1      -2.893   0.076   1.228  0.00  0.00    +0.084 C 
ATOM     25  C   UNL     1      -6.423  -0.643   1.310  0.00  0.00    +0.138 C 
ATOM     26  H   UNL     1      -4.104  -0.394   2.870  0.00  0.00    +0.170 HD
ENDBRANCH  18  22
ENDBRANCH   4  18
TORSDOF 4
