REMARK  Name = 11305934
REMARK  13 active torsions:
REMARK  status: ('A' for Active; 'I' for Inactive)
REMARK    1  A    between atoms: N_2  and  C_31
REMARK    2  A    between atoms: N_3  and  C_7
REMARK    3  A    between atoms: C_4  and  C_20
REMARK    4  A    between atoms: C_7  and  C_9
REMARK    5  A    between atoms: C_9  and  N_10
REMARK    6  A    between atoms: N_10  and  C_13
REMARK    7  A    between atoms: C_13  and  C_14
REMARK    8  A    between atoms: C_20  and  C_21
REMARK    9  A    between atoms: C_21  and  C_22
REMARK   10  A    between atoms: C_22  and  N_23
REMARK   11  A    between atoms: N_23  and  C_26
REMARK   12  A    between atoms: C_31  and  C_32
REMARK   13  A    between atoms: C_32  and  C_34
REMARK                            x       y       z     vdW  Elec       q    Type
REMARK                         _______ _______ _______ _____ _____    ______ ____
ROOT
ATOM      1  S   UNL     1       0.747  -1.780  -2.572  0.00  0.00    -0.018 S 
ATOM      2  N   UNL     1       2.110  -0.212  -0.753  0.00  0.00    -0.291 N 
ATOM      3  N   UNL     1      -0.038  -0.665  -0.173  0.00  0.00    -0.293 N 
ATOM      4  C   UNL     1       1.856   0.586   0.440  0.00  0.00    +0.094 C 
ATOM      5  C   UNL     1       0.534   0.030   0.963  0.00  0.00    +0.112 C 
ATOM      6  C   UNL     1       0.938  -0.887  -1.172  0.00  0.00    +0.138 C 
ENDROOT
BRANCH   3   7
ATOM      7  C   UNL     1      -1.392  -1.192  -0.096  0.00  0.00    +0.053 C 
ATOM      8  C   UNL     1      -1.531  -2.072   1.143  0.00  0.00    +0.019 C 
BRANCH   7   9
ATOM      9  C   UNL     1      -2.396  -0.033  -0.130  0.00  0.00    -0.061 C 
BRANCH   9  10
ATOM     10  N   UNL     1      -3.779  -0.496  -0.112  0.00  0.00    +0.388 N 
ATOM     11  H   UNL     1      -3.935  -1.050   0.731  0.00  0.00    -0.084 HD
ATOM     12  H   UNL     1      -3.946  -1.060  -0.945  0.00  0.00    -0.084 HD
BRANCH  10  13
ATOM     13  C   UNL     1      -4.703   0.629  -0.120  0.00  0.00    -0.054 C 
BRANCH  13  14
ATOM     14  C   UNL     1      -6.139   0.176  -0.093  0.00  0.00    -0.044 C 
ATOM     15  C   UNL     1      -6.820  -0.056  -1.288  0.00  0.00    -0.006 C 
ATOM     16  C   UNL     1      -6.788  -0.012   1.127  0.00  0.00    -0.006 C 
ATOM     17  C   UNL     1      -8.150  -0.475  -1.263  0.00  0.00    -0.000 C 
ATOM     18  C   UNL     1      -8.118  -0.432   1.152  0.00  0.00    -0.000 C 
ATOM     19  C   UNL     1      -8.799  -0.663  -0.043  0.00  0.00    -0.000 C 
ENDBRANCH  13  14
ENDBRANCH  10  13
ENDBRANCH   9  10
ENDBRANCH   7   9
ENDBRANCH   3   7
BRANCH   4  20
ATOM     20  C   UNL     1       1.746   2.073   0.114  0.00  0.00    +0.024 C 
BRANCH  20  21
ATOM     21  C   UNL     1       1.809   2.924   1.382  0.00  0.00    +0.028 C 
BRANCH  21  22
ATOM     22  C   UNL     1       1.714   4.416   1.082  0.00  0.00    +0.129 C 
BRANCH  22  23
ATOM     23  N   UNL     1       2.841   4.827   0.243  0.00  0.00    -0.240 NA
BRANCH  23  26
ATOM     24  N   UNL     1       3.944   6.553  -0.842  0.00  0.00    -0.370 N 
ATOM     25  N   UNL     1       2.059   7.097   0.318  0.00  0.00    -0.370 N 
ATOM     26  C   UNL     1       2.915   6.086  -0.057  0.00  0.00    +0.189 C 
ATOM     27  H   UNL     1       4.628   5.930  -1.179  0.00  0.00    +0.159 HD
ATOM     28  H   UNL     1       3.996   7.510  -1.067  0.00  0.00    +0.159 HD
ATOM     29  H   UNL     1       1.278   6.896   0.884  0.00  0.00    +0.159 HD
ATOM     30  H   UNL     1       2.228   8.021   0.022  0.00  0.00    +0.159 HD
ENDBRANCH  23  26
ENDBRANCH  22  23
ENDBRANCH  21  22
ENDBRANCH  20  21
ENDBRANCH   4  20
BRANCH   2  31
ATOM     31  C   UNL     1       3.402  -0.158  -1.422  0.00  0.00    +0.097 C 
BRANCH  31  32
ATOM     32  C   UNL     1       4.528  -0.742  -0.572  0.00  0.00    +0.048 C 
BRANCH  32  34
ATOM     33  F   UNL     1       2.769  -4.249   2.337  0.00  0.00    -0.204 F 
ATOM     34  C   UNL     1       4.318  -2.199  -0.239  0.00  0.00    -0.018 C 
ATOM     35  C   UNL     1       3.627  -2.557   0.918  0.00  0.00    +0.025 C 
ATOM     36  C   UNL     1       4.815  -3.187  -1.089  0.00  0.00    -0.004 C 
ATOM     37  C   UNL     1       3.432  -3.904   1.225  0.00  0.00    +0.140 C 
ATOM     38  C   UNL     1       4.621  -4.533  -0.782  0.00  0.00    +0.002 C 
ATOM     39  C   UNL     1       3.929  -4.892   0.375  0.00  0.00    +0.030 C 
ENDBRANCH  32  34
ENDBRANCH  31  32
ENDBRANCH   2  31
TORSDOF 13
