REMARK  Name = 11301378
REMARK  11 active torsions:
REMARK  status: ('A' for Active; 'I' for Inactive)
REMARK    1  A    between atoms: C_2  and  C_23
REMARK    2  A    between atoms: C_3  and  C_12
REMARK    3  A    between atoms: CA_4  and  C_9
REMARK    4  A    between atoms: C_9  and  O_10
REMARK    5  A    between atoms: C_12  and  C_14
REMARK    6  A    between atoms: C_14  and  C_15
REMARK    7  A    between atoms: C_15  and  C_16
REMARK    8  A    between atoms: C_17  and  C_20
REMARK    9  A    between atoms: C_20  and  O_21
REMARK   10  A    between atoms: C_23  and  C_25
REMARK   11  A    between atoms: C_25  and  O_26
REMARK                            x       y       z     vdW  Elec       q    Type
REMARK                         _______ _______ _______ _____ _____    ______ ____
ROOT
ATOM      1  N   UNL     1       3.281  -1.341   1.094  0.00  0.00    +0.392 N 
ATOM      2  C   UNL     1       1.594  -0.079  -0.076  0.00  0.00    +0.004 C 
ATOM      3  C   UNL     1       1.130  -1.518   0.234  0.00  0.00    -0.004 C 
ATOM      4  CA  UNL     1       3.004  -0.015   0.539  0.00  0.00    +0.040 C 
ATOM      5  C   UNL     1       2.443  -2.280   0.352  0.00  0.00    -0.077 C 
ATOM      6  H1  UNL     1       3.045  -1.366   2.086  0.00  0.00    -0.084 HD
ATOM      7  H2  UNL     1       4.269  -1.580   1.008  0.00  0.00    -0.084 HD
ENDROOT
BRANCH   4   9
ATOM      8  OXT UNL     1       3.290   0.633   2.846  0.00  0.00    -0.253 OA
ATOM      9  C   UNL     1       3.076   0.943   1.683  0.00  0.00    +0.293 C 
BRANCH   9  10
ATOM     10  O   UNL     1       2.867   2.213   1.258  0.00  0.00    -0.482 OA
ATOM     11  H   UNL     1       2.708   2.382   0.350  0.00  0.00    +0.295 HD
ENDBRANCH   9  10
ENDBRANCH   4   9
BRANCH   3  12
ATOM     12  C   UNL     1       0.164  -2.139  -0.720  0.00  0.00    -0.046 C 
ATOM     13  C   UNL     1       0.472  -3.256  -1.399  0.00  0.00    -0.009 C 
BRANCH  12  14
ATOM     14  C   UNL     1      -1.189  -1.480  -0.855  0.00  0.00    +0.027 C 
BRANCH  14  15
ATOM     15  C   UNL     1      -2.007  -1.460   0.443  0.00  0.00    +0.030 C 
BRANCH  15  16
ATOM     16  C   UNL     1      -3.384  -0.883   0.245  0.00  0.00    -0.024 C 
ATOM     17  C   UNL     1      -3.784   0.386   0.456  0.00  0.00    +0.049 C 
ATOM     18  C   UNL     1      -2.917   1.516   0.926  0.00  0.00    +0.037 C 
BRANCH  17  20
ATOM     19  O   UNL     1      -6.141  -0.132   0.283  0.00  0.00    -0.245 OA
ATOM     20  C   UNL     1      -5.223   0.667   0.175  0.00  0.00    +0.334 C 
BRANCH  20  21
ATOM     21  O   UNL     1      -5.395   1.950  -0.223  0.00  0.00    -0.477 OA
ATOM     22  H   UNL     1      -4.656   2.523  -0.289  0.00  0.00    +0.295 HD
ENDBRANCH  20  21
ENDBRANCH  17  20
ENDBRANCH  15  16
ENDBRANCH  14  15
ENDBRANCH  12  14
ENDBRANCH   3  12
BRANCH   2  23
ATOM     23  C   UNL     1       1.655   0.267  -1.567  0.00  0.00    +0.108 C 
BRANCH  23  25
ATOM     24  O   UNL     1       1.633   2.697  -1.375  0.00  0.00    -0.250 OA
ATOM     25  C   UNL     1       2.148   1.669  -1.788  0.00  0.00    +0.314 C 
BRANCH  25  26
ATOM     26  O   UNL     1       3.284   1.640  -2.532  0.00  0.00    -0.480 OA
ATOM     27  H   UNL     1       3.634   0.821  -2.821  0.00  0.00    +0.295 HD
ENDBRANCH  25  26
ENDBRANCH  23  25
ENDBRANCH   2  23
TORSDOF 11
