11305934
  -OEChem-03292013303D

 68 70  0     1  0  0  0  0  0999 V2000
    0.7467   -1.7795   -2.5725 S   0  0  0  0  0  0  0  0  0  0  0  0
    2.7687   -4.2488    2.3366 F   0  0  0  0  0  0  0  0  0  0  0  0
    2.1100   -0.2125   -0.7534 N   0  0  0  0  0  0  0  0  0  0  0  0
   -0.0384   -0.6654   -0.1734 N   0  0  0  0  0  0  0  0  0  0  0  0
   -3.7794   -0.4961   -0.1116 N   0  0  0  0  0  0  0  0  0  0  0  0
    2.8406    4.8270    0.2428 N   0  0  0  0  0  0  0  0  0  0  0  0
    3.9438    6.5527   -0.8420 N   0  0  0  0  0  0  0  0  0  0  0  0
    2.0591    7.0972    0.3184 N   0  0  0  0  0  0  0  0  0  0  0  0
    1.8563    0.5860    0.4400 C   0  0  2  0  0  0  0  0  0  0  0  0
    0.5339    0.0301    0.9628 C   0  0  0  0  0  0  0  0  0  0  0  0
    1.7462    2.0731    0.1137 C   0  0  0  0  0  0  0  0  0  0  0  0
   -1.3916   -1.1921   -0.0962 C   0  0  2  0  0  0  0  0  0  0  0  0
    0.9378   -0.8875   -1.1721 C   0  0  0  0  0  0  0  0  0  0  0  0
    3.4023   -0.1576   -1.4223 C   0  0  0  0  0  0  0  0  0  0  0  0
    1.8093    2.9238    1.3818 C   0  0  0  0  0  0  0  0  0  0  0  0
   -2.3963   -0.0333   -0.1300 C   0  0  0  0  0  0  0  0  0  0  0  0
   -1.5310   -2.0724    1.1435 C   0  0  0  0  0  0  0  0  0  0  0  0
    4.5276   -0.7417   -0.5717 C   0  0  0  0  0  0  0  0  0  0  0  0
    1.7142    4.4157    1.0824 C   0  0  0  0  0  0  0  0  0  0  0  0
    4.3184   -2.1986   -0.2390 C   0  0  0  0  0  0  0  0  0  0  0  0
   -4.7033    0.6291   -0.1196 C   0  0  0  0  0  0  0  0  0  0  0  0
    3.6265   -2.5573    0.9181 C   0  0  0  0  0  0  0  0  0  0  0  0
    4.8152   -3.1865   -1.0890 C   0  0  0  0  0  0  0  0  0  0  0  0
   -6.1390    0.1762   -0.0927 C   0  0  0  0  0  0  0  0  0  0  0  0
    3.4321   -3.9041    1.2251 C   0  0  0  0  0  0  0  0  0  0  0  0
    4.6207   -4.5331   -0.7821 C   0  0  0  0  0  0  0  0  0  0  0  0
    2.9154    6.0862   -0.0574 C   0  0  0  0  0  0  0  0  0  0  0  0
    3.9291   -4.8920    0.3750 C   0  0  0  0  0  0  0  0  0  0  0  0
   -6.8196   -0.0556   -1.2880 C   0  0  0  0  0  0  0  0  0  0  0  0
   -6.7884   -0.0121    1.1275 C   0  0  0  0  0  0  0  0  0  0  0  0
   -8.1496   -0.4753   -1.2633 C   0  0  0  0  0  0  0  0  0  0  0  0
   -8.1183   -0.4319    1.1520 C   0  0  0  0  0  0  0  0  0  0  0  0
   -8.7989   -0.6635   -0.0433 C   0  0  0  0  0  0  0  0  0  0  0  0
    2.6513    0.4205    1.1729 H   0  0  0  0  0  0  0  0  0  0  0  0
   -0.1433    0.7931    1.3513 H   0  0  0  0  0  0  0  0  0  0  0  0
    0.7309   -0.7075    1.7488 H   0  0  0  0  0  0  0  0  0  0  0  0
    0.8213    2.2814   -0.4394 H   0  0  0  0  0  0  0  0  0  0  0  0
    2.5676    2.3729   -0.5449 H   0  0  0  0  0  0  0  0  0  0  0  0
   -1.5745   -1.8252   -0.9704 H   0  0  0  0  0  0  0  0  0  0  0  0
    3.3523   -0.6952   -2.3737 H   0  0  0  0  0  0  0  0  0  0  0  0
    3.6255    0.8844   -1.6698 H   0  0  0  0  0  0  0  0  0  0  0  0
    0.9958    2.6530    2.0638 H   0  0  0  0  0  0  0  0  0  0  0  0
    2.7504    2.7221    1.9088 H   0  0  0  0  0  0  0  0  0  0  0  0
   -2.2336    0.6250    0.7313 H   0  0  0  0  0  0  0  0  0  0  0  0
   -2.2157    0.5679   -1.0309 H   0  0  0  0  0  0  0  0  0  0  0  0
   -0.7342   -2.8239    1.1830 H   0  0  0  0  0  0  0  0  0  0  0  0
   -2.4863   -2.6078    1.1369 H   0  0  0  0  0  0  0  0  0  0  0  0
   -1.4901   -1.4884    2.0693 H   0  0  0  0  0  0  0  0  0  0  0  0
    4.6576   -0.1701    0.3552 H   0  0  0  0  0  0  0  0  0  0  0  0
    5.4768   -0.6303   -1.1119 H   0  0  0  0  0  0  0  0  0  0  0  0
    0.7629    4.6240    0.5780 H   0  0  0  0  0  0  0  0  0  0  0  0
    1.7302    4.9594    2.0347 H   0  0  0  0  0  0  0  0  0  0  0  0
   -3.9468   -1.0873   -0.9257 H   0  0  0  0  0  0  0  0  0  0  0  0
   -4.5232    1.2780    0.7475 H   0  0  0  0  0  0  0  0  0  0  0  0
   -4.5431    1.2543   -1.0079 H   0  0  0  0  0  0  0  0  0  0  0  0
    3.2435   -1.8046    1.5997 H   0  0  0  0  0  0  0  0  0  0  0  0
    5.3533   -2.9196   -1.9947 H   0  0  0  0  0  0  0  0  0  0  0  0
    5.0069   -5.3024   -1.4444 H   0  0  0  0  0  0  0  0  0  0  0  0
    3.7773   -5.9404    0.6140 H   0  0  0  0  0  0  0  0  0  0  0  0
   -6.3242    0.0856   -2.2450 H   0  0  0  0  0  0  0  0  0  0  0  0
   -6.2688    0.1632    2.0657 H   0  0  0  0  0  0  0  0  0  0  0  0
   -8.6795   -0.6562   -2.1940 H   0  0  0  0  0  0  0  0  0  0  0  0
   -8.6239   -0.5791    2.1019 H   0  0  0  0  0  0  0  0  0  0  0  0
    4.0209    7.5336   -1.0872 H   0  0  0  0  0  0  0  0  0  0  0  0
    4.6573    5.9255   -1.1973 H   0  0  0  0  0  0  0  0  0  0  0  0
    2.2185    8.0540    0.0218 H   0  0  0  0  0  0  0  0  0  0  0  0
    1.2442    6.9288    0.8973 H   0  0  0  0  0  0  0  0  0  0  0  0
   -9.8343   -0.9907   -0.0241 H   0  0  0  0  0  0  0  0  0  0  0  0
  1 13  2  0  0  0  0
  2 25  1  0  0  0  0
  3  9  1  0  0  0  0
  3 13  1  0  0  0  0
  3 14  1  0  0  0  0
  4 10  1  0  0  0  0
  4 12  1  0  0  0  0
  4 13  1  0  0  0  0
  5 16  1  0  0  0  0
  5 21  1  0  0  0  0
  5 53  1  0  0  0  0
  6 19  1  0  0  0  0
  6 27  2  0  0  0  0
  7 27  1  0  0  0  0
  7 64  1  0  0  0  0
  7 65  1  0  0  0  0
  8 27  1  0  0  0  0
  8 66  1  0  0  0  0
  8 67  1  0  0  0  0
  9 10  1  0  0  0  0
  9 11  1  0  0  0  0
  9 34  1  0  0  0  0
 10 35  1  0  0  0  0
 10 36  1  0  0  0  0
 11 15  1  0  0  0  0
 11 37  1  0  0  0  0
 11 38  1  0  0  0  0
 12 16  1  0  0  0  0
 12 17  1  0  0  0  0
 12 39  1  0  0  0  0
 14 18  1  0  0  0  0
 14 40  1  0  0  0  0
 14 41  1  0  0  0  0
 15 19  1  0  0  0  0
 15 42  1  0  0  0  0
 15 43  1  0  0  0  0
 16 44  1  0  0  0  0
 16 45  1  0  0  0  0
 17 46  1  0  0  0  0
 17 47  1  0  0  0  0
 17 48  1  0  0  0  0
 18 20  1  0  0  0  0
 18 49  1  0  0  0  0
 18 50  1  0  0  0  0
 19 51  1  0  0  0  0
 19 52  1  0  0  0  0
 20 22  2  0  0  0  0
 20 23  1  0  0  0  0
 21 24  1  0  0  0  0
 21 54  1  0  0  0  0
 21 55  1  0  0  0  0
 22 25  1  0  0  0  0
 22 56  1  0  0  0  0
 23 26  2  0  0  0  0
 23 57  1  0  0  0  0
 24 29  2  0  0  0  0
 24 30  1  0  0  0  0
 25 28  2  0  0  0  0
 26 28  1  0  0  0  0
 26 58  1  0  0  0  0
 28 59  1  0  0  0  0
 29 31  1  0  0  0  0
 29 60  1  0  0  0  0
 30 32  2  0  0  0  0
 30 61  1  0  0  0  0
 31 33  2  0  0  0  0
 31 62  1  0  0  0  0
 32 33  1  0  0  0  0
 32 63  1  0  0  0  0
 33 68  1  0  0  0  0
M  END
> <PUBCHEM_COMPOUND_CID>
11305934

> <PUBCHEM_CONFORMER_RMSD>
1.2

> <PUBCHEM_CONFORMER_DIVERSEORDER>
1
139
12
98
121
123
60
66
107
160
92
166
88
132
55
37
57
69
137
87
70
63
101
124
163
99
104
135
136
49
159
154
24
149
126
118
67
6
113
111
76
158
120
125
20
164
27
165
62
155
167
43
103
54
105
156
91
96
83
72
153
75
142
51
106
95
61
40
117
47
31
64
38
42
36
73
134
131
65
162
148
39
8
19
129
110
71
97
81
34
128
130
94
9
59
68
16
150
152
145
122
144
48
4
133
86
85
7
58
157
18
80
108
29
147
100
74
13
44
46
127
116
26
14
45
109
53
102
141
35
143
41
114
115
2
90
77
119
79
52
112
89
11
50
32
10
151
161
140
56
23
138
84
21
93
146
30
22
15
78
17
5
82
28
3
25
33

> <PUBCHEM_MMFF94_PARTIAL_CHARGES>
44
1 -0.38
10 0.3
12 0.3
13 0.5
14 0.3
16 0.27
18 0.14
19 0.25
2 -0.19
20 -0.14
21 0.41
22 -0.15
23 -0.15
24 -0.14
25 0.19
26 -0.15
27 0.55
28 -0.15
29 -0.15
3 -0.66
30 -0.15
31 -0.15
32 -0.15
33 -0.15
4 -0.66
5 -0.9
53 0.36
56 0.15
57 0.15
58 0.15
59 0.15
6 -0.7
60 0.15
61 0.15
62 0.15
63 0.15
64 0.4
65 0.4
66 0.4
67 0.4
68 0.15
7 -0.85
8 -0.85
9 0.3

> <PUBCHEM_EFFECTIVE_ROTOR_COUNT>
12.8

> <PUBCHEM_PHARMACOPHORE_FEATURES>
9
1 1 acceptor
1 5 cation
1 5 donor
1 7 donor
1 8 donor
4 6 7 8 27 cation
5 3 4 9 10 13 rings
6 20 22 23 25 26 28 rings
6 24 29 30 31 32 33 rings

> <PUBCHEM_HEAVY_ATOM_COUNT>
33

> <PUBCHEM_ATOM_DEF_STEREO_COUNT>
2

> <PUBCHEM_ATOM_UDEF_STEREO_COUNT>
0

> <PUBCHEM_BOND_DEF_STEREO_COUNT>
0

> <PUBCHEM_BOND_UDEF_STEREO_COUNT>
0

> <PUBCHEM_ISOTOPIC_ATOM_COUNT>
0

> <PUBCHEM_COMPONENT_COUNT>
1

> <PUBCHEM_CACTVS_TAUTO_COUNT>
2

> <PUBCHEM_CONFORMER_ID>
00AC83CE00000001

> <PUBCHEM_MMFF94_ENERGY>
80.1365

> <PUBCHEM_FEATURE_SELFOVERLAP>
45.727

> <PUBCHEM_SHAPE_FINGERPRINT>
10675989 125 18198628920164125544
12166972 35 18130504146242649283
12522641 24 18333732395469796075
12788726 201 18050291358661335210
13008946 170 18336827588524735261
13533116 47 18336547127324063491
13617811 41 18200891586961650894
13782708 43 18188771639902475591
13835254 42 18122621657336450506
14150023 79 18266176313177702660
14849402 71 18412268333066012241
15183329 4 18410856513192598599
19302320 297 18127148402923011729
19311894 1 17906171746352641009
21344244 78 18267572530026254986
249057 25 17632305571259063281
345986 75 17973151834474760538
4058900 60 17978503470830317340

> <PUBCHEM_SHAPE_MULTIPOLES>
645.81
18.8
8.99
1.62
60.68
21.22
0.23
-11.55
1.33
-24.08
-1.39
-0.3
-1.11
-0.6

> <PUBCHEM_SHAPE_SELFOVERLAP>
1324.054

> <PUBCHEM_SHAPE_VOLUME>
376.3

> <PUBCHEM_COORDINATE_TYPE>
2
5
10

$$$$
