REMARK  Name = 11305429
REMARK  12 active torsions:
REMARK  status: ('A' for Active; 'I' for Inactive)
REMARK    1  A    between atoms: C_2  and  O_7
REMARK    2  A    between atoms: C_3  and  O_9
REMARK    3  A    between atoms: C_4  and  C_25
REMARK    4  A    between atoms: C_5  and  O_11
REMARK    5  A    between atoms: C_6  and  O_13
REMARK    6  A    between atoms: O_13  and  C_14
REMARK    7  A    between atoms: C_15  and  O_23
REMARK    8  A    between atoms: C_19  and  C_21
REMARK    9  A    between atoms: C_25  and  O_26
REMARK   10  A    between atoms: O_26  and  C_28
REMARK   11  A    between atoms: C_28  and  C_29
REMARK   12  A    between atoms: C_34  and  O_35
REMARK                            x       y       z     vdW  Elec       q    Type
REMARK                         _______ _______ _______ _____ _____    ______ ____
ROOT
ATOM      1  O   UNL     1      -2.043  -0.248  -0.143  0.00  0.00    -0.315 OA
ATOM      2  C   UNL     1      -3.888  -1.792   0.150  0.00  0.00    +0.171 C 
ATOM      3  C   UNL     1      -4.749  -0.667   0.726  0.00  0.00    +0.173 C 
ATOM      4  C   UNL     1      -2.403  -1.521   0.397  0.00  0.00    +0.192 C 
ATOM      5  C   UNL     1      -4.237   0.703   0.281  0.00  0.00    +0.210 C 
ATOM      6  C   UNL     1      -2.728   0.829   0.492  0.00  0.00    +0.318 C 
ENDROOT
BRANCH   2   7
ATOM      7  O   UNL     1      -4.251  -3.025   0.767  0.00  0.00    -0.379 OA
ATOM      8  H   UNL     1      -5.192  -3.200   0.612  0.00  0.00    +0.211 HD
ENDBRANCH   2   7
BRANCH   3   9
ATOM      9  O   UNL     1      -6.086  -0.850   0.259  0.00  0.00    -0.379 OA
ATOM     10  H   UNL     1      -6.411  -1.720   0.541  0.00  0.00    +0.211 HD
ENDBRANCH   3   9
BRANCH   5  11
ATOM     11  O   UNL     1      -4.882   1.721   1.046  0.00  0.00    -0.377 OA
ATOM     12  H   UNL     1      -5.842   1.657   0.925  0.00  0.00    +0.211 HD
ENDBRANCH   5  11
BRANCH   6  13
ATOM     13  O   UNL     1      -2.307   2.069  -0.075  0.00  0.00    -0.447 OA
BRANCH  13  14
ATOM     14  C   UNL     1      -0.973   2.360   0.011  0.00  0.00    +0.175 C 
ATOM     15  C   UNL     1      -0.221   2.558  -1.143  0.00  0.00    +0.173 C 
ATOM     16  C   UNL     1      -0.378   2.457   1.265  0.00  0.00    +0.040 C 
ATOM     17  C   UNL     1       1.138   2.854  -1.042  0.00  0.00    +0.043 C 
ATOM     18  C   UNL     1       0.981   2.753   1.367  0.00  0.00    +0.006 C 
ATOM     19  C   UNL     1       1.739   2.952   0.213  0.00  0.00    +0.038 C 
BRANCH  19  21
ATOM     20  O   UNL     1       3.860   3.444  -0.695  0.00  0.00    -0.291 OA
ATOM     21  C   UNL     1       3.156   3.262   0.319  0.00  0.00    +0.174 C 
ATOM     22  C   UNL     1       3.819   3.370   1.688  0.00  0.00    +0.077 C 
ENDBRANCH  19  21
BRANCH  15  23
ATOM     23  O   UNL     1      -0.796   2.465  -2.375  0.00  0.00    -0.468 OA
ATOM     24  C   UNL     1      -0.797   1.181  -2.995  0.00  0.00    +0.253 C 
ENDBRANCH  15  23
ENDBRANCH  13  14
ENDBRANCH   6  13
BRANCH   4  25
ATOM     25  C   UNL     1      -1.518  -2.570  -0.270  0.00  0.00    +0.241 C 
BRANCH  25  26
ATOM     26  O   UNL     1      -0.164  -2.250  -0.009  0.00  0.00    -0.443 OA
BRANCH  26  28
ATOM     27  O   UNL     1       0.534  -4.088  -1.207  0.00  0.00    -0.245 OA
ATOM     28  C   UNL     1       0.768  -3.094  -0.537  0.00  0.00    +0.341 C 
BRANCH  28  29
ATOM     29  C   UNL     1       2.143  -2.650  -0.192  0.00  0.00    +0.076 C 
ATOM     30  C   UNL     1       2.385  -1.303  -0.014  0.00  0.00    +0.010 C 
ATOM     31  C   UNL     1       3.136  -3.599  -0.061  0.00  0.00    +0.010 C 
ATOM     32  C   UNL     1       3.677  -0.887   0.309  0.00  0.00    +0.037 C 
ATOM     33  C   UNL     1       4.428  -3.183   0.262  0.00  0.00    +0.037 C 
ATOM     34  C   UNL     1       4.698  -1.827   0.448  0.00  0.00    +0.134 C 
BRANCH  34  35
ATOM     35  O   UNL     1       5.958  -1.421   0.761  0.00  0.00    -0.506 OA
ATOM     36  H   UNL     1       6.140  -0.511   0.886  0.00  0.00    +0.292 HD
ENDBRANCH  34  35
ENDBRANCH  28  29
ENDBRANCH  26  28
ENDBRANCH  25  26
ENDBRANCH   4  25
TORSDOF 12
