REMARK  Name = 11315620
REMARK  2 active torsions:
REMARK  status: ('A' for Active; 'I' for Inactive)
REMARK    1  A    between atoms: C_7  and  C_24
REMARK    2  A    between atoms: C_26  and  C_28
REMARK                            x       y       z     vdW  Elec       q    Type
REMARK                         _______ _______ _______ _____ _____    ______ ____
ROOT
ATOM      1  N   UNL     1      -1.573  -2.304   0.638  0.00  0.00    -0.228 N 
ATOM      2  N   UNL     1      -2.128  -0.102  -0.014  0.00  0.00    -0.317 NA
ATOM      3  N   UNL     1      -3.257  -1.994  -0.990  0.00  0.00    -0.336 NA
ATOM      4  N   UNL     1      -2.711   2.105  -0.693  0.00  0.00    -0.275 N 
ATOM      5  N   UNL     1      -0.909   2.420   0.860  0.00  0.00    -0.166 NA
ATOM      6  N   UNL     1      -0.282   3.543   1.250  0.00  0.00    -0.239 N 
ATOM      7  C   UNL     1      -0.655  -1.873   1.708  0.00  0.00    +0.144 C 
ATOM      8  C   UNL     1      -0.455  -3.160   2.533  0.00  0.00    +0.030 C 
ATOM      9  C   UNL     1      -0.606  -4.276   1.512  0.00  0.00    +0.024 C 
ATOM     10  C   UNL     1      -1.706  -3.761   0.590  0.00  0.00    +0.104 C 
ATOM     11  C   UNL     1      -2.334  -1.450  -0.138  0.00  0.00    +0.203 C 
ATOM     12  C   UNL     1      -2.889   0.703  -0.786  0.00  0.00    +0.182 C 
ATOM     13  C   UNL     1      -3.983  -1.131  -1.732  0.00  0.00    +0.109 C 
ATOM     14  C   UNL     1      -3.840   0.240  -1.672  0.00  0.00    +0.131 C 
ATOM     15  C   UNL     1      -4.987  -1.726  -2.661  0.00  0.00    +0.063 C 
ATOM     16  C   UNL     1      -1.811   2.872  -0.007  0.00  0.00    +0.152 C 
ATOM     17  C   UNL     1      -1.771   4.264  -0.176  0.00  0.00    +0.048 C 
ATOM     18  C   UNL     1      -0.762   4.675   0.659  0.00  0.00    +0.046 C 
ATOM     19  C   UNL     1      -0.209   6.007   0.954  0.00  0.00    +0.049 C 
ATOM     20  H   UNL     1      -3.358   2.625  -1.223  0.00  0.00    +0.156 HD
ATOM     21  H   UNL     1       0.455   3.548   1.903  0.00  0.00    +0.174 HD
ENDROOT
BRANCH   7  24
ATOM     22  O   UNL     1       1.257  -0.423   2.143  0.00  0.00    -0.356 OA
ATOM     23  N   UNL     1       2.460   0.016   1.603  0.00  0.00    -0.076 NA
ATOM     24  C   UNL     1       0.684  -1.287   1.277  0.00  0.00    +0.173 C 
ATOM     25  C   UNL     1       1.459  -1.446   0.172  0.00  0.00    +0.061 C 
ATOM     26  C   UNL     1       2.559  -0.609   0.426  0.00  0.00    +0.140 C 
BRANCH  26  28
ATOM     27  N   UNL     1       3.690  -1.077  -1.591  0.00  0.00    -0.242 NA
ATOM     28  C   UNL     1       3.697  -0.394  -0.427  0.00  0.00    +0.102 C 
ATOM     29  C   UNL     1       4.708   0.467  -0.034  0.00  0.00    +0.021 C 
ATOM     30  C   UNL     1       5.785   0.637  -0.896  0.00  0.00    +0.003 C 
ATOM     31  C   UNL     1       4.754  -0.886  -2.403  0.00  0.00    +0.099 C 
ATOM     32  C   UNL     1       5.816  -0.049  -2.105  0.00  0.00    +0.021 C 
ENDBRANCH  26  28
ENDBRANCH   7  24
TORSDOF 2
