REMARK  Name = 11317469
REMARK  5 active torsions:
REMARK  status: ('A' for Active; 'I' for Inactive)
REMARK    1  A    between atoms: N_3  and  C_18
REMARK    2  A    between atoms: C_5  and  C_9
REMARK    3  A    between atoms: C_10  and  N_17
REMARK    4  A    between atoms: C_21  and  S_24
REMARK    5  A    between atoms: S_24  and  C_28
REMARK                            x       y       z     vdW  Elec       q    Type
REMARK                         _______ _______ _______ _____ _____    ______ ____
ROOT
ATOM      1  O   UNL     1      -3.597   0.439  -2.156  0.00  0.00    -0.270 OA
ATOM      2  O   UNL     1      -0.921  -0.189  -1.733  0.00  0.00    -0.252 OA
ATOM      3  N   UNL     1      -0.553  -1.164   0.372  0.00  0.00    -0.268 N 
ATOM      4  N   UNL     1      -2.678  -0.542  -0.254  0.00  0.00    -0.236 N 
ATOM      5  C   UNL     1      -3.744  -0.033  -1.018  0.00  0.00    +0.254 C 
ATOM      6  C   UNL     1      -1.325  -0.596  -0.647  0.00  0.00    +0.310 C 
ATOM      7  H   UNL     1      -1.039  -1.435   1.184  0.00  0.00    +0.156 HD
ATOM      8  H   UNL     1      -2.898  -0.895   0.638  0.00  0.00    +0.159 HD
ENDROOT
BRANCH   5   9
ATOM      9  C   UNL     1      -5.072  -0.110  -0.420  0.00  0.00    +0.076 C 
ATOM     10  C   UNL     1      -5.578   0.922   0.370  0.00  0.00    +0.147 C 
ATOM     11  C   UNL     1      -5.841  -1.250  -0.656  0.00  0.00    +0.006 C 
ATOM     12  C   UNL     1      -6.853   0.814   0.925  0.00  0.00    +0.024 C 
ATOM     13  C   UNL     1      -7.116  -1.358  -0.101  0.00  0.00    +0.000 C 
ATOM     14  C   UNL     1      -7.622  -0.326   0.690  0.00  0.00    +0.002 C 
BRANCH  10  17
ATOM     15  O   UNL     1      -5.310   2.995   1.342  0.00  0.00    -0.126 OA
ATOM     16  O   UNL     1      -3.668   2.191   0.127  0.00  0.00    -0.126 OA
ATOM     17  N   UNL     1      -4.814   2.095   0.626  0.00  0.00    +0.058 N 
ENDBRANCH  10  17
ENDBRANCH   5   9
BRANCH   3  18
ATOM     18  C   UNL     1       0.842  -1.396   0.376  0.00  0.00    +0.052 C 
ATOM     19  C   UNL     1       1.593  -1.040  -0.733  0.00  0.00    +0.015 C 
ATOM     20  C   UNL     1       1.429  -1.974   1.489  0.00  0.00    +0.015 C 
ATOM     21  C   UNL     1       3.575  -1.852   0.384  0.00  0.00    +0.039 C 
ATOM     22  C   UNL     1       2.969  -1.270  -0.729  0.00  0.00    +0.008 C 
ATOM     23  C   UNL     1       2.805  -2.204   1.493  0.00  0.00    +0.008 C 
BRANCH  21  24
ATOM     24  S   UNL     1       5.332  -2.147   0.390  0.00  0.00    -0.016 S 
BRANCH  24  28
ATOM     25 BR   UNL     1       7.588   3.736  -0.339  0.00  0.00    -0.050 Br
ATOM     26  N   UNL     1       5.631   0.399   1.133  0.00  0.00    -0.209 NA
ATOM     27  N   UNL     1       6.725  -0.273  -0.906  0.00  0.00    -0.187 NA
ATOM     28  C   UNL     1       5.966  -0.490   0.182  0.00  0.00    +0.064 C 
ATOM     29  C   UNL     1       6.128   1.640   0.947  0.00  0.00    +0.171 C 
ATOM     30  C   UNL     1       7.189   0.988  -1.029  0.00  0.00    +0.114 C 
ATOM     31  C   UNL     1       6.920   1.996  -0.125  0.00  0.00    +0.057 C 
ENDBRANCH  24  28
ENDBRANCH  21  24
ENDBRANCH   3  18
TORSDOF 5
