REMARK  Name = 11318905
REMARK  10 active torsions:
REMARK  status: ('A' for Active; 'I' for Inactive)
REMARK    1  A    between atoms: N_2  and  CA_18
REMARK    2  A    between atoms: C_3  and  C_7
REMARK    3  A    between atoms: C_12  and  C_13
REMARK    4  A    between atoms: C_13  and  N_14
REMARK    5  A    between atoms: CA_18  and  C_20
REMARK    6  A    between atoms: CA_18  and  CB_23
REMARK    7  A    between atoms: C_20  and  O_21
REMARK    8  A    between atoms: CB_23  and  CG_24
REMARK    9  A    between atoms: CG_24  and  CD_26
REMARK   10  A    between atoms: CD_26  and  OE1_27
REMARK                            x       y       z     vdW  Elec       q    Type
REMARK                         _______ _______ _______ _____ _____    ______ ____
ROOT
ATOM      1  O   UNL     1       0.862  -0.013  -1.426  0.00  0.00    -0.273 OA
ATOM      2  N   UNL     1      -0.715   0.859   0.048  0.00  0.00    -0.295 N 
ATOM      3  C   ACE A   0       0.540   0.403  -0.315  0.00  0.00    +0.239 C 
ATOM      4  H   UNL     1      -0.852   1.168   0.973  0.00  0.00    +0.150 HD
ENDROOT
BRANCH   3   7
ATOM      5  O   UNL     1       2.518  -2.118  -0.055  0.00  0.00    -0.277 OA
ATOM      6  N   UNL     1       2.853   0.156   0.274  0.00  0.00    -0.277 N 
ATOM      7  C   UNL     1       1.528   0.487   0.819  0.00  0.00    +0.129 C 
ATOM      8  C   UNL     1       1.662   1.954   1.268  0.00  0.00    +0.029 C 
ATOM      9  C   UNL     1       2.748   2.514   0.357  0.00  0.00    +0.024 C 
ATOM     10  C   UNL     1       3.705   1.343   0.215  0.00  0.00    +0.094 C 
ATOM     11  C   UNL     1       1.084  -0.395   1.984  0.00  0.00    +0.029 C 
ATOM     12  C   UNL     1       3.242  -1.122  -0.107  0.00  0.00    +0.204 C 
BRANCH  12  13
ATOM     13  C   UNL     1       4.650  -1.246  -0.633  0.00  0.00    +0.001 C 
BRANCH  13  14
ATOM     14  N   UNL     1       4.833  -2.640  -0.973  0.00  0.00    +0.386 N 
ATOM     15  H   UNL     1       5.776  -2.781  -1.336  0.00  0.00    -0.089 HD
ATOM     16  H   UNL     1       4.152  -2.909  -1.683  0.00  0.00    -0.089 HD
ATOM     17  H   UNL     1       4.701  -3.214  -0.140  0.00  0.00    -0.089 HD
ENDBRANCH  13  14
ENDBRANCH  12  13
ENDBRANCH   3   7
BRANCH   2  18
ATOM     18  CA  UNL     1      -1.835   0.904  -0.865  0.00  0.00    +0.172 C 
BRANCH  18  20
ATOM     19  OXT UNL     1      -2.476   2.851   0.451  0.00  0.00    -0.248 OA
ATOM     20  C   UNL     1      -2.658   2.128  -0.520  0.00  0.00    +0.332 C 
BRANCH  20  21
ATOM     21  O   UNL     1      -3.623   2.368  -1.447  0.00  0.00    -0.479 OA
ATOM     22  H   UNL     1      -3.727   1.788  -2.175  0.00  0.00    +0.295 HD
ENDBRANCH  20  21
ENDBRANCH  18  20
BRANCH  18  23
ATOM     23  CB  UNL     1      -2.641  -0.401  -0.877  0.00  0.00    +0.043 C 
BRANCH  23  24
ATOM     24  CG  UNL     1      -3.310  -0.786   0.448  0.00  0.00    +0.112 C 
BRANCH  24  26
ATOM     25  OE2 UNL     1      -4.186  -2.804  -0.598  0.00  0.00    -0.250 OA
ATOM     26  CD  UNL     1      -4.082  -2.086   0.386  0.00  0.00    +0.314 C 
BRANCH  26  27
ATOM     27  OE1 UNL     1      -4.699  -2.358   1.566  0.00  0.00    -0.480 OA
ATOM     28  HE1 UNL     1      -4.592  -1.779   2.295  0.00  0.00    +0.295 HD
ENDBRANCH  26  27
ENDBRANCH  24  26
ENDBRANCH  23  24
ENDBRANCH  18  23
ENDBRANCH   2  18
TORSDOF 10
