REMARK  Name = 11314326
REMARK  8 active torsions:
REMARK  status: ('A' for Active; 'I' for Inactive)
REMARK    1  A    between atoms: C_3  and  C_29
REMARK    2  A    between atoms: C_4  and  C_8
REMARK    3  A    between atoms: C_7  and  C_18
REMARK    4  A    between atoms: C_11  and  O_14
REMARK    5  A    between atoms: C_13  and  O_16
REMARK    6  A    between atoms: C_21  and  O_24
REMARK    7  A    between atoms: C_23  and  O_26
REMARK    8  A    between atoms: C_29  and  O_30
REMARK                            x       y       z     vdW  Elec       q    Type
REMARK                         _______ _______ _______ _____ _____    ______ ____
ROOT
ATOM      1  O   UNL     1      -1.788  -2.336   0.696  0.00  0.00    -0.444 OA
ATOM      2  O   UNL     1      -0.625  -2.673   2.650  0.00  0.00    -0.245 OA
ATOM      3  C   UNL     1      -0.144  -1.186  -0.582  0.00  0.00    +0.171 C 
ATOM      4  C   UNL     1      -1.613  -1.586  -0.528  0.00  0.00    +0.206 C 
ATOM      5  C   UNL     1       0.288  -1.392   0.822  0.00  0.00    +0.068 C 
ATOM      6  C   UNL     1      -0.718  -2.202   1.531  0.00  0.00    +0.338 C 
ATOM      7  C   UNL     1       1.374  -0.912   1.433  0.00  0.00    +0.003 C 
ENDROOT
BRANCH   4   8
ATOM      8  C   UNL     1      -2.524  -0.405  -0.473  0.00  0.00    +0.021 C 
ATOM      9  C   UNL     1      -2.349   0.563   0.515  0.00  0.00    +0.039 C 
ATOM     10  C   UNL     1      -3.548  -0.272  -1.409  0.00  0.00    +0.003 C 
ATOM     11  C   UNL     1      -3.201   1.666   0.567  0.00  0.00    +0.167 C 
ATOM     12  C   UNL     1      -4.400   0.832  -1.357  0.00  0.00    +0.040 C 
ATOM     13  C   UNL     1      -4.226   1.801  -0.369  0.00  0.00    +0.167 C 
BRANCH  11  14
ATOM     14  O   UNL     1      -3.021   2.607   1.536  0.00  0.00    -0.503 OA
ATOM     15  H   UNL     1      -2.330   2.509   2.161  0.00  0.00    +0.292 HD
ENDBRANCH  11  14
BRANCH  13  16
ATOM     16  O   UNL     1      -5.063   2.875  -0.330  0.00  0.00    -0.503 OA
ATOM     17  H   UNL     1      -4.953   3.530   0.331  0.00  0.00    +0.292 HD
ENDBRANCH  13  16
ENDBRANCH   4   8
BRANCH   7  18
ATOM     18  C   UNL     1       2.428  -0.095   0.804  0.00  0.00    +0.003 C 
ATOM     19  C   UNL     1       2.296   1.283   0.782  0.00  0.00    +0.040 C 
ATOM     20  C   UNL     1       3.530  -0.724   0.247  0.00  0.00    +0.003 C 
ATOM     21  C   UNL     1       3.293   2.056   0.187  0.00  0.00    +0.167 C 
ATOM     22  C   UNL     1       4.527   0.049  -0.349  0.00  0.00    +0.040 C 
ATOM     23  C   UNL     1       4.408   1.438  -0.379  0.00  0.00    +0.167 C 
BRANCH  21  24
ATOM     24  O   UNL     1       3.166   3.412   0.164  0.00  0.00    -0.503 OA
ATOM     25  H   UNL     1       2.414   3.819   0.546  0.00  0.00    +0.292 HD
ENDBRANCH  21  24
BRANCH  23  26
ATOM     26  O   UNL     1       5.390   2.181  -0.963  0.00  0.00    -0.503 OA
ATOM     27  H   UNL     1       5.318   3.115  -0.987  0.00  0.00    +0.292 HD
ENDBRANCH  23  26
ENDBRANCH   7  18
BRANCH   3  29
ATOM     28  O   UNL     1       1.110  -3.197  -1.061  0.00  0.00    -0.250 OA
ATOM     29  C   UNL     1       0.642  -2.133  -1.438  0.00  0.00    +0.322 C 
BRANCH  29  30
ATOM     30  O   UNL     1       0.769  -1.647  -2.697  0.00  0.00    -0.480 OA
ATOM     31  H   UNL     1       0.386  -0.823  -2.922  0.00  0.00    +0.295 HD
ENDBRANCH  29  30
ENDBRANCH   3  29
TORSDOF 8
