REMARK  Name = 1131
REMARK  8 active torsions:
REMARK  status: ('A' for Active; 'I' for Inactive)
REMARK    1  A    between atoms: N_2  and  C_7
REMARK    2  A    between atoms: C_4  and  C_18
REMARK    3  A    between atoms: C_7  and  C_11
REMARK    4  A    between atoms: C_18  and  C_19
REMARK    5  A    between atoms: C_19  and  O_20
REMARK    6  A    between atoms: O_20  and  P_21
REMARK    7  A    between atoms: P_21  and  O_23
REMARK    8  A    between atoms: P_21  and  O_25
REMARK                            x       y       z     vdW  Elec       q    Type
REMARK                         _______ _______ _______ _____ _____    ______ ____
ROOT
ATOM      1  S   UNL     1      -1.334  -2.678   1.689  0.00  0.00    -0.095 S 
ATOM      2  N   UNL     1       0.542  -2.141   0.115  0.00  0.00    -0.297 N 
ATOM      3  C   UNL     1      -0.597  -1.798  -0.579  0.00  0.00    +0.028 C 
ATOM      4  C   UNL     1      -1.707  -2.037   0.156  0.00  0.00    +0.016 C 
ATOM      5  C   UNL     1       0.336  -2.620   1.323  0.00  0.00    +0.154 C 
ATOM      6  C   UNL     1      -0.449  -1.256  -1.938  0.00  0.00    +0.047 C 
ENDROOT
BRANCH   2   7
ATOM      7  C   UNL     1       1.875  -1.996  -0.419  0.00  0.00    +0.124 C 
BRANCH   7  11
ATOM      8  N   UNL     1       3.547   1.383  -0.676  0.00  0.00    -0.340 NA
ATOM      9  N   UNL     1       2.721   1.077   1.567  0.00  0.00    -0.186 NA
ATOM     10  N   UNL     1       3.242  -0.314  -2.303  0.00  0.00    -0.332 N 
ATOM     11  C   UNL     1       2.413  -0.635  -0.075  0.00  0.00    +0.062 C 
ATOM     12  C   UNL     1       3.064   0.161  -0.981  0.00  0.00    +0.187 C 
ATOM     13  C   UNL     1       2.263  -0.136   1.194  0.00  0.00    +0.111 C 
ATOM     14  C   UNL     1       3.344   1.773   0.597  0.00  0.00    +0.066 C 
ATOM     15  C   UNL     1       3.865   3.119   0.973  0.00  0.00    +0.129 C 
ATOM     16  H   UNL     1       3.707   0.243  -2.968  0.00  0.00    +0.145 HD
ATOM     17  H   UNL     1       2.900  -1.202  -2.558  0.00  0.00    +0.145 HD
ENDBRANCH   7  11
ENDBRANCH   2   7
BRANCH   4  18
ATOM     18  C   UNL     1      -3.154  -1.809  -0.213  0.00  0.00    +0.066 C 
BRANCH  18  19
ATOM     19  C   UNL     1      -3.632  -0.413   0.179  0.00  0.00    +0.159 C 
BRANCH  19  20
ATOM     20  O   UNL     1      -2.851   0.583  -0.458  0.00  0.00    -0.273 OA
BRANCH  20  21
ATOM     21  P   UNL     1      -3.201   2.138  -0.172  0.00  0.00    +0.473 P 
ATOM     22  O   UNL     1      -2.326   3.126  -0.886  0.00  0.00    -0.227 OA
BRANCH  21  23
ATOM     23  O   UNL     1      -3.188   2.243   1.442  0.00  0.00    -0.303 OA
ATOM     24  H   UNL     1      -3.779   1.570   1.815  0.00  0.00    +0.222 HD
ENDBRANCH  21  23
BRANCH  21  25
ATOM     25  O   UNL     1      -4.773   2.228  -0.538  0.00  0.00    -0.303 OA
ATOM     26  H   UNL     1      -5.261   1.558  -0.035  0.00  0.00    +0.222 HD
ENDBRANCH  21  25
ENDBRANCH  20  21
ENDBRANCH  19  20
ENDBRANCH  18  19
ENDBRANCH   4  18
TORSDOF 8
