REMARK  Name = 11317971
REMARK  4 active torsions:
REMARK  status: ('A' for Active; 'I' for Inactive)
REMARK    1  A    between atoms: C_8  and  O_33
REMARK    2  A    between atoms: C_8  and  C_36
REMARK    3  A    between atoms: C_29  and  O_39
REMARK    4  A    between atoms: C_36  and  O_37
REMARK                            x       y       z     vdW  Elec       q    Type
REMARK                         _______ _______ _______ _____ _____    ______ ____
ROOT
ATOM      1  O   UNL     1       0.255   2.371  -1.685  0.00  0.00    -0.318 OA
ATOM      2  O   UNL     1      -0.049  -4.758   0.084  0.00  0.00    -0.270 OA
ATOM      3  O   UNL     1      -4.275  -2.961   0.367  0.00  0.00    -0.270 OA
ATOM      4  N   UNL     1       1.280   0.537  -0.655  0.00  0.00    -0.305 N 
ATOM      5  N   UNL     1      -1.452   1.684  -0.352  0.00  0.00    -0.304 N 
ATOM      6  N   UNL     1      -2.304  -4.207   0.287  0.00  0.00    -0.248 N 
ATOM      7  C   UNL     1       1.484   1.923  -1.086  0.00  0.00    +0.198 C 
ATOM      8  C   UNL     1       1.692   2.913   0.077  0.00  0.00    +0.223 C 
ATOM      9  C   UNL     1      -0.587   2.796  -0.623  0.00  0.00    +0.209 C 
ATOM     10  C   UNL     1       0.281   3.184   0.568  0.00  0.00    +0.096 C 
ATOM     11  C   UNL     1       0.136  -0.198  -0.421  0.00  0.00    +0.078 A 
ATOM     12  C   UNL     1      -1.178   0.348  -0.298  0.00  0.00    +0.078 A 
ATOM     13  C   UNL     1       0.207  -1.636  -0.241  0.00  0.00    +0.023 A 
ATOM     14  C   UNL     1       2.499   2.068  -2.233  0.00  0.00    +0.057 C 
ATOM     15  C   UNL     1      -2.246  -0.602  -0.067  0.00  0.00    +0.023 A 
ATOM     16  C   UNL     1       2.268  -0.446  -0.474  0.00  0.00    +0.062 A 
ATOM     17  C   UNL     1      -2.823   1.718  -0.133  0.00  0.00    +0.062 A 
ATOM     18  C   UNL     1       1.667  -1.733  -0.294  0.00  0.00    +0.020 A 
ATOM     19  C   UNL     1      -3.327   0.390   0.024  0.00  0.00    +0.017 A 
ATOM     20  C   UNL     1      -0.857  -2.516  -0.055  0.00  0.00    +0.060 A 
ATOM     21  C   UNL     1      -2.127  -1.982   0.028  0.00  0.00    +0.060 A 
ATOM     22  C   UNL     1       3.674  -0.320  -0.452  0.00  0.00    +0.020 C 
ATOM     23  C   UNL     1      -3.679   2.835  -0.060  0.00  0.00    +0.017 C 
ATOM     24  C   UNL     1       2.533  -2.849  -0.156  0.00  0.00    +0.038 C 
ATOM     25  C   UNL     1      -0.963  -3.959   0.110  0.00  0.00    +0.252 C 
ATOM     26  C   UNL     1      -3.071  -3.066   0.249  0.00  0.00    +0.252 C 
ATOM     27  C   UNL     1      -4.720   0.249   0.249  0.00  0.00    +0.001 C 
ATOM     28  C   UNL     1       4.483  -1.447  -0.304  0.00  0.00    +0.038 C 
ATOM     29  C   UNL     1       3.920  -2.701  -0.169  0.00  0.00    +0.134 C 
ATOM     30  C   UNL     1      -5.042   2.642   0.162  0.00  0.00    +0.001 C 
ATOM     31  C   UNL     1      -5.559   1.366   0.314  0.00  0.00    +0.000 C 
ATOM     32  H   UNL     1      -2.676  -5.107   0.426  0.00  0.00    +0.158 HD
ENDROOT
BRANCH   8  33
ATOM     33  O   UNL     1       2.265   4.126  -0.399  0.00  0.00    -0.373 OA
ATOM     34  H   UNL     1       1.715   4.485  -1.112  0.00  0.00    +0.211 HD
ENDBRANCH   8  33
BRANCH   8  36
ATOM     35  O   UNL     1       3.805   2.635   1.200  0.00  0.00    -0.247 OA
ATOM     36  C   UNL     1       2.599   2.429   1.169  0.00  0.00    +0.346 C 
BRANCH  36  37
ATOM     37  O   UNL     1       1.872   1.741   2.095  0.00  0.00    -0.443 OA
ATOM     38  C   UNL     1       2.618   1.220   3.200  0.00  0.00    +0.256 C 
ENDBRANCH  36  37
ENDBRANCH   8  36
BRANCH  29  39
ATOM     39  O   UNL     1       4.719  -3.795  -0.026  0.00  0.00    -0.506 OA
ATOM     40  H   UNL     1       4.337  -4.645   0.066  0.00  0.00    +0.292 HD
ENDBRANCH  29  39
TORSDOF 4
