11314326
  -OEChem-03292013303D

 40 42  0     1  0  0  0  0  0999 V2000
   -1.7882   -2.3363    0.6956 O   0  0  0  0  0  0  0  0  0  0  0  0
    0.7695   -1.6475   -2.6972 O   0  0  0  0  0  0  0  0  0  0  0  0
   -0.6252   -2.6734    2.6502 O   0  0  0  0  0  0  0  0  0  0  0  0
    1.1100   -3.1973   -1.0606 O   0  0  0  0  0  0  0  0  0  0  0  0
   -3.0211    2.6065    1.5362 O   0  0  0  0  0  0  0  0  0  0  0  0
   -5.0632    2.8746   -0.3296 O   0  0  0  0  0  0  0  0  0  0  0  0
    3.1664    3.4118    0.1640 O   0  0  0  0  0  0  0  0  0  0  0  0
    5.3897    2.1814   -0.9625 O   0  0  0  0  0  0  0  0  0  0  0  0
   -0.1436   -1.1856   -0.5816 C   0  0  1  0  0  0  0  0  0  0  0  0
   -1.6126   -1.5862   -0.5277 C   0  0  2  0  0  0  0  0  0  0  0  0
    0.2878   -1.3918    0.8217 C   0  0  0  0  0  0  0  0  0  0  0  0
   -2.5238   -0.4049   -0.4727 C   0  0  0  0  0  0  0  0  0  0  0  0
   -0.7183   -2.2024    1.5311 C   0  0  0  0  0  0  0  0  0  0  0  0
    0.6425   -2.1332   -1.4380 C   0  0  0  0  0  0  0  0  0  0  0  0
    1.3739   -0.9119    1.4327 C   0  0  0  0  0  0  0  0  0  0  0  0
   -2.3493    0.5629    0.5154 C   0  0  0  0  0  0  0  0  0  0  0  0
   -3.5480   -0.2719   -1.4091 C   0  0  0  0  0  0  0  0  0  0  0  0
    2.4278   -0.0954    0.8040 C   0  0  0  0  0  0  0  0  0  0  0  0
   -3.2010    1.6664    0.5673 C   0  0  0  0  0  0  0  0  0  0  0  0
   -4.3996    0.8315   -1.3573 C   0  0  0  0  0  0  0  0  0  0  0  0
   -4.2262    1.8006   -0.3692 C   0  0  0  0  0  0  0  0  0  0  0  0
    2.2955    1.2833    0.7824 C   0  0  0  0  0  0  0  0  0  0  0  0
    3.5295   -0.7235    0.2466 C   0  0  0  0  0  0  0  0  0  0  0  0
    3.2927    2.0556    0.1866 C   0  0  0  0  0  0  0  0  0  0  0  0
    4.5266    0.0486   -0.3491 C   0  0  0  0  0  0  0  0  0  0  0  0
    4.4083    1.4381   -0.3791 C   0  0  0  0  0  0  0  0  0  0  0  0
    0.0265   -0.1609   -0.9312 H   0  0  0  0  0  0  0  0  0  0  0  0
   -1.8829   -2.2507   -1.3572 H   0  0  0  0  0  0  0  0  0  0  0  0
    1.5522   -1.1301    2.4833 H   0  0  0  0  0  0  0  0  0  0  0  0
   -1.5649    0.4807    1.2601 H   0  0  0  0  0  0  0  0  0  0  0  0
   -3.6955   -1.0184   -2.1847 H   0  0  0  0  0  0  0  0  0  0  0  0
   -5.1961    0.9305   -2.0898 H   0  0  0  0  0  0  0  0  0  0  0  0
    1.4276    1.7695    1.2214 H   0  0  0  0  0  0  0  0  0  0  0  0
    3.6333   -1.8051    0.2645 H   0  0  0  0  0  0  0  0  0  0  0  0
    1.2833   -2.2529   -3.2731 H   0  0  0  0  0  0  0  0  0  0  0  0
    5.3905   -0.4453   -0.7858 H   0  0  0  0  0  0  0  0  0  0  0  0
   -2.2650    2.3508    2.0919 H   0  0  0  0  0  0  0  0  0  0  0  0
   -4.7982    3.4417    0.4154 H   0  0  0  0  0  0  0  0  0  0  0  0
    3.9449    3.7840   -0.2856 H   0  0  0  0  0  0  0  0  0  0  0  0
    6.0809    1.5855   -1.2986 H   0  0  0  0  0  0  0  0  0  0  0  0
  1 10  1  0  0  0  0
  1 13  1  0  0  0  0
  2 14  1  0  0  0  0
  2 35  1  0  0  0  0
  3 13  2  0  0  0  0
  4 14  2  0  0  0  0
  5 19  1  0  0  0  0
  5 37  1  0  0  0  0
  6 21  1  0  0  0  0
  6 38  1  0  0  0  0
  7 24  1  0  0  0  0
  7 39  1  0  0  0  0
  8 26  1  0  0  0  0
  8 40  1  0  0  0  0
  9 10  1  0  0  0  0
  9 11  1  0  0  0  0
  9 14  1  0  0  0  0
  9 27  1  0  0  0  0
 10 12  1  0  0  0  0
 10 28  1  0  0  0  0
 11 13  1  0  0  0  0
 11 15  2  0  0  0  0
 12 16  2  0  0  0  0
 12 17  1  0  0  0  0
 15 18  1  0  0  0  0
 15 29  1  0  0  0  0
 16 19  1  0  0  0  0
 16 30  1  0  0  0  0
 17 20  2  0  0  0  0
 17 31  1  0  0  0  0
 18 22  2  0  0  0  0
 18 23  1  0  0  0  0
 19 21  2  0  0  0  0
 20 21  1  0  0  0  0
 20 32  1  0  0  0  0
 22 24  1  0  0  0  0
 22 33  1  0  0  0  0
 23 25  2  0  0  0  0
 23 34  1  0  0  0  0
 24 26  2  0  0  0  0
 25 26  1  0  0  0  0
 25 36  1  0  0  0  0
M  END
> <PUBCHEM_COMPOUND_CID>
11314326

> <PUBCHEM_CONFORMER_RMSD>
0.8

> <PUBCHEM_CONFORMER_DIVERSEORDER>
1
10
6
9
7
12
8
11
5
3
2
4

> <PUBCHEM_MMFF94_PARTIAL_CHARGES>
38
1 -0.43
10 0.42
11 -0.12
12 -0.14
13 0.71
14 0.66
15 -0.18
16 -0.15
17 -0.15
18 0.03
19 0.08
2 -0.65
20 -0.15
21 0.08
22 -0.15
23 -0.15
24 0.08
25 -0.15
26 0.08
29 0.15
3 -0.57
30 0.15
31 0.15
32 0.15
33 0.15
34 0.15
35 0.5
36 0.15
37 0.45
38 0.45
39 0.45
4 -0.57
40 0.45
5 -0.53
6 -0.53
7 -0.53
8 -0.53
9 0.2

> <PUBCHEM_EFFECTIVE_ROTOR_COUNT>
3.6

> <PUBCHEM_PHARMACOPHORE_FEATURES>
11
1 2 acceptor
1 3 acceptor
1 4 acceptor
1 5 donor
1 6 donor
1 7 donor
1 8 donor
3 2 4 14 anion
5 1 9 10 11 13 rings
6 12 16 17 19 20 21 rings
6 18 22 23 24 25 26 rings

> <PUBCHEM_HEAVY_ATOM_COUNT>
26

> <PUBCHEM_ATOM_DEF_STEREO_COUNT>
2

> <PUBCHEM_ATOM_UDEF_STEREO_COUNT>
0

> <PUBCHEM_BOND_DEF_STEREO_COUNT>
1

> <PUBCHEM_BOND_UDEF_STEREO_COUNT>
0

> <PUBCHEM_ISOTOPIC_ATOM_COUNT>
0

> <PUBCHEM_COMPONENT_COUNT>
1

> <PUBCHEM_CACTVS_TAUTO_COUNT>
51

> <PUBCHEM_CONFORMER_ID>
00ACA49600000001

> <PUBCHEM_MMFF94_ENERGY>
66.0533

> <PUBCHEM_FEATURE_SELFOVERLAP>
55.886

> <PUBCHEM_SHAPE_FINGERPRINT>
10165383 225 17313384487954224926
11221954 11 18411989078112373456
11578080 2 17908749173084858919
11763715 3 17253443804033401158
12173636 292 17972873937279530058
12633257 1 17968925414887965786
12788726 201 17974552903887640554
12824470 246 8935005901129531262
13464514 151 18270124495912974694
13590594 115 17403465069892960010
14468879 13 18269553999854884794
14713325 29 18199761395443787075
14787075 74 18263633121845845091
14955137 171 14852183771328047030
15163728 17 18341626914046328822
15238133 3 18261100873504913616
20775438 99 16193068132679123901
21033648 144 18334282189231462692
21860390 5 18268989774390966670
22182937 141 18188212120852009049
22907989 373 17772470341918901383
23419403 2 17693145890834051723
23559900 14 17414134830182994447
238 59 17703790340390725630
26353 1 15831384963764660806
2637199 183 18410571777817972320
283562 15 17823978046792203947
2838139 119 18341321258472468980
3472631 163 18338228246791457557
4280585 95 16912018608558323470
463206 1 9655569742565358700
474 4 18338793404014839289
5081480 168 17270352806392660645
56616090 278 18119811305352091547
633830 44 18334568002030202879
9981440 41 18341325677730235138
9999458 23 17824258207149770642

> <PUBCHEM_SHAPE_MULTIPOLES>
488.11
9.38
3.65
1.76
1.21
0.58
0.02
9.94
-2.48
-0.03
0.4
-0.4
-1.23
-0.18

> <PUBCHEM_SHAPE_SELFOVERLAP>
1080.386

> <PUBCHEM_SHAPE_VOLUME>
261.8

> <PUBCHEM_COORDINATE_TYPE>
2
5
10

$$$$
