11317971
  -OEChem-03292013303D

 56 63  0     1  0  0  0  0  0999 V2000
    0.2554    2.3708   -1.6845 O   0  0  0  0  0  0  0  0  0  0  0  0
    2.2650    4.1257   -0.3986 O   0  0  0  0  0  0  0  0  0  0  0  0
    1.8720    1.7414    2.0953 O   0  0  0  0  0  0  0  0  0  0  0  0
    3.8051    2.6346    1.1995 O   0  0  0  0  0  0  0  0  0  0  0  0
   -0.0485   -4.7585    0.0837 O   0  0  0  0  0  0  0  0  0  0  0  0
   -4.2747   -2.9613    0.3670 O   0  0  0  0  0  0  0  0  0  0  0  0
    4.7190   -3.7948   -0.0258 O   0  0  0  0  0  0  0  0  0  0  0  0
    1.2804    0.5372   -0.6548 N   0  0  0  0  0  0  0  0  0  0  0  0
   -1.4518    1.6837   -0.3517 N   0  0  0  0  0  0  0  0  0  0  0  0
   -2.3039   -4.2068    0.2867 N   0  0  0  0  0  0  0  0  0  0  0  0
    1.4841    1.9231   -1.0856 C   0  0  2  0  0  0  0  0  0  0  0  0
    1.6920    2.9125    0.0774 C   0  0  2  0  0  0  0  0  0  0  0  0
   -0.5867    2.7962   -0.6234 C   0  0  1  0  0  0  0  0  0  0  0  0
    0.2813    3.1845    0.5680 C   0  0  0  0  0  0  0  0  0  0  0  0
    0.1364   -0.1982   -0.4214 C   0  0  0  0  0  0  0  0  0  0  0  0
   -1.1784    0.3484   -0.2976 C   0  0  0  0  0  0  0  0  0  0  0  0
    0.2068   -1.6364   -0.2407 C   0  0  0  0  0  0  0  0  0  0  0  0
    2.4987    2.0680   -2.2327 C   0  0  0  0  0  0  0  0  0  0  0  0
   -2.2463   -0.6018   -0.0672 C   0  0  0  0  0  0  0  0  0  0  0  0
    2.2675   -0.4456   -0.4743 C   0  0  0  0  0  0  0  0  0  0  0  0
   -2.8231    1.7183   -0.1329 C   0  0  0  0  0  0  0  0  0  0  0  0
    1.6666   -1.7330   -0.2945 C   0  0  0  0  0  0  0  0  0  0  0  0
   -3.3274    0.3903    0.0241 C   0  0  0  0  0  0  0  0  0  0  0  0
    2.5992    2.4292    1.1693 C   0  0  0  0  0  0  0  0  0  0  0  0
   -0.8571   -2.5159   -0.0554 C   0  0  0  0  0  0  0  0  0  0  0  0
   -2.1273   -1.9815    0.0282 C   0  0  0  0  0  0  0  0  0  0  0  0
    3.6743   -0.3200   -0.4521 C   0  0  0  0  0  0  0  0  0  0  0  0
   -3.6790    2.8354   -0.0600 C   0  0  0  0  0  0  0  0  0  0  0  0
    2.5330   -2.8488   -0.1556 C   0  0  0  0  0  0  0  0  0  0  0  0
   -0.9626   -3.9592    0.1098 C   0  0  0  0  0  0  0  0  0  0  0  0
   -3.0705   -3.0664    0.2486 C   0  0  0  0  0  0  0  0  0  0  0  0
   -4.7204    0.2492    0.2487 C   0  0  0  0  0  0  0  0  0  0  0  0
    4.4830   -1.4471   -0.3045 C   0  0  0  0  0  0  0  0  0  0  0  0
    3.9204   -2.7013   -0.1685 C   0  0  0  0  0  0  0  0  0  0  0  0
   -5.0422    2.6422    0.1623 C   0  0  0  0  0  0  0  0  0  0  0  0
   -5.5586    1.3659    0.3135 C   0  0  0  0  0  0  0  0  0  0  0  0
    2.6182    1.2201    3.1996 C   0  0  0  0  0  0  0  0  0  0  0  0
   -1.1833    3.6383   -0.9838 H   0  0  0  0  0  0  0  0  0  0  0  0
    0.1349    4.2498    0.7866 H   0  0  0  0  0  0  0  0  0  0  0  0
   -0.0454    2.6523    1.4664 H   0  0  0  0  0  0  0  0  0  0  0  0
    2.3831    1.2613   -2.9664 H   0  0  0  0  0  0  0  0  0  0  0  0
    2.3369    3.0020   -2.7855 H   0  0  0  0  0  0  0  0  0  0  0  0
    3.5344    2.0788   -1.8891 H   0  0  0  0  0  0  0  0  0  0  0  0
    2.2486    4.7757    0.3247 H   0  0  0  0  0  0  0  0  0  0  0  0
    4.1596    0.6441   -0.5403 H   0  0  0  0  0  0  0  0  0  0  0  0
   -3.2947    3.8450   -0.1716 H   0  0  0  0  0  0  0  0  0  0  0  0
    2.1189   -3.8414   -0.0191 H   0  0  0  0  0  0  0  0  0  0  0  0
   -5.1659   -0.7309    0.3786 H   0  0  0  0  0  0  0  0  0  0  0  0
   -2.6878   -5.1348    0.4263 H   0  0  0  0  0  0  0  0  0  0  0  0
    5.5635   -1.3276   -0.2964 H   0  0  0  0  0  0  0  0  0  0  0  0
   -5.7036    3.5027    0.2181 H   0  0  0  0  0  0  0  0  0  0  0  0
   -6.6225    1.2292    0.4872 H   0  0  0  0  0  0  0  0  0  0  0  0
    3.3764    0.5150    2.8459 H   0  0  0  0  0  0  0  0  0  0  0  0
    1.9249    0.6886    3.8567 H   0  0  0  0  0  0  0  0  0  0  0  0
    3.0809    2.0363    3.7624 H   0  0  0  0  0  0  0  0  0  0  0  0
    4.1606   -4.5864    0.0601 H   0  0  0  0  0  0  0  0  0  0  0  0
  1 11  1  0  0  0  0
  1 13  1  0  0  0  0
  2 12  1  0  0  0  0
  2 44  1  0  0  0  0
  3 24  1  0  0  0  0
  3 37  1  0  0  0  0
  4 24  2  0  0  0  0
  5 30  2  0  0  0  0
  6 31  2  0  0  0  0
  7 34  1  0  0  0  0
  7 56  1  0  0  0  0
  8 11  1  0  0  0  0
  8 15  1  0  0  0  0
  8 20  1  0  0  0  0
  9 13  1  0  0  0  0
  9 16  1  0  0  0  0
  9 21  1  0  0  0  0
 10 30  1  0  0  0  0
 10 31  1  0  0  0  0
 10 49  1  0  0  0  0
 11 12  1  0  0  0  0
 11 18  1  0  0  0  0
 12 14  1  0  0  0  0
 12 24  1  0  0  0  0
 13 14  1  0  0  0  0
 13 38  1  0  0  0  0
 14 39  1  0  0  0  0
 14 40  1  0  0  0  0
 15 16  2  0  0  0  0
 15 17  1  0  0  0  0
 16 19  1  0  0  0  0
 17 22  1  0  0  0  0
 17 25  2  0  0  0  0
 18 41  1  0  0  0  0
 18 42  1  0  0  0  0
 18 43  1  0  0  0  0
 19 23  1  0  0  0  0
 19 26  2  0  0  0  0
 20 22  2  0  0  0  0
 20 27  1  0  0  0  0
 21 23  1  0  0  0  0
 21 28  2  0  0  0  0
 22 29  1  0  0  0  0
 23 32  2  0  0  0  0
 25 26  1  0  0  0  0
 25 30  1  0  0  0  0
 26 31  1  0  0  0  0
 27 33  2  0  0  0  0
 27 45  1  0  0  0  0
 28 35  1  0  0  0  0
 28 46  1  0  0  0  0
 29 34  2  0  0  0  0
 29 47  1  0  0  0  0
 32 36  1  0  0  0  0
 32 48  1  0  0  0  0
 33 34  1  0  0  0  0
 33 50  1  0  0  0  0
 35 36  2  0  0  0  0
 35 51  1  0  0  0  0
 36 52  1  0  0  0  0
 37 53  1  0  0  0  0
 37 54  1  0  0  0  0
 37 55  1  0  0  0  0
M  END
> <PUBCHEM_COMPOUND_CID>
11317971

> <PUBCHEM_CONFORMER_RMSD>
0.8

> <PUBCHEM_CONFORMER_DIVERSEORDER>
1

> <PUBCHEM_MMFF94_PARTIAL_CHARGES>
43
1 -0.56
10 -0.49
11 0.54
12 0.34
13 0.54
15 -0.05
16 -0.05
17 -0.01
19 -0.01
2 -0.68
20 -0.15
21 -0.15
24 0.66
25 0.09
26 0.09
27 -0.15
28 -0.15
29 -0.15
3 -0.43
30 0.54
31 0.54
32 -0.15
33 -0.15
34 0.08
35 -0.15
36 -0.15
37 0.28
4 -0.57
44 0.4
45 0.15
46 0.15
47 0.15
48 0.15
49 0.37
5 -0.57
50 0.15
51 0.15
52 0.15
56 0.45
6 -0.57
7 -0.53
8 -0.04
9 -0.04

> <PUBCHEM_EFFECTIVE_ROTOR_COUNT>
2.8

> <PUBCHEM_PHARMACOPHORE_FEATURES>
18
1 1 acceptor
1 10 donor
1 2 acceptor
1 2 donor
1 4 acceptor
1 5 acceptor
1 6 acceptor
1 7 donor
1 8 cation
1 9 cation
5 1 11 12 13 14 rings
5 10 25 26 30 31 rings
5 8 15 17 20 22 rings
5 9 16 19 21 23 rings
6 15 16 17 19 25 26 rings
6 20 22 27 29 33 34 rings
6 21 23 28 32 35 36 rings
7 1 8 9 11 13 15 16 rings

> <PUBCHEM_HEAVY_ATOM_COUNT>
37

> <PUBCHEM_ATOM_DEF_STEREO_COUNT>
3

> <PUBCHEM_ATOM_UDEF_STEREO_COUNT>
0

> <PUBCHEM_BOND_DEF_STEREO_COUNT>
0

> <PUBCHEM_BOND_UDEF_STEREO_COUNT>
0

> <PUBCHEM_ISOTOPIC_ATOM_COUNT>
0

> <PUBCHEM_COMPONENT_COUNT>
1

> <PUBCHEM_CACTVS_TAUTO_COUNT>
9

> <PUBCHEM_CONFORMER_ID>
00ACB2D300000001

> <PUBCHEM_MMFF94_ENERGY>
151.7383

> <PUBCHEM_FEATURE_SELFOVERLAP>
93.139

> <PUBCHEM_SHAPE_FINGERPRINT>
10290309 65 17975126548900076174
10439779 11 18195241114564216419
10675989 125 16459103252281605669
10930396 42 18048289204038047706
1100329 8 18337959995618007263
11513181 2 18130503144988125606
11578080 2 17917147328997001609
12422481 6 18267842017923244784
12788726 201 17979649935547254886
13140716 1 18411419497083050287
13402501 40 18267021639670684454
14178342 30 18193833979671252141
14790565 3 18193287286174490117
14955137 171 18193288398871491963
15131766 46 15479244096535301154
15320467 1 17906176500627508991
15439362 3 18410569582995680541
15513586 35 13957863398168692297
15927050 60 18340210816237080692
16112460 7 18200046044532945433
19319366 153 17604720949899902930
19591789 44 18193277381968901183
20028762 73 18199181802988011903
20600515 1 18197507225092465174
20642791 178 18188505643591734860
20764821 26 18337953501611488363
20775438 99 17836039655131398583
20905425 154 18124612026115759478
21033648 29 18267287747545379201
21133410 127 18042120024183005269
21421861 104 17972595773363428203
22149856 69 18338531785827635593
22223350 30 18340762654904762419
23559900 14 18411979186797428924
283562 15 17619353104597145870
3178227 256 18192732059352644681
350125 39 18337684095740987783
460360 51 17969487368540752047
469060 322 17690012137056002528
484985 159 15587858179561949880
484989 97 18407763643081385943
57527358 35 15982245367829417753
653340 110 18196935698194887433
9896288 288 17763448913928801792

> <PUBCHEM_SHAPE_MULTIPOLES>
705.41
8.61
6.21
1.37
4.98
3.66
0.78
0.42
0.88
-0.85
0.35
-1.53
-1.39
0.85

> <PUBCHEM_SHAPE_SELFOVERLAP>
1654.583

> <PUBCHEM_SHAPE_VOLUME>
356.2

> <PUBCHEM_COORDINATE_TYPE>
2
5
10

$$$$
