REMARK  Name = 11316460
REMARK  2 active torsions:
REMARK  status: ('A' for Active; 'I' for Inactive)
REMARK    1  A    between atoms: C_7  and  C_32
REMARK    2  A    between atoms: C_10  and  N_31
REMARK                            x       y       z     vdW  Elec       q    Type
REMARK                         _______ _______ _______ _____ _____    ______ ____
ROOT
ATOM      1  O   UNL     1       1.643   2.813   1.272  0.00  0.00    -0.273 OA
ATOM      2  O   UNL     1      -1.901   3.361  -0.156  0.00  0.00    -0.273 OA
ATOM      3  O   UNL     1      -2.427  -2.688  -0.898  0.00  0.00    -0.270 OA
ATOM      4  N   UNL     1       1.085   1.597  -0.625  0.00  0.00    -0.297 N 
ATOM      5  N   UNL     1      -0.627  -1.929   0.243  0.00  0.00    -0.255 N 
ATOM      6  N   UNL     1      -1.642   1.038  -0.336  0.00  0.00    -0.282 N 
ATOM      7  C   UNL     1       0.102   2.534  -1.157  0.00  0.00    +0.149 C 
ATOM      8  C   UNL     1       2.345  -0.352   1.744  0.00  0.00    +0.045 C 
ATOM      9  C   UNL     1       1.345  -1.230   1.065  0.00  0.00    +0.046 C 
ATOM     10  C   UNL     1       2.845   0.757   0.816  0.00  0.00    +0.242 C 
ATOM     11  C   UNL     1       1.596  -2.279   0.135  0.00  0.00    -0.007 C 
ATOM     12  C   UNL     1       0.356  -2.728  -0.341  0.00  0.00    +0.050 C 
ATOM     13  C   UNL     1       1.809   1.841   0.538  0.00  0.00    +0.250 C 
ATOM     14  C   UNL     1      -0.022  -1.149   1.207  0.00  0.00    +0.103 C 
ATOM     15  C   UNL     1      -1.246   2.364  -0.454  0.00  0.00    +0.244 C 
ATOM     16  C   UNL     1      -1.996  -1.868  -0.094  0.00  0.00    +0.254 C 
ATOM     17  C   UNL     1       2.780  -2.870  -0.360  0.00  0.00    -0.003 C 
ATOM     18  C   UNL     1      -2.956  -0.877   0.448  0.00  0.00    +0.067 C 
ATOM     19  C   UNL     1       0.279  -3.771  -1.284  0.00  0.00    +0.015 C 
ATOM     20  C   UNL     1      -2.784   0.521   0.335  0.00  0.00    +0.055 C 
ATOM     21  C   UNL     1       2.700  -3.906  -1.292  0.00  0.00    -0.000 C 
ATOM     22  C   UNL     1       1.465  -4.352  -1.744  0.00  0.00    +0.001 C 
ATOM     23  C   UNL     1      -4.086  -1.416   1.082  0.00  0.00    +0.006 C 
ATOM     24  C   UNL     1      -3.761   1.348   0.906  0.00  0.00    +0.015 C 
ATOM     25  C   UNL     1      -5.045  -0.573   1.632  0.00  0.00    +0.000 C 
ATOM     26  C   UNL     1      -4.881   0.805   1.547  0.00  0.00    +0.001 C 
ATOM     27  H   UNL     1       1.243   0.754  -1.109  0.00  0.00    +0.150 HD
ATOM     28  H   UNL     1      -1.060   0.373  -0.770  0.00  0.00    +0.155 HD
ENDROOT
BRANCH  10  31
ATOM     29  O   UNL     1       5.083   1.394   0.911  0.00  0.00    -0.131 OA
ATOM     30  O   UNL     1       3.763   1.960   2.582  0.00  0.00    -0.131 OA
ATOM     31  N   UNL     1       3.988   1.416   1.491  0.00  0.00    +0.041 N 
ENDBRANCH  10  31
BRANCH   7  32
ATOM     32  C   UNL     1      -0.057   2.356  -2.661  0.00  0.00    +0.027 C 
ATOM     33  C   UNL     1      -1.052   3.381  -3.203  0.00  0.00    +0.002 C 
ATOM     34  C   UNL     1       1.299   2.503  -3.348  0.00  0.00    +0.002 C 
ENDBRANCH   7  32
TORSDOF 2
