11317469
  -OEChem-03292013303D

 41 43  0     0  0  0  0  0  0999 V2000
    7.5877    3.7361   -0.3391 Br  0  0  0  0  0  0  0  0  0  0  0  0
    5.3323   -2.1475    0.3898 S   0  0  0  0  0  0  0  0  0  0  0  0
   -3.5969    0.4385   -2.1565 O   0  0  0  0  0  0  0  0  0  0  0  0
   -0.9209   -0.1892   -1.7334 O   0  0  0  0  0  0  0  0  0  0  0  0
   -5.3099    2.9955    1.3421 O   0  5  0  0  0  0  0  0  0  0  0  0
   -3.6681    2.1908    0.1271 O   0  0  0  0  0  0  0  0  0  0  0  0
   -0.5531   -1.1639    0.3720 N   0  0  0  0  0  0  0  0  0  0  0  0
   -2.6783   -0.5423   -0.2543 N   0  0  0  0  0  0  0  0  0  0  0  0
   -4.8139    2.0945    0.6258 N   0  3  0  0  0  0  0  0  0  0  0  0
    5.6312    0.3992    1.1332 N   0  0  0  0  0  0  0  0  0  0  0  0
    6.7252   -0.2727   -0.9061 N   0  0  0  0  0  0  0  0  0  0  0  0
   -5.0718   -0.1101   -0.4202 C   0  0  0  0  0  0  0  0  0  0  0  0
    0.8421   -1.3956    0.3758 C   0  0  0  0  0  0  0  0  0  0  0  0
   -5.5781    0.9217    0.3700 C   0  0  0  0  0  0  0  0  0  0  0  0
    1.5926   -1.0401   -0.7332 C   0  0  0  0  0  0  0  0  0  0  0  0
    1.4294   -1.9743    1.4890 C   0  0  0  0  0  0  0  0  0  0  0  0
    3.5748   -1.8517    0.3844 C   0  0  0  0  0  0  0  0  0  0  0  0
   -3.7439   -0.0332   -1.0177 C   0  0  0  0  0  0  0  0  0  0  0  0
   -5.8406   -1.2499   -0.6556 C   0  0  0  0  0  0  0  0  0  0  0  0
    2.9685   -1.2699   -0.7287 C   0  0  0  0  0  0  0  0  0  0  0  0
    2.8054   -2.2039    1.4934 C   0  0  0  0  0  0  0  0  0  0  0  0
   -6.8532    0.8136    0.9250 C   0  0  0  0  0  0  0  0  0  0  0  0
   -1.3251   -0.5955   -0.6470 C   0  0  0  0  0  0  0  0  0  0  0  0
   -7.1157   -1.3580   -0.1005 C   0  0  0  0  0  0  0  0  0  0  0  0
   -7.6221   -0.3262    0.6897 C   0  0  0  0  0  0  0  0  0  0  0  0
    5.9659   -0.4897    0.1818 C   0  0  0  0  0  0  0  0  0  0  0  0
    6.1281    1.6397    0.9474 C   0  0  0  0  0  0  0  0  0  0  0  0
    7.1885    0.9884   -1.0293 C   0  0  0  0  0  0  0  0  0  0  0  0
    6.9199    1.9957   -0.1252 C   0  0  0  0  0  0  0  0  0  0  0  0
    1.1980   -0.5881   -1.6309 H   0  0  0  0  0  0  0  0  0  0  0  0
    0.8393   -2.2525    2.3578 H   0  0  0  0  0  0  0  0  0  0  0  0
   -1.0462   -1.4475    1.2149 H   0  0  0  0  0  0  0  0  0  0  0  0
   -5.4577   -2.0610   -1.2697 H   0  0  0  0  0  0  0  0  0  0  0  0
    3.5486   -0.9928   -1.6058 H   0  0  0  0  0  0  0  0  0  0  0  0
    3.2604   -2.6582    2.3701 H   0  0  0  0  0  0  0  0  0  0  0  0
   -7.2840    1.5948    1.5462 H   0  0  0  0  0  0  0  0  0  0  0  0
   -2.9020   -0.9128    0.6657 H   0  0  0  0  0  0  0  0  0  0  0  0
   -7.7143   -2.2455   -0.2837 H   0  0  0  0  0  0  0  0  0  0  0  0
   -8.6151   -0.4109    1.1217 H   0  0  0  0  0  0  0  0  0  0  0  0
    5.8557    2.3548    1.7173 H   0  0  0  0  0  0  0  0  0  0  0  0
    7.8012    1.1603   -1.9089 H   0  0  0  0  0  0  0  0  0  0  0  0
  1 29  1  0  0  0  0
  2 17  1  0  0  0  0
  2 26  1  0  0  0  0
  3 18  2  0  0  0  0
  4 23  2  0  0  0  0
  5  9  1  0  0  0  0
  6  9  2  0  0  0  0
  7 13  1  0  0  0  0
  7 23  1  0  0  0  0
  7 32  1  0  0  0  0
  8 18  1  0  0  0  0
  8 23  1  0  0  0  0
  8 37  1  0  0  0  0
  9 14  1  0  0  0  0
 10 26  1  0  0  0  0
 10 27  2  0  0  0  0
 11 26  2  0  0  0  0
 11 28  1  0  0  0  0
 12 14  1  0  0  0  0
 12 18  1  0  0  0  0
 12 19  2  0  0  0  0
 13 15  2  0  0  0  0
 13 16  1  0  0  0  0
 14 22  2  0  0  0  0
 15 20  1  0  0  0  0
 15 30  1  0  0  0  0
 16 21  2  0  0  0  0
 16 31  1  0  0  0  0
 17 20  2  0  0  0  0
 17 21  1  0  0  0  0
 19 24  1  0  0  0  0
 19 33  1  0  0  0  0
 20 34  1  0  0  0  0
 21 35  1  0  0  0  0
 22 25  1  0  0  0  0
 22 36  1  0  0  0  0
 24 25  2  0  0  0  0
 24 38  1  0  0  0  0
 25 39  1  0  0  0  0
 27 29  1  0  0  0  0
 27 40  1  0  0  0  0
 28 29  2  0  0  0  0
 28 41  1  0  0  0  0
M  CHG  2   5  -1   9   1
M  END
> <PUBCHEM_COMPOUND_CID>
11317469

> <PUBCHEM_CONFORMER_RMSD>
1

> <PUBCHEM_CONFORMER_DIVERSEORDER>
1
37
12
33
32
14
40
25
28
34
20
30
41
21
7
42
15
36
23
27
18
39
9
8
11
22
38
3
35
24
10
4
13
17
26
6
19
2
16
31
5
29

> <PUBCHEM_MMFF94_PARTIAL_CHARGES>
41
1 -0.11
10 -0.62
11 -0.62
12 0.09
13 0.12
14 0.13
15 -0.15
16 -0.15
17 0.1
18 0.54
19 -0.15
2 -0.2
20 -0.15
21 -0.15
22 -0.15
23 0.69
24 -0.15
25 -0.15
26 0.72
27 0.16
28 0.16
29 0.11
3 -0.57
30 0.15
31 0.15
32 0.37
33 0.15
34 0.15
35 0.15
36 0.15
37 0.37
38 0.15
39 0.15
4 -0.57
40 0.15
41 0.15
5 -0.52
6 -0.52
7 -0.55
8 -0.49
9 0.91

> <PUBCHEM_EFFECTIVE_ROTOR_COUNT>
8

> <PUBCHEM_PHARMACOPHORE_FEATURES>
13
1 1 hydrophobe
1 10 acceptor
1 3 acceptor
1 4 acceptor
1 5 acceptor
1 5 anion
1 6 acceptor
1 7 donor
1 8 donor
3 10 11 26 cation
6 10 11 26 27 28 29 rings
6 12 14 19 22 24 25 rings
6 13 15 16 17 20 21 rings

> <PUBCHEM_HEAVY_ATOM_COUNT>
29

> <PUBCHEM_ATOM_DEF_STEREO_COUNT>
0

> <PUBCHEM_ATOM_UDEF_STEREO_COUNT>
0

> <PUBCHEM_BOND_DEF_STEREO_COUNT>
0

> <PUBCHEM_BOND_UDEF_STEREO_COUNT>
0

> <PUBCHEM_ISOTOPIC_ATOM_COUNT>
0

> <PUBCHEM_COMPONENT_COUNT>
1

> <PUBCHEM_CACTVS_TAUTO_COUNT>
5

> <PUBCHEM_CONFORMER_ID>
00ACB0DD00000001

> <PUBCHEM_MMFF94_ENERGY>
94.9505

> <PUBCHEM_FEATURE_SELFOVERLAP>
66.11

> <PUBCHEM_SHAPE_FINGERPRINT>
10 15 16153430562794769526
10319688 67 16226044539506557304
10391435 84 17313105280989499963
10638233 991 18343297067971864688
10838868 160 18268983358296031840
11007060 377 17749388153163626667
11315181 36 18408322178024633199
11478447 147 15409472520283539400
11719270 70 12901544628932828112
11991303 11 16415189117853558559
12539765 74 18131077008395703014
12596602 18 18336826390624212403
12838862 33 16370716051145581923
13782708 43 9151170952650367582
13914758 101 9079122167648659047
14216079 64 10663830671912229334
14251764 18 18342455946130117695
14394314 77 18411144597554661721
14461889 52 17022906752647513042
14565420 104 17967527978912384658
14849402 71 18338518641782641441
14856354 85 18059852900955529567
14933364 13 18202283580559812379
15183329 4 15410898461571609722
15188451 53 10953450830835569462
15685185 35 18191589872956948996
16126227 98 18336827597346699826
17686467 74 18261394499001990219
17857418 61 8142082083015917928
18603816 31 12757436115800607457
19377110 9 18113617855026378507
20567600 234 17240201045543560062
21130935 74 17968095270587514947
21307412 95 12750963281952259964
21521721 280 18335139804132994906
21641784 216 16343710902520183874
22149856 69 17313958398510808711
22224240 67 17603302674167455274
23522609 53 17988372493800768633
23559900 14 11963975714337894911
2747138 104 17313115120189342515
3418910 222 18343312483011151121
34797466 226 18272655641064334582
3663271 9 18336264540214314267
3711267 37 17918280843881600872
4073 2 18334296512874119890
4093350 32 17988927773844757238
4098825 35 18059861623242738598
437795 51 18410293648668115584
444769 64 10375873000503693959
445580 167 18340761620017895951
474113 269 10953726824906307882
4760202 70 18266453390244949119
5104073 3 16806718465458651283
5109719 28 17603309271595658508
5265222 85 17917145108436482847
531348 171 9367349245565849283
5372103 7 16414057794811919184
559249 180 8502366737997350217
5758199 1 18259705609653934610
5911458 16 18271812336862372424
59682541 35 17676211303374643635
6441014 3 12257184537206491608
9689198 14 18059860575312448470

> <PUBCHEM_SHAPE_MULTIPOLES>
558.22
26.33
3.1
1.35
1.03
2.24
0.14
15.21
-1.49
-5.03
-0.94
0.35
0
-1.9

> <PUBCHEM_SHAPE_SELFOVERLAP>
1182.46

> <PUBCHEM_SHAPE_VOLUME>
317.8

> <PUBCHEM_COORDINATE_TYPE>
2
5
10

$$$$
