REMARK  Name = 11315
REMARK  5 active torsions:
REMARK  status: ('A' for Active; 'I' for Inactive)
REMARK    1  A    between atoms: N_1  and  N_2
REMARK    2  A    between atoms: N_1  and  C_5
REMARK    3  A    between atoms: N_2  and  C_16
REMARK    4  A    between atoms: C_8  and  O_13
REMARK    5  A    between atoms: C_15  and  S_21
REMARK                            x       y       z     vdW  Elec       q    Type
REMARK                         _______ _______ _______ _____ _____    ______ ____
ROOT
ATOM      1  N   UNL     1      -0.744  -0.514  -0.470  0.00  0.00    -0.125 NA
ENDROOT
BRANCH   1   4
ATOM      2  C   UNL     1      -2.989   0.402  -0.158  0.00  0.00    +0.020 C 
ATOM      3  C   UNL     1      -4.370   0.175   0.051  0.00  0.00    +0.001 C 
ATOM      4  C   UNL     1      -2.121  -0.698  -0.262  0.00  0.00    +0.123 C 
ATOM      5  C   UNL     1      -4.844  -1.143   0.148  0.00  0.00    +0.003 C 
ATOM      6  C   UNL     1      -2.516   1.720  -0.256  0.00  0.00    +0.001 C 
ATOM      7  C   UNL     1      -2.609  -2.001  -0.163  0.00  0.00    +0.150 C 
ATOM      8  C   UNL     1      -5.238   1.275   0.155  0.00  0.00    +0.000 C 
ATOM      9  C   UNL     1      -3.967  -2.224   0.042  0.00  0.00    +0.038 C 
ATOM     10  C   UNL     1      -3.393   2.800  -0.150  0.00  0.00    +0.000 C 
ATOM     11  C   UNL     1      -4.751   2.578   0.055  0.00  0.00    +0.000 C 
BRANCH   7  12
ATOM     12  O   UNL     1      -1.771  -3.072  -0.264  0.00  0.00    -0.504 OA
ATOM     13  H   UNL     1      -0.854  -2.938  -0.402  0.00  0.00    +0.292 HD
ENDBRANCH   7  12
ENDBRANCH   1   4
BRANCH   1  14
ATOM     14  N   UNL     1      -0.158  -0.434   0.633  0.00  0.00    -0.128 NA
BRANCH  14  16
ATOM     15  C   UNL     1       3.948   0.114   0.021  0.00  0.00    +0.112 C 
ATOM     16  C   UNL     1       1.220  -0.250   0.426  0.00  0.00    +0.089 C 
ATOM     17  C   UNL     1       3.104   1.220   0.119  0.00  0.00    +0.020 C 
ATOM     18  C   UNL     1       3.425  -1.174   0.126  0.00  0.00    +0.020 C 
ATOM     19  C   UNL     1       1.736   1.037   0.323  0.00  0.00    +0.019 C 
ATOM     20  C   UNL     1       2.057  -1.357   0.329  0.00  0.00    +0.019 C 
BRANCH  15  21
ATOM     21  S   UNL     1       5.660   0.342  -0.236  0.00  0.00    +0.042 S 
ATOM     22  O   UNL     1       6.310   0.434   1.262  0.00  0.00    -0.065 OA
ATOM     23  O   UNL     1       6.187  -0.866  -0.854  0.00  0.00    -0.065 OA
ATOM     24  O   UNL     1       5.824   1.637  -0.879  0.00  0.00    -0.065 OA
ENDBRANCH  15  21
ENDBRANCH  14  16
ENDBRANCH   1  14
TORSDOF 5
