REMARK  Name = 11327094
REMARK  8 active torsions:
REMARK  status: ('A' for Active; 'I' for Inactive)
REMARK    1  A    between atoms: C_3  and  C_8
REMARK    2  A    between atoms: C_7  and  C_20
REMARK    3  A    between atoms: C_11  and  O_14
REMARK    4  A    between atoms: C_12  and  O_16
REMARK    5  A    between atoms: C_13  and  O_18
REMARK    6  A    between atoms: C_23  and  O_26
REMARK    7  A    between atoms: C_24  and  O_28
REMARK    8  A    between atoms: C_25  and  O_30
REMARK                            x       y       z     vdW  Elec       q    Type
REMARK                         _______ _______ _______ _____ _____    ______ ____
ROOT
ATOM      1  O   UNL     1       1.847   2.841   0.620  0.00  0.00    -0.444 OA
ATOM      2  O   UNL     1       0.605   3.359   2.487  0.00  0.00    -0.245 OA
ATOM      3  C   UNL     1       1.706   1.970  -0.523  0.00  0.00    +0.196 C 
ATOM      4  C   UNL     1       0.215   1.698  -0.662  0.00  0.00    +0.081 C 
ATOM      5  C   UNL     1      -0.262   1.973   0.713  0.00  0.00    +0.057 C 
ATOM      6  C   UNL     1       0.735   2.803   1.412  0.00  0.00    +0.338 C 
ATOM      7  C   UNL     1      -1.378   1.538   1.302  0.00  0.00    +0.002 C 
ENDROOT
BRANCH   3   8
ATOM      8  C   UNL     1       2.542   0.713  -0.394  0.00  0.00    +0.024 C 
ATOM      9  C   UNL     1       1.991  -0.440   0.169  0.00  0.00    +0.039 C 
ATOM     10  C   UNL     1       3.865   0.704  -0.839  0.00  0.00    +0.039 C 
ATOM     11  C   UNL     1       4.635  -0.454  -0.721  0.00  0.00    +0.175 C 
ATOM     12  C   UNL     1       2.760  -1.597   0.286  0.00  0.00    +0.175 C 
ATOM     13  C   UNL     1       4.082  -1.605  -0.158  0.00  0.00    +0.202 C 
BRANCH  11  14
ATOM     14  O   UNL     1       5.925  -0.447  -1.158  0.00  0.00    -0.468 OA
ATOM     15  C   UNL     1       6.413   0.770  -1.720  0.00  0.00    +0.253 C 
ENDBRANCH  11  14
BRANCH  12  16
ATOM     16  O   UNL     1       2.209  -2.713   0.840  0.00  0.00    -0.468 OA
ATOM     17  C   UNL     1       0.852  -2.622   1.269  0.00  0.00    +0.253 C 
ENDBRANCH  12  16
BRANCH  13  18
ATOM     18  O   UNL     1       4.835  -2.735  -0.041  0.00  0.00    -0.501 OA
ATOM     19  H   UNL     1       5.724  -2.739  -0.339  0.00  0.00    +0.292 HD
ENDBRANCH  13  18
ENDBRANCH   3   8
BRANCH   7  20
ATOM     20  C   UNL     1      -2.420   0.707   0.671  0.00  0.00    +0.006 C 
ATOM     21  C   UNL     1      -2.308  -0.672   0.722  0.00  0.00    +0.040 C 
ATOM     22  C   UNL     1      -3.488   1.323   0.041  0.00  0.00    +0.040 C 
ATOM     23  C   UNL     1      -4.474   0.536  -0.555  0.00  0.00    +0.175 C 
ATOM     24  C   UNL     1      -3.294  -1.459   0.125  0.00  0.00    +0.175 C 
ATOM     25  C   UNL     1      -4.377  -0.855  -0.513  0.00  0.00    +0.202 C 
BRANCH  23  26
ATOM     26  O   UNL     1      -5.527   1.139  -1.176  0.00  0.00    -0.468 OA
ATOM     27  C   UNL     1      -5.377   1.438  -2.562  0.00  0.00    +0.253 C 
ENDBRANCH  23  26
BRANCH  24  28
ATOM     28  O   UNL     1      -3.187  -2.816   0.173  0.00  0.00    -0.468 OA
ATOM     29  C   UNL     1      -3.787  -3.474   1.288  0.00  0.00    +0.253 C 
ENDBRANCH  24  28
BRANCH  25  30
ATOM     30  O   UNL     1      -5.340  -1.623  -1.096  0.00  0.00    -0.501 OA
ATOM     31  H   UNL     1      -6.068  -1.217  -1.525  0.00  0.00    +0.292 HD
ENDBRANCH  25  30
ENDBRANCH   7  20
TORSDOF 8
