REMARK  Name = 11329359
REMARK  4 active torsions:
REMARK  status: ('A' for Active; 'I' for Inactive)
REMARK    1  A    between atoms: C_5  and  O_23
REMARK    2  A    between atoms: N_7  and  C_14
REMARK    3  A    between atoms: C_14  and  C_17
REMARK    4  A    between atoms: O_23  and  C_28
REMARK                            x       y       z     vdW  Elec       q    Type
REMARK                         _______ _______ _______ _____ _____    ______ ____
ROOT
ATOM      1  N   UNL     1       1.120  -2.501   1.629  0.00  0.00    -0.233 NA
ATOM      2  N   UNL     1       3.333  -2.266   0.704  0.00  0.00    -0.214 NA
ATOM      3  C   UNL     1       0.591  -2.018   0.466  0.00  0.00    +0.115 C 
ATOM      4  C   UNL     1       1.409  -1.648  -0.603  0.00  0.00    +0.146 C 
ATOM      5  C   UNL     1       2.770  -1.794  -0.427  0.00  0.00    +0.211 C 
ATOM      6  C   UNL     1       2.463  -2.596   1.677  0.00  0.00    +0.254 C 
ATOM      7  N   UNL     1      -3.632  -1.552   0.297  0.00  0.00    +0.393 N 
ATOM      8  N   UNL     1      -0.795  -1.885   0.327  0.00  0.00    -0.301 N 
ATOM      9  C   UNL     1      -2.775  -0.705  -0.542  0.00  0.00    -0.055 C 
ATOM     10  C   UNL     1      -3.043  -2.891   0.420  0.00  0.00    -0.055 C 
ATOM     11  C   UNL     1      -1.377  -0.565   0.065  0.00  0.00    +0.069 C 
ATOM     12  C   UNL     1      -1.655  -2.824   1.060  0.00  0.00    +0.069 C 
ATOM     13  H   UNL     1      -3.699  -1.135   1.225  0.00  0.00    -0.079 HD
ENDROOT
BRANCH   7  14
ATOM     14  C   UNL     1      -4.980  -1.634  -0.265  0.00  0.00    -0.035 C 
ATOM     15  C   UNL     1      -5.831  -2.626   0.524  0.00  0.00    -0.018 C 
BRANCH  14  17
ATOM     16  F   UNL     1      -7.361   3.446  -0.605  0.00  0.00    -0.204 F 
ATOM     17  C   UNL     1      -5.621  -0.266  -0.357  0.00  0.00    -0.041 C 
ATOM     18  C   UNL     1      -6.466   0.014  -1.416  0.00  0.00    -0.004 C 
ATOM     19  C   UNL     1      -5.348   0.675   0.621  0.00  0.00    -0.004 C 
ATOM     20  C   UNL     1      -7.057   1.275  -1.501  0.00  0.00    +0.029 C 
ATOM     21  C   UNL     1      -5.939   1.935   0.537  0.00  0.00    +0.029 C 
ATOM     22  C   UNL     1      -6.793   2.235  -0.524  0.00  0.00    +0.140 C 
ENDBRANCH  14  17
ENDBRANCH   7  14
BRANCH   5  23
ATOM     23  O   UNL     1       3.617  -1.445  -1.446  0.00  0.00    -0.437 OA
BRANCH  23  28
ATOM     24  S   UNL     1       5.339   2.769   0.525  0.00  0.00    -0.056 S 
ATOM     25  O   UNL     1       0.708   2.272   0.382  0.00  0.00    -0.275 OA
ATOM     26  N   UNL     1       3.420   1.199  -0.184  0.00  0.00    -0.381 NA
ATOM     27  N   UNL     1       2.793   3.292   0.825  0.00  0.00    -0.254 N 
ATOM     28  C   UNL     1       4.735  -0.705  -1.117  0.00  0.00    +0.173 C 
ATOM     29  C   UNL     1       4.606   0.558  -0.513  0.00  0.00    +0.160 C 
ATOM     30  C   UNL     1       5.771   1.266  -0.200  0.00  0.00    +0.133 C 
ATOM     31  C   UNL     1       5.994  -1.231  -1.393  0.00  0.00    +0.040 C 
ATOM     32  C   UNL     1       7.048   0.749  -0.472  0.00  0.00    -0.008 C 
ATOM     33  C   UNL     1       7.139  -0.509  -1.073  0.00  0.00    -0.000 C 
ATOM     34  C   UNL     1       3.686   2.362   0.364  0.00  0.00    +0.213 C 
ATOM     35  C   UNL     1       1.391   3.196   0.808  0.00  0.00    +0.229 C 
ATOM     36  C   UNL     1       0.741   4.419   1.407  0.00  0.00    +0.095 C 
ATOM     37  H   UNL     1       3.173   4.115   1.209  0.00  0.00    +0.158 HD
ENDBRANCH  23  28
ENDBRANCH   5  23
TORSDOF 4
