11325738
  -OEChem-03292013303D

 46 48  0     1  0  0  0  0  0999 V2000
   -3.8430    1.5721    0.1893 O   0  0  0  0  0  0  0  0  0  0  0  0
   -6.0175    0.2552    1.3739 O   0  0  0  0  0  0  0  0  0  0  0  0
   -4.0560   -1.4904   -1.6264 O   0  0  0  0  0  0  0  0  0  0  0  0
   -1.4151   -2.3979   -0.3675 O   0  0  0  0  0  0  0  0  0  0  0  0
    1.0460   -2.3644    0.7055 O   0  0  0  0  0  0  0  0  0  0  0  0
    8.4140    1.5202   -0.5295 O   0  0  0  0  0  0  0  0  0  0  0  0
   -4.6314    0.6029   -0.5494 C   0  0  2  0  0  0  0  0  0  0  0  0
   -6.0530    0.6197   -0.0065 C   0  0  0  0  0  0  0  0  0  0  0  0
   -3.9714   -0.7792   -0.4073 C   0  0  2  0  0  0  0  0  0  0  0  0
   -2.5910   -0.3488   -0.0763 C   0  0  0  0  0  0  0  0  0  0  0  0
   -2.6030    0.9924    0.2778 C   0  0  0  0  0  0  0  0  0  0  0  0
   -6.6459    2.0245   -0.0960 C   0  0  0  0  0  0  0  0  0  0  0  0
   -6.9331   -0.3833   -0.7513 C   0  0  0  0  0  0  0  0  0  0  0  0
   -1.4194   -1.0831   -0.0229 C   0  0  0  0  0  0  0  0  0  0  0  0
   -1.4625    1.6501    0.6971 C   0  0  0  0  0  0  0  0  0  0  0  0
   -0.2503   -0.4352    0.3853 C   0  0  0  0  0  0  0  0  0  0  0  0
   -0.2723    0.9225    0.7443 C   0  0  0  0  0  0  0  0  0  0  0  0
    1.0152   -1.1545    0.4393 C   0  0  0  0  0  0  0  0  0  0  0  0
    2.2854   -0.3910    0.1962 C   0  0  0  0  0  0  0  0  0  0  0  0
    3.4746   -1.0074    0.2632 C   0  0  0  0  0  0  0  0  0  0  0  0
    4.7730   -0.3425    0.0553 C   0  0  0  0  0  0  0  0  0  0  0  0
    4.8162    0.8645   -0.6234 C   0  0  0  0  0  0  0  0  0  0  0  0
    5.9254   -0.9378    0.5420 C   0  0  0  0  0  0  0  0  0  0  0  0
    6.0456    1.4933   -0.8207 C   0  0  0  0  0  0  0  0  0  0  0  0
    7.1547   -0.3089    0.3448 C   0  0  0  0  0  0  0  0  0  0  0  0
    7.2148    0.9067   -0.3366 C   0  0  0  0  0  0  0  0  0  0  0  0
   -4.6347    0.9242   -1.6019 H   0  0  0  0  0  0  0  0  0  0  0  0
   -4.3698   -1.3892    0.4103 H   0  0  0  0  0  0  0  0  0  0  0  0
   -6.6612    2.3907   -1.1278 H   0  0  0  0  0  0  0  0  0  0  0  0
   -7.6736    2.0387    0.2858 H   0  0  0  0  0  0  0  0  0  0  0  0
   -6.0889    2.7388    0.5206 H   0  0  0  0  0  0  0  0  0  0  0  0
   -6.6659   -1.4179   -0.5132 H   0  0  0  0  0  0  0  0  0  0  0  0
   -6.8918   -0.2363   -1.8354 H   0  0  0  0  0  0  0  0  0  0  0  0
   -7.9796   -0.2794   -0.4396 H   0  0  0  0  0  0  0  0  0  0  0  0
   -1.4868    2.6948    0.9861 H   0  0  0  0  0  0  0  0  0  0  0  0
   -6.9309    0.2509    1.7078 H   0  0  0  0  0  0  0  0  0  0  0  0
   -4.9829   -1.7322   -1.7799 H   0  0  0  0  0  0  0  0  0  0  0  0
    0.6093    1.4412    1.1096 H   0  0  0  0  0  0  0  0  0  0  0  0
   -2.3122   -2.6656   -0.6296 H   0  0  0  0  0  0  0  0  0  0  0  0
    2.2025    0.6574   -0.0556 H   0  0  0  0  0  0  0  0  0  0  0  0
    3.5286   -2.0633    0.5176 H   0  0  0  0  0  0  0  0  0  0  0  0
    3.9383    1.3477   -1.0394 H   0  0  0  0  0  0  0  0  0  0  0  0
    5.8949   -1.8839    1.0758 H   0  0  0  0  0  0  0  0  0  0  0  0
    6.0873    2.4376   -1.3570 H   0  0  0  0  0  0  0  0  0  0  0  0
    8.0584   -0.7761    0.7270 H   0  0  0  0  0  0  0  0  0  0  0  0
    9.1143    0.9759   -0.1302 H   0  0  0  0  0  0  0  0  0  0  0  0
  1  7  1  0  0  0  0
  1 11  1  0  0  0  0
  2  8  1  0  0  0  0
  2 36  1  0  0  0  0
  3  9  1  0  0  0  0
  3 37  1  0  0  0  0
  4 14  1  0  0  0  0
  4 39  1  0  0  0  0
  5 18  2  0  0  0  0
  6 26  1  0  0  0  0
  6 46  1  0  0  0  0
  7  8  1  0  0  0  0
  7  9  1  0  0  0  0
  7 27  1  0  0  0  0
  8 12  1  0  0  0  0
  8 13  1  0  0  0  0
  9 10  1  0  0  0  0
  9 28  1  0  0  0  0
 10 11  2  0  0  0  0
 10 14  1  0  0  0  0
 11 15  1  0  0  0  0
 12 29  1  0  0  0  0
 12 30  1  0  0  0  0
 12 31  1  0  0  0  0
 13 32  1  0  0  0  0
 13 33  1  0  0  0  0
 13 34  1  0  0  0  0
 14 16  2  0  0  0  0
 15 17  2  0  0  0  0
 15 35  1  0  0  0  0
 16 17  1  0  0  0  0
 16 18  1  0  0  0  0
 17 38  1  0  0  0  0
 18 19  1  0  0  0  0
 19 20  2  0  0  0  0
 19 40  1  0  0  0  0
 20 21  1  0  0  0  0
 20 41  1  0  0  0  0
 21 22  2  0  0  0  0
 21 23  1  0  0  0  0
 22 24  1  0  0  0  0
 22 42  1  0  0  0  0
 23 25  2  0  0  0  0
 23 43  1  0  0  0  0
 24 26  2  0  0  0  0
 24 44  1  0  0  0  0
 25 26  1  0  0  0  0
 25 45  1  0  0  0  0
M  END
> <PUBCHEM_COMPOUND_CID>
11325738

> <PUBCHEM_CONFORMER_RMSD>
0.8

> <PUBCHEM_CONFORMER_DIVERSEORDER>
2
24
39
44
14
47
18
5
12
22
10
46
36
21
7
16
31
1
8
20
45
17
23
35
4
34
30
3
19
9
25
28
43
29
37
11
6
38
32
42
33
15
27
26
40
13
41

> <PUBCHEM_MMFF94_PARTIAL_CHARGES>
36
1 -0.36
10 -0.14
11 0.08
14 0.08
15 -0.15
16 0.09
17 -0.15
18 0.47
19 -0.14
2 -0.68
20 -0.18
21 0.03
22 -0.15
23 -0.15
24 -0.15
25 -0.15
26 0.08
3 -0.68
35 0.15
36 0.4
37 0.4
38 0.15
39 0.45
4 -0.53
40 0.15
41 0.15
42 0.15
43 0.15
44 0.15
45 0.15
46 0.45
5 -0.57
6 -0.53
7 0.28
8 0.28
9 0.42

> <PUBCHEM_EFFECTIVE_ROTOR_COUNT>
4.6

> <PUBCHEM_PHARMACOPHORE_FEATURES>
12
1 1 acceptor
1 2 acceptor
1 2 donor
1 3 acceptor
1 3 donor
1 4 donor
1 5 acceptor
1 6 donor
3 8 12 13 hydrophobe
5 1 7 9 10 11 rings
6 10 11 14 15 16 17 rings
6 21 22 23 24 25 26 rings

> <PUBCHEM_HEAVY_ATOM_COUNT>
26

> <PUBCHEM_ATOM_DEF_STEREO_COUNT>
2

> <PUBCHEM_ATOM_UDEF_STEREO_COUNT>
0

> <PUBCHEM_BOND_DEF_STEREO_COUNT>
1

> <PUBCHEM_BOND_UDEF_STEREO_COUNT>
0

> <PUBCHEM_ISOTOPIC_ATOM_COUNT>
0

> <PUBCHEM_COMPONENT_COUNT>
1

> <PUBCHEM_CACTVS_TAUTO_COUNT>
21

> <PUBCHEM_CONFORMER_ID>
00ACD12A00000002

> <PUBCHEM_MMFF94_ENERGY>
89.2719

> <PUBCHEM_FEATURE_SELFOVERLAP>
61.003

> <PUBCHEM_SHAPE_FINGERPRINT>
10 15 17749393667231292922
10076449 9 17917992806948591955
10411042 1 17834957847660015567
10595046 47 18412261706005138970
106641 1 17822016415490326915
10730089 173 18343019986456501934
10906281 52 18272382948884150683
10968037 39 18342737412611741677
11315181 36 17417813967323468961
11524674 6 14979952592778624373
12236239 1 18334856095535510371
12788726 201 17988361443182401025
12838862 33 18335968840548732844
13533116 47 18339074901036612106
13668630 136 13686294690674857764
13685833 64 11095882666398056584
13885169 127 11815625163704462619
14123256 10 18273214201196870096
14251764 18 18334576850016111028
14767858 380 18341606027461937143
14856354 85 17418374714523208829
14933364 13 18260268547001593544
15064981 194 18118141366422729364
15183329 4 18202003226944067128
1577012 14 18408037425502585494
15849732 13 17894633659992017348
18006028 8 8574711295394864538
18335252 98 18410017649991641003
18608769 82 18336550516564839907
20157964 124 18261393326497238306
20281389 69 17822007593253116820
20511986 3 18335406994649261276
21049683 271 18410572916470297657
21150785 3 18273213110396457407
21267235 1 18130219454899929295
21298829 104 18333735715131726628
22224240 67 16370444457896609042
23035841 295 17989203733350223251
23198884 109 16415482631940233379
23522609 53 18058469658744204273
23559900 14 17988633151171631560
24771750 20 18053387879093608468
2838139 119 18040711481009025252
28498 318 11167944645254826105
335352 9 18202274802759710325
3472631 163 18410017658739188292
34797466 226 17132117961791113248
350125 39 18411980230955147065
397830 11 15575580074664164760
4073 2 17967538999640411874
4325135 7 18342175561879915004
4340502 62 16732987492027755794
437815 12 14764343842781163115
445580 37 17775008946827385705
54039377 194 18129654349110920223
5486654 2 18272368676370137947
59682541 35 18041008362402451649
59755656 520 17458341952864928074
9953998 17 16370731426896042425

> <PUBCHEM_SHAPE_MULTIPOLES>
499.85
22.17
1.92
0.93
19.07
0.19
0.06
-8.85
3.4
-0.29
0.07
-0.49
0.04
-1.58

> <PUBCHEM_SHAPE_SELFOVERLAP>
1092.651

> <PUBCHEM_SHAPE_VOLUME>
272.4

> <PUBCHEM_COORDINATE_TYPE>
2
5
10

$$$$
