11327153
  -OEChem-03292013303D

 53 55  0     1  0  0  0  0  0999 V2000
    1.9807    1.3522   -0.6236 O   0  0  0  0  0  0  0  0  0  0  0  0
    5.8794    2.3474    0.1990 O   0  0  0  0  0  0  0  0  0  0  0  0
    3.7475    4.1533    0.9404 O   0  0  0  0  0  0  0  0  0  0  0  0
    2.5441   -0.8884   -0.9496 O   0  0  0  0  0  0  0  0  0  0  0  0
    4.9834   -0.4510    0.4165 O   0  0  0  0  0  0  0  0  0  0  0  0
   -0.1512    3.0538   -0.2833 O   0  0  0  0  0  0  0  0  0  0  0  0
    0.9881   -5.1792    0.4472 O   0  0  0  0  0  0  0  0  0  0  0  0
   -7.7665    1.7441    0.1608 O   0  0  0  0  0  0  0  0  0  0  0  0
    3.5862    3.0235    0.0866 C   0  0  1  0  0  0  0  0  0  0  0  0
    4.5539    1.9215    0.5182 C   0  0  1  0  0  0  0  0  0  0  0  0
    2.1378    2.5348    0.1624 C   0  0  1  0  0  0  0  0  0  0  0  0
    4.2536    0.6076   -0.2035 C   0  0  2  0  0  0  0  0  0  0  0  0
    2.7653    0.2652   -0.1387 C   0  0  1  0  0  0  0  0  0  0  0  0
    1.1615    3.5769   -0.3743 C   0  0  0  0  0  0  0  0  0  0  0  0
    1.5180   -1.7121   -0.5757 C   0  0  0  0  0  0  0  0  0  0  0  0
    0.2190   -1.2165   -0.5204 C   0  0  0  0  0  0  0  0  0  0  0  0
    1.7815   -3.0396   -0.2524 C   0  0  0  0  0  0  0  0  0  0  0  0
   -0.8268   -2.0567   -0.1380 C   0  0  0  0  0  0  0  0  0  0  0  0
    0.7358   -3.8798    0.1301 C   0  0  0  0  0  0  0  0  0  0  0  0
   -0.5685   -3.3882    0.1871 C   0  0  0  0  0  0  0  0  0  0  0  0
   -2.1869   -1.5446   -0.0793 C   0  0  0  0  0  0  0  0  0  0  0  0
   -2.5250   -0.2365    0.0089 C   0  0  0  0  0  0  0  0  0  0  0  0
   -3.9031    0.2840    0.0488 C   0  0  0  0  0  0  0  0  0  0  0  0
    2.3442   -5.6154    0.3674 C   0  0  0  0  0  0  0  0  0  0  0  0
   -4.9380   -0.5627    0.4108 C   0  0  0  0  0  0  0  0  0  0  0  0
   -4.1367    1.6101   -0.2768 C   0  0  0  0  0  0  0  0  0  0  0  0
   -6.2424   -0.0699    0.4481 C   0  0  0  0  0  0  0  0  0  0  0  0
   -5.4410    2.1031   -0.2395 C   0  0  0  0  0  0  0  0  0  0  0  0
   -6.4939    1.2631    0.1230 C   0  0  0  0  0  0  0  0  0  0  0  0
    4.5280    1.7790    1.6057 H   0  0  0  0  0  0  0  0  0  0  0  0
    3.8317    3.3452   -0.9329 H   0  0  0  0  0  0  0  0  0  0  0  0
    1.8524    2.3051    1.1981 H   0  0  0  0  0  0  0  0  0  0  0  0
    4.5937    0.6598   -1.2446 H   0  0  0  0  0  0  0  0  0  0  0  0
    2.4807    0.0395    0.8999 H   0  0  0  0  0  0  0  0  0  0  0  0
    1.3578    3.8067   -1.4268 H   0  0  0  0  0  0  0  0  0  0  0  0
    1.2029    4.5050    0.2029 H   0  0  0  0  0  0  0  0  0  0  0  0
    6.0338    3.1892    0.6610 H   0  0  0  0  0  0  0  0  0  0  0  0
    3.5246    3.8792    1.8464 H   0  0  0  0  0  0  0  0  0  0  0  0
    4.6935   -0.5155    1.3425 H   0  0  0  0  0  0  0  0  0  0  0  0
   -0.1822    2.2445   -0.8214 H   0  0  0  0  0  0  0  0  0  0  0  0
    0.0363   -0.1913   -0.8224 H   0  0  0  0  0  0  0  0  0  0  0  0
    2.8160   -3.3602   -0.3157 H   0  0  0  0  0  0  0  0  0  0  0  0
   -1.3749   -4.0535    0.4882 H   0  0  0  0  0  0  0  0  0  0  0  0
   -2.9547   -2.3109   -0.1401 H   0  0  0  0  0  0  0  0  0  0  0  0
   -1.7601    0.5323    0.0707 H   0  0  0  0  0  0  0  0  0  0  0  0
    2.3610   -6.6723    0.6530 H   0  0  0  0  0  0  0  0  0  0  0  0
    2.9813   -5.0816    1.0807 H   0  0  0  0  0  0  0  0  0  0  0  0
    2.7267   -5.5553   -0.6572 H   0  0  0  0  0  0  0  0  0  0  0  0
   -4.7869   -1.5995    0.6936 H   0  0  0  0  0  0  0  0  0  0  0  0
   -3.3273    2.2768   -0.5626 H   0  0  0  0  0  0  0  0  0  0  0  0
   -7.0537   -0.7328    0.7372 H   0  0  0  0  0  0  0  0  0  0  0  0
   -5.6307    3.1423   -0.4940 H   0  0  0  0  0  0  0  0  0  0  0  0
   -8.3663    1.0276    0.4310 H   0  0  0  0  0  0  0  0  0  0  0  0
  1 11  1  0  0  0  0
  1 13  1  0  0  0  0
  2 10  1  0  0  0  0
  2 37  1  0  0  0  0
  3  9  1  0  0  0  0
  3 38  1  0  0  0  0
  4 13  1  0  0  0  0
  4 15  1  0  0  0  0
  5 12  1  0  0  0  0
  5 39  1  0  0  0  0
  6 14  1  0  0  0  0
  6 40  1  0  0  0  0
  7 19  1  0  0  0  0
  7 24  1  0  0  0  0
  8 29  1  0  0  0  0
  8 53  1  0  0  0  0
  9 10  1  0  0  0  0
  9 11  1  0  0  0  0
  9 31  1  0  0  0  0
 10 12  1  0  0  0  0
 10 30  1  0  0  0  0
 11 14  1  0  0  0  0
 11 32  1  0  0  0  0
 12 13  1  0  0  0  0
 12 33  1  0  0  0  0
 13 34  1  0  0  0  0
 14 35  1  0  0  0  0
 14 36  1  0  0  0  0
 15 16  2  0  0  0  0
 15 17  1  0  0  0  0
 16 18  1  0  0  0  0
 16 41  1  0  0  0  0
 17 19  2  0  0  0  0
 17 42  1  0  0  0  0
 18 20  2  0  0  0  0
 18 21  1  0  0  0  0
 19 20  1  0  0  0  0
 20 43  1  0  0  0  0
 21 22  2  0  0  0  0
 21 44  1  0  0  0  0
 22 23  1  0  0  0  0
 22 45  1  0  0  0  0
 23 25  2  0  0  0  0
 23 26  1  0  0  0  0
 24 46  1  0  0  0  0
 24 47  1  0  0  0  0
 24 48  1  0  0  0  0
 25 27  1  0  0  0  0
 25 49  1  0  0  0  0
 26 28  2  0  0  0  0
 26 50  1  0  0  0  0
 27 29  2  0  0  0  0
 27 51  1  0  0  0  0
 28 29  1  0  0  0  0
 28 52  1  0  0  0  0
M  END
> <PUBCHEM_COMPOUND_CID>
11327153

> <PUBCHEM_CONFORMER_RMSD>
0.8

> <PUBCHEM_CONFORMER_DIVERSEORDER>
1
212
355
8
106
20
30
292
36
170
25
102
97
180
179
194
2
334
181
131
115
234
128
199
10
26
316
349
86
29
307
208
79
310
224
78
243
283
132
58
109
201
27
167
16
185
353
271
342
336
164
312
88
176
32
204
329
14
286
76
323
105
161
215
22
18
320
177
290
43
197
284
344
87
61
221
45
207
202
152
227
118
11
190
186
309
5
151
328
206
347
6
244
332
264
247
156
345
205
262
83
126
74
265
187
363
232
195
121
148
3
318
125
130
216
95
321
322
71
7
280
193
9
301
300
297
113
317
15
67
330
236
138
171
23
4
143
239
288
19
31
305
189
54
340
294
291
107
362
267
337
133
269
302
60
12
135
335
225
55
359
326
314
17
51
183
168
253
303
182
89
346
175
226
117
304
48
119
306
259
299
357
92
218
144
223
139
166
339
56
124
360
33
333
196
237
21
184
39
325
261
343
172
257
99
258
42
93
220
147
350
211
356
155
229
327
260
136
24
116
47
165
354
103
217
282
120
28
69
240
114
203
13
289
73
137
348
277
141
364
275
313
238
68
191
178
358
249
192
200
331
157
84
129
81
59
37
242
162
352
112
293
160
246
248
98
341
53
142
52
255
80
154
96
122
319
82
266
85
149
70
91
40
231
94
123
173
287
256
150
108
163
296
127
311
169
250
145
110
34
209
140
233
279
174
57
251
75
188
272
361
276
214
273
111
49
252
274
241
63
351
235
315
245
308
146
285
62
281
50
263
38
158
77
270
230
324
213
41
159
101
198
66
35
222
100
134
268
254
153
278
64
104
219
338
44
46
228
298
72
65
210
295
90

> <PUBCHEM_MMFF94_PARTIAL_CHARGES>
43
1 -0.56
10 0.28
11 0.28
12 0.28
13 0.56
14 0.28
15 0.08
16 -0.15
17 -0.15
18 0.03
19 0.08
2 -0.68
20 -0.15
21 -0.18
22 -0.18
23 0.03
24 0.28
25 -0.15
26 -0.15
27 -0.15
28 -0.15
29 0.08
3 -0.68
37 0.4
38 0.4
39 0.4
4 -0.36
40 0.4
41 0.15
42 0.15
43 0.15
44 0.15
45 0.15
49 0.15
5 -0.68
50 0.15
51 0.15
52 0.15
53 0.45
6 -0.68
7 -0.36
8 -0.53
9 0.28

> <PUBCHEM_EFFECTIVE_ROTOR_COUNT>
7.2

> <PUBCHEM_PHARMACOPHORE_FEATURES>
15
1 1 acceptor
1 2 acceptor
1 2 donor
1 3 acceptor
1 3 donor
1 4 acceptor
1 5 acceptor
1 5 donor
1 6 acceptor
1 6 donor
1 7 acceptor
1 8 donor
6 1 9 10 11 12 13 rings
6 15 16 17 18 19 20 rings
6 23 25 26 27 28 29 rings

> <PUBCHEM_HEAVY_ATOM_COUNT>
29

> <PUBCHEM_ATOM_DEF_STEREO_COUNT>
5

> <PUBCHEM_ATOM_UDEF_STEREO_COUNT>
0

> <PUBCHEM_BOND_DEF_STEREO_COUNT>
1

> <PUBCHEM_BOND_UDEF_STEREO_COUNT>
0

> <PUBCHEM_ISOTOPIC_ATOM_COUNT>
0

> <PUBCHEM_COMPONENT_COUNT>
1

> <PUBCHEM_CACTVS_TAUTO_COUNT>
2

> <PUBCHEM_CONFORMER_ID>
00ACD6B100000001

> <PUBCHEM_MMFF94_ENERGY>
103.4527

> <PUBCHEM_FEATURE_SELFOVERLAP>
76.187

> <PUBCHEM_SHAPE_FINGERPRINT>
10411042 1 17690280413124302919
10675989 125 18343588429890198241
11014199 57 17111285772339919668
11273773 38 18262808496087746444
12107183 9 18336251445386192386
12769317 202 18341888580765706193
12925494 130 18409165545701876611
13140716 1 18338514243946594334
13402501 40 18408604764443513765
13590594 115 17546175103472786547
138480 1 18122344571188737631
13955234 65 18264211318543154227
13965767 371 18113889490127597334
14466204 15 18409163320497048616
14790565 3 18338234993472630157
15082195 135 18268404907947518551
15320467 1 18410575055063142149
15400415 2 18266458887745896385
15890870 6 18410576222914438668
15927050 60 18412544348812911287
16087824 20 18410576171913265012
16728300 4 17462538656410920954
17980427 26 18340194241832399910
20715895 44 18341613741181308120
21033648 29 18270110361481682784
21298829 104 18271813402257147545
21344244 78 17977651031491666443
22122407 14 18126299541270362225
23522609 53 17317603529388832532
23559900 14 18192710039092656827
23845131 108 18334858350868796235
244849 19 17897471448750015083
376196 1 17987232412281458502
474 4 18413109463708722755
5109719 28 18339934787558697163
5385378 56 18410579449030684673
57124632 79 18411409592661554155
6371009 1 18122047961084645975
6371380 46 18411705409367645926
653340 110 17476633651843349088
67856867 119 18265894662424064875
77188 2 17762056536760003886
79837 15 18120374525619920827
9777508 108 18051130594611213858
9849439 229 18263933296250086077
9981440 41 18263927799103780715

> <PUBCHEM_SHAPE_MULTIPOLES>
549.85
14.06
6.8
0.73
22.72
6.85
-0.01
-13.17
1.93
-8.65
0.99
-0.18
-0.04
0.64

> <PUBCHEM_SHAPE_SELFOVERLAP>
1172.262

> <PUBCHEM_SHAPE_VOLUME>
304

> <PUBCHEM_COORDINATE_TYPE>
2
5
10

$$$$
