REMARK  Name = 11327153
REMARK  11 active torsions:
REMARK  status: ('A' for Active; 'I' for Inactive)
REMARK    1  A    between atoms: C_1  and  O_19
REMARK    2  A    between atoms: C_4  and  C_9
REMARK    3  A    between atoms: C_5  and  O_7
REMARK    4  A    between atoms: C_10  and  C_11
REMARK    5  A    between atoms: C_16  and  O_17
REMARK    6  A    between atoms: O_19  and  C_25
REMARK    7  A    between atoms: C_21  and  O_28
REMARK    8  A    between atoms: C_22  and  O_26
REMARK    9  A    between atoms: C_23  and  C_32
REMARK   10  A    between atoms: C_24  and  O_30
REMARK   11  A    between atoms: C_32  and  O_33
REMARK                            x       y       z     vdW  Elec       q    Type
REMARK                         _______ _______ _______ _____ _____    ______ ____
ROOT
ATOM      1  C   UNL     1       1.518  -1.712  -0.576  0.00  0.00    +0.144 C 
ATOM      2  C   UNL     1       0.219  -1.216  -0.520  0.00  0.00    +0.037 C 
ATOM      3  C   UNL     1       1.782  -3.040  -0.252  0.00  0.00    +0.074 C 
ATOM      4  C   UNL     1      -0.827  -2.057  -0.138  0.00  0.00    +0.006 C 
ATOM      5  C   UNL     1       0.736  -3.880   0.130  0.00  0.00    +0.142 C 
ATOM      6  C   UNL     1      -0.569  -3.388   0.187  0.00  0.00    +0.037 C 
ENDROOT
BRANCH   5   7
ATOM      7  O   UNL     1       0.988  -5.179   0.447  0.00  0.00    -0.471 OA
ATOM      8  C   UNL     1       2.344  -5.615   0.367  0.00  0.00    +0.252 C 
ENDBRANCH   5   7
BRANCH   4   9
ATOM      9  C   UNL     1      -2.187  -1.545  -0.079  0.00  0.00    +0.000 C 
ATOM     10  C   UNL     1      -2.525  -0.236   0.009  0.00  0.00    +0.000 C 
BRANCH  10  11
ATOM     11  C   UNL     1      -3.903   0.284   0.049  0.00  0.00    +0.000 C 
ATOM     12  C   UNL     1      -4.938  -0.563   0.411  0.00  0.00    +0.003 C 
ATOM     13  C   UNL     1      -4.137   1.610  -0.277  0.00  0.00    +0.003 C 
ATOM     14  C   UNL     1      -6.242  -0.070   0.448  0.00  0.00    +0.037 C 
ATOM     15  C   UNL     1      -5.441   2.103  -0.239  0.00  0.00    +0.037 C 
ATOM     16  C   UNL     1      -6.494   1.263   0.123  0.00  0.00    +0.134 C 
BRANCH  16  17
ATOM     17  O   UNL     1      -7.766   1.744   0.161  0.00  0.00    -0.506 OA
ATOM     18  H   UNL     1      -8.474   1.180   0.404  0.00  0.00    +0.292 HD
ENDBRANCH  16  17
ENDBRANCH  10  11
ENDBRANCH   4   9
BRANCH   1  19
ATOM     19  O   UNL     1       2.544  -0.888  -0.950  0.00  0.00    -0.450 OA
BRANCH  19  25
ATOM     20  O   UNL     1       1.981   1.352  -0.624  0.00  0.00    -0.316 OA
ATOM     21  C   UNL     1       3.586   3.023   0.087  0.00  0.00    +0.169 C 
ATOM     22  C   UNL     1       4.554   1.921   0.518  0.00  0.00    +0.173 C 
ATOM     23  C   UNL     1       2.138   2.535   0.162  0.00  0.00    +0.177 C 
ATOM     24  C   UNL     1       4.254   0.608  -0.203  0.00  0.00    +0.210 C 
ATOM     25  C   UNL     1       2.765   0.265  -0.139  0.00  0.00    +0.318 C 
BRANCH  22  26
ATOM     26  O   UNL     1       5.879   2.347   0.199  0.00  0.00    -0.379 OA
ATOM     27  H   UNL     1       6.070   3.181   0.657  0.00  0.00    +0.211 HD
ENDBRANCH  22  26
BRANCH  21  28
ATOM     28  O   UNL     1       3.748   4.153   0.940  0.00  0.00    -0.379 OA
ATOM     29  H   UNL     1       4.665   4.465   0.894  0.00  0.00    +0.211 HD
ENDBRANCH  21  28
BRANCH  24  30
ATOM     30  O   UNL     1       4.983  -0.451   0.416  0.00  0.00    -0.377 OA
ATOM     31  H   UNL     1       5.932  -0.251   0.385  0.00  0.00    +0.211 HD
ENDBRANCH  24  30
BRANCH  23  32
ATOM     32  C   UNL     1       1.161   3.577  -0.374  0.00  0.00    +0.169 C 
BRANCH  32  33
ATOM     33  O   UNL     1      -0.151   3.054  -0.283  0.00  0.00    -0.379 OA
ATOM     34  H   UNL     1      -0.784   3.707  -0.622  0.00  0.00    +0.211 HD
ENDBRANCH  32  33
ENDBRANCH  23  32
ENDBRANCH  19  25
ENDBRANCH   1  19
TORSDOF 11
