REMARK  Name = 11325738
REMARK  8 active torsions:
REMARK  status: ('A' for Active; 'I' for Inactive)
REMARK    1  A    between atoms: C_2  and  C_10
REMARK    2  A    between atoms: C_3  and  O_15
REMARK    3  A    between atoms: C_6  and  O_17
REMARK    4  A    between atoms: C_8  and  C_20
REMARK    5  A    between atoms: C_10  and  O_13
REMARK    6  A    between atoms: C_20  and  C_21
REMARK    7  A    between atoms: C_22  and  C_23
REMARK    8  A    between atoms: C_28  and  O_29
REMARK                            x       y       z     vdW  Elec       q    Type
REMARK                         _______ _______ _______ _____ _____    ______ ____
ROOT
ATOM      1  O   UNL     1      -3.843   1.572   0.189  0.00  0.00    -0.474 OA
ATOM      2  C   UNL     1      -4.631   0.603  -0.549  0.00  0.00    +0.221 C 
ATOM      3  C   UNL     1      -3.971  -0.779  -0.407  0.00  0.00    +0.181 C 
ATOM      4  C   UNL     1      -2.591  -0.349  -0.076  0.00  0.00    +0.076 C 
ATOM      5  C   UNL     1      -2.603   0.992   0.278  0.00  0.00    +0.140 C 
ATOM      6  C   UNL     1      -1.419  -1.083  -0.023  0.00  0.00    +0.138 C 
ATOM      7  C   UNL     1      -1.462   1.650   0.697  0.00  0.00    +0.037 C 
ATOM      8  C   UNL     1      -0.250  -0.435   0.385  0.00  0.00    +0.073 C 
ATOM      9  C   UNL     1      -0.272   0.922   0.744  0.00  0.00    +0.009 C 
ENDROOT
BRANCH   2  10
ATOM     10  C   UNL     1      -6.053   0.620  -0.006  0.00  0.00    +0.128 C 
ATOM     11  C   UNL     1      -6.646   2.025  -0.096  0.00  0.00    +0.033 C 
ATOM     12  C   UNL     1      -6.933  -0.383  -0.751  0.00  0.00    +0.033 C 
BRANCH  10  13
ATOM     13  O   UNL     1      -6.018   0.255   1.374  0.00  0.00    -0.383 OA
ATOM     14  H   UNL     1      -5.462   0.884   1.860  0.00  0.00    +0.210 HD
ENDBRANCH  10  13
ENDBRANCH   2  10
BRANCH   3  15
ATOM     15  O   UNL     1      -4.056  -1.490  -1.626  0.00  0.00    -0.376 OA
ATOM     16  H   UNL     1      -4.978  -1.745  -1.789  0.00  0.00    +0.211 HD
ENDBRANCH   3  15
BRANCH   6  17
ATOM     17  O   UNL     1      -1.415  -2.398  -0.367  0.00  0.00    -0.506 OA
ATOM     18  H   UNL     1      -2.210  -2.814  -0.639  0.00  0.00    +0.292 HD
ENDBRANCH   6  17
BRANCH   8  20
ATOM     19  O   UNL     1       1.046  -2.364   0.706  0.00  0.00    -0.286 OA
ATOM     20  C   UNL     1       1.015  -1.155   0.439  0.00  0.00    +0.199 C 
BRANCH  20  21
ATOM     21  C   UNL     1       2.285  -0.391   0.196  0.00  0.00    +0.042 C 
ATOM     22  C   UNL     1       3.475  -1.007   0.263  0.00  0.00    +0.003 C 
BRANCH  22  23
ATOM     23  C   UNL     1       4.773  -0.343   0.055  0.00  0.00    +0.000 C 
ATOM     24  C   UNL     1       4.816   0.865  -0.623  0.00  0.00    +0.003 C 
ATOM     25  C   UNL     1       5.925  -0.938   0.542  0.00  0.00    +0.003 C 
ATOM     26  C   UNL     1       6.046   1.493  -0.821  0.00  0.00    +0.037 C 
ATOM     27  C   UNL     1       7.155  -0.309   0.345  0.00  0.00    +0.037 C 
ATOM     28  C   UNL     1       7.215   0.907  -0.337  0.00  0.00    +0.134 C 
BRANCH  28  29
ATOM     29  O   UNL     1       8.414   1.520  -0.529  0.00  0.00    -0.506 OA
ATOM     30  H   UNL     1       8.454   2.337  -0.987  0.00  0.00    +0.292 HD
ENDBRANCH  28  29
ENDBRANCH  22  23
ENDBRANCH  20  21
ENDBRANCH   8  20
TORSDOF 8
