REMARK  Name = 11339719
REMARK  0 active torsions:
REMARK  status: ('A' for Active; 'I' for Inactive)
REMARK                            x       y       z     vdW  Elec       q    Type
REMARK                         _______ _______ _______ _____ _____    ______ ____
ROOT
ATOM      1  O   UNL     1      -0.682   0.434  -1.536  0.00  0.00    -0.338 OA
ATOM      2  O   UNL     1      -5.809  -1.679   0.523  0.00  0.00    -0.277 OA
ATOM      3  O   UNL     1       0.681   2.124  -0.078  0.00  0.00    -0.187 OA
ATOM      4  O   UNL     1       3.511   0.470   2.679  0.00  0.00    -0.275 OA
ATOM      5  N   UNL     1      -3.832  -0.627  -0.183  0.00  0.00    -0.279 N 
ATOM      6  N   UNL     1      -2.349  -2.291   0.116  0.00  0.00    +0.405 N 
ATOM      7  N   UNL     1       2.195   0.153   0.798  0.00  0.00    -0.252 NA
ATOM      8  N   UNL     1       0.516  -0.512  -0.241  0.00  0.00    -0.234 NA
ATOM      9  N   UNL     1       3.263  -0.320  -1.433  0.00  0.00    -0.392 NA
ATOM     10  C   UNL     1      -1.606   0.220  -0.276  0.00  0.00    +0.115 C 
ATOM     11  C   UNL     1      -2.509  -1.019  -0.573  0.00  0.00    +0.053 C 
ATOM     12  C   UNL     1      -0.885   0.126   1.380  0.00  0.00    +0.056 C 
ATOM     13  C   UNL     1      -2.684   1.311  -0.277  0.00  0.00    +0.015 C 
ATOM     14  C   UNL     1       0.786   0.474   1.657  0.00  0.00    +0.132 C 
ATOM     15  C   UNL     1       0.601  -0.227  -1.529  0.00  0.00    +0.200 C 
ATOM     16  C   UNL     1      -3.963   0.746  -0.150  0.00  0.00    +0.050 C 
ATOM     17  C   UNL     1      -3.708  -2.887   0.131  0.00  0.00    +0.020 C 
ATOM     18  C   UNL     1      -4.636  -1.676   0.191  0.00  0.00    +0.208 C 
ATOM     19  C   UNL     1       2.181  -0.147  -0.747  0.00  0.00    +0.193 C 
ATOM     20  C   UNL     1       0.624   1.001   0.381  0.00  0.00    +0.247 C 
ATOM     21  C   UNL     1      -2.540   2.687  -0.290  0.00  0.00    -0.001 C 
ATOM     22  C   UNL     1       0.554  -1.431  -2.455  0.00  0.00    +0.056 C 
ATOM     23  C   UNL     1      -5.104   1.506   0.015  0.00  0.00    +0.015 C 
ATOM     24  C   UNL     1      -3.907  -3.822   1.310  0.00  0.00    -0.014 C 
ATOM     25  C   UNL     1       3.401   0.231   1.480  0.00  0.00    +0.230 C 
ATOM     26  C   UNL     1      -3.687   3.477  -0.157  0.00  0.00    -0.000 C 
ATOM     27  C   UNL     1      -4.955   2.893   0.002  0.00  0.00    +0.001 C 
ATOM     28  C   UNL     1       4.603   0.002   0.638  0.00  0.00    +0.150 C 
ATOM     29  C   UNL     1       4.487  -0.251  -0.741  0.00  0.00    +0.123 C 
ATOM     30  C   UNL     1       5.866   0.050   1.246  0.00  0.00    -0.010 C 
ATOM     31  C   UNL     1       5.658  -0.453  -1.486  0.00  0.00    +0.028 C 
ATOM     32  C   UNL     1       7.017  -0.154   0.486  0.00  0.00    -0.004 C 
ATOM     33  C   UNL     1       6.913  -0.406  -0.879  0.00  0.00    +0.002 C 
ATOM     34  H   UNL     1      -2.011  -2.144   1.067  0.00  0.00    -0.081 HD
ATOM     35  H   UNL     1      -1.669  -2.895  -0.344  0.00  0.00    -0.081 HD
ATOM     36  H   UNL     1       0.416  -1.380   0.213  0.00  0.00    +0.129 HD
ENDROOT
TORSDOF 0
