REMARK  Name = 11335703
REMARK  4 active torsions:
REMARK  status: ('A' for Active; 'I' for Inactive)
REMARK    1  A    between atoms: C_3  and  O_18
REMARK    2  A    between atoms: C_6  and  O_20
REMARK    3  A    between atoms: C_14  and  O_22
REMARK    4  A    between atoms: C_16  and  O_24
REMARK                            x       y       z     vdW  Elec       q    Type
REMARK                         _______ _______ _______ _____ _____    ______ ____
ROOT
ATOM      1  O   UNL     1      -0.063   2.715  -0.114  0.00  0.00    -0.287 OA
ATOM      2  O   UNL     1      -0.050  -2.625  -0.243  0.00  0.00    -0.287 OA
ATOM      3  C   UNL     1      -3.887   0.725   0.056  0.00  0.00    +0.095 C 
ATOM      4  C   UNL     1      -3.842  -0.610  -0.700  0.00  0.00    +0.061 C 
ATOM      5  C   UNL     1      -2.606   1.536  -0.213  0.00  0.00    +0.056 C 
ATOM      6  C   UNL     1      -2.602  -1.441  -0.335  0.00  0.00    +0.138 C 
ATOM      7  C   UNL     1      -1.336   0.714  -0.189  0.00  0.00    +0.020 C 
ATOM      8  C   UNL     1      -1.335  -0.629  -0.226  0.00  0.00    +0.043 C 
ATOM      9  C   UNL     1      -5.127   1.528  -0.344  0.00  0.00    +0.030 C 
ATOM     10  C   UNL     1      -0.065   1.489  -0.120  0.00  0.00    +0.192 C 
ATOM     11  C   UNL     1      -0.058  -1.400  -0.194  0.00  0.00    +0.197 C 
ATOM     12  C   UNL     1       1.206  -0.651  -0.098  0.00  0.00    +0.076 C 
ATOM     13  C   UNL     1       1.203   0.742  -0.063  0.00  0.00    +0.048 C 
ATOM     14  C   UNL     1       2.420  -1.348  -0.045  0.00  0.00    +0.140 C 
ATOM     15  C   UNL     1       2.414   1.441   0.027  0.00  0.00    +0.040 C 
ATOM     16  C   UNL     1       3.621   0.743   0.080  0.00  0.00    +0.142 C 
ATOM     17  C   UNL     1       3.624  -0.649   0.044  0.00  0.00    +0.074 C 
ENDROOT
BRANCH   3  18
ATOM     18  O   UNL     1      -3.986   0.456   1.458  0.00  0.00    -0.386 OA
ATOM     19  H   UNL     1      -3.212  -0.054   1.745  0.00  0.00    +0.210 HD
ENDBRANCH   3  18
BRANCH   6  20
ATOM     20  O   UNL     1      -2.813  -2.102   0.913  0.00  0.00    -0.380 OA
ATOM     21  H   UNL     1      -3.625  -2.631   0.865  0.00  0.00    +0.211 HD
ENDBRANCH   6  20
BRANCH  14  22
ATOM     22  O   UNL     1       2.493  -2.709  -0.074  0.00  0.00    -0.505 OA
ATOM     23  H   UNL     1       1.709  -3.219  -0.134  0.00  0.00    +0.292 HD
ENDBRANCH  14  22
BRANCH  16  24
ATOM     24  O   UNL     1       4.796   1.424   0.166  0.00  0.00    -0.471 OA
ATOM     25  C   UNL     1       5.993   0.650   0.217  0.00  0.00    +0.252 C 
ENDBRANCH  16  24
TORSDOF 4
