REMARK  Name = 11334126
REMARK  1 active torsions:
REMARK  status: ('A' for Active; 'I' for Inactive)
REMARK    1  A    between atoms: C_9  and  N_17
REMARK                            x       y       z     vdW  Elec       q    Type
REMARK                         _______ _______ _______ _____ _____    ______ ____
ROOT
ATOM      1  O   UNL     1       4.488   1.173   0.442  0.00  0.00    -0.262 OA
ATOM      2  O   UNL     1       4.434  -1.421  -0.084  0.00  0.00    -0.262 OA
ATOM      3  N   UNL     1       2.189   1.320   0.268  0.00  0.00    -0.316 N 
ATOM      4  N   UNL     1       2.133  -1.396  -0.284  0.00  0.00    -0.316 N 
ATOM      5  C   UNL     1       0.963   0.689   0.032  0.00  0.00    +0.076 A 
ATOM      6  C   UNL     1       0.934  -0.675  -0.245  0.00  0.00    +0.075 A 
ATOM      7  C   UNL     1      -0.224   1.422   0.075  0.00  0.00    +0.043 C 
ATOM      8  C   UNL     1      -0.280  -1.319  -0.482  0.00  0.00    +0.020 C 
ATOM      9  C   UNL     1      -1.440   0.780  -0.161  0.00  0.00    +0.144 C 
ATOM     10  C   UNL     1      -1.468  -0.588  -0.439  0.00  0.00    +0.026 C 
ATOM     11  C   UNL     1       3.396   0.656   0.241  0.00  0.00    +0.314 A 
ATOM     12  C   UNL     1       3.366  -0.823  -0.059  0.00  0.00    +0.314 A 
ATOM     13  H   UNL     1       2.190   2.285   0.462  0.00  0.00    +0.169 HD
ATOM     14  H   UNL     1       2.094  -2.360  -0.482  0.00  0.00    +0.169 HD
ENDROOT
BRANCH   9  17
ATOM     15  O   UNL     1      -2.571   2.766   0.140  0.00  0.00    -0.126 OA
ATOM     16  O   UNL     1      -3.733   0.963  -0.326  0.00  0.00    -0.126 OA
ATOM     17  N   UNL     1      -2.641   1.541  -0.113  0.00  0.00    +0.058 N 
ENDBRANCH   9  17
TORSDOF 1
REMARK  Name = 11334126
REMARK  1 active torsions:
REMARK  status: ('A' for Active; 'I' for Inactive)
REMARK    1  A    between atoms: C_9  and  N_17
REMARK                            x       y       z     vdW  Elec       q    Type
REMARK                         _______ _______ _______ _____ _____    ______ ____
ROOT
ATOM      1  N   UNL     1      -3.195  -1.707   0.364  0.00  0.00    +0.000 NA
ATOM      2  N   UNL     1      -3.673  -2.127   1.311  0.00  0.00    +0.000 NA
ENDROOT
TORSDOF 0
