11336960
  -OEChem-03292013303D

 50 50  0     1  0  0  0  0  0999 V2000
    2.3340    4.0631    0.7896 O   0  0  0  0  0  0  0  0  0  0  0  0
    0.4956    1.1098   -1.9064 O   0  0  0  0  0  0  0  0  0  0  0  0
    5.8281   -3.6492   -0.1161 O   0  0  0  0  0  0  0  0  0  0  0  0
   -7.1016    1.5419   -0.3494 O   0  0  0  0  0  0  0  0  0  0  0  0
   -6.3567    0.5165    1.5434 O   0  0  0  0  0  0  0  0  0  0  0  0
    1.5414    1.4030    0.1463 N   0  0  0  0  0  0  0  0  0  0  0  0
    2.7622    1.9874   -0.3597 C   0  0  2  0  0  0  0  0  0  0  0  0
    3.9481    1.6480    0.5570 C   0  0  0  0  0  0  0  0  0  0  0  0
    2.6008    3.5029   -0.4912 C   0  0  0  0  0  0  0  0  0  0  0  0
    4.4497    0.2346    0.3779 C   0  0  0  0  0  0  0  0  0  0  0  0
   -5.2886   -1.6083   -0.1111 C   0  0  2  0  0  0  0  0  0  0  0  0
   -6.4747   -0.7290   -0.5308 C   0  0  0  0  0  0  0  0  0  0  0  0
   -4.0025   -0.9926   -0.6211 C   0  0  0  0  0  0  0  0  0  0  0  0
    5.4486   -0.0373   -0.5569 C   0  0  0  0  0  0  0  0  0  0  0  0
    3.9140   -0.7988    1.1467 C   0  0  0  0  0  0  0  0  0  0  0  0
   -5.4220   -3.0308   -0.6669 C   0  0  0  0  0  0  0  0  0  0  0  0
    0.5045    1.0117   -0.6836 C   0  0  0  0  0  0  0  0  0  0  0  0
   -2.9222   -0.5712    0.0707 C   0  0  0  0  0  0  0  0  0  0  0  0
   -0.6392    0.4431    0.0870 C   0  0  0  0  0  0  0  0  0  0  0  0
   -1.7360    0.0100   -0.5550 C   0  0  0  0  0  0  0  0  0  0  0  0
    5.9120   -1.3423   -0.7229 C   0  0  0  0  0  0  0  0  0  0  0  0
    4.3774   -2.1039    0.9808 C   0  0  0  0  0  0  0  0  0  0  0  0
    5.3765   -2.3756    0.0460 C   0  0  0  0  0  0  0  0  0  0  0  0
   -2.9229   -0.7162    1.5744 C   0  0  0  0  0  0  0  0  0  0  0  0
   -6.6266    0.4832    0.3515 C   0  0  0  0  0  0  0  0  0  0  0  0
    2.9455    1.5865   -1.3648 H   0  0  0  0  0  0  0  0  0  0  0  0
    3.6918    1.8114    1.6124 H   0  0  0  0  0  0  0  0  0  0  0  0
    4.7855    2.3287    0.3512 H   0  0  0  0  0  0  0  0  0  0  0  0
    1.7642    3.7516   -1.1527 H   0  0  0  0  0  0  0  0  0  0  0  0
    3.5106    3.9615   -0.8922 H   0  0  0  0  0  0  0  0  0  0  0  0
   -5.3094   -1.7121    0.9740 H   0  0  0  0  0  0  0  0  0  0  0  0
    1.4332    1.3297    1.1541 H   0  0  0  0  0  0  0  0  0  0  0  0
   -7.4141   -1.2892   -0.4504 H   0  0  0  0  0  0  0  0  0  0  0  0
   -6.3719   -0.4124   -1.5762 H   0  0  0  0  0  0  0  0  0  0  0  0
   -3.9655   -0.8845   -1.7068 H   0  0  0  0  0  0  0  0  0  0  0  0
    5.8720    0.7587   -1.1637 H   0  0  0  0  0  0  0  0  0  0  0  0
    3.1361   -0.6004    1.8791 H   0  0  0  0  0  0  0  0  0  0  0  0
   -6.3352   -3.5068   -0.2936 H   0  0  0  0  0  0  0  0  0  0  0  0
   -4.5728   -3.6526   -0.3622 H   0  0  0  0  0  0  0  0  0  0  0  0
   -5.4675   -3.0316   -1.7620 H   0  0  0  0  0  0  0  0  0  0  0  0
   -1.7806    0.0814   -1.6404 H   0  0  0  0  0  0  0  0  0  0  0  0
   -0.5433    0.3963    1.1661 H   0  0  0  0  0  0  0  0  0  0  0  0
    6.6901   -1.5411   -1.4551 H   0  0  0  0  0  0  0  0  0  0  0  0
    3.9564   -2.9046    1.5826 H   0  0  0  0  0  0  0  0  0  0  0  0
    2.2391    5.0230    0.6662 H   0  0  0  0  0  0  0  0  0  0  0  0
   -2.8547    0.2715    2.0453 H   0  0  0  0  0  0  0  0  0  0  0  0
   -2.0586   -1.3104    1.8947 H   0  0  0  0  0  0  0  0  0  0  0  0
   -3.7906   -1.2048    2.0134 H   0  0  0  0  0  0  0  0  0  0  0  0
    6.5172   -3.6541   -0.8025 H   0  0  0  0  0  0  0  0  0  0  0  0
   -7.2032    2.3384    0.2142 H   0  0  0  0  0  0  0  0  0  0  0  0
  1  9  1  0  0  0  0
  1 45  1  0  0  0  0
  2 17  2  0  0  0  0
  3 23  1  0  0  0  0
  3 49  1  0  0  0  0
  4 25  1  0  0  0  0
  4 50  1  0  0  0  0
  5 25  2  0  0  0  0
  6  7  1  0  0  0  0
  6 17  1  0  0  0  0
  6 32  1  0  0  0  0
  7  8  1  0  0  0  0
  7  9  1  0  0  0  0
  7 26  1  0  0  0  0
  8 10  1  0  0  0  0
  8 27  1  0  0  0  0
  8 28  1  0  0  0  0
  9 29  1  0  0  0  0
  9 30  1  0  0  0  0
 10 14  2  0  0  0  0
 10 15  1  0  0  0  0
 11 12  1  0  0  0  0
 11 13  1  0  0  0  0
 11 16  1  0  0  0  0
 11 31  1  0  0  0  0
 12 25  1  0  0  0  0
 12 33  1  0  0  0  0
 12 34  1  0  0  0  0
 13 18  2  0  0  0  0
 13 35  1  0  0  0  0
 14 21  1  0  0  0  0
 14 36  1  0  0  0  0
 15 22  2  0  0  0  0
 15 37  1  0  0  0  0
 16 38  1  0  0  0  0
 16 39  1  0  0  0  0
 16 40  1  0  0  0  0
 17 19  1  0  0  0  0
 18 20  1  0  0  0  0
 18 24  1  0  0  0  0
 19 20  2  0  0  0  0
 19 42  1  0  0  0  0
 20 41  1  0  0  0  0
 21 23  2  0  0  0  0
 21 43  1  0  0  0  0
 22 23  1  0  0  0  0
 22 44  1  0  0  0  0
 24 46  1  0  0  0  0
 24 47  1  0  0  0  0
 24 48  1  0  0  0  0
M  END
> <PUBCHEM_COMPOUND_CID>
11336960

> <PUBCHEM_CONFORMER_RMSD>
1

> <PUBCHEM_CONFORMER_DIVERSEORDER>
2
71
82
59
63
117
95
134
26
32
80
93
111
38
128
14
171
169
150
28
159
143
157
90
64
35
44
144
123
47
69
138
6
58
140
85
165
68
74
19
16
158
61
56
135
73
55
12
156
42
121
62
124
137
50
129
67
34
66
25
53
106
36
148
164
118
37
8
17
11
45
127
60
103
105
153
70
83
147
94
163
81
52
91
96
145
98
110
77
151
78
48
30
136
57
72
100
86
168
114
65
9
160
130
120
79
133
142
10
29
125
84
170
15
21
89
7
119
149
113
24
97
75
22
122
92
166
49
162
108
31
115
54
23
146
76
132
101
88
161
126
33
41
51
99
20
27
109
139
102
112
5
141
167
39
154
1
40
116
131
107
87
43
155
4
13
152
104
46
3
18

> <PUBCHEM_MMFF94_PARTIAL_CHARGES>
35
1 -0.68
10 -0.14
11 0.14
12 0.06
13 -0.29
14 -0.15
15 -0.15
17 0.62
18 -0.14
19 -0.14
2 -0.57
20 -0.15
21 -0.15
22 -0.15
23 0.08
24 0.14
25 0.66
3 -0.53
32 0.37
35 0.15
36 0.15
37 0.15
4 -0.65
41 0.15
42 0.15
43 0.15
44 0.15
45 0.4
49 0.45
5 -0.57
50 0.5
6 -0.73
7 0.3
8 0.14
9 0.28

> <PUBCHEM_EFFECTIVE_ROTOR_COUNT>
10

> <PUBCHEM_PHARMACOPHORE_FEATURES>
11
1 1 acceptor
1 1 donor
1 16 hydrophobe
1 2 acceptor
1 24 hydrophobe
1 3 donor
1 4 acceptor
1 5 acceptor
1 6 donor
3 4 5 25 anion
6 10 14 15 21 22 23 rings

> <PUBCHEM_HEAVY_ATOM_COUNT>
25

> <PUBCHEM_ATOM_DEF_STEREO_COUNT>
0

> <PUBCHEM_ATOM_UDEF_STEREO_COUNT>
2

> <PUBCHEM_BOND_DEF_STEREO_COUNT>
2

> <PUBCHEM_BOND_UDEF_STEREO_COUNT>
0

> <PUBCHEM_ISOTOPIC_ATOM_COUNT>
0

> <PUBCHEM_COMPONENT_COUNT>
1

> <PUBCHEM_CACTVS_TAUTO_COUNT>
4

> <PUBCHEM_CONFORMER_ID>
00ACFD0000000002

> <PUBCHEM_MMFF94_ENERGY>
47.7263

> <PUBCHEM_FEATURE_SELFOVERLAP>
55.88

> <PUBCHEM_SHAPE_FINGERPRINT>
11719270 70 17561367283762659935
12107183 9 18342463595493330345
12596602 18 17917712456451602850
13073987 5 18267867375394003769
13533116 47 18338234976271882872
1361 2 18409727383227600394
13673619 4 18040714732357173604
13785724 45 18270688563037610022
13911852 28 18338516335891267894
13914758 101 18343584006706210113
13955234 65 18125999606002019168
14211702 104 18191873529550251195
14347424 109 18131626773347495312
15183329 4 18335415773256589067
20645477 70 18189045551124792380
2215653 11 18040432209060497035
23016692 55 18335427846309529238
2303208 19 17313101977853057027
23081809 10 18059011804418894469
23559900 14 18410850001609889745
23569943 247 17969493828061530467
4073 2 18043814396937232635
46194498 28 17385723630046371620
465052 167 18343021103760214918
5104073 3 18270407212873283987
531348 171 18413106178718182927
54039377 194 18265899052440155174
6299153 45 18270407088219382377
7970288 3 18340201883101549086
9965369 4 18343303644025769857

> <PUBCHEM_SHAPE_MULTIPOLES>
480.16
20.01
3.7
1.16
20.96
0.9
-0.12
-9.92
-0.44
-5.23
0.09
0.3
0.04
-0.72

> <PUBCHEM_SHAPE_SELFOVERLAP>
972.059

> <PUBCHEM_SHAPE_VOLUME>
279

> <PUBCHEM_COORDINATE_TYPE>
2
5
10

$$$$
