REMARK  Name = 11339193
REMARK  11 active torsions:
REMARK  status: ('A' for Active; 'I' for Inactive)
REMARK    1  A    between atoms: N_2  and  C_16
REMARK    2  A    between atoms: C_3  and  C_20
REMARK    3  A    between atoms: C_17  and  O_18
REMARK    4  A    between atoms: C_21  and  C_22
REMARK    5  A    between atoms: C_22  and  C_24
REMARK    6  A    between atoms: C_24  and  C_25
REMARK    7  A    between atoms: C_25  and  C_27
REMARK    8  A    between atoms: C_27  and  C_28
REMARK    9  A    between atoms: C_28  and  C_29
REMARK   10  A    between atoms: C_29  and  C_30
REMARK   11  A    between atoms: C_30  and  C_31
REMARK                            x       y       z     vdW  Elec       q    Type
REMARK                         _______ _______ _______ _____ _____    ______ ____
ROOT
ATOM      1  O   UNL     1       0.585   2.671   2.091  0.00  0.00    -0.270 OA
ATOM      2  N   UNL     1       1.942   1.996   0.330  0.00  0.00    -0.298 N 
ATOM      3  C   UNL     1       0.790   2.521   0.890  0.00  0.00    +0.246 C 
ATOM      4  H   UNL     1       1.999   1.921  -0.650  0.00  0.00    +0.150 HD
ENDROOT
BRANCH   2  16
ATOM      5  O   UNL     1       3.911  -2.821   1.291  0.00  0.00    -0.343 OA
ATOM      6  O   UNL     1       1.658  -1.945  -0.463  0.00  0.00    -0.343 OA
ATOM      7  O   UNL     1       4.497   0.423  -0.386  0.00  0.00    -0.329 OA
ATOM      8  O   UNL     1       3.406  -4.554  -1.472  0.00  0.00    -0.291 OA
ATOM      9  C   UNL     1       3.649  -0.597   0.204  0.00  0.00    +0.152 C 
ATOM     10  C   UNL     1       4.556  -1.721   0.634  0.00  0.00    +0.177 C 
ATOM     11  C   UNL     1       2.638  -0.973  -0.852  0.00  0.00    +0.177 C 
ATOM     12  C   UNL     1       4.497  -3.087   0.007  0.00  0.00    +0.204 C 
ATOM     13  C   UNL     1       2.600  -2.345  -1.471  0.00  0.00    +0.204 C 
ATOM     14  C   UNL     1       2.985   0.070   1.425  0.00  0.00    +0.057 C 
ATOM     15  C   UNL     1       3.497  -3.421  -1.020  0.00  0.00    +0.209 C 
ATOM     16  C   UNL     1       3.062   1.555   1.125  0.00  0.00    +0.131 C 
ATOM     17  C   UNL     1       4.389   1.627   0.386  0.00  0.00    +0.250 C 
BRANCH  17  18
ATOM     18  O   UNL     1       4.556   2.797  -0.394  0.00  0.00    -0.359 OA
ATOM     19  H   UNL     1       5.421   2.772  -0.832  0.00  0.00    +0.213 HD
ENDBRANCH  17  18
ENDBRANCH   2  16
BRANCH   3  20
ATOM     20  C   UNL     1      -0.210   2.895  -0.147  0.00  0.00    +0.053 C 
ATOM     21  C   UNL     1      -1.390   3.421   0.210  0.00  0.00    -0.022 C 
BRANCH  21  22
ATOM     22  C   UNL     1      -2.455   3.826  -0.787  0.00  0.00    +0.022 C 
ATOM     23  C   UNL     1      -2.701   5.332  -0.677  0.00  0.00    +0.005 C 
BRANCH  22  24
ATOM     24  C   UNL     1      -3.734   3.000  -0.531  0.00  0.00    +0.004 C 
BRANCH  24  25
ATOM     25  C   UNL     1      -3.575   1.464  -0.594  0.00  0.00    +0.000 C 
ATOM     26  C   UNL     1      -3.131   0.993  -1.984  0.00  0.00    +0.000 C 
BRANCH  25  27
ATOM     27  C   UNL     1      -4.889   0.740  -0.220  0.00  0.00    +0.000 C 
BRANCH  27  28
ATOM     28  C   UNL     1      -4.747  -0.782  -0.105  0.00  0.00    +0.000 C 
BRANCH  28  29
ATOM     29  C   UNL     1      -6.061  -1.427   0.343  0.00  0.00    +0.000 C 
BRANCH  29  30
ATOM     30  C   UNL     1      -5.933  -2.949   0.428  0.00  0.00    +0.000 C 
BRANCH  30  31
ATOM     31  C   UNL     1      -7.254  -3.596   0.842  0.00  0.00    +0.000 C 
ATOM     32  C   UNL     1      -7.140  -5.111   0.895  0.00  0.00    +0.000 C 
ENDBRANCH  30  31
ENDBRANCH  29  30
ENDBRANCH  28  29
ENDBRANCH  27  28
ENDBRANCH  25  27
ENDBRANCH  24  25
ENDBRANCH  22  24
ENDBRANCH  21  22
ENDBRANCH   3  20
TORSDOF 11
