REMARK  Name = 11336960
REMARK  12 active torsions:
REMARK  status: ('A' for Active; 'I' for Inactive)
REMARK    1  A    between atoms: N_2  and  CA_17
REMARK    2  A    between atoms: C_3  and  C_5
REMARK    3  A    between atoms: C_6  and  C_8
REMARK    4  A    between atoms: C_7  and  C_10
REMARK    5  A    between atoms: C_10  and  C_12
REMARK    6  A    between atoms: C_12  and  C_14
REMARK    7  A    between atoms: C_14  and  O_15
REMARK    8  A    between atoms: CA_17  and  CB_18
REMARK    9  A    between atoms: CA_17  and  C_27
REMARK   10  A    between atoms: CB_18  and  CG_19
REMARK   11  A    between atoms: CZ_24  and  OH_25
REMARK   12  A    between atoms: C_27  and  O_28
REMARK                            x       y       z     vdW  Elec       q    Type
REMARK                         _______ _______ _______ _____ _____    ______ ____
ROOT
ATOM      1  O   UNK A   0       0.496   1.110  -1.906  0.00  0.00    -0.270 OA
ATOM      2  N   TYR A   1       1.541   1.403   0.146  0.00  0.00    -0.300 N 
ATOM      3  C   UNK A   0       0.504   1.012  -0.684  0.00  0.00    +0.246 C 
ATOM      4  H   TYR A   1       1.443   1.278   1.118  0.00  0.00    +0.150 HD
ENDROOT
BRANCH   3   5
ATOM      5  C   UNK A   0      -0.639   0.443   0.087  0.00  0.00    +0.057 C 
ATOM      6  C   UNK A   0      -1.736   0.010  -0.555  0.00  0.00    +0.000 C 
BRANCH   6   8
ATOM      7  C   UNK A   0      -4.003  -0.993  -0.621  0.00  0.00    -0.030 C 
ATOM      8  C   UNK A   0      -2.922  -0.571   0.071  0.00  0.00    -0.026 C 
ATOM      9  C   UNK A   0      -2.923  -0.716   1.574  0.00  0.00    +0.031 C 
BRANCH   7  10
ATOM     10  C   UNK A   0      -5.289  -1.608  -0.111  0.00  0.00    +0.033 C 
ATOM     11  C   UNK A   0      -5.422  -3.031  -0.667  0.00  0.00    +0.005 C 
BRANCH  10  12
ATOM     12  C   UNK A   0      -6.475  -0.729  -0.531  0.00  0.00    +0.114 C 
BRANCH  12  14
ATOM     13  O   UNK A   0      -6.357   0.516   1.543  0.00  0.00    -0.250 OA
ATOM     14  C   UNK A   0      -6.627   0.483   0.351  0.00  0.00    +0.314 C 
BRANCH  14  15
ATOM     15  O   UNK A   0      -7.102   1.542  -0.349  0.00  0.00    -0.480 OA
ATOM     16  H   UNK A   0      -7.290   1.453  -1.263  0.00  0.00    +0.295 HD
ENDBRANCH  14  15
ENDBRANCH  12  14
ENDBRANCH  10  12
ENDBRANCH   7  10
ENDBRANCH   6   8
ENDBRANCH   3   5
BRANCH   2  17
ATOM     17  CA  TYR A   1       2.762   1.987  -0.360  0.00  0.00    +0.105 C 
BRANCH  17  18
ATOM     18  CB  TYR A   1       3.948   1.648   0.557  0.00  0.00    +0.048 C 
BRANCH  18  19
ATOM     19  CG  TYR A   1       4.450   0.235   0.378  0.00  0.00    -0.020 C 
ATOM     20  CD1 TYR A   1       5.449  -0.037  -0.557  0.00  0.00    -0.001 C 
ATOM     21  CD2 TYR A   1       3.914  -0.799   1.147  0.00  0.00    -0.001 C 
ATOM     22  CE1 TYR A   1       5.912  -1.342  -0.723  0.00  0.00    +0.036 C 
ATOM     23  CE2 TYR A   1       4.377  -2.104   0.981  0.00  0.00    +0.036 C 
ATOM     24  CZ  TYR A   1       5.377  -2.376   0.046  0.00  0.00    +0.134 C 
BRANCH  24  25
ATOM     25  OH  TYR A   1       5.828  -3.649  -0.116  0.00  0.00    -0.506 OA
ATOM     26  HH  TYR A   1       6.499  -3.832  -0.744  0.00  0.00    +0.292 HD
ENDBRANCH  24  25
ENDBRANCH  18  19
ENDBRANCH  17  18
BRANCH  17  27
ATOM     27  C   TYR A   1       2.601   3.503  -0.491  0.00  0.00    +0.157 C 
BRANCH  27  28
ATOM     28  O   TYR A   1       2.334   4.063   0.790  0.00  0.00    -0.380 OA
ATOM     29  H   TYR A   1       2.231   5.024   0.707  0.00  0.00    +0.211 HD
ENDBRANCH  27  28
ENDBRANCH  17  27
ENDBRANCH   2  17
TORSDOF 12
