REMARK  Name = 11339499
REMARK  8 active torsions:
REMARK  status: ('A' for Active; 'I' for Inactive)
REMARK    1  A    between atoms: C_2  and  O_33
REMARK    2  A    between atoms: C_5  and  O_35
REMARK    3  A    between atoms: C_6  and  C_12
REMARK    4  A    between atoms: C_6  and  N_29
REMARK    5  A    between atoms: C_7  and  O_37
REMARK    6  A    between atoms: N_11  and  C_16
REMARK    7  A    between atoms: C_22  and  O_25
REMARK    8  A    between atoms: C_23  and  O_27
REMARK                            x       y       z     vdW  Elec       q    Type
REMARK                         _______ _______ _______ _____ _____    ______ ____
ROOT
ATOM      1  O   UNL     1       3.447  -0.110  -1.856  0.00  0.00    -0.365 OA
ATOM      2  C   UNL     1       3.846   0.704   0.347  0.00  0.00    +0.145 C 
ATOM      3  C   UNL     1       4.306   0.779  -1.112  0.00  0.00    +0.161 C 
ATOM      4  C   UNL     1       3.253  -0.696   0.445  0.00  0.00    +0.048 C 
ATOM      5  C   UNL     1       4.963   1.030   1.347  0.00  0.00    +0.168 C 
ATOM      6  C   UNL     1       2.683  -0.915  -0.954  0.00  0.00    +0.122 C 
ATOM      7  C   UNL     1       6.255   0.241   1.090  0.00  0.00    +0.161 C 
ATOM      8  C   UNL     1       5.727   0.359  -1.349  0.00  0.00    +0.003 C 
ATOM      9  C   UNL     1       6.598   0.110  -0.362  0.00  0.00    +0.003 C 
ENDROOT
BRANCH   6  12
ATOM     10  O   UNL     1       0.934   0.414  -1.887  0.00  0.00    -0.275 OA
ATOM     11  N   UNL     1       0.414  -1.101  -0.192  0.00  0.00    -0.279 N 
ATOM     12  C   UNL     1       1.261  -0.443  -1.070  0.00  0.00    +0.232 C 
ATOM     13  H   UNL     1       0.799  -1.787   0.400  0.00  0.00    +0.155 HD
BRANCH  11  16
ATOM     14  O   UNL     1      -3.160  -1.716   0.387  0.00  0.00    -0.417 OA
ATOM     15  O   UNL     1      -1.346  -3.096   0.549  0.00  0.00    -0.243 OA
ATOM     16  C   UNL     1      -0.924  -0.853  -0.105  0.00  0.00    +0.127 C 
ATOM     17  C   UNL     1      -1.426   0.358  -0.374  0.00  0.00    +0.024 C 
ATOM     18  C   UNL     1      -1.796  -1.982   0.301  0.00  0.00    +0.360 C 
ATOM     19  C   UNL     1      -2.855   0.603  -0.274  0.00  0.00    +0.039 C 
ATOM     20  C   UNL     1      -3.691  -0.442   0.104  0.00  0.00    +0.185 C 
ATOM     21  C   UNL     1      -3.419   1.852  -0.547  0.00  0.00    +0.006 C 
ATOM     22  C   UNL     1      -5.070  -0.275   0.218  0.00  0.00    +0.207 C 
ATOM     23  C   UNL     1      -5.623   0.973  -0.055  0.00  0.00    +0.175 C 
ATOM     24  C   UNL     1      -4.800   2.035  -0.437  0.00  0.00    +0.040 C 
BRANCH  22  25
ATOM     25  O   UNL     1      -5.866  -1.315   0.591  0.00  0.00    -0.465 OA
ATOM     26  C   UNL     1      -6.634  -1.149   1.782  0.00  0.00    +0.253 C 
ENDBRANCH  22  25
BRANCH  23  27
ATOM     27  O   UNL     1      -6.967   1.173   0.046  0.00  0.00    -0.468 OA
ATOM     28  C   UNL     1      -7.452   2.481  -0.252  0.00  0.00    +0.253 C 
ENDBRANCH  23  27
ENDBRANCH  11  16
ENDBRANCH   6  12
BRANCH   6  29
ATOM     29  N   UNL     1       2.681  -2.325  -1.316  0.00  0.00    +0.404 N 
ATOM     30  H   UNL     1       3.630  -2.693  -1.252  0.00  0.00    -0.085 HD
ATOM     31  H   UNL     1       2.339  -2.430  -2.271  0.00  0.00    -0.085 HD
ATOM     32  H   UNL     1       2.073  -2.839  -0.678  0.00  0.00    -0.085 HD
ENDBRANCH   6  29
BRANCH   2  33
ATOM     33  O   UNL     1       2.798   1.665   0.519  0.00  0.00    -0.382 OA
ATOM     34  H   UNL     1       2.080   1.476  -0.106  0.00  0.00    +0.210 HD
ENDBRANCH   2  33
BRANCH   5  35
ATOM     35  O   UNL     1       4.530   0.727   2.676  0.00  0.00    -0.379 OA
ATOM     36  H   UNL     1       3.713   1.213   2.868  0.00  0.00    +0.211 HD
ENDBRANCH   5  35
BRANCH   7  37
ATOM     37  O   UNL     1       7.335   0.914   1.740  0.00  0.00    -0.377 OA
ATOM     38  H   UNL     1       7.134   1.010   2.685  0.00  0.00    +0.211 HD
ENDBRANCH   7  37
TORSDOF 8
