11349170
  -OEChem-03292013303D

 51 54  0     1  0  0  0  0  0999 V2000
   -2.0459    4.2776    0.9516 O   0  0  0  0  0  0  0  0  0  0  0  0
   -3.2087   -2.7352   -1.4440 O   0  0  0  0  0  0  0  0  0  0  0  0
    0.7656    1.9826    0.2459 N   0  0  1  0  0  0  0  0  0  0  0  0
   -2.9614    2.9495   -1.5316 N   0  0  0  0  0  0  0  0  0  0  0  0
    3.6276   -1.2112   -0.3439 N   0  0  0  0  0  0  0  0  0  0  0  0
    3.6084   -2.5527   -0.5322 N   0  0  0  0  0  0  0  0  0  0  0  0
    0.2749   -0.5858    1.0944 N   0  0  0  0  0  0  0  0  0  0  0  0
    1.3752   -2.5010    0.3726 N   0  0  0  0  0  0  0  0  0  0  0  0
   -1.5653    3.1118   -1.1238 C   0  0  1  0  0  0  0  0  0  0  0  0
   -1.4405    3.1074    0.4058 C   0  0  1  0  0  0  0  0  0  0  0  0
   -0.7244    1.9820   -1.7245 C   0  0  0  0  0  0  0  0  0  0  0  0
    0.0310    3.1069    0.8365 C   0  0  0  0  0  0  0  0  0  0  0  0
    0.7191    2.0361   -1.2210 C   0  0  0  0  0  0  0  0  0  0  0  0
    2.1514    1.9736    0.7142 C   0  0  0  0  0  0  0  0  0  0  0  0
    2.9623    0.8068    0.2182 C   0  0  0  0  0  0  0  0  0  0  0  0
    2.5805   -0.4985    0.1805 C   0  0  0  0  0  0  0  0  0  0  0  0
    4.2646    0.9162   -0.2887 C   0  0  0  0  0  0  0  0  0  0  0  0
    4.6605   -0.3584   -0.6337 C   0  0  0  0  0  0  0  0  0  0  0  0
    1.3800   -1.2044    0.5596 C   0  0  0  0  0  0  0  0  0  0  0  0
    2.4915   -3.1151   -0.1655 C   0  0  0  0  0  0  0  0  0  0  0  0
   -1.0510   -0.9881    0.9602 C   0  0  0  0  0  0  0  0  0  0  0  0
   -1.4788   -1.6715   -0.1893 C   0  0  0  0  0  0  0  0  0  0  0  0
   -1.9867   -0.7179    1.9716 C   0  0  0  0  0  0  0  0  0  0  0  0
   -2.8074   -2.0744   -0.3237 C   0  0  0  0  0  0  0  0  0  0  0  0
   -3.3153   -1.1207    1.8372 C   0  0  0  0  0  0  0  0  0  0  0  0
   -3.7256   -1.7991    0.6896 C   0  0  0  0  0  0  0  0  0  0  0  0
   -4.5817   -3.1165   -1.5160 C   0  0  0  0  0  0  0  0  0  0  0  0
   -1.2152    4.0769   -1.5121 H   0  0  0  0  0  0  0  0  0  0  0  0
   -1.9540    2.2344    0.8280 H   0  0  0  0  0  0  0  0  0  0  0  0
   -0.7270    2.0539   -2.8193 H   0  0  0  0  0  0  0  0  0  0  0  0
   -1.1617    1.0079   -1.4734 H   0  0  0  0  0  0  0  0  0  0  0  0
    0.4956    4.0681    0.5751 H   0  0  0  0  0  0  0  0  0  0  0  0
    0.0671    3.0432    1.9321 H   0  0  0  0  0  0  0  0  0  0  0  0
    1.2402    1.1876   -1.6767 H   0  0  0  0  0  0  0  0  0  0  0  0
    1.2030    2.9489   -1.5940 H   0  0  0  0  0  0  0  0  0  0  0  0
    2.1664    1.9271    1.8117 H   0  0  0  0  0  0  0  0  0  0  0  0
    2.6548    2.9101    0.4366 H   0  0  0  0  0  0  0  0  0  0  0  0
   -3.0316    3.0086   -2.5466 H   0  0  0  0  0  0  0  0  0  0  0  0
   -3.5174    3.7174   -1.1577 H   0  0  0  0  0  0  0  0  0  0  0  0
   -1.9694    4.2241    1.9195 H   0  0  0  0  0  0  0  0  0  0  0  0
    4.8633    1.8097   -0.3987 H   0  0  0  0  0  0  0  0  0  0  0  0
    5.5850   -0.7256   -1.0586 H   0  0  0  0  0  0  0  0  0  0  0  0
    0.3986    0.2809    1.6078 H   0  0  0  0  0  0  0  0  0  0  0  0
    2.4108   -4.2072   -0.2930 H   0  0  0  0  0  0  0  0  0  0  0  0
   -0.7908   -1.8763   -1.0064 H   0  0  0  0  0  0  0  0  0  0  0  0
   -1.6816   -0.1889    2.8716 H   0  0  0  0  0  0  0  0  0  0  0  0
   -4.0296   -0.9051    2.6266 H   0  0  0  0  0  0  0  0  0  0  0  0
   -4.7717   -2.0825    0.6503 H   0  0  0  0  0  0  0  0  0  0  0  0
   -4.7246   -3.6301   -2.4724 H   0  0  0  0  0  0  0  0  0  0  0  0
   -5.2422   -2.2428   -1.5207 H   0  0  0  0  0  0  0  0  0  0  0  0
   -4.8429   -3.8306   -0.7276 H   0  0  0  0  0  0  0  0  0  0  0  0
  1 10  1  0  0  0  0
  1 40  1  0  0  0  0
  2 24  1  0  0  0  0
  2 27  1  0  0  0  0
  3 12  1  0  0  0  0
  3 13  1  0  0  0  0
  3 14  1  0  0  0  0
  4  9  1  0  0  0  0
  4 38  1  0  0  0  0
  4 39  1  0  0  0  0
  5  6  1  0  0  0  0
  5 16  1  0  0  0  0
  5 18  1  0  0  0  0
  6 20  2  0  0  0  0
  7 19  1  0  0  0  0
  7 21  1  0  0  0  0
  7 43  1  0  0  0  0
  8 19  2  0  0  0  0
  8 20  1  0  0  0  0
  9 10  1  0  0  0  0
  9 11  1  0  0  0  0
  9 28  1  0  0  0  0
 10 12  1  0  0  0  0
 10 29  1  0  0  0  0
 11 13  1  0  0  0  0
 11 30  1  0  0  0  0
 11 31  1  0  0  0  0
 12 32  1  0  0  0  0
 12 33  1  0  0  0  0
 13 34  1  0  0  0  0
 13 35  1  0  0  0  0
 14 15  1  0  0  0  0
 14 36  1  0  0  0  0
 14 37  1  0  0  0  0
 15 16  2  0  0  0  0
 15 17  1  0  0  0  0
 16 19  1  0  0  0  0
 17 18  2  0  0  0  0
 17 41  1  0  0  0  0
 18 42  1  0  0  0  0
 20 44  1  0  0  0  0
 21 22  2  0  0  0  0
 21 23  1  0  0  0  0
 22 24  1  0  0  0  0
 22 45  1  0  0  0  0
 23 25  2  0  0  0  0
 23 46  1  0  0  0  0
 24 26  2  0  0  0  0
 25 26  1  0  0  0  0
 25 47  1  0  0  0  0
 26 48  1  0  0  0  0
 27 49  1  0  0  0  0
 27 50  1  0  0  0  0
 27 51  1  0  0  0  0
M  END
> <PUBCHEM_COMPOUND_CID>
11349170

> <PUBCHEM_CONFORMER_RMSD>
0.8

> <PUBCHEM_CONFORMER_DIVERSEORDER>
1
197
192
124
164
58
80
161
51
155
174
27
191
122
33
173
119
167
56
148
182
180
74
37
171
157
40
143
77
86
101
194
13
88
189
24
162
165
184
12
18
8
170
190
5
196
138
118
181
133
47
142
130
82
2
176
53
178
185
110
195
172
6
160
188
141
19
35
32
153
109
186
152
36
139
67
38
9
75
146
3
114
68
52
84
150
166
87
31
129
169
65
163
112
60
7
145
93
127
106
104
70
149
99
183
131
39
175
121
147
63
95
154
48
92
158
73
91
136
113
41
43
44
132
57
76
89
16
54
111
177
66
98
108
135
134
79
21
64
83
85
105
49
50
123
144
90
15
103
115
69
137
25
187
4
14
42
97
159
17
94
100
10
168
107
126
193
23
128
72
116
62
125
102
46
26
22
20
156
28
30
59
11
117
96
34
81
120
78
151
140
55
45
179
61
71
29

> <PUBCHEM_MMFF94_PARTIAL_CHARGES>
37
1 -0.68
10 0.28
12 0.27
13 0.27
14 0.45
15 -0.18
16 -0.24
17 -0.15
18 -0.3
19 0.58
2 -0.36
20 0.6
21 0.1
22 -0.15
23 -0.15
24 0.08
25 -0.15
26 -0.15
27 0.28
3 -0.81
38 0.36
39 0.36
4 -0.99
40 0.4
41 0.15
42 0.15
43 0.4
44 0.06
45 0.15
46 0.15
47 0.15
48 0.15
5 0.51
6 -0.65
7 -0.55
8 -0.66
9 0.27

> <PUBCHEM_EFFECTIVE_ROTOR_COUNT>
6.2

> <PUBCHEM_PHARMACOPHORE_FEATURES>
13
1 1 acceptor
1 1 donor
1 2 acceptor
1 3 cation
1 4 cation
1 4 donor
1 7 donor
3 6 8 20 cation
3 7 8 19 cation
5 5 15 16 17 18 rings
6 21 22 23 24 25 26 rings
6 3 9 10 11 12 13 rings
6 5 6 8 16 19 20 rings

> <PUBCHEM_HEAVY_ATOM_COUNT>
27

> <PUBCHEM_ATOM_DEF_STEREO_COUNT>
2

> <PUBCHEM_ATOM_UDEF_STEREO_COUNT>
0

> <PUBCHEM_BOND_DEF_STEREO_COUNT>
0

> <PUBCHEM_BOND_UDEF_STEREO_COUNT>
0

> <PUBCHEM_ISOTOPIC_ATOM_COUNT>
0

> <PUBCHEM_COMPONENT_COUNT>
1

> <PUBCHEM_CACTVS_TAUTO_COUNT>
3

> <PUBCHEM_CONFORMER_ID>
00AD2CB200000001

> <PUBCHEM_MMFF94_ENERGY>
76.1411

> <PUBCHEM_FEATURE_SELFOVERLAP>
66.209

> <PUBCHEM_SHAPE_FINGERPRINT>
10064457 181 17976831878275671520
104564 63 18333737918074954552
10930396 42 17688271962922517360
1100329 8 17686622342755126266
11045515 52 18337387261982546455
11578080 2 17845631712365818161
12156800 1 17684320154205925993
12422481 6 17830776121270756737
12553582 1 18337397152980954130
12788726 201 18262787489602323403
13140716 1 17975984481807757242
13911987 19 17898018064731968566
13965767 371 17554093941113771275
14537116 161 17616478092755645935
17138139 8 17907538547086240781
17357779 13 18260827154384466964
17492 54 17609496017103180845
20028762 73 17334207936656022945
20567600 299 17906164406537608725
20600515 1 16951131797369120174
20775438 99 17765946780876102839
21236236 1 18334301933950158116
21304303 94 17903885917607619453
21344244 181 17840020737584611143
21641784 216 17969524721882148572
23419403 2 17487596731780577168
238 59 17470166328832979795
283562 15 18408886274117033760
3380486 145 18411710876106730889
3380486 77 17314769979821026920
46194498 28 17682662267113116991
463206 1 18195249055621331095
57527358 35 16054940773559646704
6443956 14 18194678396222296869
70251023 43 18410007715289524394
7237137 82 18120119216353981230
81228 2 18113625555681291872

> <PUBCHEM_SHAPE_MULTIPOLES>
514.02
7.56
5.2
1.57
0.3
3.86
-0.03
-6.28
-1.66
-2.38
-1.01
-1.68
0.25
-0.08

> <PUBCHEM_SHAPE_SELFOVERLAP>
1112.779

> <PUBCHEM_SHAPE_VOLUME>
279.3

> <PUBCHEM_COORDINATE_TYPE>
2
5
10

$$$$
