REMARK  Name = 11349223
REMARK  3 active torsions:
REMARK  status: ('A' for Active; 'I' for Inactive)
REMARK    1  A    between atoms: C_9  and  O_25
REMARK    2  A    between atoms: C_20  and  O_27
REMARK    3  A    between atoms: C_23  and  O_29
REMARK                            x       y       z     vdW  Elec       q    Type
REMARK                         _______ _______ _______ _____ _____    ______ ____
ROOT
ATOM      1  O   UNL     1       0.961   2.291  -0.018  0.00  0.00    -0.479 OA
ATOM      2  O   UNL     1      -0.179  -2.310  -0.683  0.00  0.00    -0.286 OA
ATOM      3  O   UNL     1      -1.683   2.742  -0.077  0.00  0.00    -0.283 OA
ATOM      4  C   UNL     1       2.782   0.781  -0.731  0.00  0.00    +0.059 C 
ATOM      5  C   UNL     1       2.389   2.067   0.053  0.00  0.00    +0.137 C 
ATOM      6  C   UNL     1       4.292   0.471  -0.810  0.00  0.00    +0.011 C 
ATOM      7  C   UNL     1       1.950  -0.372  -0.198  0.00  0.00    -0.015 C 
ATOM      8  C   UNL     1       4.783  -0.478   0.277  0.00  0.00    +0.032 C 
ATOM      9  C   UNL     1       3.972  -1.779   0.328  0.00  0.00    +0.107 C 
ATOM     10  C   UNL     1       2.493  -1.511   0.270  0.00  0.00    -0.004 C 
ATOM     11  C   UNL     1       0.517  -0.079  -0.186  0.00  0.00    +0.072 C 
ATOM     12  C   UNL     1       2.998   3.320  -0.600  0.00  0.00    +0.044 C 
ATOM     13  C   UNL     1       2.779   2.058   1.539  0.00  0.00    +0.044 C 
ATOM     14  C   UNL     1       0.113   1.204  -0.097  0.00  0.00    +0.180 C 
ATOM     15  C   UNL     1       4.365  -2.753  -0.787  0.00  0.00    +0.034 C 
ATOM     16  C   UNL     1      -0.494  -1.170  -0.359  0.00  0.00    +0.199 C 
ATOM     17  C   UNL     1      -1.329   1.568  -0.078  0.00  0.00    +0.232 C 
ATOM     18  C   UNL     1      -1.917  -0.840  -0.168  0.00  0.00    +0.048 C 
ATOM     19  C   UNL     1      -2.322   0.484  -0.039  0.00  0.00    +0.079 C 
ATOM     20  C   UNL     1      -3.679   0.791   0.119  0.00  0.00    +0.136 C 
ATOM     21  C   UNL     1      -2.869  -1.866  -0.140  0.00  0.00    +0.040 C 
ATOM     22  C   UNL     1      -4.625  -0.234   0.151  0.00  0.00    +0.046 C 
ATOM     23  C   UNL     1      -4.221  -1.560   0.022  0.00  0.00    +0.133 C 
ATOM     24  C   UNL     1      -6.076   0.087   0.324  0.00  0.00    +0.037 C 
ENDROOT
BRANCH   9  25
ATOM     25  O   UNL     1       4.250  -2.414   1.580  0.00  0.00    -0.383 OA
ATOM     26  H   UNL     1       4.010  -1.818   2.306  0.00  0.00    +0.211 HD
ENDBRANCH   9  25
BRANCH  20  27
ATOM     27  O   UNL     1      -4.117   2.076   0.258  0.00  0.00    -0.506 OA
ATOM     28  H   UNL     1      -3.504   2.785   0.240  0.00  0.00    +0.292 HD
ENDBRANCH  20  27
BRANCH  23  29
ATOM     29  O   UNL     1      -5.132  -2.574   0.050  0.00  0.00    -0.506 OA
ATOM     30  H   UNL     1      -4.847  -3.462  -0.037  0.00  0.00    +0.292 HD
ENDBRANCH  23  29
TORSDOF 3
