REMARK  Name = 11349170
REMARK  6 active torsions:
REMARK  status: ('A' for Active; 'I' for Inactive)
REMARK    1  A    between atoms: N_3  and  C_12
REMARK    2  A    between atoms: C_5  and  C_20
REMARK    3  A    between atoms: C_15  and  O_18
REMARK    4  A    between atoms: C_20  and  N_21
REMARK    5  A    between atoms: C_22  and  N_28
REMARK    6  A    between atoms: C_23  and  O_32
REMARK                            x       y       z     vdW  Elec       q    Type
REMARK                         _______ _______ _______ _____ _____    ______ ____
ROOT
ATOM      1  N   UNL     1       3.628  -1.211  -0.344  0.00  0.00    -0.185 N 
ATOM      2  N   UNL     1       3.608  -2.553  -0.532  0.00  0.00    -0.151 NA
ATOM      3  N   UNL     1       0.275  -0.586   1.094  0.00  0.00    -0.297 N 
ATOM      4  N   UNL     1       1.375  -2.501   0.373  0.00  0.00    -0.206 NA
ATOM      5  C   UNL     1       2.962   0.807   0.218  0.00  0.00    -0.024 C 
ATOM      6  C   UNL     1       2.580  -0.498   0.180  0.00  0.00    +0.100 C 
ATOM      7  C   UNL     1       4.265   0.916  -0.289  0.00  0.00    +0.013 C 
ATOM      8  C   UNL     1       4.660  -0.358  -0.634  0.00  0.00    +0.089 C 
ATOM      9  C   UNL     1       1.380  -1.204   0.560  0.00  0.00    +0.149 C 
ATOM     10  C   UNL     1       2.491  -3.115  -0.166  0.00  0.00    +0.219 C 
ATOM     11  H   UNL     1       0.438   0.226   1.627  0.00  0.00    +0.154 HD
ENDROOT
BRANCH   3  12
ATOM     12  C   UNL     1      -1.051  -0.988   0.960  0.00  0.00    +0.052 C 
ATOM     13  C   UNL     1      -1.479  -1.671  -0.189  0.00  0.00    +0.052 C 
ATOM     14  C   UNL     1      -1.987  -0.718   1.972  0.00  0.00    +0.015 C 
ATOM     15  C   UNL     1      -2.807  -2.074  -0.324  0.00  0.00    +0.140 C 
ATOM     16  C   UNL     1      -3.315  -1.121   1.837  0.00  0.00    +0.004 C 
ATOM     17  C   UNL     1      -3.726  -1.799   0.690  0.00  0.00    +0.037 C 
BRANCH  15  18
ATOM     18  O   UNL     1      -3.209  -2.735  -1.444  0.00  0.00    -0.471 OA
ATOM     19  C   UNL     1      -4.582  -3.116  -1.516  0.00  0.00    +0.252 C 
ENDBRANCH  15  18
ENDBRANCH   3  12
BRANCH   5  20
ATOM     20  C   UNL     1       2.151   1.974   0.714  0.00  0.00    -0.048 C 
BRANCH  20  21
ATOM     21  N   UNL     1       0.766   1.983   0.246  0.00  0.00    +0.391 N 
ATOM     22  C   UNL     1      -1.565   3.112  -1.124  0.00  0.00    -0.042 C 
ATOM     23  C   UNL     1      -1.440   3.107   0.406  0.00  0.00    +0.070 C 
ATOM     24  C   UNL     1      -0.724   1.982  -1.724  0.00  0.00    -0.042 C 
ATOM     25  C   UNL     1       0.031   3.107   0.837  0.00  0.00    -0.049 C 
ATOM     26  C   UNL     1       0.719   2.036  -1.221  0.00  0.00    -0.079 C 
ATOM     27  H   UNL     1       0.315   1.118   0.546  0.00  0.00    -0.079 HD
BRANCH  22  28
ATOM     28  N   UNL     1      -2.961   2.950  -1.532  0.00  0.00    +0.383 N 
ATOM     29  H   UNL     1      -3.522   3.702  -1.132  0.00  0.00    -0.089 HD
ATOM     30  H   UNL     1      -3.311   2.051  -1.198  0.00  0.00    -0.089 HD
ATOM     31  H   UNL     1      -3.024   2.982  -2.549  0.00  0.00    -0.089 HD
ENDBRANCH  22  28
BRANCH  23  32
ATOM     32  O   UNL     1      -2.046   4.278   0.952  0.00  0.00    -0.389 OA
ATOM     33  H   UNL     1      -2.981   4.307   0.696  0.00  0.00    +0.210 HD
ENDBRANCH  23  32
ENDBRANCH  20  21
ENDBRANCH   5  20
TORSDOF 6
