REMARK  Name = 11340681
REMARK  4 active torsions:
REMARK  status: ('A' for Active; 'I' for Inactive)
REMARK    1  A    between atoms: C_7  and  O_34
REMARK    2  A    between atoms: C_8  and  O_36
REMARK    3  A    between atoms: C_25  and  C_26
REMARK    4  A    between atoms: C_31  and  O_32
REMARK                            x       y       z     vdW  Elec       q    Type
REMARK                         _______ _______ _______ _____ _____    ______ ____
ROOT
ATOM      1  O   UNL     1      -0.280   1.480  -0.007  0.00  0.00    -0.480 OA
ATOM      2  O   UNL     1       6.184  -0.243  -0.953  0.00  0.00    -0.453 OA
ATOM      3  O   UNL     1      -3.106  -1.498   0.580  0.00  0.00    -0.421 OA
ATOM      4  O   UNL     1       6.603  -2.332  -1.632  0.00  0.00    -0.250 OA
ATOM      5  O   UNL     1      -1.499  -2.979   1.177  0.00  0.00    -0.245 OA
ATOM      6  C   UNL     1       3.196  -0.285   0.478  0.00  0.00    +0.052 C 
ATOM      7  C   UNL     1       1.616  -0.099   0.167  0.00  0.00    +0.128 C 
ATOM      8  C   UNL     1       4.014   0.867  -0.289  0.00  0.00    +0.124 C 
ATOM      9  C   UNL     1       1.065   1.320   0.527  0.00  0.00    +0.156 C 
ATOM     10  C   UNL     1       3.422   2.260   0.087  0.00  0.00    +0.034 C 
ATOM     11  C   UNL     1       1.916   2.393  -0.171  0.00  0.00    +0.045 C 
ATOM     12  C   UNL     1       5.595   0.861  -0.183  0.00  0.00    +0.158 C 
ATOM     13  C   UNL     1       3.631  -1.703  -0.017  0.00  0.00    +0.016 C 
ATOM     14  C   UNL     1       0.676  -1.181   0.765  0.00  0.00    +0.066 C 
ATOM     15  C   UNL     1       3.425  -0.233   2.017  0.00  0.00    +0.005 C 
ATOM     16  C   UNL     1       0.950   1.672   2.026  0.00  0.00    +0.046 C 
ATOM     17  C   UNL     1       5.087  -2.099   0.179  0.00  0.00    +0.110 C 
ATOM     18  C   UNL     1      -0.771  -0.803   0.584  0.00  0.00    +0.090 C 
ATOM     19  C   UNL     1       6.214   0.907   1.218  0.00  0.00    +0.046 C 
ATOM     20  C   UNL     1       6.202   2.083  -0.933  0.00  0.00    +0.046 C 
ATOM     21  C   UNL     1      -1.146   0.428   0.201  0.00  0.00    +0.144 C 
ATOM     22  C   UNL     1       6.006  -1.571  -0.873  0.00  0.00    +0.317 C 
ATOM     23  C   UNL     1      -1.802  -1.849   0.806  0.00  0.00    +0.345 C 
ATOM     24  C   UNL     1      -2.526   0.751  -0.026  0.00  0.00    +0.074 C 
ATOM     25  C   UNL     1      -3.459  -0.193   0.157  0.00  0.00    +0.152 C 
ENDROOT
BRANCH  25  26
ATOM     26  C   UNL     1      -4.904   0.024  -0.037  0.00  0.00    +0.035 C 
ATOM     27  C   UNL     1      -5.463   1.286   0.183  0.00  0.00    +0.006 C 
ATOM     28  C   UNL     1      -5.726  -1.032  -0.443  0.00  0.00    +0.006 C 
ATOM     29  C   UNL     1      -6.831   1.490   0.001  0.00  0.00    +0.037 C 
ATOM     30  C   UNL     1      -7.094  -0.828  -0.626  0.00  0.00    +0.037 C 
ATOM     31  C   UNL     1      -7.646   0.433  -0.404  0.00  0.00    +0.139 C 
BRANCH  31  32
ATOM     32  O   UNL     1      -8.981   0.633  -0.582  0.00  0.00    -0.471 OA
ATOM     33  C   UNL     1      -9.756  -0.491  -0.997  0.00  0.00    +0.252 C 
ENDBRANCH  31  32
ENDBRANCH  25  26
BRANCH   7  34
ATOM     34  O   UNL     1       1.441  -0.219  -1.272  0.00  0.00    -0.383 OA
ATOM     35  H   UNL     1       2.002   0.432  -1.722  0.00  0.00    +0.210 HD
ENDBRANCH   7  34
BRANCH   8  36
ATOM     36  O   UNL     1       3.748   0.751  -1.708  0.00  0.00    -0.383 OA
ATOM     37  H   UNL     1       2.790   0.747  -1.859  0.00  0.00    +0.210 HD
ENDBRANCH   8  36
TORSDOF 4
