REMARK  Name = 11345724
REMARK  8 active torsions:
REMARK  status: ('A' for Active; 'I' for Inactive)
REMARK    1  A    between atoms: CA_1  and  N_3
REMARK    2  A    between atoms: CA_1  and  C_13
REMARK    3  A    between atoms: CA_1  and  CB_16
REMARK    4  A    between atoms: C_4  and  C_6
REMARK    5  A    between atoms: C_13  and  O_14
REMARK    6  A    between atoms: CB_16  and  CG_17
REMARK    7  A    between atoms: CG_17  and  CD_19
REMARK    8  A    between atoms: CD_19  and  OE1_20
REMARK                            x       y       z     vdW  Elec       q    Type
REMARK                         _______ _______ _______ _____ _____    ______ ____
ROOT
ATOM      1  CA  GLU A   1       1.238   1.154   0.618  0.00  0.00    +0.172 C 
ENDROOT
BRANCH   1   3
ATOM      2  O   UNK A   0      -1.004   0.312   2.202  0.00  0.00    -0.270 OA
ATOM      3  N   GLU A   1      -0.054   0.744   0.130  0.00  0.00    -0.293 N 
ATOM      4  C   UNK A   0      -1.082   0.351   0.977  0.00  0.00    +0.246 C 
ATOM      5  H   GLU A   1      -0.215   0.742  -0.841  0.00  0.00    +0.150 HD
BRANCH   4   6
ATOM      6  C   UNK A   0      -2.345  -0.069   0.316  0.00  0.00    +0.053 C 
ATOM      7  C   UNK A   0      -3.170  -0.964   0.965  0.00  0.00    +0.005 C 
ATOM      8  C   UNK A   0      -2.653   0.451  -0.924  0.00  0.00    +0.005 C 
ATOM      9  C   UNK A   0      -4.356  -1.358   0.346  0.00  0.00    +0.000 C 
ATOM     10  C   UNK A   0      -3.839   0.056  -1.544  0.00  0.00    +0.000 C 
ATOM     11  C   UNK A   0      -4.690  -0.848  -0.908  0.00  0.00    +0.000 C 
ENDBRANCH   4   6
ENDBRANCH   1   3
BRANCH   1  13
ATOM     12  OXT GLU A   1       1.210   2.604  -1.339  0.00  0.00    -0.248 OA
ATOM     13  C   GLU A   1       1.746   2.250  -0.297  0.00  0.00    +0.332 C 
BRANCH  13  14
ATOM     14  O   GLU A   1       2.867   2.841   0.194  0.00  0.00    -0.479 OA
ATOM     15  H   GLU A   1       3.244   2.537   0.996  0.00  0.00    +0.295 HD
ENDBRANCH  13  14
ENDBRANCH   1  13
BRANCH   1  16
ATOM     16  CB  GLU A   1       2.211  -0.020   0.777  0.00  0.00    +0.043 C 
BRANCH  16  17
ATOM     17  CG  GLU A   1       2.568  -0.771  -0.512  0.00  0.00    +0.112 C 
BRANCH  17  19
ATOM     18  OE2 GLU A   1       3.984  -2.278   0.776  0.00  0.00    -0.250 OA
ATOM     19  CD  GLU A   1       3.521  -1.928  -0.300  0.00  0.00    +0.314 C 
BRANCH  19  20
ATOM     20  OE1 GLU A   1       3.848  -2.528  -1.475  0.00  0.00    -0.480 OA
ATOM     21  HE1 GLU A   1       3.468  -2.227  -2.277  0.00  0.00    +0.295 HD
ENDBRANCH  19  20
ENDBRANCH  17  19
ENDBRANCH  16  17
ENDBRANCH   1  16
TORSDOF 8
