REMARK  Name = 11346811
REMARK  13 active torsions:
REMARK  status: ('A' for Active; 'I' for Inactive)
REMARK    1  A    between atoms: N_2  and  C_16
REMARK    2  A    between atoms: C_3  and  C_5
REMARK    3  A    between atoms: C_5  and  C_6
REMARK    4  A    between atoms: C_6  and  C_7
REMARK    5  A    between atoms: C_7  and  N_8
REMARK    6  A    between atoms: C_7  and  C_13
REMARK    7  A    between atoms: C_13  and  O_14
REMARK    8  A    between atoms: C_16  and  C_18
REMARK    9  A    between atoms: C_16  and  C_21
REMARK   10  A    between atoms: C_18  and  O_19
REMARK   11  A    between atoms: C_21  and  S_22
REMARK   12  A    between atoms: S_22  and  C_23
REMARK   13  A    between atoms: C_23  and  C_24
REMARK                            x       y       z     vdW  Elec       q    Type
REMARK                         _______ _______ _______ _____ _____    ______ ____
ROOT
ATOM      1  O   UNK     1       0.824   1.303  -1.880  0.00  0.00    -0.275 OA
ATOM      2  N   UNK     1      -0.358   1.133   0.112  0.00  0.00    -0.296 N 
ATOM      3  C   UNK     1       0.775   1.035  -0.682  0.00  0.00    +0.223 C 
ATOM      4  H   UNK     1      -0.288   0.892   1.064  0.00  0.00    +0.150 HD
ENDROOT
BRANCH   3   5
ATOM      5  C   UNK     1       1.972   0.540   0.111  0.00  0.00    +0.083 C 
BRANCH   5   6
ATOM      6  C   UNK     1       3.234   0.425  -0.747  0.00  0.00    -0.001 C 
BRANCH   6   7
ATOM      7  C   UNK     1       4.465  -0.004   0.059  0.00  0.00    +0.036 C 
BRANCH   7   8
ATOM      8  N   UNK     1       5.626  -0.091  -0.830  0.00  0.00    +0.389 N 
ATOM      9  H   UNK     1       5.793   0.819  -1.261  0.00  0.00    -0.088 HD
ATOM     10  H   UNK     1       5.447  -0.784  -1.556  0.00  0.00    -0.088 HD
ATOM     11  H   UNK     1       6.447  -0.367  -0.291  0.00  0.00    -0.088 HD
ENDBRANCH   7   8
BRANCH   7  13
ATOM     12  O   UNK     1       4.520  -2.440   0.095  0.00  0.00    -0.253 OA
ATOM     13  C   UNK     1       4.275  -1.383   0.663  0.00  0.00    +0.293 C 
BRANCH  13  14
ATOM     14  O   UNK     1       3.768  -1.329   1.923  0.00  0.00    -0.482 OA
ATOM     15  H   UNK     1       3.594  -0.499   2.322  0.00  0.00    +0.295 HD
ENDBRANCH  13  14
ENDBRANCH   7  13
ENDBRANCH   6   7
ENDBRANCH   5   6
ENDBRANCH   3   5
BRANCH   2  16
ATOM     16  C   UNK     1      -1.637   1.571  -0.398  0.00  0.00    +0.182 C 
BRANCH  16  18
ATOM     17  O   UNK     1      -3.470   2.947   0.393  0.00  0.00    -0.248 OA
ATOM     18  C   UNK     1      -2.408   2.384   0.629  0.00  0.00    +0.333 C 
BRANCH  18  19
ATOM     19  O   UNK     1      -1.798   2.439   1.837  0.00  0.00    -0.479 OA
ATOM     20  H   UNK     1      -0.986   1.992   1.972  0.00  0.00    +0.295 HD
ENDBRANCH  18  19
ENDBRANCH  16  18
BRANCH  16  21
ATOM     21  C   UNK     1      -2.460   0.409  -0.958  0.00  0.00    +0.089 C 
BRANCH  21  22
ATOM     22  S   UNK     1      -3.008  -0.782   0.310  0.00  0.00    -0.133 S 
BRANCH  22  23
ATOM     23  C   UNK     1      -3.943  -1.889  -0.768  0.00  0.00    +0.084 C 
BRANCH  23  24
ATOM     24  C   UNK     1      -4.532  -3.008   0.029  0.00  0.00    -0.014 C 
ATOM     25  C   UNK     1      -5.844  -3.262   0.100  0.00  0.00    -0.004 C 
ENDBRANCH  23  24
ENDBRANCH  22  23
ENDBRANCH  21  22
ENDBRANCH  16  21
ENDBRANCH   2  16
TORSDOF 13
