REMARK  Name = 11352366
REMARK  4 active torsions:
REMARK  status: ('A' for Active; 'I' for Inactive)
REMARK    1  A    between atoms: C_5  and  O_23
REMARK    2  A    between atoms: N_7  and  C_14
REMARK    3  A    between atoms: C_14  and  C_17
REMARK    4  A    between atoms: O_23  and  C_28
REMARK                            x       y       z     vdW  Elec       q    Type
REMARK                         _______ _______ _______ _____ _____    ______ ____
ROOT
ATOM      1  N   UNL     1       0.530  -1.623   1.749  0.00  0.00    -0.233 NA
ATOM      2  N   UNL     1       2.728  -2.278   1.009  0.00  0.00    -0.214 NA
ATOM      3  C   UNL     1       0.266  -1.130   0.502  0.00  0.00    +0.115 C 
ATOM      4  C   UNL     1       1.215  -1.197  -0.519  0.00  0.00    +0.146 C 
ATOM      5  C   UNL     1       2.426  -1.780  -0.208  0.00  0.00    +0.211 C 
ATOM      6  C   UNL     1       1.749  -2.168   1.927  0.00  0.00    +0.254 C 
ATOM      7  N   UNL     1      -3.519   0.429  -0.564  0.00  0.00    +0.393 N 
ATOM      8  N   UNL     1      -0.956  -0.555   0.232  0.00  0.00    -0.301 N 
ATOM      9  C   UNL     1      -3.376  -0.920  -0.001  0.00  0.00    -0.055 C 
ATOM     10  C   UNL     1      -2.311   0.796  -1.314  0.00  0.00    -0.055 C 
ATOM     11  C   UNL     1      -2.169  -0.989   0.936  0.00  0.00    +0.069 C 
ATOM     12  C   UNL     1      -1.068   0.754  -0.420  0.00  0.00    +0.069 C 
ATOM     13  H   UNL     1      -3.640   1.091   0.203  0.00  0.00    -0.079 HD
ENDROOT
BRANCH   7  14
ATOM     14  C   UNL     1      -4.701   0.506  -1.422  0.00  0.00    -0.035 C 
ATOM     15  C   UNL     1      -4.772   1.884  -2.083  0.00  0.00    -0.018 C 
BRANCH  14  17
ATOM     16  F   UNL     1      -9.398  -0.679   1.428  0.00  0.00    -0.204 F 
ATOM     17  C   UNL     1      -5.967   0.185  -0.653  0.00  0.00    -0.041 C 
ATOM     18  C   UNL     1      -6.054   0.544   0.680  0.00  0.00    -0.004 C 
ATOM     19  C   UNL     1      -7.005  -0.456  -1.304  0.00  0.00    -0.004 C 
ATOM     20  C   UNL     1      -7.220   0.249   1.387  0.00  0.00    +0.029 C 
ATOM     21  C   UNL     1      -8.171  -0.750  -0.596  0.00  0.00    +0.029 C 
ATOM     22  C   UNL     1      -8.278  -0.397   0.749  0.00  0.00    +0.140 C 
ENDBRANCH  14  17
ENDBRANCH   7  14
BRANCH   5  23
ATOM     23  O   UNL     1       3.392  -1.870  -1.175  0.00  0.00    -0.437 OA
BRANCH  23  28
ATOM     24  S   UNL     1       6.388   1.696   0.535  0.00  0.00    -0.056 S 
ATOM     25  O   UNL     1       1.892   2.813   0.024  0.00  0.00    -0.275 OA
ATOM     26  N   UNL     1       4.077   0.811  -0.192  0.00  0.00    -0.381 NA
ATOM     27  N   UNL     1       4.177   3.096   0.554  0.00  0.00    -0.254 N 
ATOM     28  C   UNL     1       4.681  -1.527  -0.819  0.00  0.00    +0.173 C 
ATOM     29  C   UNL     1       4.975  -0.234  -0.351  0.00  0.00    +0.160 C 
ATOM     30  C   UNL     1       6.297   0.060  -0.002  0.00  0.00    +0.133 C 
ATOM     31  C   UNL     1       5.686  -2.485  -0.929  0.00  0.00    +0.040 C 
ATOM     32  C   UNL     1       7.322  -0.894  -0.108  0.00  0.00    -0.008 C 
ATOM     33  C   UNL     1       6.994  -2.169  -0.577  0.00  0.00    -0.000 C 
ATOM     34  C   UNL     1       4.707   1.867   0.266  0.00  0.00    +0.213 C 
ATOM     35  C   UNL     1       2.835   3.489   0.421  0.00  0.00    +0.229 C 
ATOM     36  C   UNL     1       2.627   4.923   0.840  0.00  0.00    +0.095 C 
ATOM     37  H   UNL     1       4.803   3.778   0.891  0.00  0.00    +0.158 HD
ENDBRANCH  23  28
ENDBRANCH   5  23
TORSDOF 4
