11350718
  -OEChem-03292013303D

 64 65  0     1  0  0  0  0  0999 V2000
   -2.0661   -1.0103    0.8133 O   0  0  0  0  0  0  0  0  0  0  0  0
    1.5848    0.1730    1.8994 O   0  0  0  0  0  0  0  0  0  0  0  0
    4.0372   -0.7690   -0.6129 O   0  0  0  0  0  0  0  0  0  0  0  0
    1.9361   -1.6376   -1.9042 O   0  0  0  0  0  0  0  0  0  0  0  0
   -3.3855    0.0182    2.3391 O   0  0  0  0  0  0  0  0  0  0  0  0
   -5.0293    1.8801    1.5570 O   0  0  0  0  0  0  0  0  0  0  0  0
    0.5696   -1.6881   -0.0290 N   0  0  0  0  0  0  0  0  0  0  0  0
    4.6579    0.3670    1.9764 N   0  0  0  0  0  0  0  0  0  0  0  0
   -0.6165   -2.2033   -0.6744 C   0  0  2  0  0  0  0  0  0  0  0  0
   -1.7355   -1.1756   -0.5844 C   0  0  2  0  0  0  0  0  0  0  0  0
   -1.0573   -3.5397   -0.0549 C   0  0  0  0  0  0  0  0  0  0  0  0
    0.0261   -4.6388   -0.0356 C   0  0  0  0  0  0  0  0  0  0  0  0
   -1.3108    0.1603   -1.1764 C   0  0  0  0  0  0  0  0  0  0  0  0
    3.6958    1.2760    1.3410 C   0  0  2  0  0  0  0  0  0  0  0  0
    2.4809    0.4603    0.8240 C   0  0  1  0  0  0  0  0  0  0  0  0
    2.8665   -0.8822    0.1789 C   0  0  1  0  0  0  0  0  0  0  0  0
    4.4013    2.0855    0.2307 C   0  0  0  0  0  0  0  0  0  0  0  0
   -2.4266    1.1349   -0.9504 C   0  0  0  0  0  0  0  0  0  0  0  0
    1.7551   -1.4465   -0.7020 C   0  0  0  0  0  0  0  0  0  0  0  0
    3.5247    3.1414   -0.4800 C   0  0  0  0  0  0  0  0  0  0  0  0
   -0.5224   -5.8910    0.6547 C   0  0  0  0  0  0  0  0  0  0  0  0
    0.5189   -4.9991   -1.4378 C   0  0  0  0  0  0  0  0  0  0  0  0
   -3.2037    1.0309    0.2097 C   0  0  0  0  0  0  0  0  0  0  0  0
   -2.9110   -0.0215    1.2116 C   0  0  0  0  0  0  0  0  0  0  0  0
   -2.6779    2.1697   -1.8580 C   0  0  0  0  0  0  0  0  0  0  0  0
    2.9844    4.1972    0.4856 C   0  0  0  0  0  0  0  0  0  0  0  0
    4.3356    3.8231   -1.5864 C   0  0  0  0  0  0  0  0  0  0  0  0
   -4.2350    1.9444    0.4512 C   0  0  0  0  0  0  0  0  0  0  0  0
   -3.7096    3.0775   -1.6186 C   0  0  0  0  0  0  0  0  0  0  0  0
   -4.4880    2.9632   -0.4676 C   0  0  0  0  0  0  0  0  0  0  0  0
   -0.3989   -2.3664   -1.7363 H   0  0  0  0  0  0  0  0  0  0  0  0
   -2.6300   -1.5627   -1.0914 H   0  0  0  0  0  0  0  0  0  0  0  0
   -1.9396   -3.9088   -0.5944 H   0  0  0  0  0  0  0  0  0  0  0  0
   -1.3752   -3.3772    0.9835 H   0  0  0  0  0  0  0  0  0  0  0  0
    0.8844   -4.2898    0.5514 H   0  0  0  0  0  0  0  0  0  0  0  0
   -0.4256    0.5755   -0.6830 H   0  0  0  0  0  0  0  0  0  0  0  0
   -1.0966    0.0494   -2.2453 H   0  0  0  0  0  0  0  0  0  0  0  0
    0.5212   -1.4992    0.9680 H   0  0  0  0  0  0  0  0  0  0  0  0
    3.3553    1.9667    2.1208 H   0  0  0  0  0  0  0  0  0  0  0  0
    1.9020    1.0511    0.1099 H   0  0  0  0  0  0  0  0  0  0  0  0
    3.0576   -1.6331    0.9572 H   0  0  0  0  0  0  0  0  0  0  0  0
    5.2592    2.6059    0.6812 H   0  0  0  0  0  0  0  0  0  0  0  0
    4.8347    1.4232   -0.5253 H   0  0  0  0  0  0  0  0  0  0  0  0
    2.6767    2.6534   -0.9709 H   0  0  0  0  0  0  0  0  0  0  0  0
   -1.3809   -6.3010    0.1119 H   0  0  0  0  0  0  0  0  0  0  0  0
    0.2447   -6.6705    0.7139 H   0  0  0  0  0  0  0  0  0  0  0  0
   -0.8438   -5.6632    1.6766 H   0  0  0  0  0  0  0  0  0  0  0  0
    1.0310   -4.1614   -1.9162 H   0  0  0  0  0  0  0  0  0  0  0  0
    1.2320   -5.8298   -1.3955 H   0  0  0  0  0  0  0  0  0  0  0  0
   -0.3126   -5.3026   -2.0830 H   0  0  0  0  0  0  0  0  0  0  0  0
   -2.0745    2.2732   -2.7559 H   0  0  0  0  0  0  0  0  0  0  0  0
    5.4248    0.9059    2.3767 H   0  0  0  0  0  0  0  0  0  0  0  0
    4.2083   -0.1150    2.7538 H   0  0  0  0  0  0  0  0  0  0  0  0
    3.7950    4.6790    1.0425 H   0  0  0  0  0  0  0  0  0  0  0  0
    2.4381    4.9765   -0.0569 H   0  0  0  0  0  0  0  0  0  0  0  0
    2.2878    3.7572    1.2055 H   0  0  0  0  0  0  0  0  0  0  0  0
    5.2031    4.3514   -1.1761 H   0  0  0  0  0  0  0  0  0  0  0  0
    3.7213    4.5504   -2.1279 H   0  0  0  0  0  0  0  0  0  0  0  0
    4.6978    3.0880   -2.3129 H   0  0  0  0  0  0  0  0  0  0  0  0
    1.2899    1.0227    2.2690 H   0  0  0  0  0  0  0  0  0  0  0  0
    4.3002   -1.6664   -0.8798 H   0  0  0  0  0  0  0  0  0  0  0  0
   -3.9051    3.8758   -2.3288 H   0  0  0  0  0  0  0  0  0  0  0  0
   -5.2895    3.6758   -0.2911 H   0  0  0  0  0  0  0  0  0  0  0  0
   -4.8532    1.0657    2.0532 H   0  0  0  0  0  0  0  0  0  0  0  0
  1 10  1  0  0  0  0
  1 24  1  0  0  0  0
  2 15  1  0  0  0  0
  2 60  1  0  0  0  0
  3 16  1  0  0  0  0
  3 61  1  0  0  0  0
  4 19  2  0  0  0  0
  5 24  2  0  0  0  0
  6 28  1  0  0  0  0
  6 64  1  0  0  0  0
  7  9  1  0  0  0  0
  7 19  1  0  0  0  0
  7 38  1  0  0  0  0
  8 14  1  0  0  0  0
  8 52  1  0  0  0  0
  8 53  1  0  0  0  0
  9 10  1  0  0  0  0
  9 11  1  0  0  0  0
  9 31  1  0  0  0  0
 10 13  1  0  0  0  0
 10 32  1  0  0  0  0
 11 12  1  0  0  0  0
 11 33  1  0  0  0  0
 11 34  1  0  0  0  0
 12 21  1  0  0  0  0
 12 22  1  0  0  0  0
 12 35  1  0  0  0  0
 13 18  1  0  0  0  0
 13 36  1  0  0  0  0
 13 37  1  0  0  0  0
 14 15  1  0  0  0  0
 14 17  1  0  0  0  0
 14 39  1  0  0  0  0
 15 16  1  0  0  0  0
 15 40  1  0  0  0  0
 16 19  1  0  0  0  0
 16 41  1  0  0  0  0
 17 20  1  0  0  0  0
 17 42  1  0  0  0  0
 17 43  1  0  0  0  0
 18 23  2  0  0  0  0
 18 25  1  0  0  0  0
 20 26  1  0  0  0  0
 20 27  1  0  0  0  0
 20 44  1  0  0  0  0
 21 45  1  0  0  0  0
 21 46  1  0  0  0  0
 21 47  1  0  0  0  0
 22 48  1  0  0  0  0
 22 49  1  0  0  0  0
 22 50  1  0  0  0  0
 23 24  1  0  0  0  0
 23 28  1  0  0  0  0
 25 29  2  0  0  0  0
 25 51  1  0  0  0  0
 26 54  1  0  0  0  0
 26 55  1  0  0  0  0
 26 56  1  0  0  0  0
 27 57  1  0  0  0  0
 27 58  1  0  0  0  0
 27 59  1  0  0  0  0
 28 30  2  0  0  0  0
 29 30  1  0  0  0  0
 29 62  1  0  0  0  0
 30 63  1  0  0  0  0
M  END
> <PUBCHEM_COMPOUND_CID>
11350718

> <PUBCHEM_CONFORMER_RMSD>
1.2

> <PUBCHEM_CONFORMER_DIVERSEORDER>
1
108
72
88
130
33
90
83
77
124
78
52
91
87
122
60
85
115
46
26
53
41
92
106
73
104
100
95
103
12
120
67
107
24
126
97
32
125
123
121
117
118
76
47
19
49
75
25
58
43
56
114
102
31
23
93
20
22
119
109
71
64
21
80
36
79
59
113
112
116
13
38
82
131
8
63
96
55
30
70
66
68
132
101
65
69
35
111
6
110
48
37
61
39
28
89
105
128
127
86
45
51
18
94
5
81
62
129
98
84
11
40
74
2
14
54
29
9
16
7
17
50
27
15
42
57
99
10
3
34
44
4

> <PUBCHEM_MMFF94_PARTIAL_CHARGES>
31
1 -0.43
10 0.28
13 0.14
14 0.27
15 0.28
16 0.34
18 -0.14
19 0.57
2 -0.68
23 0.09
24 0.63
25 -0.15
28 0.08
29 -0.15
3 -0.68
30 -0.15
38 0.37
4 -0.57
5 -0.57
51 0.15
52 0.36
53 0.36
6 -0.53
60 0.4
61 0.4
62 0.15
63 0.15
64 0.45
7 -0.73
8 -0.99
9 0.3

> <PUBCHEM_EFFECTIVE_ROTOR_COUNT>
10.6

> <PUBCHEM_PHARMACOPHORE_FEATURES>
14
1 2 acceptor
1 2 donor
1 3 acceptor
1 3 donor
1 4 acceptor
1 5 acceptor
1 6 donor
1 7 donor
1 8 cation
1 8 donor
3 12 21 22 hydrophobe
3 20 26 27 hydrophobe
6 1 10 13 18 23 24 rings
6 18 23 25 28 29 30 rings

> <PUBCHEM_HEAVY_ATOM_COUNT>
30

> <PUBCHEM_ATOM_DEF_STEREO_COUNT>
5

> <PUBCHEM_ATOM_UDEF_STEREO_COUNT>
0

> <PUBCHEM_BOND_DEF_STEREO_COUNT>
0

> <PUBCHEM_BOND_UDEF_STEREO_COUNT>
0

> <PUBCHEM_ISOTOPIC_ATOM_COUNT>
0

> <PUBCHEM_COMPONENT_COUNT>
1

> <PUBCHEM_CACTVS_TAUTO_COUNT>
26

> <PUBCHEM_CONFORMER_ID>
00AD32BE00000001

> <PUBCHEM_MMFF94_ENERGY>
65.2429

> <PUBCHEM_FEATURE_SELFOVERLAP>
71.089

> <PUBCHEM_SHAPE_FINGERPRINT>
10165383 225 18194426423217927343
10670039 82 17834400395258997484
11582403 64 16521263265641111367
12160290 23 17770767211419322838
12293681 4 16320623035232184039
12363563 72 8790594944488964065
12633257 1 18262502746140104820
12788726 201 17981296178778255975
13134695 92 17330822531627555599
13583140 156 17168966946659424808
13590594 115 16682316211247061969
14114206 34 16830701983794498374
14713325 29 17980205510925167106
14950920 106 17023453257261010768
151778 21 18410860949281580104
1813 80 11603683212171819707
19315092 285 16235281678710683426
21033648 29 18410851032491886704
21120745 212 17617669094959107893
21133410 52 11849373071940543837
21641784 216 17545045265602477678
22907989 373 17909250722311858980
23558518 356 18341599464958546894
23559900 14 17174354378090410127
283562 15 18269536386695709807
469060 322 17325200122862503592
474 4 18199175214138680293
5081480 168 17772776904290504244
5252454 2 18267592488428464936
5265222 85 18190204337997972958
613672 6 9295279513301717492
7808743 9 18193563487390355452
9981440 41 18264747914471037675

> <PUBCHEM_SHAPE_MULTIPOLES>
572.21
9.35
7.35
1.81
3.88
9.31
-0.26
-13.32
-1.95
-0.8
2.09
-0.21
-0.51
0.33

> <PUBCHEM_SHAPE_SELFOVERLAP>
1175.248

> <PUBCHEM_SHAPE_VOLUME>
328.2

> <PUBCHEM_COORDINATE_TYPE>
2
5
10

$$$$
