REMARK  Name = 11351021
REMARK  8 active torsions:
REMARK  status: ('A' for Active; 'I' for Inactive)
REMARK    1  A    between atoms: N_1  and  C_26
REMARK    2  A    between atoms: C_6  and  C_10
REMARK    3  A    between atoms: C_13  and  O_24
REMARK    4  A    between atoms: C_14  and  N_17
REMARK    5  A    between atoms: N_18  and  C_22
REMARK    6  A    between atoms: C_26  and  C_28
REMARK    7  A    between atoms: C_26  and  C_33
REMARK    8  A    between atoms: C_33  and  C_34
REMARK                            x       y       z     vdW  Elec       q    Type
REMARK                         _______ _______ _______ _____ _____    ______ ____
ROOT
ATOM      1  N   UNL     1      -3.816  -1.034  -0.313  0.00  0.00    -0.306 N 
ATOM      2  N   UNL     1      -1.480  -1.172  -0.275  0.00  0.00    -0.336 NA
ATOM      3  N   UNL     1      -0.411  -3.275   0.221  0.00  0.00    -0.182 NA
ATOM      4  C   UNL     1      -2.672  -1.787  -0.134  0.00  0.00    +0.189 C 
ATOM      5  C   UNL     1      -2.813  -3.124   0.180  0.00  0.00    +0.043 C 
ATOM      6  C   UNL     1      -0.406  -1.964  -0.087  0.00  0.00    +0.089 C 
ATOM      7  C   UNL     1      -1.637  -3.825   0.347  0.00  0.00    +0.110 C 
ATOM      8  C   UNL     1      -4.129  -3.797   0.335  0.00  0.00    +0.037 C 
ATOM      9  H   UNL     1      -4.689  -1.479  -0.211  0.00  0.00    +0.149 HD
ENDROOT
BRANCH   6  10
ATOM     10  C   UNL     1       0.884  -1.342  -0.230  0.00  0.00    +0.077 C 
ATOM     11  C   UNL     1       1.047  -0.266  -1.103  0.00  0.00    +0.049 C 
ATOM     12  C   UNL     1       1.971  -1.816   0.504  0.00  0.00    +0.012 C 
ATOM     13  C   UNL     1       2.298   0.336  -1.241  0.00  0.00    +0.153 C 
ATOM     14  C   UNL     1       3.385  -0.138  -0.507  0.00  0.00    +0.086 C 
ATOM     15  C   UNL     1       3.222  -1.214   0.365  0.00  0.00    +0.019 C 
BRANCH  14  17
ATOM     16  O   UNL     1       5.987  -0.791   0.839  0.00  0.00    -0.252 OA
ATOM     17  N   UNL     1       4.643   0.455  -0.634  0.00  0.00    -0.266 N 
ATOM     18  N   UNL     1       6.886   0.953  -0.382  0.00  0.00    -0.289 N 
ATOM     19  C   UNL     1       5.843   0.114   0.021  0.00  0.00    +0.305 C 
ATOM     20  H   UNL     1       4.699   1.210  -1.264  0.00  0.00    +0.157 HD
ATOM     21  H   UNL     1       6.694   1.657  -1.043  0.00  0.00    +0.151 HD
BRANCH  18  22
ATOM     22  C   UNL     1       8.234   0.836   0.126  0.00  0.00    +0.091 C 
ATOM     23  C   UNL     1       8.371   1.482   1.489  0.00  0.00    +0.023 C 
ENDBRANCH  18  22
ENDBRANCH  14  17
BRANCH  13  24
ATOM     24  O   UNL     1       2.436   1.386  -2.099  0.00  0.00    -0.470 OA
ATOM     25  C   UNL     1       2.218   2.690  -1.567  0.00  0.00    +0.253 C 
ENDBRANCH  13  24
ENDBRANCH   6  10
BRANCH   1  26
ATOM     26  C   UNL     1      -3.800   0.379  -0.644  0.00  0.00    +0.095 C 
BRANCH  26  28
ATOM     27  N   UNL     1      -4.173   1.865   2.826  0.00  0.00    -0.243 NA
ATOM     28  C   UNL     1      -3.506   1.182   0.605  0.00  0.00    +0.015 C 
ATOM     29  C   UNL     1      -2.355   1.956   0.705  0.00  0.00    +0.000 C 
ATOM     30  C   UNL     1      -4.375   1.171   1.684  0.00  0.00    +0.096 C 
ATOM     31  C   UNL     1      -2.112   2.684   1.865  0.00  0.00    +0.020 C 
ATOM     32  C   UNL     1      -3.044   2.606   2.887  0.00  0.00    +0.099 C 
ENDBRANCH  26  28
BRANCH  26  33
ATOM     33  C   UNL     1      -5.126   0.753  -1.332  0.00  0.00    +0.024 C 
BRANCH  33  34
ATOM     34  C   UNL     1      -5.142   2.196  -1.846  0.00  0.00    +0.002 C 
ATOM     35  C   UNL     1      -6.425   2.501  -2.604  0.00  0.00    +0.000 C 
ENDBRANCH  33  34
ENDBRANCH  26  33
ENDBRANCH   1  26
TORSDOF 8
