REMARK  Name = 11351968
REMARK  9 active torsions:
REMARK  status: ('A' for Active; 'I' for Inactive)
REMARK    1  A    between atoms: C_1  and  N_2
REMARK    2  A    between atoms: C_1  and  N_21
REMARK    3  A    between atoms: C_1  and  C_35
REMARK    4  A    between atoms: N_3  and  C_9
REMARK    5  A    between atoms: N_4  and  C_19
REMARK    6  A    between atoms: C_22  and  C_24
REMARK    7  A    between atoms: C_24  and  C_25
REMARK    8  A    between atoms: C_28  and  O_31
REMARK    9  A    between atoms: C_30  and  O_33
REMARK                            x       y       z     vdW  Elec       q    Type
REMARK                         _______ _______ _______ _____ _____    ______ ____
ROOT
ATOM      1  C   UNL     1       2.970  -0.615  -0.518  0.00  0.00    +0.180 C 
ENDROOT
BRANCH   1   2
ATOM      2  N   UNL     1       2.565  -1.054   0.823  0.00  0.00    -0.220 NA
ATOM      3  N   UNL     1       0.244  -1.055   0.221  0.00  0.00    -0.339 N 
ATOM      4  N   UNL     1       0.938  -1.639   2.423  0.00  0.00    -0.263 N 
ATOM      5  C   UNL     1       1.308  -1.206   1.097  0.00  0.00    +0.209 C 
ATOM      6  H   UNL     1       0.494  -0.807  -0.699  0.00  0.00    +0.164 HD
ATOM      7  H   UNL     1      -0.004  -1.767   2.678  0.00  0.00    +0.181 HD
BRANCH   3   9
ATOM      8  N   UNL     1      -4.130  -2.849  -0.944  0.00  0.00    -0.248 NA
ATOM      9  C   UNL     1      -1.143  -1.202   0.445  0.00  0.00    +0.126 C 
ATOM     10  C   UNL     1      -1.948  -1.982  -0.402  0.00  0.00    +0.016 C 
ATOM     11  C   UNL     1      -1.700  -0.548   1.540  0.00  0.00    -0.004 C 
ATOM     12  C   UNL     1      -3.330  -2.110  -0.152  0.00  0.00    +0.061 C 
ATOM     13  C   UNL     1      -1.413  -2.651  -1.511  0.00  0.00    +0.001 C 
ATOM     14  C   UNL     1      -3.061  -0.669   1.792  0.00  0.00    -0.022 C 
ATOM     15  C   UNL     1      -3.861  -1.444   0.949  0.00  0.00    +0.071 C 
ATOM     16  C   UNL     1      -2.235  -3.414  -2.329  0.00  0.00    +0.020 C 
ATOM     17  C   UNL     1      -3.575  -3.479  -2.005  0.00  0.00    +0.098 C 
ENDBRANCH   3   9
BRANCH   4  19
ATOM     18  N   UNL     1       2.792  -2.049   4.055  0.00  0.00    -0.171 NA
ATOM     19  C   UNL     1       1.935  -1.858   3.295  0.00  0.00    +0.184 C 
ENDBRANCH   4  19
ENDBRANCH   1   2
BRANCH   1  21
ATOM     20  O   UNL     1       2.299   0.480  -3.132  0.00  0.00    -0.275 OA
ATOM     21  N   UNL     1       2.389   0.692  -0.818  0.00  0.00    -0.287 N 
ATOM     22  C   UNL     1       2.104   1.124  -2.103  0.00  0.00    +0.228 C 
ATOM     23  H   UNL     1       2.189   1.297  -0.068  0.00  0.00    +0.151 HD
BRANCH  22  24
ATOM     24  C   UNL     1       1.481   2.501  -2.134  0.00  0.00    +0.111 C 
BRANCH  24  25
ATOM     25  C   UNL     1       0.199   2.550  -1.347  0.00  0.00    -0.010 C 
ATOM     26  C   UNL     1       0.225   2.875   0.009  0.00  0.00    +0.036 C 
ATOM     27  C   UNL     1      -1.015   2.270  -1.974  0.00  0.00    -0.000 C 
ATOM     28  C   UNL     1      -0.963   2.921   0.739  0.00  0.00    +0.172 C 
ATOM     29  C   UNL     1      -2.203   2.315  -1.244  0.00  0.00    +0.040 C 
ATOM     30  C   UNL     1      -2.177   2.641   0.112  0.00  0.00    +0.172 C 
BRANCH  28  31
ATOM     31  O   UNL     1      -0.925   3.240   2.062  0.00  0.00    -0.468 OA
ATOM     32  C   UNL     1       0.356   3.512   2.627  0.00  0.00    +0.253 C 
ENDBRANCH  28  31
BRANCH  30  33
ATOM     33  O   UNL     1      -3.344   2.682   0.813  0.00  0.00    -0.468 OA
ATOM     34  C   UNL     1      -4.541   2.383   0.097  0.00  0.00    +0.253 C 
ENDBRANCH  30  33
ENDBRANCH  24  25
ENDBRANCH  22  24
ENDBRANCH   1  21
BRANCH   1  35
ATOM     35  C   UNL     1       4.533  -0.587  -0.594  0.00  0.00    +0.038 C 
ATOM     36  C   UNL     1       5.092  -2.000  -0.324  0.00  0.00    +0.004 C 
ATOM     37  C   UNL     1       5.140   0.386   0.436  0.00  0.00    +0.004 C 
ATOM     38  C   UNL     1       4.994  -0.160  -2.003  0.00  0.00    +0.004 C 
ENDBRANCH   1  35
TORSDOF 9
