REMARK  Name = 11350718
REMARK  13 active torsions:
REMARK  status: ('A' for Active; 'I' for Inactive)
REMARK    1  A    between atoms: N_2  and  C_5
REMARK    2  A    between atoms: C_3  and  C_23
REMARK    3  A    between atoms: C_5  and  C_8
REMARK    4  A    between atoms: C_5  and  C_19
REMARK    5  A    between atoms: C_14  and  O_17
REMARK    6  A    between atoms: C_19  and  C_20
REMARK    7  A    between atoms: C_23  and  O_24
REMARK    8  A    between atoms: C_23  and  C_26
REMARK    9  A    between atoms: C_26  and  O_27
REMARK   10  A    between atoms: C_26  and  C_29
REMARK   11  A    between atoms: C_29  and  N_30
REMARK   12  A    between atoms: C_29  and  C_34
REMARK   13  A    between atoms: C_34  and  C_35
REMARK                            x       y       z     vdW  Elec       q    Type
REMARK                         _______ _______ _______ _____ _____    ______ ____
ROOT
ATOM      1  O   UNL     1       1.936  -1.638  -1.904  0.00  0.00    -0.272 OA
ATOM      2  N   UNL     1       0.570  -1.688  -0.029  0.00  0.00    -0.300 N 
ATOM      3  C   UNL     1       1.755  -1.446  -0.702  0.00  0.00    +0.252 C 
ATOM      4  H   UNL     1       0.533  -1.500   0.937  0.00  0.00    +0.150 HD
ENDROOT
BRANCH   2   5
ATOM      5  C   UNL     1      -0.617  -2.203  -0.674  0.00  0.00    +0.112 C 
BRANCH   5   8
ATOM      6  O   UNL     1      -2.066  -1.010   0.813  0.00  0.00    -0.447 OA
ATOM      7  O   UNL     1      -3.385   0.018   2.339  0.00  0.00    -0.245 OA
ATOM      8  C   UNL     1      -1.736  -1.176  -0.584  0.00  0.00    +0.191 C 
ATOM      9  C   UNL     1      -1.311   0.160  -1.176  0.00  0.00    +0.072 C 
ATOM     10  C   UNL     1      -2.427   1.135  -0.950  0.00  0.00    -0.009 C 
ATOM     11  C   UNL     1      -3.204   1.031   0.210  0.00  0.00    +0.105 C 
ATOM     12  C   UNL     1      -2.911  -0.021   1.212  0.00  0.00    +0.344 C 
ATOM     13  C   UNL     1      -2.678   2.170  -1.858  0.00  0.00    -0.004 C 
ATOM     14  C   UNL     1      -4.235   1.944   0.451  0.00  0.00    +0.140 C 
ATOM     15  C   UNL     1      -3.710   3.078  -1.619  0.00  0.00    +0.003 C 
ATOM     16  C   UNL     1      -4.488   2.963  -0.468  0.00  0.00    +0.037 C 
BRANCH  14  17
ATOM     17  O   UNL     1      -5.029   1.880   1.557  0.00  0.00    -0.505 OA
ATOM     18  H   UNL     1      -4.889   1.209   2.196  0.00  0.00    +0.292 HD
ENDBRANCH  14  17
ENDBRANCH   5   8
BRANCH   5  19
ATOM     19  C   UNL     1      -1.057  -3.540  -0.055  0.00  0.00    +0.023 C 
BRANCH  19  20
ATOM     20  C   UNL     1       0.026  -4.639  -0.036  0.00  0.00    +0.002 C 
ATOM     21  C   UNL     1      -0.522  -5.891   0.655  0.00  0.00    +0.000 C 
ATOM     22  C   UNL     1       0.519  -4.999  -1.438  0.00  0.00    +0.000 C 
ENDBRANCH  19  20
ENDBRANCH   5  19
ENDBRANCH   2   5
BRANCH   3  23
ATOM     23  C   UNL     1       2.866  -0.882   0.179  0.00  0.00    +0.212 C 
BRANCH  23  24
ATOM     24  O   UNL     1       4.037  -0.769  -0.613  0.00  0.00    -0.374 OA
ATOM     25  H   UNL     1       4.759  -0.411  -0.073  0.00  0.00    +0.211 HD
ENDBRANCH  23  24
BRANCH  23  26
ATOM     26  C   UNL     1       2.481   0.460   0.824  0.00  0.00    +0.126 C 
BRANCH  26  27
ATOM     27  O   UNL     1       1.585   0.173   1.899  0.00  0.00    -0.384 OA
ATOM     28  H   UNL     1       1.321   1.001   2.330  0.00  0.00    +0.210 HD
ENDBRANCH  26  27
BRANCH  26  29
ATOM     29  C   UNL     1       3.696   1.276   1.341  0.00  0.00    -0.035 C 
BRANCH  29  30
ATOM     30  N   UNL     1       4.658   0.367   1.976  0.00  0.00    +0.383 N 
ATOM     31  H   UNL     1       4.189  -0.166   2.709  0.00  0.00    -0.089 HD
ATOM     32  H   UNL     1       5.419   0.909   2.385  0.00  0.00    -0.089 HD
ATOM     33  H   UNL     1       5.033  -0.274   1.277  0.00  0.00    -0.089 HD
ENDBRANCH  29  30
BRANCH  29  34
ATOM     34  C   UNL     1       4.401   2.086   0.231  0.00  0.00    -0.019 C 
BRANCH  34  35
ATOM     35  C   UNL     1       3.525   3.141  -0.480  0.00  0.00    -0.002 C 
ATOM     36  C   UNL     1       2.984   4.197   0.486  0.00  0.00    -0.000 C 
ATOM     37  C   UNL     1       4.336   3.823  -1.586  0.00  0.00    -0.000 C 
ENDBRANCH  34  35
ENDBRANCH  29  34
ENDBRANCH  26  29
ENDBRANCH  23  26
ENDBRANCH   3  23
TORSDOF 13
