REMARK  Name = 11359093
REMARK  6 active torsions:
REMARK  status: ('A' for Active; 'I' for Inactive)
REMARK    1  A    between atoms: C_2  and  O_8
REMARK    2  A    between atoms: C_3  and  O_10
REMARK    3  A    between atoms: C_4  and  O_12
REMARK    4  A    between atoms: C_6  and  O_14
REMARK    5  A    between atoms: O_14  and  C_16
REMARK    6  A    between atoms: C_21  and  N_24
REMARK                            x       y       z     vdW  Elec       q    Type
REMARK                         _______ _______ _______ _____ _____    ______ ____
ROOT
ATOM      1  O   UNL     1      -1.743   1.261  -0.614  0.00  0.00    -0.319 OA
ATOM      2  C   UNL     1      -3.505  -0.775   0.398  0.00  0.00    +0.173 C 
ATOM      3  C   UNL     1      -3.841   0.715   0.510  0.00  0.00    +0.167 C 
ATOM      4  C   UNL     1      -2.557  -1.029  -0.773  0.00  0.00    +0.210 C 
ATOM      5  C   UNL     1      -2.556   1.555   0.533  0.00  0.00    +0.148 C 
ATOM      6  C   UNL     1      -1.335  -0.108  -0.691  0.00  0.00    +0.318 C 
ATOM      7  C   UNL     1      -2.840   3.053   0.516  0.00  0.00    +0.035 C 
ENDROOT
BRANCH   2   8
ATOM      8  O   UNL     1      -4.697  -1.533   0.212  0.00  0.00    -0.379 OA
ATOM      9  H   UNL     1      -5.301  -1.374   0.955  0.00  0.00    +0.211 HD
ENDBRANCH   2   8
BRANCH   3  10
ATOM     10  O   UNL     1      -4.662   1.109  -0.592  0.00  0.00    -0.379 OA
ATOM     11  H   UNL     1      -5.471   0.575  -0.600  0.00  0.00    +0.211 HD
ENDBRANCH   3  10
BRANCH   4  12
ATOM     12  O   UNL     1      -2.145  -2.392  -0.762  0.00  0.00    -0.377 OA
ATOM     13  H   UNL     1      -2.925  -2.966  -0.814  0.00  0.00    +0.211 HD
ENDBRANCH   4  12
BRANCH   6  14
ATOM     14  O   UNL     1      -0.512  -0.482   0.413  0.00  0.00    -0.450 OA
BRANCH  14  16
ATOM     15 CL   UNL     1       1.207  -2.941   0.610  0.00  0.00    -0.079 Cl
ATOM     16  C   UNL     1       0.832  -0.267   0.277  0.00  0.00    +0.152 C 
ATOM     17  C   UNL     1       1.740  -1.320   0.350  0.00  0.00    +0.093 C 
ATOM     18  C   UNL     1       1.280   1.034   0.063  0.00  0.00    +0.040 C 
ATOM     19  C   UNL     1       3.105  -1.071   0.208  0.00  0.00    +0.039 C 
ATOM     20  C   UNL     1       2.644   1.284  -0.078  0.00  0.00    +0.027 C 
ATOM     21  C   UNL     1       3.557   0.231  -0.006  0.00  0.00    +0.144 C 
BRANCH  21  24
ATOM     22  O   UNL     1       5.332   1.664  -0.343  0.00  0.00    -0.126 OA
ATOM     23  O   UNL     1       5.751  -0.475  -0.082  0.00  0.00    -0.126 OA
ATOM     24  N   UNL     1       4.946   0.486  -0.151  0.00  0.00    +0.058 N 
ENDBRANCH  21  24
ENDBRANCH  14  16
ENDBRANCH   6  14
TORSDOF 6
