11359093
  -OEChem-03292013303D

 35 36  0     1  0  0  0  0  0999 V2000
    1.2072   -2.9405    0.6103 Cl  0  0  0  0  0  0  0  0  0  0  0  0
   -1.7428    1.2611   -0.6135 O   0  0  0  0  0  0  0  0  0  0  0  0
   -0.5125   -0.4817    0.4132 O   0  0  0  0  0  0  0  0  0  0  0  0
   -4.6975   -1.5333    0.2125 O   0  0  0  0  0  0  0  0  0  0  0  0
   -4.6618    1.1094   -0.5919 O   0  0  0  0  0  0  0  0  0  0  0  0
   -2.1448   -2.3922   -0.7616 O   0  0  0  0  0  0  0  0  0  0  0  0
    5.3320    1.6640   -0.3432 O   0  5  0  0  0  0  0  0  0  0  0  0
    5.7510   -0.4749   -0.0818 O   0  0  0  0  0  0  0  0  0  0  0  0
    4.9464    0.4856   -0.1506 N   0  3  0  0  0  0  0  0  0  0  0  0
   -3.5050   -0.7753    0.3981 C   0  0  2  0  0  0  0  0  0  0  0  0
   -3.8412    0.7154    0.5105 C   0  0  1  0  0  0  0  0  0  0  0  0
   -2.5565   -1.0287   -0.7734 C   0  0  1  0  0  0  0  0  0  0  0  0
   -2.5564    1.5548    0.5327 C   0  0  2  0  0  0  0  0  0  0  0  0
   -1.3351   -0.1077   -0.6911 C   0  0  1  0  0  0  0  0  0  0  0  0
   -2.8402    3.0527    0.5156 C   0  0  0  0  0  0  0  0  0  0  0  0
    0.8321   -0.2668    0.2769 C   0  0  0  0  0  0  0  0  0  0  0  0
    1.7395   -1.3203    0.3498 C   0  0  0  0  0  0  0  0  0  0  0  0
    1.2795    1.0343    0.0632 C   0  0  0  0  0  0  0  0  0  0  0  0
    3.1046   -1.0708    0.2083 C   0  0  0  0  0  0  0  0  0  0  0  0
    2.6444    1.2837   -0.0783 C   0  0  0  0  0  0  0  0  0  0  0  0
    3.5570    0.2312   -0.0057 C   0  0  0  0  0  0  0  0  0  0  0  0
   -3.0431   -1.1299    1.3278 H   0  0  0  0  0  0  0  0  0  0  0  0
   -4.4295    0.8994    1.4169 H   0  0  0  0  0  0  0  0  0  0  0  0
   -3.0876   -0.8529   -1.7171 H   0  0  0  0  0  0  0  0  0  0  0  0
   -1.9821    1.3271    1.4393 H   0  0  0  0  0  0  0  0  0  0  0  0
   -0.7648   -0.2325   -1.6215 H   0  0  0  0  0  0  0  0  0  0  0  0
   -1.9015    3.6144    0.5791 H   0  0  0  0  0  0  0  0  0  0  0  0
   -3.3204    3.3599   -0.4197 H   0  0  0  0  0  0  0  0  0  0  0  0
   -3.4775    3.3460    1.3550 H   0  0  0  0  0  0  0  0  0  0  0  0
   -5.2811   -1.3488    0.9682 H   0  0  0  0  0  0  0  0  0  0  0  0
   -5.4466    0.5352   -0.5894 H   0  0  0  0  0  0  0  0  0  0  0  0
   -2.9482   -2.9394   -0.7915 H   0  0  0  0  0  0  0  0  0  0  0  0
    0.5938    1.8742    0.0244 H   0  0  0  0  0  0  0  0  0  0  0  0
    3.7997   -1.9055    0.2675 H   0  0  0  0  0  0  0  0  0  0  0  0
    2.9612    2.3110   -0.2391 H   0  0  0  0  0  0  0  0  0  0  0  0
  1 17  1  0  0  0  0
  2 13  1  0  0  0  0
  2 14  1  0  0  0  0
  3 14  1  0  0  0  0
  3 16  1  0  0  0  0
  4 10  1  0  0  0  0
  4 30  1  0  0  0  0
  5 11  1  0  0  0  0
  5 31  1  0  0  0  0
  6 12  1  0  0  0  0
  6 32  1  0  0  0  0
  7  9  1  0  0  0  0
  8  9  2  0  0  0  0
  9 21  1  0  0  0  0
 10 11  1  0  0  0  0
 10 12  1  0  0  0  0
 10 22  1  0  0  0  0
 11 13  1  0  0  0  0
 11 23  1  0  0  0  0
 12 14  1  0  0  0  0
 12 24  1  0  0  0  0
 13 15  1  0  0  0  0
 13 25  1  0  0  0  0
 14 26  1  0  0  0  0
 15 27  1  0  0  0  0
 15 28  1  0  0  0  0
 15 29  1  0  0  0  0
 16 17  2  0  0  0  0
 16 18  1  0  0  0  0
 17 19  1  0  0  0  0
 18 20  2  0  0  0  0
 18 33  1  0  0  0  0
 19 21  2  0  0  0  0
 19 34  1  0  0  0  0
 20 21  1  0  0  0  0
 20 35  1  0  0  0  0
M  CHG  2   7  -1   9   1
M  END
> <PUBCHEM_COMPOUND_CID>
11359093

> <PUBCHEM_CONFORMER_RMSD>
0.6

> <PUBCHEM_CONFORMER_DIVERSEORDER>
1
16
17
27
26
25
31
32
24
30
3
21
13
2
20
19
34
35
4
11
14
23
5
29
28
10
6
18
33
22
9
15
12
8
7

> <PUBCHEM_MMFF94_PARTIAL_CHARGES>
26
1 -0.18
10 0.28
11 0.28
12 0.28
13 0.28
14 0.56
16 0.08
17 0.18
18 -0.15
19 -0.15
2 -0.56
20 -0.15
21 0.13
3 -0.36
30 0.4
31 0.4
32 0.4
33 0.15
34 0.15
35 0.15
4 -0.68
5 -0.68
6 -0.68
7 -0.52
8 -0.52
9 0.91

> <PUBCHEM_EFFECTIVE_ROTOR_COUNT>
4.2

> <PUBCHEM_PHARMACOPHORE_FEATURES>
13
1 2 acceptor
1 3 acceptor
1 4 acceptor
1 4 donor
1 5 acceptor
1 5 donor
1 6 acceptor
1 6 donor
1 7 acceptor
1 7 anion
1 8 acceptor
6 16 17 18 19 20 21 rings
6 2 10 11 12 13 14 rings

> <PUBCHEM_HEAVY_ATOM_COUNT>
21

> <PUBCHEM_ATOM_DEF_STEREO_COUNT>
5

> <PUBCHEM_ATOM_UDEF_STEREO_COUNT>
0

> <PUBCHEM_BOND_DEF_STEREO_COUNT>
0

> <PUBCHEM_BOND_UDEF_STEREO_COUNT>
0

> <PUBCHEM_ISOTOPIC_ATOM_COUNT>
0

> <PUBCHEM_COMPONENT_COUNT>
1

> <PUBCHEM_CACTVS_TAUTO_COUNT>
1

> <PUBCHEM_CONFORMER_ID>
00AD537500000001

> <PUBCHEM_MMFF94_ENERGY>
68.5544

> <PUBCHEM_FEATURE_SELFOVERLAP>
66.114

> <PUBCHEM_SHAPE_FINGERPRINT>
10366900 7 18343574149371085665
10616163 171 18411419518468475791
11578080 2 17024860455691864519
12107183 9 17689433784975071200
12173636 292 18270954649025199101
12236239 1 18410575097553262068
12390115 104 18058747800989628169
12553582 1 18270104838248477107
12916748 109 18411705417535379240
13167823 11 18409728439794277586
13214271 11 17967816054926345583
14178342 30 18266441157877097714
14251751 93 18272087197409618750
14341114 176 18335991891104856465
14790565 3 18336272309921045620
15196674 1 18409449171881896906
15209289 33 18409729603450638570
15442244 35 18050565144960433163
17844677 252 18341903995688388896
200 152 18410851088320920479
20510252 161 18202005396007838857
21267235 1 18338524130971969511
23402539 116 18411132567218084772
23402655 69 18411135814266296196
23557571 272 18201726179587839812
23559900 14 18338507634271864529
2916195 48 18201148962571076816
34934 24 18260824852735670433
350125 39 18411139164325222697
3545911 37 18408885114228028237
4214541 1 18412545392468208688
474 4 18040721376523984476
4990 188 18202291282068871822
5104073 3 18335981982588951154
58051976 378 18413388722113030662
633830 44 18410575072474743574
77779 3 18411139104327107520
9709674 26 18409454661167307515

> <PUBCHEM_SHAPE_MULTIPOLES>
387.97
10.44
2.66
0.79
6.83
0.27
0.02
-2.6
0.45
-1.21
-0.31
-0.34
0.07
-0.75

> <PUBCHEM_SHAPE_SELFOVERLAP>
809.538

> <PUBCHEM_SHAPE_VOLUME>
220.1

> <PUBCHEM_COORDINATE_TYPE>
2
5
10

$$$$
