REMARK  Name = 113639
REMARK  5 active torsions:
REMARK  status: ('A' for Active; 'I' for Inactive)
REMARK    1  A    between atoms: C_1  and  N_4
REMARK    2  A    between atoms: C_1  and  C_12
REMARK    3  A    between atoms: N_11  and  C_14
REMARK    4  A    between atoms: C_14  and  C_15
REMARK    5  A    between atoms: C_15  and  O_16
REMARK                            x       y       z     vdW  Elec       q    Type
REMARK                         _______ _______ _______ _____ _____    ______ ____
ROOT
ATOM      1  C   UNL     1       0.701   0.204  -1.096  0.00  0.00    +0.198 C 
ENDROOT
BRANCH   1   4
ATOM      2  O   UNL     1      -4.770   0.186   0.694  0.00  0.00    -0.115 OA
ATOM      3  O   UNL     1      -3.960  -1.653  -0.197  0.00  0.00    -0.115 OA
ATOM      4  N   UNL     1      -0.632   0.474  -0.566  0.00  0.00    -0.189 N 
ATOM      5  N   UNL     1      -1.566  -0.475  -0.582  0.00  0.00    -0.104 NA
ATOM      6  N   UNL     1      -2.330   1.478   0.332  0.00  0.00    -0.176 NA
ATOM      7  N   UNL     1      -3.813  -0.449   0.164  0.00  0.00    +0.124 N 
ATOM      8  C   UNL     1      -1.077   1.628  -0.028  0.00  0.00    +0.250 C 
ATOM      9  C   UNL     1      -2.584   0.184  -0.025  0.00  0.00    +0.197 C 
ENDBRANCH   1   4
BRANCH   1  12
ATOM     10  O   UNL     1       1.329  -0.532   1.120  0.00  0.00    -0.273 OA
ATOM     11  N   UNL     1       2.911  -0.567  -0.580  0.00  0.00    -0.301 N 
ATOM     12  C   UNL     1       1.652  -0.333  -0.048  0.00  0.00    +0.244 C 
ATOM     13  H   UNL     1       3.064  -0.372  -1.532  0.00  0.00    +0.150 HD
BRANCH  11  14
ATOM     14  C   UNL     1       4.010  -1.084   0.204  0.00  0.00    +0.121 C 
BRANCH  14  15
ATOM     15  C   UNL     1       4.793   0.063   0.820  0.00  0.00    +0.158 C 
BRANCH  15  16
ATOM     16  O   UNL     1       5.336   0.875  -0.213  0.00  0.00    -0.380 OA
ATOM     17  H   UNL     1       5.836   1.607   0.180  0.00  0.00    +0.211 HD
ENDBRANCH  15  16
ENDBRANCH  14  15
ENDBRANCH  11  14
ENDBRANCH   1  12
TORSDOF 5
