11369858
  -OEChem-03292013303D

 40 40  0     1  0  0  0  0  0999 V2000
   -0.2048   -1.3509    1.7379 O   0  0  0  0  0  0  0  0  0  0  0  0
   -2.2309   -2.2929    0.3358 O   0  0  0  0  0  0  0  0  0  0  0  0
    0.6294   -0.4144   -2.0765 O   0  0  0  0  0  0  0  0  0  0  0  0
    4.9958   -0.6970    1.0629 O   0  0  0  0  0  0  0  0  0  0  0  0
    2.8204    0.0152   -2.4751 O   0  0  0  0  0  0  0  0  0  0  0  0
    5.5535    1.1396   -0.2014 N   0  0  0  0  0  0  0  0  0  0  0  0
    2.1657   -0.0948    0.7631 C   0  0  2  0  0  0  0  0  0  0  0  0
    0.8074    0.6337    0.8585 C   0  0  0  0  0  0  0  0  0  0  0  0
    3.2814    0.9538    0.5756 C   0  0  0  0  0  0  0  0  0  0  0  0
    2.1876   -1.1008   -0.4092 C   0  0  0  0  0  0  0  0  0  0  0  0
   -0.3572   -0.3124    1.0957 C   0  0  0  0  0  0  0  0  0  0  0  0
   -1.7135    0.0276    0.5863 C   0  0  0  0  0  0  0  0  0  0  0  0
    4.6762    0.3544    0.5158 C   0  0  0  0  0  0  0  0  0  0  0  0
    1.9488   -0.4580   -1.7585 C   0  0  0  0  0  0  0  0  0  0  0  0
   -2.5855   -0.9796    0.2306 C   0  0  0  0  0  0  0  0  0  0  0  0
   -2.0503    1.3623    0.4882 C   0  0  0  0  0  0  0  0  0  0  0  0
   -3.8515   -0.6379   -0.2447 C   0  0  0  0  0  0  0  0  0  0  0  0
   -3.3162    1.7039    0.0129 C   0  0  0  0  0  0  0  0  0  0  0  0
   -4.2169    0.7038   -0.3537 C   0  0  0  0  0  0  0  0  0  0  0  0
   -4.8307   -1.6937   -0.6412 C   0  0  0  0  0  0  0  0  0  0  0  0
   -3.7087    3.1380   -0.1028 C   0  0  0  0  0  0  0  0  0  0  0  0
    2.3471   -0.6526    1.6907 H   0  0  0  0  0  0  0  0  0  0  0  0
    0.8298    1.3300    1.7060 H   0  0  0  0  0  0  0  0  0  0  0  0
    0.6348    1.2257   -0.0461 H   0  0  0  0  0  0  0  0  0  0  0  0
    3.0982    1.5640   -0.3165 H   0  0  0  0  0  0  0  0  0  0  0  0
    3.2771    1.6431    1.4299 H   0  0  0  0  0  0  0  0  0  0  0  0
    1.4374   -1.8877   -0.2673 H   0  0  0  0  0  0  0  0  0  0  0  0
    3.1411   -1.6372   -0.4661 H   0  0  0  0  0  0  0  0  0  0  0  0
   -1.3672    2.1513    0.7886 H   0  0  0  0  0  0  0  0  0  0  0  0
   -5.2037    0.9748   -0.7217 H   0  0  0  0  0  0  0  0  0  0  0  0
   -4.4339   -2.3001   -1.4622 H   0  0  0  0  0  0  0  0  0  0  0  0
   -5.0707   -2.3378    0.2112 H   0  0  0  0  0  0  0  0  0  0  0  0
   -5.7742   -1.2594   -0.9905 H   0  0  0  0  0  0  0  0  0  0  0  0
   -4.4218    3.2885   -0.9205 H   0  0  0  0  0  0  0  0  0  0  0  0
   -4.1684    3.4780    0.8305 H   0  0  0  0  0  0  0  0  0  0  0  0
   -2.8396    3.7694   -0.3166 H   0  0  0  0  0  0  0  0  0  0  0  0
    6.5229    0.8634   -0.3174 H   0  0  0  0  0  0  0  0  0  0  0  0
    5.2756    2.0142   -0.6349 H   0  0  0  0  0  0  0  0  0  0  0  0
   -2.9480   -2.8777    0.0469 H   0  0  0  0  0  0  0  0  0  0  0  0
    0.4752    0.0262   -2.9392 H   0  0  0  0  0  0  0  0  0  0  0  0
  1 11  2  0  0  0  0
  2 15  1  0  0  0  0
  2 39  1  0  0  0  0
  3 14  1  0  0  0  0
  3 40  1  0  0  0  0
  4 13  2  0  0  0  0
  5 14  2  0  0  0  0
  6 13  1  0  0  0  0
  6 37  1  0  0  0  0
  6 38  1  0  0  0  0
  7  8  1  0  0  0  0
  7  9  1  0  0  0  0
  7 10  1  0  0  0  0
  7 22  1  0  0  0  0
  8 11  1  0  0  0  0
  8 23  1  0  0  0  0
  8 24  1  0  0  0  0
  9 13  1  0  0  0  0
  9 25  1  0  0  0  0
  9 26  1  0  0  0  0
 10 14  1  0  0  0  0
 10 27  1  0  0  0  0
 10 28  1  0  0  0  0
 11 12  1  0  0  0  0
 12 15  1  0  0  0  0
 12 16  2  0  0  0  0
 15 17  2  0  0  0  0
 16 18  1  0  0  0  0
 16 29  1  0  0  0  0
 17 19  1  0  0  0  0
 17 20  1  0  0  0  0
 18 19  2  0  0  0  0
 18 21  1  0  0  0  0
 19 30  1  0  0  0  0
 20 31  1  0  0  0  0
 20 32  1  0  0  0  0
 20 33  1  0  0  0  0
 21 34  1  0  0  0  0
 21 35  1  0  0  0  0
 21 36  1  0  0  0  0
M  END
> <PUBCHEM_COMPOUND_CID>
11369858

> <PUBCHEM_CONFORMER_RMSD>
1

> <PUBCHEM_CONFORMER_DIVERSEORDER>
1
903
877
318
820
234
798
488
48
340
918
704
309
174
178
896
855
297
697
113
119
695
924
852
699
330
265
566
765
646
8
793
766
316
616
818
260
590
157
424
922
235
629
859
15
155
786
141
516
104
207
276
561
355
350
462
397
349
567
76
709
177
692
306
476
643
175
246
3
904
891
221
888
2
408
233
819
473
739
837
385
317
451
501
230
196
54
172
161
229
575
705
878
14
794
391
639
354
50
307
627
529
259
35
638
495
236
535
545
416
756
226
227
373
925
261
381
243
171
292
293
20
52
70
482
577
10
735
294
600
98
74
121
19
115
359
30
168
69
22
842
166
384
56
631
753
271
554
915
89
573
269
25
512
504
715
507
505
815
435
201
105
768
873
164
123
460
16
560
49
188
776
910
127
28
313
781
37
78
879
661
311
18
528
186
245
26
892
66
324
114
124
673
680
308
23
917
94
887
33
605
273
51
757
85
775
363
911
12
850
73
24
92
36
733
797
734
481
214
471
219
607
7
919
386
96
901
111
670
47
533
153
537
34
721
101
706
441
572
242
434
674
353
4
407
410

> <PUBCHEM_MMFF94_PARTIAL_CHARGES>
26
1 -0.57
10 0.06
11 0.42
12 0.09
13 0.57
14 0.66
15 0.08
16 -0.15
17 -0.14
18 -0.14
19 -0.15
2 -0.53
20 0.14
21 0.14
29 0.15
3 -0.65
30 0.15
37 0.37
38 0.37
39 0.45
4 -0.57
40 0.5
5 -0.57
6 -0.8
8 0.06
9 0.06

> <PUBCHEM_EFFECTIVE_ROTOR_COUNT>
7

> <PUBCHEM_PHARMACOPHORE_FEATURES>
9
1 1 acceptor
1 2 donor
1 3 acceptor
1 4 acceptor
1 5 acceptor
1 6 donor
3 3 5 14 anion
4 7 8 9 10 hydrophobe
6 12 15 16 17 18 19 rings

> <PUBCHEM_HEAVY_ATOM_COUNT>
21

> <PUBCHEM_ATOM_DEF_STEREO_COUNT>
0

> <PUBCHEM_ATOM_UDEF_STEREO_COUNT>
1

> <PUBCHEM_BOND_DEF_STEREO_COUNT>
0

> <PUBCHEM_BOND_UDEF_STEREO_COUNT>
0

> <PUBCHEM_ISOTOPIC_ATOM_COUNT>
0

> <PUBCHEM_COMPONENT_COUNT>
1

> <PUBCHEM_CACTVS_TAUTO_COUNT>
18

> <PUBCHEM_CONFORMER_ID>
00AD7D8200000001

> <PUBCHEM_MMFF94_ENERGY>
51.3963

> <PUBCHEM_FEATURE_SELFOVERLAP>
45.73

> <PUBCHEM_SHAPE_FINGERPRINT>
11370993 70 18412542089628178958
11640471 11 17749394728446995353
12107183 9 17758101614998375338
12166972 35 17168140186976987869
12173636 292 18336544898831479917
12236239 1 17676200273798381107
12507557 5 15357698600072681997
12788726 201 17172112816714394019
128620 24 15985387785136459472
13583140 156 18130498721751831578
13911987 19 16772951561864907712
14251764 38 18335989778213984500
14739800 52 18044100275110834676
15238133 3 14057560081792745079
15375358 24 17988924444327132992
15375462 189 13901910007276406947
15537594 2 13470693645954214453
16988056 13 15524596369283359989
17349148 13 17603585244144178315
17980427 23 18113904879053564932
18186145 218 17987810600667777449
192875 21 17676206905048570813
19433438 38 17989203754798601483
19489759 90 18410852166130891104
200 152 15913330195098100051
20300324 65 18409725184092899441
20645477 56 18413109429481041881
20645477 70 16845297077202905686
21033650 10 18192736491226351620
22393880 68 18129954364332104750
23175994 123 13767921295849494786
23402539 116 18410565193432692985
235170 7 17775290438957403349
23557571 272 18272936028886655353
23559900 14 17914610558393948098
3472631 163 18337669698947879893
474 4 17022905614454311787
5283173 99 18199470974087024640
5895379 119 18188504475255668100
7970288 3 10302652118516508837
9709674 26 18272091603909089415
9971528 1 17095240303087715190

> <PUBCHEM_SHAPE_MULTIPOLES>
397.84
10.5
2.08
1.52
6.03
0.88
-0.77
1.67
-0.73
-3.09
-0.06
1.32
-0.42
0.33

> <PUBCHEM_SHAPE_SELFOVERLAP>
824.394

> <PUBCHEM_SHAPE_VOLUME>
226.4

> <PUBCHEM_COORDINATE_TYPE>
2
5
10

$$$$
