REMARK  Name = 11363176
REMARK  11 active torsions:
REMARK  status: ('A' for Active; 'I' for Inactive)
REMARK    1  A    between atoms: N_3  and  C_24
REMARK    2  A    between atoms: N_4  and  C_5
REMARK    3  A    between atoms: N_4  and  C_31
REMARK    4  A    between atoms: C_8  and  C_10
REMARK    5  A    between atoms: C_11  and  O_16
REMARK    6  A    between atoms: O_16  and  C_17
REMARK    7  A    between atoms: C_17  and  C_18
REMARK    8  A    between atoms: C_18  and  O_19
REMARK    9  A    between atoms: C_18  and  C_21
REMARK   10  A    between atoms: C_21  and  O_22
REMARK   11  A    between atoms: C_31  and  C_32
REMARK                            x       y       z     vdW  Elec       q    Type
REMARK                         _______ _______ _______ _____ _____    ______ ____
ROOT
ATOM      1  S   UNL     1       0.771   0.574   0.078  0.00  0.00    -0.072 S 
ATOM      2  O   UNL     1       2.776  -2.649  -0.258  0.00  0.00    -0.269 OA
ATOM      3  N   UNL     1       3.197  -0.342   0.089  0.00  0.00    -0.233 N 
ATOM      4  C   UNL     1       2.491   0.846   0.202  0.00  0.00    +0.209 C 
ATOM      5  C   UNL     1       2.413  -1.494  -0.071  0.00  0.00    +0.260 C 
ATOM      6  C   UNL     1       0.974  -1.121  -0.056  0.00  0.00    +0.082 C 
ATOM      7  C   UNL     1      -0.015  -2.011  -0.147  0.00  0.00    +0.011 C 
ENDROOT
BRANCH   7   9
ATOM      8 CL   UNL     1      -4.354  -1.431   2.583  0.00  0.00    -0.079 Cl
ATOM      9  C   UNL     1      -1.441  -1.720  -0.136  0.00  0.00    +0.002 C 
ATOM     10  C   UNL     1      -4.168  -1.165  -0.118  0.00  0.00    +0.149 C 
ATOM     11  C   UNL     1      -2.143  -1.713   1.069  0.00  0.00    +0.014 C 
ATOM     12  C   UNL     1      -2.106  -1.450  -1.333  0.00  0.00    +0.003 C 
ATOM     13  C   UNL     1      -3.509  -1.434   1.078  0.00  0.00    +0.092 C 
ATOM     14  C   UNL     1      -3.472  -1.171  -1.323  0.00  0.00    +0.038 C 
BRANCH  10  15
ATOM     15  O   UNL     1      -5.509  -0.888  -0.139  0.00  0.00    -0.472 OA
BRANCH  15  16
ATOM     16  C   UNL     1      -5.893   0.380  -0.660  0.00  0.00    +0.237 C 
BRANCH  16  17
ATOM     17  C   UNL     1      -7.202   0.827  -0.020  0.00  0.00    +0.183 C 
BRANCH  17  18
ATOM     18  O   UNL     1      -8.219  -0.124  -0.343  0.00  0.00    -0.378 OA
ATOM     19  H   UNL     1      -7.959  -0.999  -0.015  0.00  0.00    +0.211 HD
ENDBRANCH  17  18
BRANCH  17  20
ATOM     20  C   UNL     1      -7.645   2.185  -0.549  0.00  0.00    +0.170 C 
BRANCH  20  21
ATOM     21  O   UNL     1      -8.883   2.537   0.061  0.00  0.00    -0.379 OA
ATOM     22  H   UNL     1      -9.172   3.402  -0.271  0.00  0.00    +0.211 HD
ENDBRANCH  20  21
ENDBRANCH  17  20
ENDBRANCH  16  17
ENDBRANCH  15  16
ENDBRANCH  10  15
ENDBRANCH   7   9
BRANCH   3  23
ATOM     23  C   UNL     1       4.633  -0.409   0.123  0.00  0.00    +0.052 C 
ATOM     24  C   UNL     1       5.381  -0.301  -1.048  0.00  0.00    -0.008 C 
ATOM     25  C   UNL     1       5.274  -0.583   1.349  0.00  0.00    +0.015 C 
ATOM     26  C   UNL     1       6.773  -0.368  -0.994  0.00  0.00    -0.003 C 
ATOM     27  C   UNL     1       4.720  -0.114  -2.375  0.00  0.00    +0.032 C 
ATOM     28  C   UNL     1       6.666  -0.650   1.403  0.00  0.00    +0.001 C 
ATOM     29  C   UNL     1       7.416  -0.542   0.232  0.00  0.00    -0.000 C 
ENDBRANCH   3  23
BRANCH   4  30
ATOM     30  N   UNL     1       2.953   2.028   0.421  0.00  0.00    -0.190 NA
BRANCH  30  31
ATOM     31  C   UNL     1       1.939   3.072   0.484  0.00  0.00    +0.091 C 
BRANCH  31  32
ATOM     32  C   UNL     1       2.600   4.420   0.745  0.00  0.00    +0.019 C 
ATOM     33  C   UNL     1       3.583   4.811  -0.349  0.00  0.00    +0.002 C 
ENDBRANCH  31  32
ENDBRANCH  30  31
ENDBRANCH   4  30
TORSDOF 11
