REMARK  Name = 11369858
REMARK  9 active torsions:
REMARK  status: ('A' for Active; 'I' for Inactive)
REMARK    1  A    between atoms: C_1  and  C_3
REMARK    2  A    between atoms: C_1  and  C_14
REMARK    3  A    between atoms: C_3  and  C_4
REMARK    4  A    between atoms: C_5  and  O_12
REMARK    5  A    between atoms: C_14  and  C_15
REMARK    6  A    between atoms: C_14  and  C_21
REMARK    7  A    between atoms: C_15  and  C_18
REMARK    8  A    between atoms: C_21  and  C_23
REMARK    9  A    between atoms: C_23  and  O_24
REMARK                            x       y       z     vdW  Elec       q    Type
REMARK                         _______ _______ _______ _____ _____    ______ ____
ROOT
ATOM      1  C   UNL     1       0.807   0.634   0.859  0.00  0.00    +0.070 C 
ENDROOT
BRANCH   1   3
ATOM      2  O   UNL     1      -0.205  -1.351   1.738  0.00  0.00    -0.291 OA
ATOM      3  C   UNL     1      -0.357  -0.312   1.096  0.00  0.00    +0.176 C 
BRANCH   3   4
ATOM      4  C   UNL     1      -1.714   0.028   0.586  0.00  0.00    +0.068 C 
ATOM      5  C   UNL     1      -2.586  -0.980   0.231  0.00  0.00    +0.132 C 
ATOM      6  C   UNL     1      -2.050   1.362   0.488  0.00  0.00    +0.002 C 
ATOM      7  C   UNL     1      -3.852  -0.638  -0.245  0.00  0.00    +0.012 C 
ATOM      8  C   UNL     1      -3.316   1.704   0.013  0.00  0.00    -0.022 C 
ATOM      9  C   UNL     1      -4.217   0.704  -0.354  0.00  0.00    -0.006 C 
ATOM     10  C   UNL     1      -4.831  -1.694  -0.641  0.00  0.00    +0.034 C 
ATOM     11  C   UNL     1      -3.709   3.138  -0.103  0.00  0.00    +0.031 C 
BRANCH   5  12
ATOM     12  O   UNL     1      -2.231  -2.293   0.336  0.00  0.00    -0.506 OA
ATOM     13  H   UNL     1      -1.381  -2.525   0.655  0.00  0.00    +0.292 HD
ENDBRANCH   5  12
ENDBRANCH   3   4
ENDBRANCH   1   3
BRANCH   1  14
ATOM     14  C   UNL     1       2.166  -0.095   0.763  0.00  0.00    +0.028 C 
BRANCH  14  15
ATOM     15  C   UNL     1       3.281   0.954   0.576  0.00  0.00    +0.086 C 
BRANCH  15  18
ATOM     16  O   UNL     1       4.996  -0.697   1.063  0.00  0.00    -0.275 OA
ATOM     17  N   UNL     1       5.553   1.140  -0.201  0.00  0.00    -0.329 N 
ATOM     18  C   UNL     1       4.676   0.354   0.516  0.00  0.00    +0.219 C 
ATOM     19  H   UNL     1       6.490   0.857  -0.312  0.00  0.00    +0.145 HD
ATOM     20  H   UNL     1       5.243   1.983  -0.603  0.00  0.00    +0.145 HD
ENDBRANCH  15  18
ENDBRANCH  14  15
BRANCH  14  21
ATOM     21  C   UNL     1       2.188  -1.101  -0.409  0.00  0.00    +0.110 C 
BRANCH  21  23
ATOM     22  O   UNL     1       2.820   0.015  -2.475  0.00  0.00    -0.250 OA
ATOM     23  C   UNL     1       1.949  -0.458  -1.758  0.00  0.00    +0.314 C 
BRANCH  23  24
ATOM     24  O   UNL     1       0.629  -0.414  -2.076  0.00  0.00    -0.480 OA
ATOM     25  H   UNL     1      -0.005  -0.790  -1.498  0.00  0.00    +0.295 HD
ENDBRANCH  23  24
ENDBRANCH  21  23
ENDBRANCH  14  21
ENDBRANCH   1  14
TORSDOF 9
