REMARK  Name = 11368000
REMARK  2 active torsions:
REMARK  status: ('A' for Active; 'I' for Inactive)
REMARK    1  A    between atoms: C_1  and  N_9
REMARK    2  A    between atoms: C_4  and  N_16
REMARK                            x       y       z     vdW  Elec       q    Type
REMARK                         _______ _______ _______ _____ _____    ______ ____
ROOT
ATOM      1  C   UNL     1       0.324   0.000  -0.002  0.00  0.00    +0.079 C 
ATOM      2  C   UNL     1      -0.374  -1.140  -0.400  0.00  0.00    +0.018 C 
ATOM      3  C   UNL     1      -0.374   1.141   0.397  0.00  0.00    +0.018 C 
ATOM      4  C   UNL     1      -2.466   0.000  -0.001  0.00  0.00    +0.143 C 
ATOM      5  C   UNL     1      -1.769  -1.140  -0.399  0.00  0.00    +0.025 C 
ATOM      6  C   UNL     1      -1.769   1.141   0.397  0.00  0.00    +0.025 C 
ENDROOT
BRANCH   1   9
ATOM      7  O   UNL     1       2.296  -2.221   0.453  0.00  0.00    -0.203 OA
ATOM      8  O   UNL     1       2.299   2.222  -0.450  0.00  0.00    -0.203 OA
ATOM      9  N   UNL     1       1.750   0.000  -0.001  0.00  0.00    -0.117 N 
ATOM     10  N   UNL     1       3.888  -0.618   0.110  0.00  0.00    -0.047 NA
ATOM     11  N   UNL     1       3.889   0.617  -0.109  0.00  0.00    -0.047 NA
ATOM     12  C   UNL     1       2.584  -1.059   0.201  0.00  0.00    +0.252 C 
ATOM     13  C   UNL     1       2.586   1.059  -0.200  0.00  0.00    +0.252 C 
ENDBRANCH   1   9
BRANCH   4  16
ATOM     14  O   UNL     1      -4.489  -1.038  -0.360  0.00  0.00    -0.126 OA
ATOM     15  O   UNL     1      -4.488   1.037   0.363  0.00  0.00    -0.126 OA
ATOM     16  N   UNL     1      -3.886   0.000   0.001  0.00  0.00    +0.058 N 
ENDBRANCH   4  16
TORSDOF 2
