REMARK  Name = 11362770
REMARK  5 active torsions:
REMARK  status: ('A' for Active; 'I' for Inactive)
REMARK    1  A    between atoms: N_3  and  C_9
REMARK    2  A    between atoms: C_5  and  C_23
REMARK    3  A    between atoms: C_12  and  S_15
REMARK    4  A    between atoms: S_15  and  C_19
REMARK    5  A    between atoms: C_24  and  N_29
REMARK                            x       y       z     vdW  Elec       q    Type
REMARK                         _______ _______ _______ _____ _____    ______ ____
ROOT
ATOM      1  O   UNL     1      -4.480  -1.299   1.409  0.00  0.00    -0.270 OA
ATOM      2  O   UNL     1      -1.762  -1.761   1.045  0.00  0.00    -0.252 OA
ATOM      3  N   UNL     1      -0.810  -0.302  -0.531  0.00  0.00    -0.268 N 
ATOM      4  N   UNL     1      -3.050  -0.148  -0.024  0.00  0.00    -0.236 N 
ATOM      5  C   UNL     1      -4.301  -0.407   0.563  0.00  0.00    +0.254 C 
ATOM      6  C   UNL     1      -1.847  -0.834   0.243  0.00  0.00    +0.310 C 
ATOM      7  H   UNL     1      -1.053   0.443  -1.127  0.00  0.00    +0.156 HD
ATOM      8  H   UNL     1      -3.010   0.581  -0.685  0.00  0.00    +0.159 HD
ENDROOT
BRANCH   3   9
ATOM      9  C   UNL     1       0.545  -0.706  -0.560  0.00  0.00    +0.052 C 
ATOM     10  C   UNL     1       1.430  -0.050  -1.401  0.00  0.00    +0.015 C 
ATOM     11  C   UNL     1       0.960  -1.748   0.253  0.00  0.00    +0.015 C 
ATOM     12  C   UNL     1       3.200  -1.495  -0.616  0.00  0.00    +0.039 C 
ATOM     13  C   UNL     1       2.767  -0.448  -1.429  0.00  0.00    +0.008 C 
ATOM     14  C   UNL     1       2.297  -2.145   0.225  0.00  0.00    +0.008 C 
BRANCH  12  15
ATOM     15  S   UNL     1       4.908  -2.004  -0.653  0.00  0.00    -0.016 S 
BRANCH  15  19
ATOM     16 BR   UNL     1       7.836   3.335   1.126  0.00  0.00    -0.050 Br
ATOM     17  N   UNL     1       5.405  -0.015   1.057  0.00  0.00    -0.209 NA
ATOM     18  N   UNL     1       6.608   0.022  -1.031  0.00  0.00    -0.187 NA
ATOM     19  C   UNL     1       5.731  -0.498  -0.154  0.00  0.00    +0.064 C 
ATOM     20  C   UNL     1       6.047   1.120   1.404  0.00  0.00    +0.171 C 
ATOM     21  C   UNL     1       7.212   1.156  -0.620  0.00  0.00    +0.114 C 
ATOM     22  C   UNL     1       6.969   1.756   0.598  0.00  0.00    +0.057 C 
ENDBRANCH  15  19
ENDBRANCH  12  15
ENDBRANCH   3   9
BRANCH   5  23
ATOM     23  C   UNL     1      -5.405   0.454   0.157  0.00  0.00    +0.067 C 
ATOM     24  C   UNL     1      -6.719  -0.013   0.139  0.00  0.00    +0.046 C 
ATOM     25  C   UNL     1      -5.126   1.768  -0.218  0.00  0.00    +0.006 C 
ATOM     26  C   UNL     1      -7.755   0.835  -0.255  0.00  0.00    +0.014 C 
ATOM     27  C   UNL     1      -6.161   2.616  -0.612  0.00  0.00    +0.000 C 
ATOM     28  C   UNL     1      -7.476   2.150  -0.630  0.00  0.00    +0.001 C 
BRANCH  24  29
ATOM     29  N   UNL     1      -7.024  -1.340   0.514  0.00  0.00    -0.357 N 
ATOM     30  H   UNL     1      -6.303  -1.950   0.794  0.00  0.00    +0.142 HD
ATOM     31  H   UNL     1      -7.956  -1.656   0.496  0.00  0.00    +0.142 HD
ENDBRANCH  24  29
ENDBRANCH   5  23
TORSDOF 5
