REMARK  Name = 11362869
REMARK  3 active torsions:
REMARK  status: ('A' for Active; 'I' for Inactive)
REMARK    1  A    between atoms: C_7  and  C_32
REMARK    2  A    between atoms: C_9  and  N_31
REMARK    3  A    between atoms: C_32  and  C_33
REMARK                            x       y       z     vdW  Elec       q    Type
REMARK                         _______ _______ _______ _____ _____    ______ ____
ROOT
ATOM      1  O   UNL     1       1.954   2.249   1.660  0.00  0.00    -0.273 OA
ATOM      2  O   UNL     1      -1.174   3.701  -0.075  0.00  0.00    -0.273 OA
ATOM      3  O   UNL     1      -3.071  -2.004  -1.205  0.00  0.00    -0.270 OA
ATOM      4  N   UNL     1       1.326   1.267  -0.347  0.00  0.00    -0.297 N 
ATOM      5  N   UNL     1      -1.276  -1.749   0.148  0.00  0.00    -0.255 N 
ATOM      6  N   UNL     1      -1.469   1.393  -0.359  0.00  0.00    -0.282 N 
ATOM      7  C   UNL     1       0.665   2.434  -0.919  0.00  0.00    +0.149 C 
ATOM      8  C   UNL     1       1.810  -1.004   2.019  0.00  0.00    +0.045 C 
ATOM      9  C   UNL     1       2.662  -0.026   1.209  0.00  0.00    +0.242 C 
ATOM     10  C   UNL     1       0.706  -1.586   1.197  0.00  0.00    +0.046 C 
ATOM     11  C   UNL     1       0.794  -2.636   0.239  0.00  0.00    -0.007 C 
ATOM     12  C   UNL     1      -0.458  -2.749  -0.381  0.00  0.00    +0.050 C 
ATOM     13  C   UNL     1       1.957   1.288   0.892  0.00  0.00    +0.250 C 
ATOM     14  C   UNL     1      -0.607  -1.174   1.209  0.00  0.00    +0.103 C 
ATOM     15  C   UNL     1      -0.753   2.582  -0.363  0.00  0.00    +0.244 C 
ATOM     16  C   UNL     1      -2.544  -1.341  -0.318  0.00  0.00    +0.254 C 
ATOM     17  C   UNL     1       1.845  -3.486  -0.171  0.00  0.00    -0.003 C 
ATOM     18  C   UNL     1      -3.287  -0.160   0.183  0.00  0.00    +0.067 C 
ATOM     19  C   UNL     1      -2.769   1.154   0.167  0.00  0.00    +0.055 C 
ATOM     20  C   UNL     1      -0.683  -3.711  -1.385  0.00  0.00    +0.015 C 
ATOM     21  C   UNL     1       1.618  -4.441  -1.163  0.00  0.00    -0.000 C 
ATOM     22  C   UNL     1       0.368  -4.553  -1.758  0.00  0.00    +0.001 C 
ATOM     23  C   UNL     1      -4.576  -0.421   0.672  0.00  0.00    +0.006 C 
ATOM     24  C   UNL     1      -3.572   2.179   0.685  0.00  0.00    +0.015 C 
ATOM     25  C   UNL     1      -5.356   0.615   1.172  0.00  0.00    +0.000 C 
ATOM     26  C   UNL     1      -4.853   1.911   1.182  0.00  0.00    +0.001 C 
ATOM     27  H   UNL     1       1.326   0.427  -0.861  0.00  0.00    +0.150 HD
ATOM     28  H   UNL     1      -1.022   0.618  -0.771  0.00  0.00    +0.155 HD
ENDROOT
BRANCH   9  31
ATOM     29  O   UNL     1       4.963   0.033   1.558  0.00  0.00    -0.131 OA
ATOM     30  O   UNL     1       3.647   0.858   3.121  0.00  0.00    -0.131 OA
ATOM     31  N   UNL     1       3.850   0.309   2.029  0.00  0.00    +0.041 N 
ENDBRANCH   9  31
BRANCH   7  32
ATOM     32  C   UNL     1       0.631   2.348  -2.440  0.00  0.00    +0.029 C 
BRANCH  32  33
ATOM     33  C   UNL     1       2.027   2.276  -3.082  0.00  0.00    +0.002 C 
ATOM     34  C   UNL     1       2.905   3.470  -2.704  0.00  0.00    +0.000 C 
ATOM     35  C   UNL     1       2.720   0.974  -2.673  0.00  0.00    +0.000 C 
ENDBRANCH  32  33
ENDBRANCH   7  32
TORSDOF 3
