REMARK  Name = 11374516
REMARK  4 active torsions:
REMARK  status: ('A' for Active; 'I' for Inactive)
REMARK    1  A    between atoms: C_7  and  S_17
REMARK    2  A    between atoms: C_9  and  S_21
REMARK    3  A    between atoms: C_10  and  S_25
REMARK    4  A    between atoms: C_11  and  N_29
REMARK                            x       y       z     vdW  Elec       q    Type
REMARK                         _______ _______ _______ _____ _____    ______ ____
ROOT
ATOM      1  C   UNL     1      -0.701   0.016   0.040  0.00  0.00    +0.003 C 
ATOM      2  C   UNL     1       0.387   0.925   0.034  0.00  0.00    +0.003 C 
ATOM      3  C   UNL     1       1.715   0.440   0.040  0.00  0.00    +0.019 C 
ATOM      4  C   UNL     1      -0.457  -1.377   0.053  0.00  0.00    +0.018 C 
ATOM      5  C   UNL     1      -2.029   0.502   0.034  0.00  0.00    +0.019 C 
ATOM      6  C   UNL     1       0.142   2.318   0.021  0.00  0.00    +0.013 C 
ATOM      7  C   UNL     1       0.866  -1.840   0.059  0.00  0.00    +0.112 C 
ATOM      8  C   UNL     1       1.937  -0.944   0.053  0.00  0.00    +0.020 C 
ATOM      9  C   UNL     1       2.780   1.353   0.034  0.00  0.00    +0.112 C 
ATOM     10  C   UNL     1      -3.094  -0.410   0.040  0.00  0.00    +0.112 C 
ATOM     11  C   UNL     1      -1.180   2.782   0.015  0.00  0.00    +0.042 C 
ATOM     12  C   UNL     1      -2.251   1.886   0.021  0.00  0.00    +0.015 C 
ATOM     13  C   UNL     1      -1.544  -2.264   0.059  0.00  0.00    +0.003 C 
ATOM     14  C   UNL     1       1.228   3.205   0.015  0.00  0.00    +0.003 C 
ATOM     15  C   UNL     1      -2.852  -1.782   0.053  0.00  0.00    +0.019 C 
ATOM     16  C   UNL     1       2.537   2.725   0.021  0.00  0.00    +0.019 C 
ENDROOT
BRANCH   7  17
ATOM     17  S   UNL     1       1.274  -3.550   0.080  0.00  0.00    +0.042 S 
ATOM     18  O   UNL     1       0.851  -4.098  -1.398  0.00  0.00    -0.065 OA
ATOM     19  O   UNL     1       2.719  -3.654   0.181  0.00  0.00    -0.065 OA
ATOM     20  O   UNL     1       0.406  -4.169   1.065  0.00  0.00    -0.065 OA
ENDBRANCH   7  17
BRANCH   9  21
ATOM     21  S   UNL     1       4.465   0.855   0.041  0.00  0.00    +0.042 S 
ATOM     22  O   UNL     1       4.716   0.206  -1.435  0.00  0.00    -0.065 OA
ATOM     23  O   UNL     1       5.276   2.057   0.127  0.00  0.00    -0.065 OA
ATOM     24  O   UNL     1       4.580  -0.200   1.031  0.00  0.00    -0.065 OA
ENDBRANCH   9  21
BRANCH  10  25
ATOM     25  S   UNL     1      -4.779   0.088   0.032  0.00  0.00    +0.042 S 
ATOM     26  O   UNL     1      -5.024   0.711  -1.457  0.00  0.00    -0.065 OA
ATOM     27  O   UNL     1      -5.591  -1.111   0.136  0.00  0.00    -0.065 OA
ATOM     28  O   UNL     1      -4.897   1.161   1.002  0.00  0.00    -0.065 OA
ENDBRANCH  10  25
BRANCH  11  29
ATOM     29  N   UNL     1      -1.480   4.167   0.002  0.00  0.00    -0.357 N 
ATOM     30  H   UNL     1      -0.751   4.828  -0.002  0.00  0.00    +0.142 HD
ATOM     31  H   UNL     1      -2.418   4.467  -0.002  0.00  0.00    +0.142 HD
ENDBRANCH  11  29
TORSDOF 4
