REMARK  Name = 11375385
REMARK  9 active torsions:
REMARK  status: ('A' for Active; 'I' for Inactive)
REMARK    1  A    between atoms: C_5  and  C_28
REMARK    2  A    between atoms: C_8  and  O_21
REMARK    3  A    between atoms: C_9  and  O_23
REMARK    4  A    between atoms: C_15  and  O_25
REMARK    5  A    between atoms: C_19  and  O_34
REMARK    6  A    between atoms: C_19  and  C_36
REMARK    7  A    between atoms: C_28  and  C_29
REMARK    8  A    between atoms: C_30  and  C_31
REMARK    9  A    between atoms: C_37  and  C_38
REMARK                            x       y       z     vdW  Elec       q    Type
REMARK                         _______ _______ _______ _____ _____    ______ ____
ROOT
ATOM      1  O   UNL     1      -1.403   3.567  -0.081  0.00  0.00    -0.293 OA
ATOM      2  O   UNL     1       0.632   0.929  -2.857  0.00  0.00    -0.291 OA
ATOM      3  O   UNL     1      -2.415  -1.371  -1.499  0.00  0.00    -0.291 OA
ATOM      4  C   UNL     1      -0.099   0.019   1.097  0.00  0.00    +0.053 C 
ATOM      5  C   UNL     1      -1.232   0.137  -0.001  0.00  0.00    +0.126 C 
ATOM      6  C   UNL     1      -0.890   1.342  -0.972  0.00  0.00    +0.122 C 
ATOM      7  C   UNL     1       1.077   1.016   0.760  0.00  0.00    +0.063 C 
ATOM      8  C   UNL     1       0.558   2.487   0.838  0.00  0.00    +0.143 C 
ATOM      9  C   UNL     1       0.339  -1.448   1.388  0.00  0.00    +0.139 C 
ATOM     10  C   UNL     1      -0.659   2.590  -0.084  0.00  0.00    +0.182 C 
ATOM     11  C   UNL     1       1.551   0.753  -0.651  0.00  0.00    +0.049 C 
ATOM     12  C   UNL     1       0.458   0.999  -1.647  0.00  0.00    +0.179 C 
ATOM     13  C   UNL     1      -1.389  -1.147  -0.852  0.00  0.00    +0.179 C 
ATOM     14  C   UNL     1      -1.952   1.645  -2.034  0.00  0.00    +0.016 C 
ATOM     15  C   UNL     1       0.548  -2.234   0.118  0.00  0.00    +0.134 C 
ATOM     16  C   UNL     1      -0.257  -2.113  -0.947  0.00  0.00    +0.045 C 
ATOM     17  C   UNL     1       1.605   3.524   0.423  0.00  0.00    +0.037 C 
ATOM     18  C   UNL     1      -0.710  -2.166   2.260  0.00  0.00    +0.037 C 
ATOM     19  C   UNL     1       2.772   0.363  -1.026  0.00  0.00    +0.132 C 
ATOM     20  C   UNL     1      -0.146  -2.907  -2.212  0.00  0.00    +0.037 C 
ENDROOT
BRANCH   8  21
ATOM     21  O   UNL     1       0.166   2.829   2.160  0.00  0.00    -0.379 OA
ATOM     22  H   UNL     1      -0.501   2.199   2.473  0.00  0.00    +0.211 HD
ENDBRANCH   8  21
BRANCH   9  23
ATOM     23  O   UNL     1       1.557  -1.400   2.142  0.00  0.00    -0.380 OA
ATOM     24  H   UNL     1       2.242  -0.952   1.621  0.00  0.00    +0.211 HD
ENDBRANCH   9  23
BRANCH  15  25
ATOM     25  O   UNL     1       1.599  -3.133   0.101  0.00  0.00    -0.508 OA
ATOM     26  H   UNL     1       2.159  -3.214   0.848  0.00  0.00    +0.292 HD
ENDBRANCH  15  25
BRANCH   5  28
ATOM     27  O   UNL     1      -2.644   1.423   1.448  0.00  0.00    -0.291 OA
ATOM     28  C   UNL     1      -2.537   0.444   0.713  0.00  0.00    +0.180 C 
BRANCH  28  29
ATOM     29  C   UNL     1      -3.657  -0.514   0.499  0.00  0.00    +0.038 C 
ATOM     30  C   UNL     1      -4.929  -0.096   0.543  0.00  0.00    +0.003 C 
BRANCH  30  31
ATOM     31  C   UNL     1      -6.051  -0.986   0.341  0.00  0.00    -0.004 C 
ATOM     32  C   UNL     1      -7.328  -0.579   0.383  0.00  0.00    -0.026 C 
ATOM     33  C   UNL     1      -8.494  -1.489   0.177  0.00  0.00    +0.031 C 
ENDBRANCH  30  31
ENDBRANCH  28  29
ENDBRANCH   5  28
BRANCH  19  34
ATOM     34  O   UNL     1       3.102   0.164  -2.354  0.00  0.00    -0.506 OA
ATOM     35  H   UNL     1       2.459   0.302  -3.022  0.00  0.00    +0.292 HD
ENDBRANCH  19  34
BRANCH  19  36
ATOM     36  C   UNL     1       3.843   0.121  -0.073  0.00  0.00    +0.036 C 
ATOM     37  C   UNL     1       5.090  -0.271  -0.380  0.00  0.00    +0.003 C 
BRANCH  37  38
ATOM     38  C   UNL     1       6.112  -0.494   0.619  0.00  0.00    -0.004 C 
ATOM     39  C   UNL     1       7.359  -0.886   0.319  0.00  0.00    -0.026 C 
ATOM     40  C   UNL     1       8.423  -1.119   1.341  0.00  0.00    +0.031 C 
ENDBRANCH  37  38
ENDBRANCH  19  36
TORSDOF 9
