REMARK  Name = 11374461
REMARK  4 active torsions:
REMARK  status: ('A' for Active; 'I' for Inactive)
REMARK    1  A    between atoms: C_9  and  O_31
REMARK    2  A    between atoms: C_10  and  O_29
REMARK    3  A    between atoms: C_18  and  O_33
REMARK    4  A    between atoms: C_26  and  O_35
REMARK                            x       y       z     vdW  Elec       q    Type
REMARK                         _______ _______ _______ _____ _____    ______ ____
ROOT
ATOM      1  O   UNL     1       4.413  -0.921   1.114  0.00  0.00    -0.328 OA
ATOM      2  O   UNL     1       3.966   1.024  -1.138  0.00  0.00    -0.440 OA
ATOM      3  O   UNL     1       1.536   2.117  -0.799  0.00  0.00    -0.287 OA
ATOM      4  O   UNL     1       1.888  -3.223  -0.248  0.00  0.00    -0.289 OA
ATOM      5  O   UNL     1       5.574   2.587  -0.669  0.00  0.00    -0.250 OA
ATOM      6  O   UNL     1      -6.709   0.184   0.286  0.00  0.00    -0.270 OA
ATOM      7  N   UNL     1      -5.102   1.890  -0.002  0.00  0.00    -0.270 N 
ATOM      8  C   UNL     1       3.006   0.253  -0.398  0.00  0.00    +0.268 C 
ATOM      9  C   UNL     1       3.063  -1.199  -0.813  0.00  0.00    +0.215 C 
ATOM     10  C   UNL     1       3.554   0.230   1.022  0.00  0.00    +0.242 C 
ATOM     11  C   UNL     1       4.317  -1.681  -0.100  0.00  0.00    +0.183 C 
ATOM     12  C   UNL     1       4.372   1.500   1.128  0.00  0.00    +0.170 C 
ATOM     13  C   UNL     1       1.650   0.917  -0.565  0.00  0.00    +0.220 C 
ATOM     14  C   UNL     1       1.836  -2.008  -0.421  0.00  0.00    +0.204 C 
ATOM     15  C   UNL     1       0.442   0.077  -0.410  0.00  0.00    +0.075 C 
ATOM     16  C   UNL     1       4.732   1.782  -0.299  0.00  0.00    +0.323 C 
ATOM     17  C   UNL     1       0.533  -1.310  -0.322  0.00  0.00    +0.043 C 
ATOM     18  C   UNL     1      -0.810   0.702  -0.335  0.00  0.00    +0.136 C 
ATOM     19  C   UNL     1      -0.631  -2.074  -0.147  0.00  0.00    +0.003 C 
ATOM     20  C   UNL     1      -1.984  -0.055  -0.163  0.00  0.00    +0.032 C 
ATOM     21  C   UNL     1      -1.895  -1.466  -0.066  0.00  0.00    +0.006 C 
ATOM     22  C   UNL     1      -3.254   0.521  -0.081  0.00  0.00    +0.008 C 
ATOM     23  C   UNL     1      -4.388  -0.276   0.092  0.00  0.00    +0.085 C 
ATOM     24  C   UNL     1      -3.654   1.962  -0.150  0.00  0.00    +0.121 C 
ATOM     25  C   UNL     1      -3.067  -2.240   0.109  0.00  0.00    +0.037 C 
ATOM     26  C   UNL     1      -4.329  -1.649   0.189  0.00  0.00    +0.138 C 
ATOM     27  C   UNL     1      -5.571   0.591   0.143  0.00  0.00    +0.252 C 
ATOM     28  C   UNL     1      -5.921   3.082  -0.013  0.00  0.00    +0.116 C 
ENDROOT
BRANCH  10  29
ATOM     29  O   UNL     1       2.531   0.167   2.000  0.00  0.00    -0.328 OA
ATOM     30  C   UNL     1       3.061   0.208   3.320  0.00  0.00    +0.177 C 
ENDBRANCH  10  29
BRANCH   9  31
ATOM     31  O   UNL     1       3.177  -1.344  -2.217  0.00  0.00    -0.374 OA
ATOM     32  H   UNL     1       3.948  -0.847  -2.532  0.00  0.00    +0.211 HD
ENDBRANCH   9  31
BRANCH  18  33
ATOM     33  O   UNL     1      -0.898   2.064  -0.406  0.00  0.00    -0.505 OA
ATOM     34  H   UNL     1      -0.123   2.578  -0.520  0.00  0.00    +0.292 HD
ENDBRANCH  18  33
BRANCH  26  35
ATOM     35  O   UNL     1      -5.435  -2.413   0.356  0.00  0.00    -0.505 OA
ATOM     36  H   UNL     1      -6.280  -2.010   0.410  0.00  0.00    +0.292 HD
ENDBRANCH  26  35
TORSDOF 4
