REMARK  Name = 11372270
REMARK  6 active torsions:
REMARK  status: ('A' for Active; 'I' for Inactive)
REMARK    1  A    between atoms: C_1  and  C_7
REMARK    2  A    between atoms: C_4  and  O_17
REMARK    3  A    between atoms: C_7  and  C_11
REMARK    4  A    between atoms: N_10  and  S_13
REMARK    5  A    between atoms: O_17  and  S_18
REMARK    6  A    between atoms: S_18  and  C_24
REMARK                            x       y       z     vdW  Elec       q    Type
REMARK                         _______ _______ _______ _____ _____    ______ ____
ROOT
ATOM      1  C   UNL     1       1.105  -1.263   0.421  0.00  0.00    -0.014 C 
ATOM      2  C   UNL     1       0.518  -1.079   1.659  0.00  0.00    -0.001 C 
ATOM      3  C   UNL     1       0.409  -1.048  -0.754  0.00  0.00    -0.001 C 
ATOM      4  C   UNL     1      -1.532  -0.442   0.551  0.00  0.00    +0.172 C 
ATOM      5  C   UNL     1      -0.812  -0.665   1.724  0.00  0.00    +0.039 C 
ATOM      6  C   UNL     1      -0.922  -0.633  -0.689  0.00  0.00    +0.039 C 
ENDROOT
BRANCH   1   7
ATOM      7  C   UNL     1       2.550  -1.715   0.349  0.00  0.00    +0.100 C 
ATOM      8  C   UNL     1       2.685  -3.075  -0.339  0.00  0.00    +0.014 C 
BRANCH   7  11
ATOM      9  O   UNL     1       3.631  -0.646  -1.540  0.00  0.00    -0.273 OA
ATOM     10  N   UNL     1       3.938   0.320   0.575  0.00  0.00    -0.188 N 
ATOM     11  C   UNL     1       3.417  -0.662  -0.333  0.00  0.00    +0.244 C 
ATOM     12  H   UNL     1       3.698   0.230   1.525  0.00  0.00    +0.176 HD
BRANCH  10  13
ATOM     13  S   UNL     1       4.941   1.631   0.138  0.00  0.00    +0.058 S 
ATOM     14  O   UNL     1       5.406   2.322   1.324  0.00  0.00    -0.154 OA
ATOM     15  O   UNL     1       4.312   2.356  -0.949  0.00  0.00    -0.154 OA
ATOM     16  C   UNL     1       6.313   0.732  -0.544  0.00  0.00    +0.200 C 
ENDBRANCH  10  13
ENDBRANCH   7  11
ENDBRANCH   1   7
BRANCH   4  17
ATOM     17  O   UNL     1      -2.830  -0.036   0.616  0.00  0.00    -0.355 OA
BRANCH  17  18
ATOM     18  S   UNL     1      -3.747   0.248  -0.711  0.00  0.00    +0.118 S 
ATOM     19  O   UNL     1      -4.009  -1.001  -1.397  0.00  0.00    -0.054 OA
ATOM     20  O   UNL     1      -3.252   1.423  -1.401  0.00  0.00    -0.054 OA
BRANCH  18  24
ATOM     21  F   UNL     1      -5.752  -0.336   0.823  0.00  0.00    -0.149 F 
ATOM     22  F   UNL     1      -4.985   1.696   1.044  0.00  0.00    -0.149 F 
ATOM     23  F   UNL     1      -6.166   1.161  -0.711  0.00  0.00    -0.149 F 
ATOM     24  C   UNL     1      -5.218   0.709   0.145  0.00  0.00    +0.534 C 
ENDBRANCH  18  24
ENDBRANCH  17  18
ENDBRANCH   4  17
TORSDOF 6
