REMARK  Name = 11386137
REMARK  9 active torsions:
REMARK  status: ('A' for Active; 'I' for Inactive)
REMARK    1  A    between atoms: C_1  and  O_2
REMARK    2  A    between atoms: C_1  and  C_11
REMARK    3  A    between atoms: C_1  and  C_20
REMARK    4  A    between atoms: O_2  and  C_6
REMARK    5  A    between atoms: C_7  and  C_10
REMARK    6  A    between atoms: C_11  and  N_14
REMARK    7  A    between atoms: C_20  and  O_21
REMARK    8  A    between atoms: O_21  and  C_25
REMARK    9  A    between atoms: C_22  and  C_28
REMARK                            x       y       z     vdW  Elec       q    Type
REMARK                         _______ _______ _______ _____ _____    ______ ____
ROOT
ATOM      1  C   UNL     1      -1.864  -0.430  -0.445  0.00  0.00    +0.234 C 
ENDROOT
BRANCH   1   2
ATOM      2  O   UNL     1      -1.574   0.891   0.026  0.00  0.00    -0.432 OA
BRANCH   2   6
ATOM      3  O   UNL     1      -0.826   1.583  -2.033  0.00  0.00    -0.226 OA
ATOM      4  O   UNL     1       1.038   3.679  -1.783  0.00  0.00    -0.274 OA
ATOM      5  N   UNL     1      -0.069   2.562  -0.061  0.00  0.00    -0.220 N 
ATOM      6  C   UNL     1      -0.823   1.670  -0.809  0.00  0.00    +0.407 C 
ATOM      7  C   UNL     1       0.810   3.507  -0.588  0.00  0.00    +0.242 C 
ATOM      8  H   UNL     1      -0.162   2.526   0.919  0.00  0.00    +0.161 HD
BRANCH   7  10
ATOM      9 BR   UNL     1       3.120   3.446   0.942  0.00  0.00    -0.070 Br
ATOM     10  C   UNL     1       1.467   4.345   0.476  0.00  0.00    +0.153 C 
ENDBRANCH   7  10
ENDBRANCH   2   6
ENDBRANCH   1   2
BRANCH   1  11
ATOM     11  C   UNL     1      -2.698  -1.151   0.615  0.00  0.00    +0.146 C 
BRANCH  11  14
ATOM     12  O   UNL     1      -6.473  -2.155  -0.939  0.00  0.00    -0.123 OA
ATOM     13  O   UNL     1      -4.381  -1.898  -1.567  0.00  0.00    -0.123 OA
ATOM     14  N   UNL     1      -3.968  -0.474   0.880  0.00  0.00    -0.247 N 
ATOM     15  N   UNL     1      -6.092   0.086   0.713  0.00  0.00    -0.207 NA
ATOM     16  N   UNL     1      -5.340  -1.615  -0.793  0.00  0.00    +0.091 N 
ATOM     17  C   UNL     1      -5.143  -0.691   0.240  0.00  0.00    +0.284 C 
ATOM     18  C   UNL     1      -4.153   0.489   1.815  0.00  0.00    +0.089 C 
ATOM     19  C   UNL     1      -5.481   0.824   1.696  0.00  0.00    +0.118 C 
ENDBRANCH  11  14
ENDBRANCH   1  11
BRANCH   1  20
ATOM     20  C   UNL     1      -0.544  -1.155  -0.688  0.00  0.00    +0.250 C 
BRANCH  20  21
ATOM     21  O   UNL     1       0.203  -1.171   0.523  0.00  0.00    -0.472 OA
BRANCH  21  25
ATOM     22  C   UNL     1       4.338  -1.237   0.169  0.00  0.00    -0.023 C 
ATOM     23  C   UNL     1       3.742  -0.626   1.272  0.00  0.00    -0.001 C 
ATOM     24  C   UNL     1       3.544  -1.826  -0.815  0.00  0.00    -0.001 C 
ATOM     25  C   UNL     1       1.567  -1.193   0.406  0.00  0.00    +0.139 C 
ATOM     26  C   UNL     1       2.352  -0.604   1.391  0.00  0.00    +0.037 C 
ATOM     27  C   UNL     1       2.155  -1.804  -0.697  0.00  0.00    +0.037 C 
BRANCH  22  28
ATOM     28  C   UNL     1       5.824  -1.261   0.042  0.00  0.00    +0.019 C 
ATOM     29  C   UNL     1       6.377  -1.972  -1.237  0.00  0.00    +0.004 C 
ATOM     30  C   UNL     1       6.411   0.184   0.001  0.00  0.00    +0.004 C 
ATOM     31  C   UNL     1       6.482  -2.002   1.247  0.00  0.00    +0.004 C 
ENDBRANCH  22  28
ENDBRANCH  21  25
ENDBRANCH  20  21
ENDBRANCH   1  20
TORSDOF 9
