11396751
  -OEChem-03292013303D

 71 73  0     1  0  0  0  0  0999 V2000
    1.3749   -3.1448   -1.2089 O   0  0  0  0  0  0  0  0  0  0  0  0
    1.2530   -0.6712   -2.6070 O   0  0  0  0  0  0  0  0  0  0  0  0
   -0.1210    1.7436   -1.2895 O   0  0  0  0  0  0  0  0  0  0  0  0
   -3.0104    2.6169    1.5582 O   0  0  0  0  0  0  0  0  0  0  0  0
   -4.2126    2.1472   -1.1277 O   0  0  0  0  0  0  0  0  0  0  0  0
   -5.1497    0.8182    1.0220 O   0  0  0  0  0  0  0  0  0  0  0  0
    2.8698    0.2345   -1.2018 N   0  0  0  0  0  0  0  0  0  0  0  0
    0.7663   -0.2512   -0.2218 C   0  0  2  0  0  0  0  0  0  0  0  0
    1.8604   -0.1088    0.8873 C   0  0  2  0  0  0  0  0  0  0  0  0
   -0.0658   -1.5485    0.0131 C   0  0  2  0  0  0  0  0  0  0  0  0
    3.0174    0.6265    0.1755 C   0  0  2  0  0  0  0  0  0  0  0  0
    2.3711   -1.4370    1.4740 C   0  0  0  0  0  0  0  0  0  0  0  0
    0.8164   -2.8100    0.0552 C   0  0  2  0  0  0  0  0  0  0  0  0
    1.6248   -0.2994   -1.5031 C   0  0  0  0  0  0  0  0  0  0  0  0
   -0.1524    1.0077   -0.2966 C   0  0  0  0  0  0  0  0  0  0  0  0
    1.9446   -2.6515    1.0536 C   0  0  0  0  0  0  0  0  0  0  0  0
    2.9703    2.1417    0.3355 C   0  0  0  0  0  0  0  0  0  0  0  0
   -1.2766   -1.6541   -0.8894 C   0  0  0  0  0  0  0  0  0  0  0  0
   -1.0719    1.3498    0.8682 C   0  0  0  0  0  0  0  0  0  0  0  0
    4.1659    2.8638   -0.3078 C   0  0  0  0  0  0  0  0  0  0  0  0
    3.3791   -1.2761    2.5888 C   0  0  0  0  0  0  0  0  0  0  0  0
    2.5123   -3.9612    1.5411 C   0  0  0  0  0  0  0  0  0  0  0  0
   -2.3297    2.1165    0.4080 C   0  0  1  0  0  0  0  0  0  0  0  0
   -2.4782   -2.1651   -0.5489 C   0  0  0  0  0  0  0  0  0  0  0  0
   -3.2853    1.2747   -0.4747 C   0  0  1  0  0  0  0  0  0  0  0  0
   -3.6984   -1.7937   -1.3691 C   0  0  0  0  0  0  0  0  0  0  0  0
    5.5067    2.3801    0.2466 C   0  0  0  0  0  0  0  0  0  0  0  0
    4.1331    2.6685   -1.8254 C   0  0  0  0  0  0  0  0  0  0  0  0
   -4.0881    0.2034    0.2859 C   0  0  2  0  0  0  0  0  0  0  0  0
   -4.6996   -0.8970   -0.6079 C   0  0  0  0  0  0  0  0  0  0  0  0
   -2.7426   -3.0197    0.6621 C   0  0  0  0  0  0  0  0  0  0  0  0
   -2.1839    3.4964    2.3047 C   0  0  0  0  0  0  0  0  0  0  0  0
    1.4787    0.4835    1.7281 H   0  0  0  0  0  0  0  0  0  0  0  0
   -0.4715   -1.4477    1.0314 H   0  0  0  0  0  0  0  0  0  0  0  0
    3.9870    0.2494    0.5081 H   0  0  0  0  0  0  0  0  0  0  0  0
    0.2008   -3.6631    0.3643 H   0  0  0  0  0  0  0  0  0  0  0  0
    3.6241    0.2144   -1.8775 H   0  0  0  0  0  0  0  0  0  0  0  0
    2.0469    2.5609   -0.0765 H   0  0  0  0  0  0  0  0  0  0  0  0
    2.9634    2.3814    1.4068 H   0  0  0  0  0  0  0  0  0  0  0  0
   -1.2131   -1.0988   -1.8230 H   0  0  0  0  0  0  0  0  0  0  0  0
   -1.3629    0.4546    1.4198 H   0  0  0  0  0  0  0  0  0  0  0  0
   -0.4474    1.9358    1.5480 H   0  0  0  0  0  0  0  0  0  0  0  0
    4.0605    3.9339   -0.0895 H   0  0  0  0  0  0  0  0  0  0  0  0
    3.2279   -0.3275    3.1157 H   0  0  0  0  0  0  0  0  0  0  0  0
    4.3992   -1.2897    2.1933 H   0  0  0  0  0  0  0  0  0  0  0  0
    3.2831   -2.0591    3.3472 H   0  0  0  0  0  0  0  0  0  0  0  0
    1.7911   -4.4648    2.1926 H   0  0  0  0  0  0  0  0  0  0  0  0
    3.4511   -3.8501    2.0895 H   0  0  0  0  0  0  0  0  0  0  0  0
    2.7276   -4.6196    0.6925 H   0  0  0  0  0  0  0  0  0  0  0  0
   -2.0256    2.9871   -0.1895 H   0  0  0  0  0  0  0  0  0  0  0  0
    0.6397   -3.3066   -1.8240 H   0  0  0  0  0  0  0  0  0  0  0  0
   -2.7009    0.8103   -1.2724 H   0  0  0  0  0  0  0  0  0  0  0  0
   -3.4018   -1.2724   -2.2881 H   0  0  0  0  0  0  0  0  0  0  0  0
   -4.2074   -2.7071   -1.7003 H   0  0  0  0  0  0  0  0  0  0  0  0
    6.3142    3.0300   -0.1090 H   0  0  0  0  0  0  0  0  0  0  0  0
    5.5117    2.4152    1.3410 H   0  0  0  0  0  0  0  0  0  0  0  0
    5.7545    1.3618   -0.0679 H   0  0  0  0  0  0  0  0  0  0  0  0
    3.1172    2.6700   -2.2326 H   0  0  0  0  0  0  0  0  0  0  0  0
    4.6492    3.5169   -2.2935 H   0  0  0  0  0  0  0  0  0  0  0  0
    4.6853    1.7888   -2.1639 H   0  0  0  0  0  0  0  0  0  0  0  0
   -3.4496   -0.2720    1.0340 H   0  0  0  0  0  0  0  0  0  0  0  0
   -5.3969   -0.4462   -1.3258 H   0  0  0  0  0  0  0  0  0  0  0  0
   -5.3291   -1.5368    0.0257 H   0  0  0  0  0  0  0  0  0  0  0  0
   -1.8421   -3.2455    1.2370 H   0  0  0  0  0  0  0  0  0  0  0  0
   -3.1722   -3.9772    0.3483 H   0  0  0  0  0  0  0  0  0  0  0  0
   -3.4486   -2.5404    1.3456 H   0  0  0  0  0  0  0  0  0  0  0  0
   -3.6986    2.7749   -1.6637 H   0  0  0  0  0  0  0  0  0  0  0  0
   -4.7525    1.4755    1.6178 H   0  0  0  0  0  0  0  0  0  0  0  0
   -1.5706    4.1429    1.6685 H   0  0  0  0  0  0  0  0  0  0  0  0
   -1.5667    2.9398    3.0157 H   0  0  0  0  0  0  0  0  0  0  0  0
   -2.8411    4.1408    2.8970 H   0  0  0  0  0  0  0  0  0  0  0  0
  1 13  1  0  0  0  0
  1 51  1  0  0  0  0
  2 14  2  0  0  0  0
  3 15  2  0  0  0  0
  4 23  1  0  0  0  0
  4 32  1  0  0  0  0
  5 25  1  0  0  0  0
  5 67  1  0  0  0  0
  6 29  1  0  0  0  0
  6 68  1  0  0  0  0
  7 11  1  0  0  0  0
  7 14  1  0  0  0  0
  7 37  1  0  0  0  0
  8  9  1  0  0  0  0
  8 10  1  0  0  0  0
  8 14  1  0  0  0  0
  8 15  1  0  0  0  0
  9 11  1  0  0  0  0
  9 12  1  0  0  0  0
  9 33  1  0  0  0  0
 10 13  1  0  0  0  0
 10 18  1  0  0  0  0
 10 34  1  0  0  0  0
 11 17  1  0  0  0  0
 11 35  1  0  0  0  0
 12 16  2  0  0  0  0
 12 21  1  0  0  0  0
 13 16  1  0  0  0  0
 13 36  1  0  0  0  0
 15 19  1  0  0  0  0
 16 22  1  0  0  0  0
 17 20  1  0  0  0  0
 17 38  1  0  0  0  0
 17 39  1  0  0  0  0
 18 24  2  0  0  0  0
 18 40  1  0  0  0  0
 19 23  1  0  0  0  0
 19 41  1  0  0  0  0
 19 42  1  0  0  0  0
 20 27  1  0  0  0  0
 20 28  1  0  0  0  0
 20 43  1  0  0  0  0
 21 44  1  0  0  0  0
 21 45  1  0  0  0  0
 21 46  1  0  0  0  0
 22 47  1  0  0  0  0
 22 48  1  0  0  0  0
 22 49  1  0  0  0  0
 23 25  1  0  0  0  0
 23 50  1  0  0  0  0
 24 26  1  0  0  0  0
 24 31  1  0  0  0  0
 25 29  1  0  0  0  0
 25 52  1  0  0  0  0
 26 30  1  0  0  0  0
 26 53  1  0  0  0  0
 26 54  1  0  0  0  0
 27 55  1  0  0  0  0
 27 56  1  0  0  0  0
 27 57  1  0  0  0  0
 28 58  1  0  0  0  0
 28 59  1  0  0  0  0
 28 60  1  0  0  0  0
 29 30  1  0  0  0  0
 29 61  1  0  0  0  0
 30 62  1  0  0  0  0
 30 63  1  0  0  0  0
 31 64  1  0  0  0  0
 31 65  1  0  0  0  0
 31 66  1  0  0  0  0
 32 69  1  0  0  0  0
 32 70  1  0  0  0  0
 32 71  1  0  0  0  0
M  END
> <PUBCHEM_COMPOUND_CID>
11396751

> <PUBCHEM_CONFORMER_RMSD>
0.8

> <PUBCHEM_CONFORMER_DIVERSEORDER>
1
7
10
6
4
9
8
2
5
3

> <PUBCHEM_MMFF94_PARTIAL_CHARGES>
32
1 -0.68
10 0.14
11 0.3
12 -0.28
13 0.42
14 0.57
15 0.45
16 -0.28
18 -0.29
19 0.06
2 -0.57
21 0.14
22 0.14
23 0.28
24 -0.28
25 0.28
26 0.14
29 0.28
3 -0.57
31 0.14
32 0.28
37 0.37
4 -0.56
40 0.15
5 -0.68
51 0.4
6 -0.68
67 0.4
68 0.4
7 -0.73
8 0.12
9 0.14

> <PUBCHEM_EFFECTIVE_ROTOR_COUNT>
4.8

> <PUBCHEM_PHARMACOPHORE_FEATURES>
13
1 1 acceptor
1 1 donor
1 2 acceptor
1 3 acceptor
1 4 acceptor
1 5 acceptor
1 5 donor
1 6 acceptor
1 6 donor
1 7 donor
3 20 27 28 hydrophobe
5 7 8 9 11 14 rings
6 8 9 10 12 13 16 rings

> <PUBCHEM_HEAVY_ATOM_COUNT>
32

> <PUBCHEM_ATOM_DEF_STEREO_COUNT>
5

> <PUBCHEM_ATOM_UDEF_STEREO_COUNT>
3

> <PUBCHEM_BOND_DEF_STEREO_COUNT>
1

> <PUBCHEM_BOND_UDEF_STEREO_COUNT>
0

> <PUBCHEM_ISOTOPIC_ATOM_COUNT>
0

> <PUBCHEM_COMPONENT_COUNT>
1

> <PUBCHEM_CACTVS_TAUTO_COUNT>
4

> <PUBCHEM_CONFORMER_ID>
00ADE68F00000001

> <PUBCHEM_MMFF94_ENERGY>
100.4204

> <PUBCHEM_FEATURE_SELFOVERLAP>
66.253

> <PUBCHEM_SHAPE_FINGERPRINT>
10759866 29 18408599271005671099
10764073 3 16692715452436960258
11007060 377 18118973739955022112
12293681 4 17616823566518033266
12422481 6 17751050606027957480
12553582 1 18201717354210781217
12788726 201 18202565081849782641
13140716 1 18121225548046554617
13224815 77 18200593588691603563
13583140 156 17823705157485830683
14081887 123 17987784246980596971
14739800 52 18198041772490897064
14787075 74 18198902711290791117
14790565 3 18116992385172039324
15297060 5 17845950596534381544
20715895 44 17903901272569616797
20739085 24 17821718447438552206
21421861 104 18408886204880852307
21796203 349 17543667160731565482
23558518 356 18338253651253669156
23559900 14 17916588609407122455
283562 15 18194122038785153467
350125 39 18335975442013148040
392239 28 18120944068284273067
394222 165 17387674227892742626
469060 322 17753633505002412483
5895379 119 17986394386493927418
59755656 520 18190457345904499748
6034566 193 16518796232279385044
7226269 152 17979354484630651888
9981440 41 18189051052571866698

> <PUBCHEM_SHAPE_MULTIPOLES>
618.35
9.06
4.67
1.96
1.46
1.1
0.22
-5.46
-0.15
-1.16
1.61
-0.75
-0.18
-2.8

> <PUBCHEM_SHAPE_SELFOVERLAP>
1282.885

> <PUBCHEM_SHAPE_VOLUME>
349.9

> <PUBCHEM_COORDINATE_TYPE>
2
5
10

$$$$
