11393587
  -OEChem-03292013303D

 39 40  0     0  0  0  0  0  0999 V2000
    5.7096   -0.8247   -2.2339 O   0  0  0  0  0  0  0  0  0  0  0  0
   -5.8418    0.4389   -1.8824 O   0  0  0  0  0  0  0  0  0  0  0  0
    7.2317   -0.4825    0.0663 O   0  0  0  0  0  0  0  0  0  0  0  0
   -7.0152   -1.0486    0.1512 O   0  0  0  0  0  0  0  0  0  0  0  0
   -0.4700    2.6639   -1.0166 O   0  0  0  0  0  0  0  0  0  0  0  0
    1.3092    1.6854    0.1491 N   0  0  0  0  0  0  0  0  0  0  0  0
   -1.8324    2.2084    1.7976 N   0  0  0  0  0  0  0  0  0  0  0  0
    3.1039   -0.5861    0.3014 C   0  0  0  0  0  0  0  0  0  0  0  0
    0.7914    0.4259    0.3248 C   0  0  0  0  0  0  0  0  0  0  0  0
   -2.8991   -0.7168   -0.0720 C   0  0  0  0  0  0  0  0  0  0  0  0
    1.6365   -0.6228    0.3902 C   0  0  0  0  0  0  0  0  0  0  0  0
   -0.6643    0.3513    0.4171 C   0  0  0  0  0  0  0  0  0  0  0  0
   -1.4347   -0.6014   -0.1469 C   0  0  0  0  0  0  0  0  0  0  0  0
    3.7157   -0.7240   -0.9357 C   0  0  0  0  0  0  0  0  0  0  0  0
    3.8520   -0.4152    1.4568 C   0  0  0  0  0  0  0  0  0  0  0  0
   -3.6824   -0.0783   -1.0217 C   0  0  0  0  0  0  0  0  0  0  0  0
   -3.4719   -1.4617    0.9479 C   0  0  0  0  0  0  0  0  0  0  0  0
    5.1077   -0.6901   -1.0192 C   0  0  0  0  0  0  0  0  0  0  0  0
    5.2438   -0.3815    1.3732 C   0  0  0  0  0  0  0  0  0  0  0  0
   -5.0712   -0.1872   -0.9497 C   0  0  0  0  0  0  0  0  0  0  0  0
    5.8717   -0.5187    0.1353 C   0  0  0  0  0  0  0  0  0  0  0  0
   -4.8605   -1.5706    1.0199 C   0  0  0  0  0  0  0  0  0  0  0  0
   -5.6602   -0.9335    0.0711 C   0  0  0  0  0  0  0  0  0  0  0  0
   -1.3105    1.3770    1.1784 C   0  0  0  0  0  0  0  0  0  0  0  0
    0.6410    2.6930   -0.5022 C   0  0  0  0  0  0  0  0  0  0  0  0
    1.2380   -1.6260    0.5326 H   0  0  0  0  0  0  0  0  0  0  0  0
   -0.9694   -1.3908   -0.7353 H   0  0  0  0  0  0  0  0  0  0  0  0
    3.1253   -0.8579   -1.8390 H   0  0  0  0  0  0  0  0  0  0  0  0
    3.3747   -0.3073    2.4273 H   0  0  0  0  0  0  0  0  0  0  0  0
   -3.2290    0.5046   -1.8199 H   0  0  0  0  0  0  0  0  0  0  0  0
   -2.8597   -1.9630    1.6930 H   0  0  0  0  0  0  0  0  0  0  0  0
    5.8270   -0.2471    2.2804 H   0  0  0  0  0  0  0  0  0  0  0  0
   -5.3133   -2.1535    1.8174 H   0  0  0  0  0  0  0  0  0  0  0  0
    2.2980    1.8331    0.3329 H   0  0  0  0  0  0  0  0  0  0  0  0
    1.2678    3.5993   -0.5522 H   0  0  0  0  0  0  0  0  0  0  0  0
    6.6728   -0.7773   -2.1049 H   0  0  0  0  0  0  0  0  0  0  0  0
   -6.7357    0.5761   -1.5296 H   0  0  0  0  0  0  0  0  0  0  0  0
    7.5910   -0.3569    0.9615 H   0  0  0  0  0  0  0  0  0  0  0  0
   -7.4105   -0.8736   -0.7180 H   0  0  0  0  0  0  0  0  0  0  0  0
  1 18  1  0  0  0  0
  1 36  1  0  0  0  0
  2 20  1  0  0  0  0
  2 37  1  0  0  0  0
  3 21  1  0  0  0  0
  3 38  1  0  0  0  0
  4 23  1  0  0  0  0
  4 39  1  0  0  0  0
  5 25  2  0  0  0  0
  6  9  1  0  0  0  0
  6 25  1  0  0  0  0
  6 34  1  0  0  0  0
  7 24  3  0  0  0  0
  8 11  1  0  0  0  0
  8 14  2  0  0  0  0
  8 15  1  0  0  0  0
  9 11  2  0  0  0  0
  9 12  1  0  0  0  0
 10 13  1  0  0  0  0
 10 16  2  0  0  0  0
 10 17  1  0  0  0  0
 11 26  1  0  0  0  0
 12 13  2  0  0  0  0
 12 24  1  0  0  0  0
 13 27  1  0  0  0  0
 14 18  1  0  0  0  0
 14 28  1  0  0  0  0
 15 19  2  0  0  0  0
 15 29  1  0  0  0  0
 16 20  1  0  0  0  0
 16 30  1  0  0  0  0
 17 22  2  0  0  0  0
 17 31  1  0  0  0  0
 18 21  2  0  0  0  0
 19 21  1  0  0  0  0
 19 32  1  0  0  0  0
 20 23  2  0  0  0  0
 22 23  1  0  0  0  0
 22 33  1  0  0  0  0
 25 35  1  0  0  0  0
M  END
> <PUBCHEM_COMPOUND_CID>
11393587

> <PUBCHEM_CONFORMER_RMSD>
0.8

> <PUBCHEM_CONFORMER_DIVERSEORDER>
1
50
41
16
32
6
25
45
35
11
31
7
44
40
48
29
24
13
42
39
33
10
28
2
51
46
34
26
22
15
17
49
43
38
8
14
23
36
3
12
47
21
4
9
5
20
37
19
27
30
18

> <PUBCHEM_MMFF94_PARTIAL_CHARGES>
39
1 -0.53
10 0.03
11 -0.18
12 0.06
13 -0.18
14 -0.15
15 -0.15
16 -0.15
17 -0.15
18 0.08
19 -0.15
2 -0.53
20 0.08
21 0.08
22 -0.15
23 0.08
24 0.49
25 0.57
26 0.15
27 0.15
28 0.15
29 0.15
3 -0.53
30 0.15
31 0.15
32 0.15
33 0.15
34 0.37
35 0.06
36 0.45
37 0.45
38 0.45
39 0.45
4 -0.53
5 -0.57
6 -0.54
7 -0.56
8 0.03
9 0.11

> <PUBCHEM_EFFECTIVE_ROTOR_COUNT>
5

> <PUBCHEM_PHARMACOPHORE_FEATURES>
9
1 1 donor
1 2 donor
1 3 donor
1 4 donor
1 5 acceptor
1 6 donor
1 7 acceptor
6 10 16 17 20 22 23 rings
6 8 14 15 18 19 21 rings

> <PUBCHEM_HEAVY_ATOM_COUNT>
25

> <PUBCHEM_ATOM_DEF_STEREO_COUNT>
0

> <PUBCHEM_ATOM_UDEF_STEREO_COUNT>
0

> <PUBCHEM_BOND_DEF_STEREO_COUNT>
2

> <PUBCHEM_BOND_UDEF_STEREO_COUNT>
0

> <PUBCHEM_ISOTOPIC_ATOM_COUNT>
0

> <PUBCHEM_COMPONENT_COUNT>
1

> <PUBCHEM_CACTVS_TAUTO_COUNT>
380

> <PUBCHEM_CONFORMER_ID>
00ADDA3300000001

> <PUBCHEM_MMFF94_ENERGY>
85.2351

> <PUBCHEM_FEATURE_SELFOVERLAP>
45.682

> <PUBCHEM_SHAPE_FINGERPRINT>
10595046 47 16298103189774487138
11315181 36 18334297577967096938
12107183 9 14545683840717125206
12166972 35 17167863067587576612
12236239 1 17095518483518775786
12403259 118 12103848947202772363
12516196 113 18411415124563477048
12788726 201 17968929786674212225
13533116 47 17203889686804933170
13544653 18 18060699493899334649
13673619 4 18042412486302035051
13685833 64 18272934951171708323
13690498 29 17677617626239889347
13782708 43 17702676436897760294
14251752 14 17385436605349466883
14840074 17 17704070702760092566
15183329 4 15864066568110239330
15849732 13 17704069616871857567
16992727 255 17387120988908448269
1813 80 18341620316818371300
18222031 100 18413109463729542344
193927 3 18343029903551786874
21033648 29 17560784512223508907
21033650 10 16662059002174225726
21267235 1 18411703196567873419
21756936 100 13695865909783414309
21792961 116 17967812717389006507
23175994 123 18342738555268318977
23198884 109 15357696388238416651
23536379 177 16370720417998219546
23559900 14 18336260266589901457
23569914 152 16691883108911482445
23569943 247 17558848194870363494
25147074 1 18339943570160746912
2838139 119 13551188892282016598
3004659 81 17240756251692377402
3009799 131 18335975419810434585
314173 85 18272653445623480216
329604 57 17967533471605486276
335352 9 18187638103822764509
3411729 13 18119804962034263136
4325135 7 17917993897928313804
5283173 99 17676477320231741404
7495541 125 17822010955859107471
8863177 126 17678752356477965939
9663363 56 18411974771586963930

> <PUBCHEM_SHAPE_MULTIPOLES>
475.18
16.79
1.92
1.51
3.08
1.72
-0.21
-8.56
-3.49
-1
0.18
0.49
0.13
0.65

> <PUBCHEM_SHAPE_SELFOVERLAP>
1031.176

> <PUBCHEM_SHAPE_VOLUME>
255.1

> <PUBCHEM_COORDINATE_TYPE>
2
5
10

$$$$
