REMARK  Name = 11394232
REMARK  5 active torsions:
REMARK  status: ('A' for Active; 'I' for Inactive)
REMARK    1  A    between atoms: C_6  and  O_20
REMARK    2  A    between atoms: C_9  and  C_25
REMARK    3  A    between atoms: C_12  and  O_22
REMARK    4  A    between atoms: C_17  and  C_28
REMARK    5  A    between atoms: C_25  and  O_26
REMARK                            x       y       z     vdW  Elec       q    Type
REMARK                         _______ _______ _______ _____ _____    ______ ____
ROOT
ATOM      1  O   UNL     1      -1.647   2.841  -0.032  0.00  0.00    -0.293 OA
ATOM      2  O   UNL     1      -0.770  -2.990   0.618  0.00  0.00    -0.284 OA
ATOM      3  C   UNL     1       0.572   0.814   0.127  0.00  0.00    +0.051 C 
ATOM      4  C   UNL     1       1.175   2.191   0.358  0.00  0.00    +0.007 C 
ATOM      5  C   UNL     1       0.652   1.405   1.528  0.00  0.00    +0.007 C 
ATOM      6  C   UNL     1      -0.824   0.577  -0.459  0.00  0.00    +0.163 C 
ATOM      7  C   UNL     1       1.502  -0.344  -0.134  0.00  0.00    +0.004 C 
ATOM      8  C   UNL     1       2.643   2.399   0.220  0.00  0.00    +0.001 C 
ATOM      9  C   UNL     1       2.943  -0.026  -0.578  0.00  0.00    +0.107 C 
ATOM     10  C   UNL     1       3.201   1.476  -0.851  0.00  0.00    +0.014 C 
ATOM     11  C   UNL     1      -1.371  -0.734   0.072  0.00  0.00    +0.047 C 
ATOM     12  C   UNL     1       1.036  -1.611  -0.019  0.00  0.00    +0.165 C 
ATOM     13  C   UNL     1      -1.891   1.666  -0.296  0.00  0.00    +0.179 C 
ATOM     14  C   UNL     1      -0.409  -1.869   0.269  0.00  0.00    +0.227 C 
ATOM     15  C   UNL     1       3.348  -0.775  -1.867  0.00  0.00    +0.015 C 
ATOM     16  C   UNL     1      -3.322   1.248  -0.574  0.00  0.00    +0.075 C 
ATOM     17  C   UNL     1      -3.743   0.094   0.349  0.00  0.00    +0.044 C 
ATOM     18  C   UNL     1      -2.645  -0.944   0.449  0.00  0.00    -0.021 C 
ATOM     19  C   UNL     1      -4.048   0.620   1.762  0.00  0.00    +0.009 C 
ENDROOT
BRANCH   6  20
ATOM     20  O   UNL     1      -0.705   0.460  -1.884  0.00  0.00    -0.375 OA
ATOM     21  H   UNL     1      -0.042  -0.215  -2.098  0.00  0.00    +0.211 HD
ENDBRANCH   6  20
BRANCH  12  22
ATOM     22  O   UNL     1       1.845  -2.719  -0.152  0.00  0.00    -0.503 OA
ATOM     23  H   UNL     1       2.758  -2.614  -0.333  0.00  0.00    +0.292 HD
ENDBRANCH  12  22
BRANCH   9  25
ATOM     24  O   UNL     1       3.476  -0.993   1.586  0.00  0.00    -0.250 OA
ATOM     25  C   UNL     1       3.851  -0.478   0.543  0.00  0.00    +0.316 C 
BRANCH  25  26
ATOM     26  O   UNL     1       5.148  -0.232   0.236  0.00  0.00    -0.480 OA
ATOM     27  H   UNL     1       5.369   0.166  -0.583  0.00  0.00    +0.295 HD
ENDBRANCH  25  26
ENDBRANCH   9  25
BRANCH  17  28
ATOM     28  C   UNL     1      -5.002  -0.523  -0.209  0.00  0.00    -0.022 C 
ATOM     29  C   UNL     1      -5.016  -1.552  -1.064  0.00  0.00    -0.005 C 
ENDBRANCH  17  28
TORSDOF 5
