REMARK  Name = 11393719
REMARK  5 active torsions:
REMARK  status: ('A' for Active; 'I' for Inactive)
REMARK    1  A    between atoms: N_1  and  C_18
REMARK    2  A    between atoms: C_4  and  C_20
REMARK    3  A    between atoms: C_7  and  C_14
REMARK    4  A    between atoms: C_20  and  N_21
REMARK    5  A    between atoms: N_21  and  C_25
REMARK                            x       y       z     vdW  Elec       q    Type
REMARK                         _______ _______ _______ _____ _____    ______ ____
ROOT
ATOM      1  N   UNL     1       1.137  -0.019  -0.276  0.00  0.00    -0.260 N 
ATOM      2  N   UNL     1       2.763   1.433   0.164  0.00  0.00    -0.386 NA
ATOM      3  N   UNL     1      -0.012   3.883   0.033  0.00  0.00    -0.262 NA
ATOM      4  C   UNL     1      -0.777   1.619  -0.373  0.00  0.00    -0.009 C 
ATOM      5  C   UNL     1       0.528   1.208  -0.218  0.00  0.00    +0.077 C 
ATOM      6  C   UNL     1       1.563   2.096   0.057  0.00  0.00    +0.148 C 
ATOM      7  C   UNL     1       2.472   0.167  -0.041  0.00  0.00    +0.211 C 
ATOM      8  C   UNL     1      -0.983   2.975  -0.235  0.00  0.00    +0.089 C 
ATOM      9  C   UNL     1       1.266   3.453   0.181  0.00  0.00    +0.185 C 
ENDROOT
BRANCH   7  14
ATOM     10  O   UNL     1       4.485  -2.764  -0.452  0.00  0.00    -0.240 OA
ATOM     11  N   UNL     1       3.348  -2.012  -0.752  0.00  0.00    -0.043 NA
ATOM     12  N   UNL     1       5.299  -2.103   0.469  0.00  0.00    -0.033 NA
ATOM     13  N   UNL     1       5.061   0.021   1.563  0.00  0.00    -0.339 N 
ATOM     14  C   UNL     1       3.481  -0.912  -0.018  0.00  0.00    +0.200 A 
ATOM     15  C   UNL     1       4.657  -0.963   0.720  0.00  0.00    +0.192 A 
ATOM     16  H   UNL     1       5.905  -0.073   2.060  0.00  0.00    +0.144 HD
ATOM     17  H   UNL     1       4.509   0.828   1.677  0.00  0.00    +0.144 HD
ENDBRANCH   7  14
BRANCH   1  18
ATOM     18  C   UNL     1       0.492  -1.286  -0.538  0.00  0.00    +0.098 C 
ATOM     19  C   UNL     1       0.454  -1.617  -2.020  0.00  0.00    +0.024 C 
ENDBRANCH   1  18
BRANCH   4  20
ATOM     20  C   UNL     1      -1.933   0.703  -0.671  0.00  0.00    -0.051 C 
BRANCH  20  21
ATOM     21  N   UNL     1      -2.560   0.206   0.545  0.00  0.00    +0.388 N 
ATOM     22  H   UNL     1      -1.868  -0.306   1.092  0.00  0.00    -0.084 HD
ATOM     23  H   UNL     1      -2.916   1.000   1.076  0.00  0.00    -0.084 HD
BRANCH  21  25
ATOM     24  N   UNL     1      -6.532  -1.313   0.403  0.00  0.00    +0.384 N 
ATOM     25  C   UNL     1      -3.675  -0.684   0.228  0.00  0.00    -0.066 C 
ATOM     26  C   UNL     1      -4.317  -1.208   1.517  0.00  0.00    -0.045 C 
ATOM     27  C   UNL     1      -4.723   0.032  -0.631  0.00  0.00    -0.045 C 
ATOM     28  C   UNL     1      -5.553  -2.053   1.204  0.00  0.00    -0.084 C 
ATOM     29  C   UNL     1      -5.942  -0.862  -0.860  0.00  0.00    -0.084 C 
ATOM     30  H   UNL     1      -6.850  -0.501   0.932  0.00  0.00    -0.085 HD
ATOM     31  H   UNL     1      -7.314  -1.933   0.194  0.00  0.00    -0.085 HD
ENDBRANCH  21  25
ENDBRANCH  20  21
ENDBRANCH   4  20
TORSDOF 5
