REMARK  Name = 11391762
REMARK  5 active torsions:
REMARK  status: ('A' for Active; 'I' for Inactive)
REMARK    1  A    between atoms: C_2  and  C_7
REMARK    2  A    between atoms: C_4  and  C_16
REMARK    3  A    between atoms: C_8  and  O_13
REMARK    4  A    between atoms: C_16  and  N_17
REMARK    5  A    between atoms: N_17  and  C_20
REMARK                            x       y       z     vdW  Elec       q    Type
REMARK                         _______ _______ _______ _____ _____    ______ ____
ROOT
ATOM      1  O   UNL     1      -0.656   0.523  -0.268  0.00  0.00    -0.449 OA
ATOM      2  C   UNL     1       0.474   1.109   0.197  0.00  0.00    +0.149 C 
ATOM      3  C   UNL     1       0.208   2.341   0.733  0.00  0.00    +0.041 C 
ATOM      4  C   UNL     1      -1.667   1.398  -0.025  0.00  0.00    +0.200 C 
ATOM      5  C   UNL     1      -1.187   2.532   0.589  0.00  0.00    +0.045 C 
ENDROOT
BRANCH   2   7
ATOM      6  F   UNL     1       5.240   0.894  -0.458  0.00  0.00    -0.204 F 
ATOM      7  C   UNL     1       1.680   0.331   0.032  0.00  0.00    +0.071 C 
ATOM      8  C   UNL     1       1.638  -1.063   0.038  0.00  0.00    +0.142 C 
ATOM      9  C   UNL     1       2.896   0.992  -0.136  0.00  0.00    +0.036 C 
ATOM     10  C   UNL     1       2.814  -1.797  -0.124  0.00  0.00    +0.039 C 
ATOM     11  C   UNL     1       4.072   0.259  -0.297  0.00  0.00    +0.140 C 
ATOM     12  C   UNL     1       4.031  -1.136  -0.291  0.00  0.00    +0.033 C 
BRANCH   8  13
ATOM     13  O   UNL     1       0.463  -1.736   0.200  0.00  0.00    -0.471 OA
ATOM     14  C   UNL     1       0.080  -2.055   1.536  0.00  0.00    +0.252 C 
ENDBRANCH   8  13
ENDBRANCH   2   7
BRANCH   4  16
ATOM     15  O   UNL     1      -4.005   1.737  -0.294  0.00  0.00    -0.265 OA
ATOM     16  C   UNL     1      -2.981   1.023  -0.421  0.00  0.00    +0.306 C 
BRANCH  16  17
ATOM     17  N   UNL     1      -3.057  -0.234  -1.025  0.00  0.00    -0.141 NA
BRANCH  17  20
ATOM     18  N   UNL     1      -3.361  -2.605  -0.743  0.00  0.00    -0.372 N 
ATOM     19  N   UNL     1      -3.421  -1.207   1.059  0.00  0.00    -0.372 N 
ATOM     20  C   UNL     1      -3.262  -1.304  -0.303  0.00  0.00    +0.185 C 
ATOM     21  H   UNL     1      -3.265  -2.810  -1.701  0.00  0.00    +0.159 HD
ATOM     22  H   UNL     1      -3.528  -3.331  -0.099  0.00  0.00    +0.159 HD
ATOM     23  H   UNL     1      -3.372  -0.328   1.499  0.00  0.00    +0.159 HD
ATOM     24  H   UNL     1      -3.585  -2.017   1.594  0.00  0.00    +0.159 HD
ENDBRANCH  17  20
ENDBRANCH  16  17
ENDBRANCH   4  16
TORSDOF 5
