11391762
  -OEChem-03292013303D

 32 33  0     0  0  0  0  0  0999 V2000
    5.2405    0.8938   -0.4578 F   0  0  0  0  0  0  0  0  0  0  0  0
   -0.6561    0.5228   -0.2675 O   0  0  0  0  0  0  0  0  0  0  0  0
    0.4634   -1.7363    0.2004 O   0  0  0  0  0  0  0  0  0  0  0  0
   -4.0052    1.7374   -0.2942 O   0  0  0  0  0  0  0  0  0  0  0  0
   -3.0569   -0.2336   -1.0251 N   0  0  0  0  0  0  0  0  0  0  0  0
   -3.3609   -2.6054   -0.7429 N   0  0  0  0  0  0  0  0  0  0  0  0
   -3.4211   -1.2073    1.0589 N   0  0  0  0  0  0  0  0  0  0  0  0
    1.6796    0.3308    0.0318 C   0  0  0  0  0  0  0  0  0  0  0  0
    0.4736    1.1091    0.1973 C   0  0  0  0  0  0  0  0  0  0  0  0
    1.6384   -1.0635    0.0376 C   0  0  0  0  0  0  0  0  0  0  0  0
    0.2080    2.3408    0.7327 C   0  0  0  0  0  0  0  0  0  0  0  0
    2.8964    0.9919   -0.1356 C   0  0  0  0  0  0  0  0  0  0  0  0
   -1.6667    1.3980   -0.0246 C   0  0  0  0  0  0  0  0  0  0  0  0
   -1.1870    2.5317    0.5892 C   0  0  0  0  0  0  0  0  0  0  0  0
    2.8138   -1.7967   -0.1238 C   0  0  0  0  0  0  0  0  0  0  0  0
    4.0721    0.2586   -0.2971 C   0  0  0  0  0  0  0  0  0  0  0  0
    4.0307   -1.1357   -0.2911 C   0  0  0  0  0  0  0  0  0  0  0  0
   -2.9813    1.0234   -0.4208 C   0  0  0  0  0  0  0  0  0  0  0  0
    0.0804   -2.0552    1.5359 C   0  0  0  0  0  0  0  0  0  0  0  0
   -3.2616   -1.3045   -0.3031 C   0  0  0  0  0  0  0  0  0  0  0  0
    0.9168    3.0255    1.1767 H   0  0  0  0  0  0  0  0  0  0  0  0
    2.9560    2.0774   -0.1491 H   0  0  0  0  0  0  0  0  0  0  0  0
   -1.7661    3.3906    0.8975 H   0  0  0  0  0  0  0  0  0  0  0  0
    2.7898   -2.8831   -0.1210 H   0  0  0  0  0  0  0  0  0  0  0  0
    4.9461   -1.7062   -0.4170 H   0  0  0  0  0  0  0  0  0  0  0  0
    0.8727   -2.6149    2.0435 H   0  0  0  0  0  0  0  0  0  0  0  0
   -0.8131   -2.6836    1.4953 H   0  0  0  0  0  0  0  0  0  0  0  0
   -0.1545   -1.1470    2.0991 H   0  0  0  0  0  0  0  0  0  0  0  0
   -3.2688   -2.8339   -1.7267 H   0  0  0  0  0  0  0  0  0  0  0  0
   -3.5209   -3.3720   -0.0985 H   0  0  0  0  0  0  0  0  0  0  0  0
   -3.3894   -0.3236    1.5542 H   0  0  0  0  0  0  0  0  0  0  0  0
   -3.5764   -2.0355    1.6238 H   0  0  0  0  0  0  0  0  0  0  0  0
  1 16  1  0  0  0  0
  2  9  1  0  0  0  0
  2 13  1  0  0  0  0
  3 10  1  0  0  0  0
  3 19  1  0  0  0  0
  4 18  2  0  0  0  0
  5 18  1  0  0  0  0
  5 20  2  0  0  0  0
  6 20  1  0  0  0  0
  6 29  1  0  0  0  0
  6 30  1  0  0  0  0
  7 20  1  0  0  0  0
  7 31  1  0  0  0  0
  7 32  1  0  0  0  0
  8  9  1  0  0  0  0
  8 10  2  0  0  0  0
  8 12  1  0  0  0  0
  9 11  2  0  0  0  0
 10 15  1  0  0  0  0
 11 14  1  0  0  0  0
 11 21  1  0  0  0  0
 12 16  2  0  0  0  0
 12 22  1  0  0  0  0
 13 14  2  0  0  0  0
 13 18  1  0  0  0  0
 14 23  1  0  0  0  0
 15 17  2  0  0  0  0
 15 24  1  0  0  0  0
 16 17  1  0  0  0  0
 17 25  1  0  0  0  0
 19 26  1  0  0  0  0
 19 27  1  0  0  0  0
 19 28  1  0  0  0  0
M  END
> <PUBCHEM_COMPOUND_CID>
11391762

> <PUBCHEM_CONFORMER_RMSD>
0.6

> <PUBCHEM_CONFORMER_DIVERSEORDER>
9
108
68
96
23
88
24
121
116
84
71
18
44
35
75
99
59
125
46
124
106
110
54
120
13
19
92
14
102
101
95
10
51
67
119
112
56
129
76
42
55
89
2
37
130
113
77
111
78
70
127
26
79
22
72
109
60
83
69
8
107
39
122
128
81
48
50
80
118
61
3
91
29
97
86
103
82
114
115
123
20
73
17
6
98
58
105
33
87
5
57
66
12
90
94
1
41
85
62
21
65
7
27
117
36
93
4
25
63
126
16
53
15
31
43
49
40
52
104
34
11
30
47
45
64
100
28
32
38
74

> <PUBCHEM_MMFF94_PARTIAL_CHARGES>
29
1 -0.19
10 0.08
11 -0.15
12 -0.15
13 0.05
14 -0.15
15 -0.15
16 0.19
17 -0.15
18 0.87
19 0.28
2 -0.28
20 0.55
21 0.15
22 0.15
23 0.15
24 0.15
25 0.15
29 0.4
3 -0.36
30 0.4
31 0.4
32 0.4
4 -0.57
5 -0.66
6 -0.85
7 -0.85
8 0.05
9 0.09

> <PUBCHEM_EFFECTIVE_ROTOR_COUNT>
4

> <PUBCHEM_PHARMACOPHORE_FEATURES>
8
1 2 acceptor
1 3 acceptor
1 4 acceptor
1 5 donor
1 6 donor
1 7 donor
5 2 9 11 13 14 rings
6 8 10 12 15 16 17 rings

> <PUBCHEM_HEAVY_ATOM_COUNT>
20

> <PUBCHEM_ATOM_DEF_STEREO_COUNT>
0

> <PUBCHEM_ATOM_UDEF_STEREO_COUNT>
0

> <PUBCHEM_BOND_DEF_STEREO_COUNT>
0

> <PUBCHEM_BOND_UDEF_STEREO_COUNT>
0

> <PUBCHEM_ISOTOPIC_ATOM_COUNT>
0

> <PUBCHEM_COMPONENT_COUNT>
1

> <PUBCHEM_CACTVS_TAUTO_COUNT>
3

> <PUBCHEM_CONFORMER_ID>
00ADD31200000009

> <PUBCHEM_MMFF94_ENERGY>
61.6074

> <PUBCHEM_FEATURE_SELFOVERLAP>
40.741

> <PUBCHEM_SHAPE_FINGERPRINT>
10062212 137 18335130964757671915
10616163 171 18342458105992427983
108231 29 18341049730349820217
121448 382 18259704497346731778
12553582 1 18341885342439629175
12596599 1 17701562803063937119
12788726 201 17771620153523044761
13032168 30 18412830178748465680
14251745 187 18408317808861050249
14787075 74 18264771137285236764
14790565 3 17981894034337268641
15196674 1 18410012117814806998
15209289 33 18336269041244795939
15415430 112 18412542085511877719
16945 1 18270951470364316944
17349148 13 18187082862961170738
17357779 13 18190178078039877523
17492 89 18338235951499270338
18186145 218 18041558044737742894
19591789 44 18125438859076182812
200 152 18343016675126588964
21267235 1 18268999695443549695
21634736 98 18410856547124231006
221490 88 18410859867239400142
23379529 103 18060148613316478846
23402539 116 18409162212854422132
23402655 69 18410576141620822268
23559900 14 18341889650650328296
238078 22 18343306976218966308
2748010 2 18267567182486152169
2871803 45 18335409214741379495
3312278 4 18411981334529289029
3323516 105 18412260679012115592
34934 24 18340200787451767629
4340502 62 17096947763062762081
4921388 177 17023193733956393515
5104073 3 18411980230959798840
6786 2 11330727625167406467
8809292 202 18409449155007976379
9709674 26 18056481655879361022

> <PUBCHEM_SHAPE_MULTIPOLES>
371.77
7.93
2.8
0.92
2.95
0.19
-0.21
1
2
-1.57
-0.46
-0.34
0.28
-0.2

> <PUBCHEM_SHAPE_SELFOVERLAP>
806.973

> <PUBCHEM_SHAPE_VOLUME>
204.4

> <PUBCHEM_COORDINATE_TYPE>
2
5
10

$$$$
