REMARK  Name = 11397521
REMARK  6 active torsions:
REMARK  status: ('A' for Active; 'I' for Inactive)
REMARK    1  A    between atoms: N_2  and  C_12
REMARK    2  A    between atoms: N_2  and  C_20
REMARK    3  A    between atoms: C_3  and  C_7
REMARK    4  A    between atoms: C_20  and  C_23
REMARK    5  A    between atoms: N_22  and  C_25
REMARK    6  A    between atoms: C_30  and  C_34
REMARK                            x       y       z     vdW  Elec       q    Type
REMARK                         _______ _______ _______ _____ _____    ______ ____
ROOT
ATOM      1  O   UNL     1       2.427   1.252  -2.152  0.00  0.00    -0.275 OA
ATOM      2  N   UNL     1       1.734  -0.617  -0.901  0.00  0.00    -0.250 N 
ATOM      3  C   UNL     1       2.593   0.451  -1.229  0.00  0.00    +0.229 C 
ENDROOT
BRANCH   3   7
ATOM      4  S   UNL     1       6.416   2.173   0.522  0.00  0.00    -0.010 S 
ATOM      5  O   UNL     1       7.439   2.059   1.544  0.00  0.00    -0.173 OA
ATOM      6  O   UNL     1       6.464   3.236  -0.463  0.00  0.00    -0.173 OA
ATOM      7  C   UNL     1       3.789   0.641  -0.342  0.00  0.00    +0.081 C 
ATOM      8  C   UNL     1       3.691   1.998   0.365  0.00  0.00    +0.034 C 
ATOM      9  C   UNL     1       5.068   0.506  -1.178  0.00  0.00    +0.034 C 
ATOM     10  C   UNL     1       4.836   2.235   1.337  0.00  0.00    +0.151 C 
ATOM     11  C   UNL     1       6.330   0.617  -0.337  0.00  0.00    +0.151 C 
ENDBRANCH   3   7
BRANCH   2  12
ATOM     12  C   UNL     1       2.071  -1.562   0.145  0.00  0.00    +0.046 C 
ATOM     13  C   UNL     1       2.782  -2.682  -0.198  0.00  0.00    -0.008 C 
ATOM     14  C   UNL     1       1.661  -1.285   1.423  0.00  0.00    -0.008 C 
ATOM     15  C   UNL     1       3.107  -3.591   0.809  0.00  0.00    -0.003 C 
ATOM     16  C   UNL     1       1.986  -2.194   2.431  0.00  0.00    -0.003 C 
ATOM     17  C   UNL     1       3.223  -2.971  -1.597  0.00  0.00    +0.032 C 
ATOM     18  C   UNL     1       0.886  -0.059   1.784  0.00  0.00    +0.032 C 
ATOM     19  C   UNL     1       2.708  -3.347   2.123  0.00  0.00    -0.001 C 
ENDBRANCH   2  12
BRANCH   2  20
ATOM     20  C   UNL     1       0.506  -0.889  -1.663  0.00  0.00    +0.183 C 
BRANCH  20  23
ATOM     21  O   UNL     1      -0.527   0.940  -0.487  0.00  0.00    -0.273 OA
ATOM     22  N   UNL     1      -1.851  -0.834  -1.273  0.00  0.00    -0.283 N 
ATOM     23  C   UNL     1      -0.666  -0.133  -1.064  0.00  0.00    +0.247 C 
ATOM     24  H   UNL     1      -1.772  -1.687  -1.759  0.00  0.00    +0.155 HD
BRANCH  22  25
ATOM     25  C   UNL     1      -3.155  -0.464  -0.868  0.00  0.00    +0.050 C 
ATOM     26  C   UNL     1      -4.220  -1.297  -1.169  0.00  0.00    +0.015 C 
ATOM     27  C   UNL     1      -3.340   0.724  -0.181  0.00  0.00    +0.015 C 
ATOM     28  C   UNL     1      -5.506  -0.932  -0.770  0.00  0.00    +0.011 C 
ATOM     29  C   UNL     1      -4.626   1.089   0.218  0.00  0.00    +0.011 C 
ATOM     30  C   UNL     1      -5.709   0.261  -0.077  0.00  0.00    +0.065 C 
BRANCH  30  34
ATOM     31  O   UNL     1      -9.145   0.626   0.649  0.00  0.00    -0.341 OA
ATOM     32  N   UNL     1      -7.269   1.795   1.012  0.00  0.00    -0.169 NA
ATOM     33  N   UNL     1      -8.105  -0.118   0.078  0.00  0.00    -0.025 NA
ATOM     34  C   UNL     1      -7.033   0.636   0.333  0.00  0.00    +0.072 C 
ATOM     35  C   UNL     1      -8.566   1.737   1.177  0.00  0.00    +0.376 C 
ENDBRANCH  30  34
ENDBRANCH  22  25
ENDBRANCH  20  23
ENDBRANCH   2  20
TORSDOF 6
