REMARK  Name = 11396751
REMARK  6 active torsions:
REMARK  status: ('A' for Active; 'I' for Inactive)
REMARK    1  A    between atoms: C_7  and  C_33
REMARK    2  A    between atoms: C_9  and  O_25
REMARK    3  A    between atoms: C_17  and  O_27
REMARK    4  A    between atoms: C_19  and  O_29
REMARK    5  A    between atoms: C_21  and  O_31
REMARK    6  A    between atoms: C_33  and  C_34
REMARK                            x       y       z     vdW  Elec       q    Type
REMARK                         _______ _______ _______ _____ _____    ______ ____
ROOT
ATOM      1  O   UNL     1       1.253  -0.671  -2.607  0.00  0.00    -0.275 OA
ATOM      2  O   UNL     1      -0.121   1.744  -1.290  0.00  0.00    -0.295 OA
ATOM      3  N   UNL     1       2.870   0.234  -1.202  0.00  0.00    -0.305 N 
ATOM      4  C   UNL     1       0.766  -0.251  -0.222  0.00  0.00    +0.127 C 
ATOM      5  C   UNL     1       1.860  -0.109   0.887  0.00  0.00    +0.051 C 
ATOM      6  C   UNL     1      -0.066  -1.548   0.013  0.00  0.00    +0.046 C 
ATOM      7  C   UNL     1       3.017   0.626   0.175  0.00  0.00    +0.076 C 
ATOM      8  C   UNL     1       2.371  -1.437   1.474  0.00  0.00    -0.047 C 
ATOM      9  C   UNL     1       0.816  -2.810   0.055  0.00  0.00    +0.129 C 
ATOM     10  C   UNL     1       1.625  -0.299  -1.503  0.00  0.00    +0.229 C 
ATOM     11  C   UNL     1      -0.152   1.008  -0.297  0.00  0.00    +0.161 C 
ATOM     12  C   UNL     1       1.945  -2.651   1.054  0.00  0.00    -0.025 C 
ATOM     13  C   UNL     1      -1.277  -1.654  -0.889  0.00  0.00    +0.004 C 
ATOM     14  C   UNL     1      -1.072   1.350   0.868  0.00  0.00    +0.097 C 
ATOM     15  C   UNL     1       3.379  -1.276   2.589  0.00  0.00    +0.026 C 
ATOM     16  C   UNL     1       2.512  -3.961   1.541  0.00  0.00    +0.028 C 
ATOM     17  C   UNL     1      -2.330   2.116   0.408  0.00  0.00    +0.152 C 
ATOM     18  C   UNL     1      -2.478  -2.165  -0.549  0.00  0.00    +0.000 C 
ATOM     19  C   UNL     1      -3.285   1.275  -0.475  0.00  0.00    +0.165 C 
ATOM     20  C   UNL     1      -3.698  -1.794  -1.369  0.00  0.00    +0.003 C 
ATOM     21  C   UNL     1      -4.088   0.203   0.286  0.00  0.00    +0.140 C 
ATOM     22  C   UNL     1      -4.700  -0.897  -0.608  0.00  0.00    +0.032 C 
ATOM     23  C   UNL     1      -2.743  -3.020   0.662  0.00  0.00    +0.000 C 
ATOM     24  H   UNL     1       3.587   0.336  -1.869  0.00  0.00    +0.149 HD
ENDROOT
BRANCH   9  25
ATOM     25  O   UNL     1       1.375  -3.145  -1.209  0.00  0.00    -0.380 OA
ATOM     26  H   UNL     1       0.663  -3.250  -1.859  0.00  0.00    +0.211 HD
ENDBRANCH   9  25
BRANCH  17  27
ATOM     27  O   UNL     1      -3.010   2.617   1.558  0.00  0.00    -0.351 OA
ATOM     28  C   UNL     1      -2.184   3.496   2.305  0.00  0.00    +0.174 C 
ENDBRANCH  17  27
BRANCH  19  29
ATOM     29  O   UNL     1      -4.213   2.147  -1.128  0.00  0.00    -0.380 OA
ATOM     30  H   UNL     1      -3.726   2.831  -1.614  0.00  0.00    +0.211 HD
ENDBRANCH  19  29
BRANCH  21  31
ATOM     31  O   UNL     1      -5.150   0.818   1.022  0.00  0.00    -0.382 OA
ATOM     32  H   UNL     1      -4.787   1.515   1.592  0.00  0.00    +0.210 HD
ENDBRANCH  21  31
BRANCH   7  33
ATOM     33  C   UNL     1       2.970   2.142   0.336  0.00  0.00    +0.020 C 
BRANCH  33  34
ATOM     34  C   UNL     1       4.166   2.864  -0.308  0.00  0.00    +0.002 C 
ATOM     35  C   UNL     1       5.507   2.380   0.247  0.00  0.00    +0.000 C 
ATOM     36  C   UNL     1       4.133   2.668  -1.825  0.00  0.00    +0.000 C 
ENDBRANCH  33  34
ENDBRANCH   7  33
TORSDOF 6
