REMARK  Name = 11393587
REMARK  9 active torsions:
REMARK  status: ('A' for Active; 'I' for Inactive)
REMARK    1  A    between atoms: C_1  and  C_2
REMARK    2  A    between atoms: C_1  and  C_17
REMARK    3  A    between atoms: C_2  and  C_3
REMARK    4  A    between atoms: C_6  and  O_9
REMARK    5  A    between atoms: C_8  and  O_11
REMARK    6  A    between atoms: C_17  and  C_30
REMARK    7  A    between atoms: C_18  and  C_19
REMARK    8  A    between atoms: C_22  and  O_25
REMARK    9  A    between atoms: C_24  and  O_27
REMARK                            x       y       z     vdW  Elec       q    Type
REMARK                         _______ _______ _______ _____ _____    ______ ____
ROOT
ATOM      1  C   UNL     1       0.791   0.426   0.325  0.00  0.00    +0.042 C 
ATOM      2  O   UNL     1      -0.470   2.664  -1.017  0.00  0.00    -0.265 OA
ATOM      3  N   UNL     1       1.309   1.685   0.149  0.00  0.00    -0.279 N 
ATOM      4  C   UNL     1       0.641   2.693  -0.502  0.00  0.00    +0.303 C 
ATOM      5  H   UNL     1       2.206   1.876   0.509  0.00  0.00    +0.155 HD
ENDROOT
BRANCH   1   6
ATOM      6  C   UNL     1      -0.664   0.351   0.417  0.00  0.00    +0.078 C 
ATOM      7  C   UNL     1      -1.435  -0.601  -0.147  0.00  0.00    +0.011 C 
BRANCH   7   8
ATOM      8  C   UNL     1      -2.899  -0.717  -0.072  0.00  0.00    +0.004 C 
ATOM      9  C   UNL     1      -3.682  -0.078  -1.022  0.00  0.00    +0.040 C 
ATOM     10  C   UNL     1      -3.472  -1.462   0.948  0.00  0.00    +0.003 C 
ATOM     11  C   UNL     1      -5.071  -0.187  -0.950  0.00  0.00    +0.167 C 
ATOM     12  C   UNL     1      -4.861  -1.571   1.020  0.00  0.00    +0.040 C 
ATOM     13  C   UNL     1      -5.660  -0.933   0.071  0.00  0.00    +0.167 C 
BRANCH  11  14
ATOM     14  O   UNL     1      -5.842   0.439  -1.882  0.00  0.00    -0.503 OA
ATOM     15  H   UNL     1      -5.438   0.938  -2.565  0.00  0.00    +0.292 HD
ENDBRANCH  11  14
BRANCH  13  16
ATOM     16  O   UNL     1      -7.015  -1.049   0.151  0.00  0.00    -0.503 OA
ATOM     17  H   UNL     1      -7.560  -0.624  -0.482  0.00  0.00    +0.292 HD
ENDBRANCH  13  16
ENDBRANCH   7   8
BRANCH   6  19
ATOM     18  N   UNL     1      -1.832   2.208   1.798  0.00  0.00    -0.191 NA
ATOM     19  C   UNL     1      -1.310   1.377   1.178  0.00  0.00    +0.101 C 
ENDBRANCH   6  19
ENDBRANCH   1   6
BRANCH   1  20
ATOM     20  C   UNL     1       1.637  -0.623   0.390  0.00  0.00    +0.068 C 
BRANCH  20  21
ATOM     21  C   UNL     1       3.104  -0.586   0.301  0.00  0.00    -0.013 C 
ATOM     22  C   UNL     1       3.716  -0.724  -0.936  0.00  0.00    +0.036 C 
ATOM     23  C   UNL     1       3.852  -0.415   1.457  0.00  0.00    -0.001 C 
ATOM     24  C   UNL     1       5.108  -0.690  -1.019  0.00  0.00    +0.167 C 
ATOM     25  C   UNL     1       5.244  -0.382   1.373  0.00  0.00    +0.039 C 
ATOM     26  C   UNL     1       5.872  -0.519   0.135  0.00  0.00    +0.167 C 
BRANCH  24  27
ATOM     27  O   UNL     1       5.710  -0.825  -2.234  0.00  0.00    -0.503 OA
ATOM     28  H   UNL     1       5.189  -0.939  -3.005  0.00  0.00    +0.292 HD
ENDBRANCH  24  27
BRANCH  26  29
ATOM     29  O   UNL     1       7.232  -0.482   0.066  0.00  0.00    -0.503 OA
ATOM     30  H   UNL     1       7.661  -0.574  -0.761  0.00  0.00    +0.292 HD
ENDBRANCH  26  29
ENDBRANCH  20  21
ENDBRANCH   1  20
TORSDOF 9
