REMARK  Name = 11403745
REMARK  7 active torsions:
REMARK  status: ('A' for Active; 'I' for Inactive)
REMARK    1  A    between atoms: N_1  and  C_4
REMARK    2  A    between atoms: N_1  and  C_14
REMARK    3  A    between atoms: C_4  and  C_10
REMARK    4  A    between atoms: C_8  and  C_13
REMARK    5  A    between atoms: C_14  and  C_15
REMARK    6  A    between atoms: C_15  and  N_16
REMARK    7  A    between atoms: C_21  and  C_25
REMARK                            x       y       z     vdW  Elec       q    Type
REMARK                         _______ _______ _______ _____ _____    ______ ____
ROOT
ATOM      1  N   UNL     1      -1.073   0.020  -0.135  0.00  0.00    +0.391 N 
ATOM      2  H   UNL     1      -0.998  -0.271  -1.110  0.00  0.00    -0.084 HD
ATOM      3  H   UNL     1      -1.067  -0.790   0.485  0.00  0.00    -0.084 HD
ENDROOT
BRANCH   1   4
ATOM      4  C   UNL     1      -2.321   0.727   0.051  0.00  0.00    +0.008 C 
BRANCH   4  10
ATOM      5  O   UNL     1      -3.139  -1.378  -0.714  0.00  0.00    -0.275 OA
ATOM      6  N   UNL     1      -4.703   0.249  -0.229  0.00  0.00    -0.170 N 
ATOM      7  N   UNL     1      -4.952   1.536   0.156  0.00  0.00    -0.178 NA
ATOM      8  C   UNL     1      -5.920  -0.498  -0.547  0.00  0.00    +0.195 C 
ATOM      9  C   UNL     1      -6.995   0.574  -0.556  0.00  0.00    +0.086 C 
ATOM     10  C   UNL     1      -3.414  -0.239  -0.334  0.00  0.00    +0.224 C 
ATOM     11  C   UNL     1      -6.221   1.721   0.008  0.00  0.00    +0.094 C 
BRANCH   8  13
ATOM     12  N   UNL     1      -6.396  -2.331   1.280  0.00  0.00    -0.194 NA
ATOM     13  C   UNL     1      -6.186  -1.522   0.474  0.00  0.00    +0.095 C 
ENDBRANCH   8  13
ENDBRANCH   4  10
ENDBRANCH   1   4
BRANCH   1  14
ATOM     14  C   UNL     1       0.071   0.864   0.199  0.00  0.00    -0.059 C 
BRANCH  14  15
ATOM     15  C   UNL     1       1.373   0.112  -0.043  0.00  0.00    +0.065 C 
BRANCH  15  16
ATOM     16  N   UNL     1       2.493   0.969   0.266  0.00  0.00    -0.320 N 
ATOM     17  N   UNL     1       4.817   1.448   0.486  0.00  0.00    -0.229 NA
ATOM     18  C   UNL     1       3.816   0.569   0.174  0.00  0.00    +0.128 C 
ATOM     19  C   UNL     1       4.088  -0.740  -0.242  0.00  0.00    +0.035 C 
ATOM     20  C   UNL     1       5.412  -1.156  -0.340  0.00  0.00    +0.015 C 
ATOM     21  C   UNL     1       6.438  -0.272  -0.025  0.00  0.00    +0.088 C 
ATOM     22  C   UNL     1       6.090   1.007   0.379  0.00  0.00    +0.111 C 
ATOM     23  H   UNL     1       2.305   1.890   0.559  0.00  0.00    +0.148 HD
BRANCH  21  25
ATOM     24  N   UNL     1       8.920  -0.994  -0.191  0.00  0.00    -0.191 NA
ATOM     25  C   UNL     1       7.804  -0.669  -0.117  0.00  0.00    +0.102 C 
ENDBRANCH  21  25
ENDBRANCH  15  16
ENDBRANCH  14  15
ENDBRANCH   1  14
TORSDOF 7
