REMARK  Name = 11407097
REMARK  1 active torsions:
REMARK  status: ('A' for Active; 'I' for Inactive)
REMARK    1  A    between atoms: C_10  and  N_32
REMARK                            x       y       z     vdW  Elec       q    Type
REMARK                         _______ _______ _______ _____ _____    ______ ____
ROOT
ATOM      1  O   UNL     1       1.675   3.143   0.459  0.00  0.00    -0.273 OA
ATOM      2  O   UNL     1      -2.440  -2.642  -0.614  0.00  0.00    -0.270 OA
ATOM      3  O   UNL     1      -1.875   3.436  -1.027  0.00  0.00    -0.273 OA
ATOM      4  N   UNL     1      -0.629  -1.693   0.354  0.00  0.00    -0.255 N 
ATOM      5  N   UNL     1       1.098   1.595  -1.171  0.00  0.00    -0.297 N 
ATOM      6  N   UNL     1      -1.630   1.119  -0.768  0.00  0.00    -0.282 N 
ATOM      7  C   UNL     1       1.353  -0.865   1.018  0.00  0.00    +0.046 C 
ATOM      8  C   UNL     1       2.363   0.118   1.515  0.00  0.00    +0.045 C 
ATOM      9  C   UNL     1       1.592  -2.072   0.302  0.00  0.00    -0.007 C 
ATOM     10  C   UNL     1       2.863   1.030   0.392  0.00  0.00    +0.242 C 
ATOM     11  C   UNL     1       0.347  -2.595  -0.075  0.00  0.00    +0.050 C 
ATOM     12  C   UNL     1      -0.012  -0.750   1.150  0.00  0.00    +0.103 C 
ATOM     13  C   UNL     1       1.831   2.048  -0.080  0.00  0.00    +0.250 C 
ATOM     14  C   UNL     1      -1.999  -1.688   0.019  0.00  0.00    +0.254 C 
ATOM     15  C   UNL     1       2.769  -2.754  -0.080  0.00  0.00    -0.003 C 
ATOM     16  C   UNL     1       0.117   2.422  -1.865  0.00  0.00    +0.149 C 
ATOM     17  C   UNL     1       0.257  -3.795  -0.804  0.00  0.00    +0.015 C 
ATOM     18  C   UNL     1      -2.950  -0.605   0.370  0.00  0.00    +0.067 C 
ATOM     19  C   UNL     1      -2.771   0.745  -0.005  0.00  0.00    +0.055 C 
ATOM     20  C   UNL     1       2.678  -3.946  -0.800  0.00  0.00    -0.000 C 
ATOM     21  C   UNL     1       1.437  -4.460  -1.153  0.00  0.00    +0.001 C 
ATOM     22  C   UNL     1      -1.228   2.396  -1.136  0.00  0.00    +0.244 C 
ATOM     23  C   UNL     1      -0.054   1.965  -3.308  0.00  0.00    +0.031 C 
ATOM     24  C   UNL     1      -4.079  -1.008   1.100  0.00  0.00    +0.006 C 
ATOM     25  C   UNL     1      -3.740   1.671   0.405  0.00  0.00    +0.015 C 
ATOM     26  C   UNL     1      -5.030  -0.070   1.487  0.00  0.00    +0.000 C 
ATOM     27  C   UNL     1      -4.858   1.266   1.143  0.00  0.00    +0.001 C 
ATOM     28  H   UNL     1       1.247   0.675  -1.489  0.00  0.00    +0.150 HD
ATOM     29  H   UNL     1      -1.055   0.380  -1.073  0.00  0.00    +0.155 HD
ENDROOT
BRANCH  10  32
ATOM     30  O   UNL     1       5.105   1.657   0.353  0.00  0.00    -0.131 OA
ATOM     31  O   UNL     1       3.799   2.537   1.895  0.00  0.00    -0.131 OA
ATOM     32  N   UNL     1       4.013   1.796   0.924  0.00  0.00    +0.041 N 
ENDBRANCH  10  32
TORSDOF 1
