REMARK  Name = 11408160
REMARK  5 active torsions:
REMARK  status: ('A' for Active; 'I' for Inactive)
REMARK    1  A    between atoms: C_6  and  O_25
REMARK    2  A    between atoms: C_9  and  O_27
REMARK    3  A    between atoms: C_16  and  O_29
REMARK    4  A    between atoms: C_24  and  C_31
REMARK    5  A    between atoms: C_32  and  C_33
REMARK                            x       y       z     vdW  Elec       q    Type
REMARK                         _______ _______ _______ _____ _____    ______ ____
ROOT
ATOM      1  O   UNL     1      -4.559  -0.875  -1.086  0.00  0.00    -0.334 OA
ATOM      2  O   UNL     1       1.179   1.022  -0.292  0.00  0.00    -0.455 OA
ATOM      3  O   UNL     1       3.279   0.036   0.002  0.00  0.00    -0.424 OA
ATOM      4  O   UNL     1       1.736  -3.682   0.285  0.00  0.00    -0.286 OA
ATOM      5  C   UNL     1      -2.475  -0.242   0.097  0.00  0.00    +0.056 C 
ATOM      6  C   UNL     1      -3.058   1.201   0.386  0.00  0.00    +0.095 C 
ATOM      7  C   UNL     1      -4.649   1.180   0.247  0.00  0.00    +0.070 C 
ATOM      8  C   UNL     1      -0.901  -0.218   0.136  0.00  0.00    +0.073 C 
ATOM      9  C   UNL     1      -5.078  -0.327   0.136  0.00  0.00    +0.185 C 
ATOM     10  C   UNL     1      -2.987  -1.200   1.217  0.00  0.00    +0.010 C 
ATOM     11  C   UNL     1      -0.210   0.901  -0.695  0.00  0.00    +0.139 C 
ATOM     12  C   UNL     1      -2.361   2.272  -0.486  0.00  0.00    +0.031 C 
ATOM     13  C   UNL     1      -3.129  -0.769  -1.200  0.00  0.00    +0.147 C 
ATOM     14  C   UNL     1      -4.510  -1.181   1.276  0.00  0.00    +0.056 C 
ATOM     15  C   UNL     1      -0.841   2.259  -0.337  0.00  0.00    +0.043 C 
ATOM     16  C   UNL     1      -0.164  -1.564  -0.060  0.00  0.00    +0.145 C 
ATOM     17  C   UNL     1      -5.350   1.867   1.446  0.00  0.00    +0.007 C 
ATOM     18  C   UNL     1      -5.162   1.926  -1.015  0.00  0.00    +0.007 C 
ATOM     19  C   UNL     1      -0.196   0.730  -2.224  0.00  0.00    +0.044 C 
ATOM     20  C   UNL     1       1.326  -1.354  -0.013  0.00  0.00    +0.115 C 
ATOM     21  C   UNL     1       1.905  -0.140  -0.098  0.00  0.00    +0.297 C 
ATOM     22  C   UNL     1       2.192  -2.547   0.192  0.00  0.00    +0.203 C 
ATOM     23  C   UNL     1       3.646  -2.313   0.280  0.00  0.00    +0.080 C 
ATOM     24  C   UNL     1       4.099  -1.058   0.183  0.00  0.00    +0.152 C 
ENDROOT
BRANCH   6  25
ATOM     25  O   UNL     1      -2.704   1.515   1.750  0.00  0.00    -0.386 OA
ATOM     26  H   UNL     1      -3.116   0.871   2.347  0.00  0.00    +0.210 HD
ENDBRANCH   6  25
BRANCH   9  27
ATOM     27  O   UNL     1      -6.502  -0.422   0.134  0.00  0.00    -0.363 OA
ATOM     28  H   UNL     1      -6.861   0.118  -0.587  0.00  0.00    +0.213 HD
ENDBRANCH   9  27
BRANCH  16  29
ATOM     29  O   UNL     1      -0.499  -2.184  -1.293  0.00  0.00    -0.380 OA
ATOM     30  H   UNL     1      -1.458  -2.324  -1.334  0.00  0.00    +0.211 HD
ENDBRANCH  16  29
BRANCH  24  31
ATOM     31  C   UNL     1       5.496  -0.730   0.259  0.00  0.00    +0.038 C 
ATOM     32  C   UNL     1       5.964   0.522   0.163  0.00  0.00    +0.003 C 
BRANCH  32  33
ATOM     33  C   UNL     1       7.372   0.843   0.240  0.00  0.00    -0.004 C 
ATOM     34  C   UNL     1       7.845   2.094   0.144  0.00  0.00    -0.026 C 
ATOM     35  C   UNL     1       9.296   2.439   0.222  0.00  0.00    +0.031 C 
ENDBRANCH  32  33
ENDBRANCH  24  31
TORSDOF 5
