REMARK  Name = 11403628
REMARK  5 active torsions:
REMARK  status: ('A' for Active; 'I' for Inactive)
REMARK    1  A    between atoms: C_2  and  C_7
REMARK    2  A    between atoms: C_4  and  C_16
REMARK    3  A    between atoms: C_8  and  O_13
REMARK    4  A    between atoms: C_16  and  N_17
REMARK    5  A    between atoms: N_17  and  C_20
REMARK                            x       y       z     vdW  Elec       q    Type
REMARK                         _______ _______ _______ _____ _____    ______ ____
ROOT
ATOM      1  O   UNL     1      -0.666   0.522  -0.265  0.00  0.00    -0.449 OA
ATOM      2  C   UNL     1       0.469   1.095   0.204  0.00  0.00    +0.148 C 
ATOM      3  C   UNL     1       0.216   2.327   0.743  0.00  0.00    +0.041 C 
ATOM      4  C   UNL     1      -1.667   1.408  -0.022  0.00  0.00    +0.200 C 
ATOM      5  C   UNL     1      -1.177   2.534   0.596  0.00  0.00    +0.045 C 
ENDROOT
BRANCH   2   7
ATOM      6 CL   UNL     1       5.571   1.001  -0.483  0.00  0.00    -0.082 Cl
ATOM      7  C   UNL     1       1.667   0.303   0.040  0.00  0.00    +0.069 C 
ATOM      8  C   UNL     1       1.609  -1.091   0.041  0.00  0.00    +0.142 C 
ATOM      9  C   UNL     1       2.892   0.950  -0.122  0.00  0.00    +0.017 C 
ATOM     10  C   UNL     1       2.776  -1.837  -0.119  0.00  0.00    +0.038 C 
ATOM     11  C   UNL     1       4.059   0.204  -0.283  0.00  0.00    +0.058 C 
ATOM     12  C   UNL     1       4.001  -1.190  -0.281  0.00  0.00    +0.015 C 
BRANCH   8  13
ATOM     13  O   UNL     1       0.426  -1.750   0.197  0.00  0.00    -0.471 OA
ATOM     14  C   UNL     1       0.033  -2.069   1.530  0.00  0.00    +0.252 C 
ENDBRANCH   8  13
ENDBRANCH   2   7
BRANCH   4  16
ATOM     15  O   UNL     1      -4.001   1.775  -0.297  0.00  0.00    -0.265 OA
ATOM     16  C   UNL     1      -2.985   1.050  -0.423  0.00  0.00    +0.306 C 
BRANCH  16  17
ATOM     17  N   UNL     1      -3.073  -0.205  -1.032  0.00  0.00    -0.141 NA
BRANCH  17  20
ATOM     18  N   UNL     1      -3.405  -2.574  -0.758  0.00  0.00    -0.372 N 
ATOM     19  N   UNL     1      -3.454  -1.181   1.048  0.00  0.00    -0.372 N 
ATOM     20  C   UNL     1      -3.292  -1.275  -0.314  0.00  0.00    +0.185 C 
ATOM     21  H   UNL     1      -3.308  -2.776  -1.716  0.00  0.00    +0.159 HD
ATOM     22  H   UNL     1      -3.581  -3.300  -0.117  0.00  0.00    +0.159 HD
ATOM     23  H   UNL     1      -3.396  -0.303   1.491  0.00  0.00    +0.159 HD
ATOM     24  H   UNL     1      -3.628  -1.990   1.581  0.00  0.00    +0.159 HD
ENDBRANCH  17  20
ENDBRANCH  16  17
ENDBRANCH   4  16
TORSDOF 5
