REMARK  Name = 11406911
REMARK  6 active torsions:
REMARK  status: ('A' for Active; 'I' for Inactive)
REMARK    1  A    between atoms: C_5  and  C_20
REMARK    2  A    between atoms: C_8  and  O_16
REMARK    3  A    between atoms: C_10  and  O_18
REMARK    4  A    between atoms: C_20  and  C_21
REMARK    5  A    between atoms: C_21  and  C_25
REMARK    6  A    between atoms: C_21  and  O_30
REMARK                            x       y       z     vdW  Elec       q    Type
REMARK                         _______ _______ _______ _____ _____    ______ ____
ROOT
ATOM      1 CL   UNL     1       2.418   3.925  -0.613  0.00  0.00    -0.112 Cl
ATOM      2  C   UNL     1       1.357  -0.080  -0.690  0.00  0.00    +0.005 C 
ATOM      3  C   UNL     1       2.257  -0.541   0.524  0.00  0.00    +0.005 C 
ATOM      4  C   UNL     1       3.663   0.156   0.669  0.00  0.00    +0.026 C 
ATOM      5  C   UNL     1      -0.094  -0.679  -0.451  0.00  0.00    +0.023 C 
ATOM      6  C   UNL     1       1.295   1.468  -0.695  0.00  0.00    +0.019 C 
ATOM      7  C   UNL     1       2.292  -2.084   0.632  0.00  0.00    +0.034 C 
ATOM      8  C   UNL     1       3.487   1.705   0.562  0.00  0.00    +0.125 C 
ATOM      9  C   UNL     1       2.666   2.140  -0.654  0.00  0.00    +0.107 C 
ATOM     10  C   UNL     1       0.886  -2.684   0.763  0.00  0.00    +0.129 C 
ATOM     11  C   UNL     1       1.881  -0.558  -2.068  0.00  0.00    +0.000 C 
ATOM     12  C   UNL     1      -0.023  -2.207  -0.352  0.00  0.00    -0.018 C 
ATOM     13  C   UNL     1       4.726  -0.353  -0.328  0.00  0.00    +0.002 C 
ATOM     14  C   UNL     1       4.234  -0.151   2.085  0.00  0.00    +0.002 C 
ATOM     15  C   UNL     1      -0.683  -3.052  -1.164  0.00  0.00    -0.007 C 
ENDROOT
BRANCH   8  16
ATOM     16  O   UNL     1       4.760   2.351   0.488  0.00  0.00    -0.383 OA
ATOM     17  H   UNL     1       5.301   2.091   1.250  0.00  0.00    +0.210 HD
ENDBRANCH   8  16
BRANCH  10  18
ATOM     18  O   UNL     1       1.001  -4.104   0.794  0.00  0.00    -0.380 OA
ATOM     19  H   UNL     1       1.589  -4.366   1.519  0.00  0.00    +0.211 HD
ENDBRANCH  10  18
BRANCH   5  20
ATOM     20  C   UNL     1      -1.170  -0.151  -1.417  0.00  0.00    +0.034 C 
BRANCH  20  21
ATOM     21  C   UNL     1      -2.571  -0.562  -0.978  0.00  0.00    +0.120 C 
BRANCH  21  25
ATOM     22  O   UNL     1      -4.701  -1.498   0.978  0.00  0.00    -0.275 OA
ATOM     23  O   UNL     1      -4.731   3.090   0.675  0.00  0.00    -0.275 OA
ATOM     24  N   UNL     1      -5.031   0.798   0.908  0.00  0.00    -0.255 N 
ATOM     25  C   UNL     1      -2.895   0.016   0.391  0.00  0.00    +0.113 C 
ATOM     26  C   UNL     1      -2.889   1.547   0.398  0.00  0.00    +0.097 C 
ATOM     27  C   UNL     1      -4.300  -0.357   0.800  0.00  0.00    +0.230 C 
ATOM     28  C   UNL     1      -4.314   1.941   0.664  0.00  0.00    +0.229 C 
ATOM     29  H   UNL     1      -5.987   0.806   1.140  0.00  0.00    +0.158 HD
ENDBRANCH  21  25
BRANCH  21  30
ATOM     30  O   UNL     1      -3.523  -0.076  -1.920  0.00  0.00    -0.384 OA
ATOM     31  H   UNL     1      -3.324  -0.440  -2.798  0.00  0.00    +0.210 HD
ENDBRANCH  21  30
ENDBRANCH  20  21
ENDBRANCH   5  20
TORSDOF 6
