11408160
  -OEChem-03292013303D

 64 68  0     1  0  0  0  0  0999 V2000
   -4.5592   -0.8749   -1.0861 O   0  0  0  0  0  0  0  0  0  0  0  0
   -2.7039    1.5148    1.7498 O   0  0  0  0  0  0  0  0  0  0  0  0
    1.1792    1.0217   -0.2917 O   0  0  0  0  0  0  0  0  0  0  0  0
   -6.5021   -0.4222    0.1341 O   0  0  0  0  0  0  0  0  0  0  0  0
   -0.4995   -2.1836   -1.2930 O   0  0  0  0  0  0  0  0  0  0  0  0
    3.2786    0.0361    0.0019 O   0  0  0  0  0  0  0  0  0  0  0  0
    1.7359   -3.6819    0.2854 O   0  0  0  0  0  0  0  0  0  0  0  0
   -2.4753   -0.2422    0.0974 C   0  0  1  0  0  0  0  0  0  0  0  0
   -3.0580    1.2014    0.3860 C   0  0  1  0  0  0  0  0  0  0  0  0
   -4.6488    1.1803    0.2475 C   0  0  0  0  0  0  0  0  0  0  0  0
   -0.9006   -0.2182    0.1362 C   0  0  2  0  0  0  0  0  0  0  0  0
   -5.0780   -0.3265    0.1364 C   0  0  2  0  0  0  0  0  0  0  0  0
   -2.9872   -1.1995    1.2172 C   0  0  0  0  0  0  0  0  0  0  0  0
   -0.2096    0.9006   -0.6948 C   0  0  1  0  0  0  0  0  0  0  0  0
   -2.3605    2.2722   -0.4856 C   0  0  0  0  0  0  0  0  0  0  0  0
   -3.1289   -0.7695   -1.2000 C   0  0  0  0  0  0  0  0  0  0  0  0
   -4.5098   -1.1814    1.2764 C   0  0  0  0  0  0  0  0  0  0  0  0
   -0.8411    2.2586   -0.3370 C   0  0  0  0  0  0  0  0  0  0  0  0
   -0.1637   -1.5643   -0.0603 C   0  0  2  0  0  0  0  0  0  0  0  0
   -5.3501    1.8673    1.4464 C   0  0  0  0  0  0  0  0  0  0  0  0
   -5.1624    1.9260   -1.0152 C   0  0  0  0  0  0  0  0  0  0  0  0
   -0.1960    0.7296   -2.2242 C   0  0  0  0  0  0  0  0  0  0  0  0
    1.3258   -1.3541   -0.0132 C   0  0  0  0  0  0  0  0  0  0  0  0
    1.9046   -0.1401   -0.0975 C   0  0  0  0  0  0  0  0  0  0  0  0
    2.1919   -2.5475    0.1924 C   0  0  0  0  0  0  0  0  0  0  0  0
    3.6462   -2.3127    0.2801 C   0  0  0  0  0  0  0  0  0  0  0  0
    4.0994   -1.0582    0.1827 C   0  0  0  0  0  0  0  0  0  0  0  0
    5.4960   -0.7302    0.2594 C   0  0  0  0  0  0  0  0  0  0  0  0
    5.9640    0.5217    0.1629 C   0  0  0  0  0  0  0  0  0  0  0  0
    7.3717    0.8432    0.2403 C   0  0  0  0  0  0  0  0  0  0  0  0
    7.8450    2.0943    0.1444 C   0  0  0  0  0  0  0  0  0  0  0  0
    9.2963    2.4389    0.2215 C   0  0  0  0  0  0  0  0  0  0  0  0
   -0.6608    0.0446    1.1823 H   0  0  0  0  0  0  0  0  0  0  0  0
   -2.5574   -0.9749    2.1998 H   0  0  0  0  0  0  0  0  0  0  0  0
   -2.6734   -2.2281    0.9972 H   0  0  0  0  0  0  0  0  0  0  0  0
   -2.7061    3.2673   -0.1778 H   0  0  0  0  0  0  0  0  0  0  0  0
   -2.6121    2.1550   -1.5437 H   0  0  0  0  0  0  0  0  0  0  0  0
   -2.9330   -0.1316   -2.0609 H   0  0  0  0  0  0  0  0  0  0  0  0
   -2.7860   -1.7734   -1.4567 H   0  0  0  0  0  0  0  0  0  0  0  0
   -4.8833   -2.2099    1.1839 H   0  0  0  0  0  0  0  0  0  0  0  0
   -4.8624   -0.8372    2.2542 H   0  0  0  0  0  0  0  0  0  0  0  0
   -0.4057    3.0525   -0.9583 H   0  0  0  0  0  0  0  0  0  0  0  0
   -0.5669    2.5315    0.6912 H   0  0  0  0  0  0  0  0  0  0  0  0
   -0.4548   -2.2462    0.7465 H   0  0  0  0  0  0  0  0  0  0  0  0
   -6.4347    1.9224    1.2959 H   0  0  0  0  0  0  0  0  0  0  0  0
   -4.9908    2.8961    1.5658 H   0  0  0  0  0  0  0  0  0  0  0  0
   -5.1956    1.3462    2.3946 H   0  0  0  0  0  0  0  0  0  0  0  0
   -6.2549    1.9302   -1.0844 H   0  0  0  0  0  0  0  0  0  0  0  0
   -4.7793    1.4946   -1.9447 H   0  0  0  0  0  0  0  0  0  0  0  0
   -4.8699    2.9819   -0.9933 H   0  0  0  0  0  0  0  0  0  0  0  0
   -3.1906    0.9415    2.3606 H   0  0  0  0  0  0  0  0  0  0  0  0
    0.3705    1.5477   -2.6872 H   0  0  0  0  0  0  0  0  0  0  0  0
    0.3184   -0.1831   -2.5375 H   0  0  0  0  0  0  0  0  0  0  0  0
   -1.1882    0.7341   -2.6722 H   0  0  0  0  0  0  0  0  0  0  0  0
   -6.8565    0.1329   -0.5766 H   0  0  0  0  0  0  0  0  0  0  0  0
   -0.0757   -3.0585   -1.3152 H   0  0  0  0  0  0  0  0  0  0  0  0
    4.2949   -3.1692    0.4234 H   0  0  0  0  0  0  0  0  0  0  0  0
    6.1902   -1.5558    0.4026 H   0  0  0  0  0  0  0  0  0  0  0  0
    5.2928    1.3651    0.0194 H   0  0  0  0  0  0  0  0  0  0  0  0
    8.0652    0.0181    0.3827 H   0  0  0  0  0  0  0  0  0  0  0  0
    7.1604    2.9271    0.0017 H   0  0  0  0  0  0  0  0  0  0  0  0
    9.9262    1.5553    0.3649 H   0  0  0  0  0  0  0  0  0  0  0  0
    9.6106    2.9356   -0.7015 H   0  0  0  0  0  0  0  0  0  0  0  0
    9.4726    3.1227    1.0574 H   0  0  0  0  0  0  0  0  0  0  0  0
  1 12  1  0  0  0  0
  1 16  1  0  0  0  0
  2  9  1  0  0  0  0
  2 51  1  0  0  0  0
  3 14  1  0  0  0  0
  3 24  1  0  0  0  0
  4 12  1  0  0  0  0
  4 55  1  0  0  0  0
  5 19  1  0  0  0  0
  5 56  1  0  0  0  0
  6 24  1  0  0  0  0
  6 27  1  0  0  0  0
  7 25  2  0  0  0  0
  8  9  1  0  0  0  0
  8 11  1  0  0  0  0
  8 13  1  0  0  0  0
  8 16  1  0  0  0  0
  9 10  1  0  0  0  0
  9 15  1  0  0  0  0
 10 12  1  0  0  0  0
 10 20  1  0  0  0  0
 10 21  1  0  0  0  0
 11 14  1  0  0  0  0
 11 19  1  0  0  0  0
 11 33  1  0  0  0  0
 12 17  1  0  0  0  0
 13 17  1  0  0  0  0
 13 34  1  0  0  0  0
 13 35  1  0  0  0  0
 14 18  1  0  0  0  0
 14 22  1  0  0  0  0
 15 18  1  0  0  0  0
 15 36  1  0  0  0  0
 15 37  1  0  0  0  0
 16 38  1  0  0  0  0
 16 39  1  0  0  0  0
 17 40  1  0  0  0  0
 17 41  1  0  0  0  0
 18 42  1  0  0  0  0
 18 43  1  0  0  0  0
 19 23  1  0  0  0  0
 19 44  1  0  0  0  0
 20 45  1  0  0  0  0
 20 46  1  0  0  0  0
 20 47  1  0  0  0  0
 21 48  1  0  0  0  0
 21 49  1  0  0  0  0
 21 50  1  0  0  0  0
 22 52  1  0  0  0  0
 22 53  1  0  0  0  0
 22 54  1  0  0  0  0
 23 24  2  0  0  0  0
 23 25  1  0  0  0  0
 25 26  1  0  0  0  0
 26 27  2  0  0  0  0
 26 57  1  0  0  0  0
 27 28  1  0  0  0  0
 28 29  2  0  0  0  0
 28 58  1  0  0  0  0
 29 30  1  0  0  0  0
 29 59  1  0  0  0  0
 30 31  2  0  0  0  0
 30 60  1  0  0  0  0
 31 32  1  0  0  0  0
 31 61  1  0  0  0  0
 32 62  1  0  0  0  0
 32 63  1  0  0  0  0
 32 64  1  0  0  0  0
M  END
> <PUBCHEM_COMPOUND_CID>
11408160

> <PUBCHEM_CONFORMER_RMSD>
0.8

> <PUBCHEM_CONFORMER_DIVERSEORDER>
1
2

> <PUBCHEM_MMFF94_PARTIAL_CHARGES>
30
1 -0.56
12 0.56
14 0.28
16 0.28
19 0.42
2 -0.68
23 -0.12
24 0.15
25 0.54
26 -0.14
27 0.08
28 -0.15
29 -0.15
3 -0.36
30 -0.15
31 -0.29
32 0.14
4 -0.68
5 -0.68
51 0.4
55 0.4
56 0.4
57 0.15
58 0.15
59 0.15
6 -0.15
60 0.15
61 0.15
7 -0.57
9 0.28

> <PUBCHEM_EFFECTIVE_ROTOR_COUNT>
3.8

> <PUBCHEM_PHARMACOPHORE_FEATURES>
16
1 1 acceptor
1 2 acceptor
1 2 donor
1 3 acceptor
1 32 hydrophobe
1 4 acceptor
1 4 donor
1 5 acceptor
1 5 donor
1 6 acceptor
1 7 acceptor
3 10 20 21 hydrophobe
6 3 11 14 19 23 24 rings
6 6 23 24 25 26 27 rings
6 8 9 11 14 15 18 rings
8 1 8 9 10 12 13 16 17 rings

> <PUBCHEM_HEAVY_ATOM_COUNT>
32

> <PUBCHEM_ATOM_DEF_STEREO_COUNT>
6

> <PUBCHEM_ATOM_UDEF_STEREO_COUNT>
0

> <PUBCHEM_BOND_DEF_STEREO_COUNT>
2

> <PUBCHEM_BOND_UDEF_STEREO_COUNT>
0

> <PUBCHEM_ISOTOPIC_ATOM_COUNT>
0

> <PUBCHEM_COMPONENT_COUNT>
1

> <PUBCHEM_CACTVS_TAUTO_COUNT>
1

> <PUBCHEM_CONFORMER_ID>
00AE132000000001

> <PUBCHEM_MMFF94_ENERGY>
130.4071

> <PUBCHEM_FEATURE_SELFOVERLAP>
81.346

> <PUBCHEM_SHAPE_FINGERPRINT>
10 15 18259982700360144584
10369192 42 18272933856408456180
10670039 82 14620805881567721024
10835480 77 18261386702914220405
10906281 52 18042143019320433074
10930396 42 16733253660369010612
11135609 187 18260821571723813999
11315181 36 18343582949938812713
11578080 2 18044081363747123837
12107183 9 17333374493625094699
12236239 1 18201156563829656003
12516196 113 18409730642632484872
12596602 18 18060140899127277714
12741549 16 16805322215332160709
13140716 1 18193278713382713826
13224815 77 18339081476082779375
13631057 29 18271238439132207247
13911987 19 17775280534741413957
14394314 77 18412268302674934185
1454969 45 18410570712623982518
14790565 3 18409733984576061756
14840074 17 18343578547016982086
14849402 71 18340488975800524568
14856354 85 15913046559879576509
15183329 4 11167944645819601180
16126227 98 18339642360826870384
16992610 120 18263095439786251164
17349148 13 17895482431682474503
17980427 23 18410300185872454541
1813 80 17096381548369505023
18393751 57 18113899390623378450
18603816 31 12973884866379557648
19315958 150 18338802187428999881
19611394 137 17969233398513487282
20511986 3 18040989597147243071
20775438 99 12258725227837683641
21130935 74 18187366484915874946
21365058 113 13758066433296685778
21365058 27 17060344050058231062
22224240 67 18334012809357203002
23559900 14 18408035213130600793
24771293 8 18408606981063253252
2747138 104 18115041761238898650
34797466 226 17917717876869115758
350125 39 18409727392022886204
4073 2 18334018289155731082
4169191 19 18409165511031174428
4403749 210 18334853961042311466
5104073 3 18189333468621058442
550186 72 18335137570892939156
57527293 21 17987517014158242191
57527585 21 16914804830847038185
5758199 1 18411983577045257376
59755656 520 13686294677537118877
9961470 85 17907854351884617464

> <PUBCHEM_SHAPE_MULTIPOLES>
617.46
18.39
2.95
1.21
36.81
0.79
0.18
-12.34
-3.89
2.14
-0.12
-1.47
-0.2
0.06

> <PUBCHEM_SHAPE_SELFOVERLAP>
1345.596

> <PUBCHEM_SHAPE_VOLUME>
325.9

> <PUBCHEM_COORDINATE_TYPE>
2
5
10

$$$$
