11403628
  -OEChem-03292013303D

 32 33  0     0  0  0  0  0  0999 V2000
    5.5713    1.0014   -0.4830 Cl  0  0  0  0  0  0  0  0  0  0  0  0
   -0.6659    0.5225   -0.2652 O   0  0  0  0  0  0  0  0  0  0  0  0
    0.4256   -1.7502    0.1968 O   0  0  0  0  0  0  0  0  0  0  0  0
   -4.0010    1.7748   -0.2972 O   0  0  0  0  0  0  0  0  0  0  0  0
   -3.0730   -0.2046   -1.0316 N   0  0  0  0  0  0  0  0  0  0  0  0
   -3.4045   -2.5736   -0.7577 N   0  0  0  0  0  0  0  0  0  0  0  0
   -3.4539   -1.1805    1.0483 N   0  0  0  0  0  0  0  0  0  0  0  0
    1.6667    0.3030    0.0398 C   0  0  0  0  0  0  0  0  0  0  0  0
    0.4690    1.0945    0.2044 C   0  0  0  0  0  0  0  0  0  0  0  0
    1.6091   -1.0907    0.0412 C   0  0  0  0  0  0  0  0  0  0  0  0
    0.2159    2.3274    0.7430 C   0  0  0  0  0  0  0  0  0  0  0  0
    2.8915    0.9504   -0.1223 C   0  0  0  0  0  0  0  0  0  0  0  0
   -1.6673    1.4082   -0.0223 C   0  0  0  0  0  0  0  0  0  0  0  0
   -1.1765    2.5345    0.5962 C   0  0  0  0  0  0  0  0  0  0  0  0
    2.7763   -1.8370   -0.1193 C   0  0  0  0  0  0  0  0  0  0  0  0
    4.0590    0.2039   -0.2828 C   0  0  0  0  0  0  0  0  0  0  0  0
    4.0012   -1.1899   -0.2812 C   0  0  0  0  0  0  0  0  0  0  0  0
   -2.9848    1.0497   -0.4233 C   0  0  0  0  0  0  0  0  0  0  0  0
    0.0330   -2.0686    1.5297 C   0  0  0  0  0  0  0  0  0  0  0  0
   -3.2918   -1.2753   -0.3135 C   0  0  0  0  0  0  0  0  0  0  0  0
    0.9311    3.0026    1.1912 H   0  0  0  0  0  0  0  0  0  0  0  0
    2.9482    2.0371   -0.1305 H   0  0  0  0  0  0  0  0  0  0  0  0
   -1.7467    3.3989    0.9057 H   0  0  0  0  0  0  0  0  0  0  0  0
    2.7393   -2.9232   -0.1202 H   0  0  0  0  0  0  0  0  0  0  0  0
    4.9026   -1.7845   -0.4055 H   0  0  0  0  0  0  0  0  0  0  0  0
    0.8174   -2.6372    2.0398 H   0  0  0  0  0  0  0  0  0  0  0  0
   -0.8664   -2.6881    1.4833 H   0  0  0  0  0  0  0  0  0  0  0  0
   -0.1957   -1.1595    2.0940 H   0  0  0  0  0  0  0  0  0  0  0  0
   -3.3124   -2.7999   -1.7420 H   0  0  0  0  0  0  0  0  0  0  0  0
   -3.5749   -3.3403   -0.1161 H   0  0  0  0  0  0  0  0  0  0  0  0
   -3.4135   -0.2987    1.5465 H   0  0  0  0  0  0  0  0  0  0  0  0
   -3.6200   -2.0087    1.6102 H   0  0  0  0  0  0  0  0  0  0  0  0
  1 16  1  0  0  0  0
  2  9  1  0  0  0  0
  2 13  1  0  0  0  0
  3 10  1  0  0  0  0
  3 19  1  0  0  0  0
  4 18  2  0  0  0  0
  5 18  1  0  0  0  0
  5 20  2  0  0  0  0
  6 20  1  0  0  0  0
  6 29  1  0  0  0  0
  6 30  1  0  0  0  0
  7 20  1  0  0  0  0
  7 31  1  0  0  0  0
  7 32  1  0  0  0  0
  8  9  1  0  0  0  0
  8 10  2  0  0  0  0
  8 12  1  0  0  0  0
  9 11  2  0  0  0  0
 10 15  1  0  0  0  0
 11 14  1  0  0  0  0
 11 21  1  0  0  0  0
 12 16  2  0  0  0  0
 12 22  1  0  0  0  0
 13 14  2  0  0  0  0
 13 18  1  0  0  0  0
 14 23  1  0  0  0  0
 15 17  2  0  0  0  0
 15 24  1  0  0  0  0
 16 17  1  0  0  0  0
 17 25  1  0  0  0  0
 19 26  1  0  0  0  0
 19 27  1  0  0  0  0
 19 28  1  0  0  0  0
M  END
> <PUBCHEM_COMPOUND_CID>
11403628

> <PUBCHEM_CONFORMER_RMSD>
0.6

> <PUBCHEM_CONFORMER_DIVERSEORDER>
10
121
20
124
103
88
14
120
22
108
67
125
92
96
44
46
91
59
2
41
39
7
53
101
129
95
113
110
75
18
51
126
57
26
119
87
89
60
77
106
102
49
83
128
123
16
35
79
78
63
4
23
115
114
84
13
118
19
48
55
94
85
66
127
45
5
17
81
37
116
73
112
9
33
68
62
99
69
82
61
98
93
3
109
90
111
1
104
6
11
52
80
117
72
21
97
65
56
31
86
76
25
107
122
71
70
40
43
29
15
58
12
30
50
24
42
8
64
100
27
54
47
105
32
28
36
34
38
74

> <PUBCHEM_MMFF94_PARTIAL_CHARGES>
29
1 -0.18
10 0.08
11 -0.15
12 -0.15
13 0.05
14 -0.15
15 -0.15
16 0.18
17 -0.15
18 0.87
19 0.28
2 -0.28
20 0.55
21 0.15
22 0.15
23 0.15
24 0.15
25 0.15
29 0.4
3 -0.36
30 0.4
31 0.4
32 0.4
4 -0.57
5 -0.66
6 -0.85
7 -0.85
8 0.05
9 0.09

> <PUBCHEM_EFFECTIVE_ROTOR_COUNT>
4

> <PUBCHEM_PHARMACOPHORE_FEATURES>
8
1 2 acceptor
1 3 acceptor
1 4 acceptor
1 5 donor
1 6 donor
1 7 donor
5 2 9 11 13 14 rings
6 8 10 12 15 16 17 rings

> <PUBCHEM_HEAVY_ATOM_COUNT>
20

> <PUBCHEM_ATOM_DEF_STEREO_COUNT>
0

> <PUBCHEM_ATOM_UDEF_STEREO_COUNT>
0

> <PUBCHEM_BOND_DEF_STEREO_COUNT>
0

> <PUBCHEM_BOND_UDEF_STEREO_COUNT>
0

> <PUBCHEM_ISOTOPIC_ATOM_COUNT>
0

> <PUBCHEM_COMPONENT_COUNT>
1

> <PUBCHEM_CACTVS_TAUTO_COUNT>
3

> <PUBCHEM_CONFORMER_ID>
00AE016C0000000A

> <PUBCHEM_MMFF94_ENERGY>
62.3342

> <PUBCHEM_FEATURE_SELFOVERLAP>
40.741

> <PUBCHEM_SHAPE_FINGERPRINT>
10616163 171 18342458105992421495
108231 29 18341049730360369721
121448 382 18259705596858353034
12553582 1 18342166821658579143
12596599 1 17701561699273179311
12788726 201 17701536200026339937
13032168 30 18413111653777962824
14787075 74 18265052603730067556
14790565 3 17909836431677764113
15196674 1 18410012117893921790
15209289 33 18336550516205662835
15415430 112 18412823564741338181
17349148 13 18259703411257945778
17357779 13 18190178073734347747
18186145 218 18041558044727193398
19591789 44 18125438867687326804
200 152 18342736303988134868
21267235 1 18269281179036601215
21634736 98 18410856547113713982
221490 88 18339081596120155144
23402539 116 18409444791627243340
23402655 69 18411137996357570100
23559900 14 18341608167094141608
238078 22 18343587351673506156
2748010 2 18267848653130965785
2871803 45 18335409214746654247
3312278 4 18412261705704672865
34934 24 18340201886963401901
4340502 62 17097229238028929713
4921388 177 17023194833462733555
5104073 3 18411699851247214936
6786 2 11402785219210628635
8809292 202 18409448051211930803
9709674 26 18056481651610799958

> <PUBCHEM_SHAPE_MULTIPOLES>
380.91
8.58
2.8
0.93
4.49
0.18
-0.19
0.37
2.27
-1.53
-0.46
-0.36
0.25
-0.22

> <PUBCHEM_SHAPE_SELFOVERLAP>
815.031

> <PUBCHEM_SHAPE_VOLUME>
212.8

> <PUBCHEM_COORDINATE_TYPE>
2
5
10

$$$$
