REMARK  Name = 11417497
REMARK  9 active torsions:
REMARK  status: ('A' for Active; 'I' for Inactive)
REMARK    1  A    between atoms: N_3  and  C_20
REMARK    2  A    between atoms: C_20  and  C_21
REMARK    3  A    between atoms: C_21  and  O_22
REMARK    4  A    between atoms: C_21  and  C_24
REMARK    5  A    between atoms: C_24  and  O_25
REMARK    6  A    between atoms: C_24  and  C_27
REMARK    7  A    between atoms: C_27  and  O_28
REMARK    8  A    between atoms: C_27  and  C_30
REMARK    9  A    between atoms: C_30  and  O_31
REMARK                            x       y       z     vdW  Elec       q    Type
REMARK                         _______ _______ _______ _____ _____    ______ ____
ROOT
ATOM      1  O   UNL     1      -4.683  -1.210  -1.216  0.00  0.00    -0.267 OA
ATOM      2  O   UNL     1      -2.207  -4.633   0.631  0.00  0.00    -0.270 OA
ATOM      3  N   UNL     1      -0.398  -0.175   0.685  0.00  0.00    -0.295 N 
ATOM      4  N   UNL     1      -2.856   0.581  -0.534  0.00  0.00    -0.398 NA
ATOM      5  N   UNL     1      -3.465  -2.943  -0.291  0.00  0.00    -0.246 N 
ATOM      6  C   UNL     1      -0.666   1.196   0.408  0.00  0.00    +0.148 C 
ATOM      7  C   UNL     1      -1.362  -1.151   0.406  0.00  0.00    +0.088 C 
ATOM      8  C   UNL     1      -1.893   1.545  -0.199  0.00  0.00    +0.131 C 
ATOM      9  C   UNL     1      -2.607  -0.657  -0.252  0.00  0.00    +0.198 C 
ATOM     10  C   UNL     1       0.230   2.242   0.711  0.00  0.00    -0.004 C 
ATOM     11  C   UNL     1      -0.076   3.574   0.419  0.00  0.00    -0.028 C 
ATOM     12  C   UNL     1      -2.190   2.886  -0.488  0.00  0.00    +0.025 C 
ATOM     13  C   UNL     1      -1.286   3.897  -0.181  0.00  0.00    -0.024 C 
ATOM     14  C   UNL     1      -1.293  -2.466   0.667  0.00  0.00    +0.075 C 
ATOM     15  C   UNL     1      -3.690  -1.628  -0.636  0.00  0.00    +0.283 C 
ATOM     16  C   UNL     1      -2.351  -3.447   0.342  0.00  0.00    +0.253 C 
ATOM     17  C   UNL     1       0.916   4.637   0.764  0.00  0.00    +0.030 C 
ATOM     18  C   UNL     1      -1.637   5.312  -0.502  0.00  0.00    +0.031 C 
ATOM     19  H   UNL     1      -4.173  -3.587  -0.520  0.00  0.00    +0.158 HD
ENDROOT
BRANCH   3  20
ATOM     20  C   UNL     1       0.910  -0.471   1.276  0.00  0.00    +0.123 C 
BRANCH  20  21
ATOM     21  C   UNL     1       1.938  -0.735   0.168  0.00  0.00    +0.159 C 
BRANCH  21  22
ATOM     22  O   UNL     1       1.481  -1.831  -0.625  0.00  0.00    -0.380 OA
ATOM     23  H   UNL     1       0.599  -1.630  -0.976  0.00  0.00    +0.211 HD
ENDBRANCH  21  22
BRANCH  21  24
ATOM     24  C   UNL     1       3.339  -1.058   0.724  0.00  0.00    +0.168 C 
BRANCH  24  25
ATOM     25  O   UNL     1       3.795   0.023   1.536  0.00  0.00    -0.379 OA
ATOM     26  H   UNL     1       3.147   0.197   2.236  0.00  0.00    +0.211 HD
ENDBRANCH  24  25
BRANCH  24  27
ATOM     27  C   UNL     1       4.380  -1.318  -0.381  0.00  0.00    +0.169 C 
BRANCH  27  28
ATOM     28  O   UNL     1       5.647  -1.584   0.224  0.00  0.00    -0.379 OA
ATOM     29  H   UNL     1       5.565  -2.339   0.827  0.00  0.00    +0.211 HD
ENDBRANCH  27  28
BRANCH  27  30
ATOM     30  C   UNL     1       4.535  -0.127  -1.325  0.00  0.00    +0.169 C 
BRANCH  30  31
ATOM     31  O   UNL     1       5.486  -0.460  -2.332  0.00  0.00    -0.379 OA
ATOM     32  H   UNL     1       5.592   0.290  -2.938  0.00  0.00    +0.211 HD
ENDBRANCH  30  31
ENDBRANCH  27  30
ENDBRANCH  24  27
ENDBRANCH  21  24
ENDBRANCH  20  21
ENDBRANCH   3  20
TORSDOF 9
