11417217
  -OEChem-03292013303D

 44 45  0     1  0  0  0  0  0999 V2000
   -1.6214   -1.3795   -1.1710 S   0  0  0  0  0  0  0  0  0  0  0  0
   -1.1876   -1.4796   -2.5486 O   0  0  0  0  0  0  0  0  0  0  0  0
   -2.3603   -2.4420   -0.5220 O   0  0  0  0  0  0  0  0  0  0  0  0
   -4.5454    0.0519    2.0237 O   0  0  0  0  0  0  0  0  0  0  0  0
   -4.8395   -0.7619   -0.0725 O   0  0  0  0  0  0  0  0  0  0  0  0
   -1.3199    3.4497   -0.6155 O   0  0  0  0  0  0  0  0  0  0  0  0
   -2.4273    0.1086   -0.9273 N   0  0  0  0  0  0  0  0  0  0  0  0
    4.4184    0.2571    0.6138 N   0  0  0  0  0  0  0  0  0  0  0  0
   -0.4394    2.2076    1.1083 N   0  0  0  0  0  0  0  0  0  0  0  0
   -0.1247   -1.3473   -0.2503 C   0  0  0  0  0  0  0  0  0  0  0  0
    0.9646   -0.5313   -0.5968 C   0  0  0  0  0  0  0  0  0  0  0  0
    2.1347   -0.5645    0.1987 C   0  0  0  0  0  0  0  0  0  0  0  0
   -2.8107    0.4764    0.4493 C   0  0  1  0  0  0  0  0  0  0  0  0
    3.2238    0.2517   -0.1475 C   0  0  0  0  0  0  0  0  0  0  0  0
   -0.0611   -2.1839    0.8642 C   0  0  0  0  0  0  0  0  0  0  0  0
    0.9181    0.3172   -1.7148 C   0  0  0  0  0  0  0  0  0  0  0  0
    2.1811   -1.4127    1.3170 C   0  0  0  0  0  0  0  0  0  0  0  0
   -2.8025    1.9956    0.6087 C   0  0  0  0  0  0  0  0  0  0  0  0
    1.0894   -2.2166    1.6465 C   0  0  0  0  0  0  0  0  0  0  0  0
    3.1603    1.0888   -1.2620 C   0  0  0  0  0  0  0  0  0  0  0  0
    2.0096    1.1214   -2.0440 C   0  0  0  0  0  0  0  0  0  0  0  0
   -4.1581   -0.1452    0.7360 C   0  0  0  0  0  0  0  0  0  0  0  0
    4.5726    1.1765    1.7195 C   0  0  0  0  0  0  0  0  0  0  0  0
    5.4861   -0.6664    0.2990 C   0  0  0  0  0  0  0  0  0  0  0  0
   -1.4606    2.6283    0.2875 C   0  0  0  0  0  0  0  0  0  0  0  0
   -2.1020    0.0284    1.1535 H   0  0  0  0  0  0  0  0  0  0  0  0
   -2.4293    0.8336   -1.6540 H   0  0  0  0  0  0  0  0  0  0  0  0
   -0.8797   -2.8250    1.1752 H   0  0  0  0  0  0  0  0  0  0  0  0
    0.0463    0.4389   -2.3455 H   0  0  0  0  0  0  0  0  0  0  0  0
   -3.0721    2.2761    1.6342 H   0  0  0  0  0  0  0  0  0  0  0  0
   -3.5559    2.4497   -0.0476 H   0  0  0  0  0  0  0  0  0  0  0  0
    3.0587   -1.4724    1.9558 H   0  0  0  0  0  0  0  0  0  0  0  0
    1.1382   -2.8669    2.5153 H   0  0  0  0  0  0  0  0  0  0  0  0
    4.0021    1.7229   -1.5291 H   0  0  0  0  0  0  0  0  0  0  0  0
    1.9573    1.7822   -2.9045 H   0  0  0  0  0  0  0  0  0  0  0  0
    3.9314    0.8849    2.5578 H   0  0  0  0  0  0  0  0  0  0  0  0
    4.3047    2.1956    1.4196 H   0  0  0  0  0  0  0  0  0  0  0  0
    5.6057    1.2067    2.0820 H   0  0  0  0  0  0  0  0  0  0  0  0
    6.0265   -0.3307   -0.5923 H   0  0  0  0  0  0  0  0  0  0  0  0
    5.0972   -1.6723    0.1065 H   0  0  0  0  0  0  0  0  0  0  0  0
    6.2065   -0.7490    1.1197 H   0  0  0  0  0  0  0  0  0  0  0  0
   -5.4191   -0.3540    2.2085 H   0  0  0  0  0  0  0  0  0  0  0  0
    0.5043    2.5605    0.9876 H   0  0  0  0  0  0  0  0  0  0  0  0
   -0.5820    1.5453    1.8637 H   0  0  0  0  0  0  0  0  0  0  0  0
  1  2  2  0  0  0  0
  1  3  2  0  0  0  0
  1  7  1  0  0  0  0
  1 10  1  0  0  0  0
  4 22  1  0  0  0  0
  4 42  1  0  0  0  0
  5 22  2  0  0  0  0
  6 25  2  0  0  0  0
  7 13  1  0  0  0  0
  7 27  1  0  0  0  0
  8 14  1  0  0  0  0
  8 23  1  0  0  0  0
  8 24  1  0  0  0  0
  9 25  1  0  0  0  0
  9 43  1  0  0  0  0
  9 44  1  0  0  0  0
 10 11  1  0  0  0  0
 10 15  2  0  0  0  0
 11 12  2  0  0  0  0
 11 16  1  0  0  0  0
 12 14  1  0  0  0  0
 12 17  1  0  0  0  0
 13 18  1  0  0  0  0
 13 22  1  0  0  0  0
 13 26  1  0  0  0  0
 14 20  2  0  0  0  0
 15 19  1  0  0  0  0
 15 28  1  0  0  0  0
 16 21  2  0  0  0  0
 16 29  1  0  0  0  0
 17 19  2  0  0  0  0
 17 32  1  0  0  0  0
 18 25  1  0  0  0  0
 18 30  1  0  0  0  0
 18 31  1  0  0  0  0
 19 33  1  0  0  0  0
 20 21  1  0  0  0  0
 20 34  1  0  0  0  0
 21 35  1  0  0  0  0
 23 36  1  0  0  0  0
 23 37  1  0  0  0  0
 23 38  1  0  0  0  0
 24 39  1  0  0  0  0
 24 40  1  0  0  0  0
 24 41  1  0  0  0  0
M  END
> <PUBCHEM_COMPOUND_CID>
11417217

> <PUBCHEM_CONFORMER_RMSD>
0.8

> <PUBCHEM_CONFORMER_DIVERSEORDER>
1
48
42
47
17
49
39
45
52
46
33
40
58
50
56
38
23
43
13
29
44
26
54
53
41
28
25
55
51
14
7
4
15
32
11
34
24
6
20
21
3
5
57
18
12
10
37
2
19
22
35
36
8
16
30
31
27
9

> <PUBCHEM_MMFF94_PARTIAL_CHARGES>
33
1 1.45
10 -0.01
13 0.42
14 0.1
15 -0.15
16 -0.15
17 -0.15
18 0.06
19 -0.15
2 -0.65
20 -0.15
21 -0.15
22 0.66
23 0.37
24 0.37
25 0.57
27 0.42
28 0.15
29 0.15
3 -0.65
32 0.15
33 0.15
34 0.15
35 0.15
4 -0.65
42 0.5
43 0.37
44 0.37
5 -0.57
6 -0.57
7 -0.91
8 -0.84
9 -0.8

> <PUBCHEM_EFFECTIVE_ROTOR_COUNT>
7

> <PUBCHEM_PHARMACOPHORE_FEATURES>
11
1 2 acceptor
1 3 acceptor
1 4 acceptor
1 5 acceptor
1 6 acceptor
1 7 donor
1 8 cation
1 9 donor
3 4 5 22 anion
6 10 11 12 15 17 19 rings
6 11 12 14 16 20 21 rings

> <PUBCHEM_HEAVY_ATOM_COUNT>
25

> <PUBCHEM_ATOM_DEF_STEREO_COUNT>
1

> <PUBCHEM_ATOM_UDEF_STEREO_COUNT>
0

> <PUBCHEM_BOND_DEF_STEREO_COUNT>
0

> <PUBCHEM_BOND_UDEF_STEREO_COUNT>
0

> <PUBCHEM_ISOTOPIC_ATOM_COUNT>
0

> <PUBCHEM_COMPONENT_COUNT>
1

> <PUBCHEM_CACTVS_TAUTO_COUNT>
2

> <PUBCHEM_CONFORMER_ID>
00AE368100000001

> <PUBCHEM_MMFF94_ENERGY>
81.9752

> <PUBCHEM_FEATURE_SELFOVERLAP>
55.924

> <PUBCHEM_SHAPE_FINGERPRINT>
10165383 225 16773803575943865027
10366900 7 14056720140998087760
10498660 4 17917435264037411753
1100329 8 18263649639714695281
11370993 70 17095528417862371875
11595378 159 18336808837108613728
11640471 11 18337671906064600036
12236239 1 18335137604824571230
13140716 1 18268712899123893001
13965767 371 17834130653367996273
14178342 30 17897169013621015268
14223421 5 18119250558526923755
14251751 93 18270394980521633472
14341114 328 18262257580863874353
14787075 74 17898872381040250683
14955137 171 17530687598133469990
15209289 33 18260547810307621002
17349148 13 17821450162026586024
18219364 16 17168129157427489046
192875 21 17894919528821004836
20691752 17 18192416679324012825
20715895 44 17755572743083038933
20739085 24 17677610844438659722
22907989 373 12670653917155761850
23402539 116 18131060567619050631
23557571 272 17559962197917105774
3286 77 16298393486698101861
3797600 57 18189922909763793387
392239 28 18337668723551928184
7097593 13 17538847979887053939
7471813 234 17696456752510798983

> <PUBCHEM_SHAPE_MULTIPOLES>
474.05
8.52
2.78
1.9
2.14
1.1
-0.48
0.67
3.33
-1.33
0.36
0.18
-0.12
-0.97

> <PUBCHEM_SHAPE_SELFOVERLAP>
992.773

> <PUBCHEM_SHAPE_VOLUME>
269

> <PUBCHEM_COORDINATE_TYPE>
2
5
10

$$$$
