REMARK  Name = 11417183
REMARK  7 active torsions:
REMARK  status: ('A' for Active; 'I' for Inactive)
REMARK    1  A    between atoms: C_2  and  C_11
REMARK    2  A    between atoms: C_3  and  C_21
REMARK    3  A    between atoms: C_7  and  O_29
REMARK    4  A    between atoms: C_10  and  O_31
REMARK    5  A    between atoms: C_14  and  O_17
REMARK    6  A    between atoms: C_15  and  O_19
REMARK    7  A    between atoms: C_26  and  O_27
REMARK                            x       y       z     vdW  Elec       q    Type
REMARK                         _______ _______ _______ _____ _____    ______ ____
ROOT
ATOM      1  O   UNL     1       1.000  -2.487  -1.915  0.00  0.00    -0.291 OA
ATOM      2  C   UNL     1      -0.163   0.069   0.382  0.00  0.00    +0.059 C 
ATOM      3  C   UNL     1       0.809  -0.323  -0.778  0.00  0.00    +0.092 C 
ATOM      4  C   UNL     1      -1.162  -1.061   0.401  0.00  0.00    +0.019 C 
ATOM      5  C   UNL     1      -0.815  -2.100  -0.455  0.00  0.00    +0.037 C 
ATOM      6  C   UNL     1       0.414  -1.743  -1.149  0.00  0.00    +0.177 C 
ATOM      7  C   UNL     1      -2.296  -1.178   1.193  0.00  0.00    +0.133 C 
ATOM      8  C   UNL     1      -1.559  -3.260  -0.575  0.00  0.00    +0.039 C 
ATOM      9  C   UNL     1      -3.072  -2.338   1.089  0.00  0.00    +0.073 C 
ATOM     10  C   UNL     1      -2.706  -3.371   0.210  0.00  0.00    +0.137 C 
ENDROOT
BRANCH   2  11
ATOM     11  C   UNL     1      -0.780   1.402   0.112  0.00  0.00    -0.012 C 
ATOM     12  C   UNL     1      -0.635   2.435   1.037  0.00  0.00    +0.033 C 
ATOM     13  C   UNL     1      -1.500   1.610  -1.063  0.00  0.00    +0.033 C 
ATOM     14  C   UNL     1      -2.076   2.855  -1.315  0.00  0.00    +0.136 C 
ATOM     15  C   UNL     1      -1.212   3.680   0.785  0.00  0.00    +0.136 C 
ATOM     16  C   UNL     1      -1.933   3.890  -0.390  0.00  0.00    +0.073 C 
BRANCH  14  17
ATOM     17  O   UNL     1      -2.779   3.060  -2.462  0.00  0.00    -0.505 OA
ATOM     18  H   UNL     1      -2.876   2.365  -3.083  0.00  0.00    +0.292 HD
ENDBRANCH  14  17
BRANCH  15  19
ATOM     19  O   UNL     1      -1.072   4.690   1.687  0.00  0.00    -0.505 OA
ATOM     20  H   UNL     1      -0.588   4.549   2.477  0.00  0.00    +0.292 HD
ENDBRANCH  15  19
ENDBRANCH   2  11
BRANCH   3  21
ATOM     21  C   UNL     1       2.238  -0.250  -0.359  0.00  0.00    -0.014 C 
ATOM     22  C   UNL     1       3.136   0.538  -1.079  0.00  0.00    -0.001 C 
ATOM     23  C   UNL     1       2.676  -0.969   0.753  0.00  0.00    -0.001 C 
ATOM     24  C   UNL     1       4.473   0.606  -0.686  0.00  0.00    +0.036 C 
ATOM     25  C   UNL     1       4.013  -0.901   1.145  0.00  0.00    +0.036 C 
ATOM     26  C   UNL     1       4.912  -0.113   0.425  0.00  0.00    +0.134 C 
BRANCH  26  27
ATOM     27  O   UNL     1       6.216  -0.046   0.808  0.00  0.00    -0.506 OA
ATOM     28  H   UNL     1       6.819   0.484   0.324  0.00  0.00    +0.292 HD
ENDBRANCH  26  27
ENDBRANCH   3  21
BRANCH   7  29
ATOM     29  O   UNL     1      -2.654  -0.204   2.070  0.00  0.00    -0.506 OA
ATOM     30  H   UNL     1      -2.137   0.574   2.142  0.00  0.00    +0.292 HD
ENDBRANCH   7  29
BRANCH  10  31
ATOM     31  O   UNL     1      -3.475  -4.492   0.129  0.00  0.00    -0.505 OA
ATOM     32  H   UNL     1      -3.236  -5.184  -0.455  0.00  0.00    +0.292 HD
ENDBRANCH  10  31
TORSDOF 7
