REMARK  Name = 11414760
REMARK  8 active torsions:
REMARK  status: ('A' for Active; 'I' for Inactive)
REMARK    1  A    between atoms: C_1  and  C_2
REMARK    2  A    between atoms: C_1  and  C_12
REMARK    3  A    between atoms: C_5  and  O_8
REMARK    4  A    between atoms: C_7  and  O_10
REMARK    5  A    between atoms: C_12  and  C_14
REMARK    6  A    between atoms: C_12  and  O_17
REMARK    7  A    between atoms: C_14  and  O_15
REMARK    8  A    between atoms: O_17  and  S_18
REMARK                            x       y       z     vdW  Elec       q    Type
REMARK                         _______ _______ _______ _____ _____    ______ ____
ROOT
ATOM      1  C   UNL     1      -0.151   1.293   0.869  0.00  0.00    +0.070 C 
ENDROOT
BRANCH   1   2
ATOM      2  C   UNL     1       1.199   0.848   0.420  0.00  0.00    -0.016 C 
ATOM      3  C   UNL     1       1.751  -0.327   0.930  0.00  0.00    +0.036 C 
ATOM      4  C   UNL     1       1.911   1.607  -0.509  0.00  0.00    -0.001 C 
ATOM      5  C   UNL     1       3.015  -0.743   0.511  0.00  0.00    +0.167 C 
ATOM      6  C   UNL     1       3.175   1.191  -0.928  0.00  0.00    +0.039 C 
ATOM      7  C   UNL     1       3.726   0.016  -0.418  0.00  0.00    +0.167 C 
BRANCH   5   8
ATOM      8  O   UNL     1       3.543  -1.893   1.015  0.00  0.00    -0.503 OA
ATOM      9  H   UNL     1       3.058  -2.397   1.639  0.00  0.00    +0.292 HD
ENDBRANCH   5   8
BRANCH   7  10
ATOM     10  O   UNL     1       4.961  -0.381  -0.836  0.00  0.00    -0.503 OA
ATOM     11  H   UNL     1       5.339  -1.169  -0.498  0.00  0.00    +0.292 HD
ENDBRANCH   7  10
ENDBRANCH   1   2
BRANCH   1  12
ATOM     12  C   UNL     1      -1.282   0.733  -0.010  0.00  0.00    +0.249 C 
BRANCH  12  14
ATOM     13  O   UNL     1      -3.123   1.688   1.260  0.00  0.00    -0.247 OA
ATOM     14  C   UNL     1      -2.568   1.509   0.184  0.00  0.00    +0.344 C 
BRANCH  14  15
ATOM     15  O   UNL     1      -3.043   2.012  -0.985  0.00  0.00    -0.478 OA
ATOM     16  H   UNL     1      -2.585   1.849  -1.786  0.00  0.00    +0.295 HD
ENDBRANCH  14  15
ENDBRANCH  12  14
BRANCH  12  17
ATOM     17  O   UNL     1      -1.530  -0.613   0.378  0.00  0.00    -0.191 OA
BRANCH  17  18
ATOM     18  S   UNL     1      -2.679  -1.480  -0.395  0.00  0.00    +0.239 S 
ATOM     19  O   UNL     1      -2.753  -2.867   0.461  0.00  0.00    -0.022 OA
ATOM     20  O   UNL     1      -3.942  -0.789  -0.217  0.00  0.00    -0.116 OA
ATOM     21  O   UNL     1      -2.208  -1.804  -1.729  0.00  0.00    -0.116 OA
ENDBRANCH  17  18
ENDBRANCH  12  17
ENDBRANCH   1  12
TORSDOF 8
