REMARK  Name = 11417217
REMARK  8 active torsions:
REMARK  status: ('A' for Active; 'I' for Inactive)
REMARK    1  A    between atoms: S_1  and  C_4
REMARK    2  A    between atoms: S_1  and  N_17
REMARK    3  A    between atoms: C_7  and  N_14
REMARK    4  A    between atoms: N_17  and  C_19
REMARK    5  A    between atoms: C_19  and  C_21
REMARK    6  A    between atoms: C_19  and  C_24
REMARK    7  A    between atoms: C_21  and  O_22
REMARK    8  A    between atoms: C_24  and  C_27
REMARK                            x       y       z     vdW  Elec       q    Type
REMARK                         _______ _______ _______ _____ _____    ______ ____
ROOT
ATOM      1  S   UNL     1      -1.621  -1.379  -1.171  0.00  0.00    +0.061 S 
ATOM      2  O   UNL     1      -1.188  -1.480  -2.549  0.00  0.00    -0.153 OA
ATOM      3  O   UNL     1      -2.360  -2.442  -0.522  0.00  0.00    -0.153 OA
ENDROOT
BRANCH   1   4
ATOM      4  C   UNL     1      -0.125  -1.347  -0.250  0.00  0.00    +0.122 C 
ATOM      5  C   UNL     1       0.965  -0.531  -0.597  0.00  0.00    +0.020 C 
ATOM      6  C   UNL     1       2.135  -0.565   0.199  0.00  0.00    +0.015 C 
ATOM      7  C   UNL     1       3.224   0.252  -0.147  0.00  0.00    +0.048 C 
ATOM      8  C   UNL     1      -0.061  -2.184   0.864  0.00  0.00    +0.020 C 
ATOM      9  C   UNL     1       0.918   0.317  -1.715  0.00  0.00    +0.001 C 
ATOM     10  C   UNL     1       2.181  -1.413   1.317  0.00  0.00    +0.001 C 
ATOM     11  C   UNL     1       1.089  -2.217   1.647  0.00  0.00    +0.001 C 
ATOM     12  C   UNL     1       3.160   1.089  -1.262  0.00  0.00    +0.015 C 
ATOM     13  C   UNL     1       2.010   1.121  -2.044  0.00  0.00    +0.001 C 
BRANCH   7  14
ATOM     14  N   UNL     1       4.418   0.257   0.614  0.00  0.00    -0.304 N 
ATOM     15  C   UNL     1       4.573   1.177   1.720  0.00  0.00    +0.112 C 
ATOM     16  C   UNL     1       5.486  -0.666   0.299  0.00  0.00    +0.112 C 
ENDBRANCH   7  14
ENDBRANCH   1   4
BRANCH   1  17
ATOM     17  N   UNL     1      -2.427   0.109  -0.927  0.00  0.00    -0.169 NA
ATOM     18  H   UNL     1      -3.282   0.084  -1.483  0.00  0.00    +0.149 HD
BRANCH  17  19
ATOM     19  C   UNL     1      -2.811   0.476   0.449  0.00  0.00    +0.183 C 
BRANCH  19  21
ATOM     20  O   UNL     1      -4.840  -0.762  -0.072  0.00  0.00    -0.249 OA
ATOM     21  C   UNL     1      -4.158  -0.145   0.736  0.00  0.00    +0.330 C 
BRANCH  21  22
ATOM     22  O   UNL     1      -4.545   0.052   2.024  0.00  0.00    -0.479 OA
ATOM     23  H   UNL     1      -3.994   0.530   2.611  0.00  0.00    +0.295 HD
ENDBRANCH  21  22
ENDBRANCH  19  21
BRANCH  19  24
ATOM     24  C   UNL     1      -2.803   1.996   0.609  0.00  0.00    +0.114 C 
BRANCH  24  27
ATOM     25  O   UNL     1      -1.320   3.450  -0.616  0.00  0.00    -0.275 OA
ATOM     26  N   UNL     1      -0.439   2.208   1.108  0.00  0.00    -0.329 N 
ATOM     27  C   UNL     1      -1.461   2.628   0.287  0.00  0.00    +0.221 C 
ATOM     28  H   UNL     1       0.471   2.560   0.981  0.00  0.00    +0.145 HD
ATOM     29  H   UNL     1      -0.619   1.554   1.823  0.00  0.00    +0.145 HD
ENDBRANCH  24  27
ENDBRANCH  19  24
ENDBRANCH  17  19
ENDBRANCH   1  17
TORSDOF 8
