11427975
  -OEChem-03292013303D

 46 47  0     1  0  0  0  0  0999 V2000
    2.5081   -1.1319   -0.7014 S   0  0  0  0  0  0  0  0  0  0  0  0
   -0.4310   -1.1182   -0.8693 O   0  0  0  0  0  0  0  0  0  0  0  0
   -6.3140   -1.2325    0.6371 O   0  0  0  0  0  0  0  0  0  0  0  0
    5.0916   -0.6305   -0.3136 N   0  0  0  0  0  0  0  0  0  0  0  0
   -0.8033    0.9502    0.1846 N   0  0  0  0  0  0  0  0  0  0  0  0
    3.5131    0.9714    0.4160 N   0  0  0  0  0  0  0  0  0  0  0  0
   -4.5494   -2.4392   -0.2612 N   0  0  0  0  0  0  0  0  0  0  0  0
    6.2729    0.0908    0.1121 C   0  0  1  0  0  0  0  0  0  0  0  0
    7.4629   -0.8678    0.2387 C   0  0  0  0  0  0  0  0  0  0  0  0
    6.5645    1.1907   -0.9036 C   0  0  0  0  0  0  0  0  0  0  0  0
    7.2133   -1.9844    1.2447 C   0  0  0  0  0  0  0  0  0  0  0  0
    3.8189   -0.1742   -0.1485 C   0  0  0  0  0  0  0  0  0  0  0  0
   -2.1975    1.0444    0.1334 C   0  0  0  0  0  0  0  0  0  0  0  0
   -2.8257    2.2849    0.0273 C   0  0  0  0  0  0  0  0  0  0  0  0
    1.4254    0.0757   -0.1441 C   0  0  0  0  0  0  0  0  0  0  0  0
   -2.9595   -0.1220    0.1914 C   0  0  0  0  0  0  0  0  0  0  0  0
   -4.3516   -0.0476    0.1436 C   0  0  0  0  0  0  0  0  0  0  0  0
   -4.2177    2.3591   -0.0203 C   0  0  0  0  0  0  0  0  0  0  0  0
    0.0199   -0.0926   -0.3010 C   0  0  0  0  0  0  0  0  0  0  0  0
   -4.9806    1.1929    0.0378 C   0  0  0  0  0  0  0  0  0  0  0  0
    2.1392    1.1136    0.4174 C   0  0  0  0  0  0  0  0  0  0  0  0
   -2.0332    3.5501   -0.0389 C   0  0  0  0  0  0  0  0  0  0  0  0
   -5.1479   -1.2629    0.2052 C   0  0  0  0  0  0  0  0  0  0  0  0
   -5.2184   -3.7200   -0.2873 C   0  0  0  0  0  0  0  0  0  0  0  0
    6.0981    0.5498    1.0938 H   0  0  0  0  0  0  0  0  0  0  0  0
    8.3520   -0.3057    0.5491 H   0  0  0  0  0  0  0  0  0  0  0  0
    7.6939   -1.3183   -0.7348 H   0  0  0  0  0  0  0  0  0  0  0  0
    5.2400   -1.5005   -0.8185 H   0  0  0  0  0  0  0  0  0  0  0  0
    7.4667    1.7457   -0.6253 H   0  0  0  0  0  0  0  0  0  0  0  0
    6.7180    0.7768   -1.9068 H   0  0  0  0  0  0  0  0  0  0  0  0
    5.7410    1.9097   -0.9670 H   0  0  0  0  0  0  0  0  0  0  0  0
    6.9639   -1.5758    2.2292 H   0  0  0  0  0  0  0  0  0  0  0  0
    8.1129   -2.5990    1.3523 H   0  0  0  0  0  0  0  0  0  0  0  0
    6.3990   -2.6426    0.9272 H   0  0  0  0  0  0  0  0  0  0  0  0
   -2.4718   -1.0782    0.3497 H   0  0  0  0  0  0  0  0  0  0  0  0
   -0.3287    1.8102    0.4420 H   0  0  0  0  0  0  0  0  0  0  0  0
   -4.7240    3.3172   -0.1034 H   0  0  0  0  0  0  0  0  0  0  0  0
   -6.0638    1.2722   -0.0052 H   0  0  0  0  0  0  0  0  0  0  0  0
    1.7236    2.0122    0.8533 H   0  0  0  0  0  0  0  0  0  0  0  0
   -1.5014    3.7187    0.9032 H   0  0  0  0  0  0  0  0  0  0  0  0
   -1.3135    3.5139   -0.8637 H   0  0  0  0  0  0  0  0  0  0  0  0
   -2.6742    4.4215   -0.2129 H   0  0  0  0  0  0  0  0  0  0  0  0
   -3.6308   -2.4061   -0.6901 H   0  0  0  0  0  0  0  0  0  0  0  0
   -5.9548   -3.7840    0.5176 H   0  0  0  0  0  0  0  0  0  0  0  0
   -5.7197   -3.8257   -1.2524 H   0  0  0  0  0  0  0  0  0  0  0  0
   -4.4680   -4.5057   -0.1731 H   0  0  0  0  0  0  0  0  0  0  0  0
  1 12  1  0  0  0  0
  1 15  1  0  0  0  0
  2 19  2  0  0  0  0
  3 23  2  0  0  0  0
  4  8  1  0  0  0  0
  4 12  1  0  0  0  0
  4 28  1  0  0  0  0
  5 13  1  0  0  0  0
  5 19  1  0  0  0  0
  5 36  1  0  0  0  0
  6 12  2  0  0  0  0
  6 21  1  0  0  0  0
  7 23  1  0  0  0  0
  7 24  1  0  0  0  0
  7 43  1  0  0  0  0
  8  9  1  0  0  0  0
  8 10  1  0  0  0  0
  8 25  1  0  0  0  0
  9 11  1  0  0  0  0
  9 26  1  0  0  0  0
  9 27  1  0  0  0  0
 10 29  1  0  0  0  0
 10 30  1  0  0  0  0
 10 31  1  0  0  0  0
 11 32  1  0  0  0  0
 11 33  1  0  0  0  0
 11 34  1  0  0  0  0
 13 14  2  0  0  0  0
 13 16  1  0  0  0  0
 14 18  1  0  0  0  0
 14 22  1  0  0  0  0
 15 19  1  0  0  0  0
 15 21  2  0  0  0  0
 16 17  2  0  0  0  0
 16 35  1  0  0  0  0
 17 20  1  0  0  0  0
 17 23  1  0  0  0  0
 18 20  2  0  0  0  0
 18 37  1  0  0  0  0
 20 38  1  0  0  0  0
 21 39  1  0  0  0  0
 22 40  1  0  0  0  0
 22 41  1  0  0  0  0
 22 42  1  0  0  0  0
 24 44  1  0  0  0  0
 24 45  1  0  0  0  0
 24 46  1  0  0  0  0
M  END
> <PUBCHEM_COMPOUND_CID>
11427975

> <PUBCHEM_CONFORMER_RMSD>
0.8

> <PUBCHEM_CONFORMER_DIVERSEORDER>
2
63
170
191
22
167
181
86
163
157
71
104
98
125
25
147
192
194
31
166
55
96
195
186
174
94
164
142
68
111
199
43
169
159
76
115
143
45
112
139
154
182
59
127
103
105
155
90
114
138
177
136
196
120
21
188
110
41
122
51
74
185
118
77
197
62
153
99
123
28
109
137
178
132
175
117
176
150
13
95
91
141
165
119
201
131
144
48
101
100
149
66
79
87
78
34
67
83
129
88
134
162
171
82
145
151
161
92
187
17
61
70
173
16
42
193
102
198
135
69
39
54
80
172
93
133
12
8
44
84
184
97
116
29
190
58
108
14
158
52
160
107
202
81
126
85
50
189
75
89
23
57
106
26
65
200
148
179
15
152
32
121
56
60
33
47
73
146
10
27
168
113
4
35
49
1
130
38
36
156
72
19
180
53
5
46
183
7
128
140
64
20
9
124
30
6
11
40
37
24
3
18

> <PUBCHEM_MMFF94_PARTIAL_CHARGES>
28
1 -0.08
12 0.46
13 0.12
14 -0.14
15 -0.05
16 -0.15
17 0.09
18 -0.15
19 0.71
2 -0.57
20 -0.15
21 0.08
22 0.14
23 0.54
24 0.3
28 0.4
3 -0.57
35 0.15
36 0.37
37 0.15
38 0.15
39 0.15
4 -0.85
43 0.37
5 -0.55
6 -0.57
7 -0.73
8 0.37

> <PUBCHEM_EFFECTIVE_ROTOR_COUNT>
8

> <PUBCHEM_PHARMACOPHORE_FEATURES>
9
1 11 hydrophobe
1 2 acceptor
1 3 acceptor
1 4 donor
1 5 donor
1 7 donor
3 4 6 12 cation
5 1 6 12 15 21 rings
6 13 14 16 17 18 20 rings

> <PUBCHEM_HEAVY_ATOM_COUNT>
24

> <PUBCHEM_ATOM_DEF_STEREO_COUNT>
1

> <PUBCHEM_ATOM_UDEF_STEREO_COUNT>
0

> <PUBCHEM_BOND_DEF_STEREO_COUNT>
0

> <PUBCHEM_BOND_UDEF_STEREO_COUNT>
0

> <PUBCHEM_ISOTOPIC_ATOM_COUNT>
0

> <PUBCHEM_COMPONENT_COUNT>
1

> <PUBCHEM_CACTVS_TAUTO_COUNT>
14

> <PUBCHEM_CONFORMER_ID>
00AE608700000002

> <PUBCHEM_MMFF94_ENERGY>
55.5259

> <PUBCHEM_FEATURE_SELFOVERLAP>
45.671

> <PUBCHEM_SHAPE_FINGERPRINT>
10 15 18130780179817360568
10299344 5 18187086135868765962
10319926 262 18342161251059317816
10411042 1 18195245740718721455
10595046 47 18333734602887709544
11315181 36 18186804673181118085
11524674 6 16845574231785759135
11646440 116 16773795896858624202
11719270 70 18201435827753037678
11963148 33 18411413999937349214
12107183 9 17469315933966982792
12166972 35 17894634785580066812
12236239 1 18186240615458248932
12403259 415 17918267662732171552
12596602 18 18113336401730369360
13533116 47 17458624451240710626
13631057 29 18413106186754248923
13668630 136 15936414459240970499
13782708 43 18059573633021958250
14251732 16 18411419544612585584
15716309 27 18333734627929454746
1577012 14 18187090542452808788
16087824 20 18337954494973436357
18608769 82 18343020021143443874
18927931 339 18411142454860768447
19489759 90 18114183012408458201
21054139 6 18186519921191924498
21130935 74 18411979123354576002
21267235 1 18411143553670730529
21315759 40 17822010892051692118
21315763 129 18410012109705290604
21315763 28 18408041798016494188
21585481 151 18120364356224600138
21781051 124 17988937669666166038
23081809 10 17894357657605514316
23402539 116 18334294262526813245
23522609 53 18192461669307599900
23536379 177 18260549983782755472
23559900 14 18412819192628791313
23569914 152 13266839710630225778
23569943 247 16517077412437692186
335352 9 18410854379120645669
34797466 226 17632306705120327908
350125 39 18343023323968195116
397830 11 17559660910615052682
4073 2 18187654600069747746
4214541 1 18411983537995243937
5104073 3 18058735667548605698
67856867 119 18261400000053997148
7495541 125 18202002161739495232
9996256 80 18410011035820599978

> <PUBCHEM_SHAPE_MULTIPOLES>
466.1
19.74
3.18
0.8
25.65
0.49
-0.02
9.14
-2.35
-6.06
0.09
0.73
0.16
-1.07

> <PUBCHEM_SHAPE_SELFOVERLAP>
960.19

> <PUBCHEM_SHAPE_VOLUME>
270.5

> <PUBCHEM_COORDINATE_TYPE>
2
5
10

$$$$
