REMARK  Name = 11429552
REMARK  8 active torsions:
REMARK  status: ('A' for Active; 'I' for Inactive)
REMARK    1  A    between atoms: C_4  and  C_23
REMARK    2  A    between atoms: C_10  and  O_19
REMARK    3  A    between atoms: C_17  and  O_21
REMARK    4  A    between atoms: C_23  and  O_24
REMARK    5  A    between atoms: C_23  and  C_26
REMARK    6  A    between atoms: C_26  and  C_27
REMARK    7  A    between atoms: C_28  and  C_30
REMARK    8  A    between atoms: C_30  and  O_31
REMARK                            x       y       z     vdW  Elec       q    Type
REMARK                         _______ _______ _______ _____ _____    ______ ____
ROOT
ATOM      1  O   UNL     1       0.239   2.309   0.210  0.00  0.00    -0.479 OA
ATOM      2  O   UNL     1       2.735   2.257   1.201  0.00  0.00    -0.287 OA
ATOM      3  O   UNL     1       3.613  -2.504  -1.048  0.00  0.00    -0.283 OA
ATOM      4  C   UNL     1      -1.606   1.315  -1.016  0.00  0.00    +0.086 C 
ATOM      5  C   UNL     1      -0.942   2.643  -0.565  0.00  0.00    +0.172 C 
ATOM      6  C   UNL     1      -0.366   0.476  -1.043  0.00  0.00    +0.051 C 
ATOM      7  C   UNL     1      -2.280   1.467  -2.382  0.00  0.00    +0.011 C 
ATOM      8  C   UNL     1       0.635   1.095  -0.300  0.00  0.00    +0.141 C 
ATOM      9  C   UNL     1      -1.816   3.574   0.264  0.00  0.00    +0.048 C 
ATOM     10  C   UNL     1      -0.148  -0.760  -1.628  0.00  0.00    +0.133 C 
ATOM     11  C   UNL     1       1.877   0.502  -0.101  0.00  0.00    +0.076 C 
ATOM     12  C   UNL     1       2.103  -0.740  -0.691  0.00  0.00    +0.051 C 
ATOM     13  C   UNL     1       1.097  -1.367  -1.454  0.00  0.00    +0.040 C 
ATOM     14  C   UNL     1       2.929   1.155   0.698  0.00  0.00    +0.198 C 
ATOM     15  C   UNL     1       3.400  -1.415  -0.523  0.00  0.00    +0.229 C 
ATOM     16  C   UNL     1       4.234   0.445   0.878  0.00  0.00    +0.054 C 
ATOM     17  C   UNL     1       4.446  -0.750   0.297  0.00  0.00    +0.176 C 
ATOM     18  C   UNL     1       5.221   1.180   1.746  0.00  0.00    +0.038 C 
ENDROOT
BRANCH  10  19
ATOM     19  O   UNL     1      -1.094  -1.379  -2.378  0.00  0.00    -0.506 OA
ATOM     20  H   UNL     1      -1.932  -0.978  -2.500  0.00  0.00    +0.292 HD
ENDBRANCH  10  19
BRANCH  17  21
ATOM     21  O   UNL     1       5.626  -1.460   0.393  0.00  0.00    -0.468 OA
ATOM     22  C   UNL     1       5.597  -2.330   1.507  0.00  0.00    +0.253 C 
ENDBRANCH  17  21
BRANCH   4  23
ATOM     23  C   UNL     1      -2.597   0.728   0.000  0.00  0.00    +0.122 C 
BRANCH  23  24
ATOM     24  O   UNL     1      -1.995   0.777   1.289  0.00  0.00    -0.384 OA
ATOM     25  H   UNL     1      -1.781   1.697   1.511  0.00  0.00    +0.210 HD
ENDBRANCH  23  24
BRANCH  23  26
ATOM     26  C   UNL     1      -2.929  -0.725  -0.342  0.00  0.00    +0.055 C 
BRANCH  26  27
ATOM     27  C   UNL     1      -3.871  -1.325   0.668  0.00  0.00    -0.030 C 
ATOM     28  C   UNL     1      -5.218  -1.335   0.641  0.00  0.00    -0.019 C 
ATOM     29  C   UNL     1      -6.060  -0.726  -0.446  0.00  0.00    +0.029 C 
BRANCH  28  30
ATOM     30  C   UNL     1      -5.991  -2.024   1.738  0.00  0.00    +0.159 C 
BRANCH  30  31
ATOM     31  O   UNL     1      -6.837  -1.083   2.386  0.00  0.00    -0.378 OA
ATOM     32  H   UNL     1      -7.334  -1.527   3.092  0.00  0.00    +0.211 HD
ENDBRANCH  30  31
ENDBRANCH  28  30
ENDBRANCH  26  27
ENDBRANCH  23  26
ENDBRANCH   4  23
TORSDOF 8
