REMARK  Name = 11429758
REMARK  9 active torsions:
REMARK  status: ('A' for Active; 'I' for Inactive)
REMARK    1  A    between atoms: C_1  and  C_3
REMARK    2  A    between atoms: C_1  and  C_17
REMARK    3  A    between atoms: C_4  and  C_14
REMARK    4  A    between atoms: C_6  and  O_9
REMARK    5  A    between atoms: C_7  and  O_11
REMARK    6  A    between atoms: C_14  and  O_15
REMARK    7  A    between atoms: C_17  and  C_20
REMARK    8  A    between atoms: N_19  and  C_24
REMARK    9  A    between atoms: C_29  and  O_30
REMARK                            x       y       z     vdW  Elec       q    Type
REMARK                         _______ _______ _______ _____ _____    ______ ____
ROOT
ATOM      1  C   UNL     1      -1.671   0.105   0.950  0.00  0.00    +0.037 C 
ENDROOT
BRANCH   1   3
ATOM      2 CL   UNL     1      -2.730   2.901   1.514  0.00  0.00    -0.079 Cl
ATOM      3  C   UNL     1      -3.065   0.414   0.467  0.00  0.00    +0.001 C 
ATOM      4  C   UNL     1      -3.784  -0.572  -0.199  0.00  0.00    +0.106 C 
ATOM      5  C   UNL     1      -3.621   1.670   0.685  0.00  0.00    +0.088 C 
ATOM      6  C   UNL     1      -5.075  -0.300  -0.652  0.00  0.00    +0.143 C 
ATOM      7  C   UNL     1      -4.912   1.942   0.232  0.00  0.00    +0.147 C 
ATOM      8  C   UNL     1      -5.639   0.957  -0.437  0.00  0.00    +0.074 C 
BRANCH   6   9
ATOM      9  O   UNL     1      -5.803  -1.247  -1.308  0.00  0.00    -0.505 OA
ATOM     10  H   UNL     1      -5.438  -2.096  -1.461  0.00  0.00    +0.292 HD
ENDBRANCH   6   9
BRANCH   7  11
ATOM     11  O   UNL     1      -5.492   3.161   0.427  0.00  0.00    -0.505 OA
ATOM     12  H   UNL     1      -5.022   3.837   0.873  0.00  0.00    +0.292 HD
ENDBRANCH   7  11
BRANCH   4  14
ATOM     13  O   UNL     1      -2.547  -2.196  -1.431  0.00  0.00    -0.245 OA
ATOM     14  C   UNL     1      -3.204  -1.891  -0.431  0.00  0.00    +0.344 C 
BRANCH  14  15
ATOM     15  O   UNL     1      -3.479  -2.745   0.600  0.00  0.00    -0.441 OA
ATOM     16  C   UNL     1      -2.961  -4.074   0.490  0.00  0.00    +0.256 C 
ENDBRANCH  14  15
ENDBRANCH   4  14
ENDBRANCH   1   3
BRANCH   1  17
ATOM     17  C   UNL     1      -0.620   0.439  -0.106  0.00  0.00    +0.090 C 
BRANCH  17  20
ATOM     18  O   UNL     1       1.040  -0.359   1.464  0.00  0.00    -0.275 OA
ATOM     19  N   UNL     1       1.728   0.428  -0.618  0.00  0.00    -0.281 N 
ATOM     20  C   UNL     1       0.791   0.117   0.359  0.00  0.00    +0.227 C 
ATOM     21  H   UNL     1       1.406   0.807  -1.467  0.00  0.00    +0.155 HD
BRANCH  19  24
ATOM     22  O   UNL     1       3.555   2.070  -1.900  0.00  0.00    -0.285 OA
ATOM     23  O   UNL     1       5.447  -1.844   1.180  0.00  0.00    -0.283 OA
ATOM     24  C   UNL     1       3.071   0.239  -0.464  0.00  0.00    +0.093 C 
ATOM     25  C   UNL     1       3.978   1.165  -1.188  0.00  0.00    +0.212 C 
ATOM     26  C   UNL     1       3.560  -0.738   0.305  0.00  0.00    +0.063 C 
ATOM     27  C   UNL     1       5.015  -0.942   0.469  0.00  0.00    +0.231 C 
ATOM     28  C   UNL     1       5.432   0.958  -1.021  0.00  0.00    +0.083 C 
ATOM     29  C   UNL     1       5.923  -0.020  -0.252  0.00  0.00    +0.181 C 
BRANCH  29  30
ATOM     30  O   UNL     1       7.284  -0.195  -0.112  0.00  0.00    -0.468 OA
ATOM     31  C   UNL     1       7.778   0.558   0.978  0.00  0.00    +0.253 C 
ENDBRANCH  29  30
ENDBRANCH  19  24
ENDBRANCH  17  20
ENDBRANCH   1  17
TORSDOF 9
