REMARK  Name = 11427975
REMARK  5 active torsions:
REMARK  status: ('A' for Active; 'I' for Inactive)
REMARK    1  A    between atoms: N_2  and  C_16
REMARK    2  A    between atoms: C_3  and  C_9
REMARK    3  A    between atoms: N_6  and  C_12
REMARK    4  A    between atoms: C_12  and  C_14
REMARK    5  A    between atoms: C_19  and  C_25
REMARK                            x       y       z     vdW  Elec       q    Type
REMARK                         _______ _______ _______ _____ _____    ______ ____
ROOT
ATOM      1  O   UNL     1      -0.431  -1.118  -0.869  0.00  0.00    -0.269 OA
ATOM      2  N   UNL     1      -0.803   0.950   0.185  0.00  0.00    -0.280 N 
ATOM      3  C   UNL     1       0.020  -0.093  -0.301  0.00  0.00    +0.257 C 
ATOM      4  H   UNL     1      -0.336   1.704   0.612  0.00  0.00    +0.155 HD
ENDROOT
BRANCH   3   9
ATOM      5  S   UNL     1       2.508  -1.132  -0.701  0.00  0.00    -0.047 S 
ATOM      6  N   UNL     1       5.092  -0.630  -0.314  0.00  0.00    -0.315 N 
ATOM      7  N   UNL     1       3.513   0.971   0.416  0.00  0.00    -0.223 NA
ATOM      8  C   UNL     1       3.819  -0.174  -0.148  0.00  0.00    +0.160 C 
ATOM      9  C   UNL     1       1.425   0.076  -0.144  0.00  0.00    +0.105 C 
ATOM     10  C   UNL     1       2.139   1.114   0.417  0.00  0.00    +0.112 C 
ATOM     11  H   UNL     1       5.216  -1.505  -0.749  0.00  0.00    +0.149 HD
BRANCH   6  12
ATOM     12  C   UNL     1       6.273   0.091   0.112  0.00  0.00    +0.071 C 
ATOM     13  C   UNL     1       6.564   1.191  -0.904  0.00  0.00    +0.021 C 
BRANCH  12  14
ATOM     14  C   UNL     1       7.463  -0.868   0.239  0.00  0.00    +0.020 C 
ATOM     15  C   UNL     1       7.213  -1.984   1.245  0.00  0.00    +0.002 C 
ENDBRANCH  12  14
ENDBRANCH   6  12
ENDBRANCH   3   9
BRANCH   2  16
ATOM     16  C   UNL     1      -2.197   1.044   0.133  0.00  0.00    +0.047 C 
ATOM     17  C   UNL     1      -2.826   2.285   0.027  0.00  0.00    -0.008 C 
ATOM     18  C   UNL     1      -2.959  -0.122   0.191  0.00  0.00    +0.019 C 
ATOM     19  C   UNL     1      -4.352  -0.048   0.144  0.00  0.00    +0.055 C 
ATOM     20  C   UNL     1      -4.218   2.359  -0.020  0.00  0.00    -0.003 C 
ATOM     21  C   UNL     1      -4.981   1.193   0.038  0.00  0.00    +0.004 C 
ATOM     22  C   UNL     1      -2.033   3.550  -0.039  0.00  0.00    +0.032 C 
BRANCH  19  25
ATOM     23  O   UNL     1      -6.314  -1.232   0.637  0.00  0.00    -0.270 OA
ATOM     24  N   UNL     1      -4.549  -2.439  -0.261  0.00  0.00    -0.299 N 
ATOM     25  C   UNL     1      -5.148  -1.263   0.205  0.00  0.00    +0.246 C 
ATOM     26  C   UNL     1      -5.218  -3.720  -0.287  0.00  0.00    +0.111 C 
ATOM     27  H   UNL     1      -3.622  -2.391  -0.589  0.00  0.00    +0.150 HD
ENDBRANCH  19  25
ENDBRANCH   2  16
TORSDOF 5
