REMARK  Name = 11431898
REMARK  6 active torsions:
REMARK  status: ('A' for Active; 'I' for Inactive)
REMARK    1  A    between atoms: C_9  and  C_25
REMARK    2  A    between atoms: C_16  and  O_28
REMARK    3  A    between atoms: C_17  and  C_20
REMARK    4  A    between atoms: C_25  and  O_26
REMARK    5  A    between atoms: O_28  and  C_30
REMARK    6  A    between atoms: C_30  and  C_31
REMARK                            x       y       z     vdW  Elec       q    Type
REMARK                         _______ _______ _______ _____ _____    ______ ____
ROOT
ATOM      1  O   UNL     1       5.009   0.102   0.663  0.00  0.00    -0.448 OA
ATOM      2  O   UNL     1      -0.225  -1.381   1.144  0.00  0.00    -0.292 OA
ATOM      3  O   UNL     1       5.172   2.291   1.154  0.00  0.00    -0.250 OA
ATOM      4  C   UNL     1       0.082   2.023   0.269  0.00  0.00    +0.017 C 
ATOM      5  C   UNL     1       2.135   0.365   0.737  0.00  0.00    +0.021 C 
ATOM      6  C   UNL     1       0.728   0.603   0.083  0.00  0.00    +0.062 C 
ATOM      7  C   UNL     1       3.065   1.508   0.269  0.00  0.00    +0.100 C 
ATOM      8  C   UNL     1       1.135   3.107  -0.078  0.00  0.00    +0.002 C 
ATOM      9  C   UNL     1      -1.113   2.111  -0.750  0.00  0.00    +0.103 C 
ATOM     10  C   UNL     1       2.495   2.895   0.591  0.00  0.00    +0.011 C 
ATOM     11  C   UNL     1       2.768  -0.918   0.146  0.00  0.00    +0.049 C 
ATOM     12  C   UNL     1      -0.341  -0.474   0.324  0.00  0.00    +0.190 C 
ATOM     13  C   UNL     1      -2.164   1.020  -0.513  0.00  0.00    +0.063 C 
ATOM     14  C   UNL     1      -0.442   2.268   1.706  0.00  0.00    +0.001 C 
ATOM     15  C   UNL     1       2.098   0.250   2.278  0.00  0.00    +0.001 C 
ATOM     16  C   UNL     1      -1.561  -0.378  -0.583  0.00  0.00    +0.226 C 
ATOM     17  C   UNL     1       4.225  -1.120   0.584  0.00  0.00    +0.194 C 
ATOM     18  C   UNL     1       4.487   1.347   0.770  0.00  0.00    +0.317 C 
ENDROOT
BRANCH  17  20
ATOM     19  O   UNL     1       5.686  -4.031  -1.117  0.00  0.00    -0.448 OA
ATOM     20  C   UNL     1       4.917  -2.096  -0.291  0.00  0.00    +0.058 C 
ATOM     21  C   UNL     1       5.655  -1.809  -1.458  0.00  0.00    +0.043 C 
ATOM     22  C   UNL     1       4.962  -3.455  -0.121  0.00  0.00    +0.179 C 
ATOM     23  C   UNL     1       6.104  -3.022  -1.926  0.00  0.00    +0.180 C 
ENDBRANCH  17  20
BRANCH   9  25
ATOM     24  O   UNL     1      -1.472   4.382  -0.020  0.00  0.00    -0.250 OA
ATOM     25  C   UNL     1      -1.788   3.455  -0.753  0.00  0.00    +0.317 C 
BRANCH  25  26
ATOM     26  O   UNL     1      -2.783   3.463  -1.685  0.00  0.00    -0.444 OA
ATOM     27  C   UNL     1      -3.513   4.690  -1.794  0.00  0.00    +0.256 C 
ENDBRANCH  25  26
ENDBRANCH   9  25
BRANCH  16  28
ATOM     28  O   UNL     1      -2.528  -1.344  -0.217  0.00  0.00    -0.442 OA
BRANCH  28  30
ATOM     29  O   UNL     1      -3.771  -1.047  -2.132  0.00  0.00    -0.245 OA
ATOM     30  C   UNL     1      -3.675  -1.361  -0.956  0.00  0.00    +0.341 C 
BRANCH  30  31
ATOM     31  C   UNL     1      -4.828  -1.819  -0.140  0.00  0.00    +0.076 C 
ATOM     32  C   UNL     1      -5.864  -2.485  -0.762  0.00  0.00    +0.006 C 
ATOM     33  C   UNL     1      -4.828  -1.563   1.216  0.00  0.00    +0.006 C 
ATOM     34  C   UNL     1      -6.947  -2.915   0.005  0.00  0.00    +0.000 C 
ATOM     35  C   UNL     1      -5.910  -1.993   1.983  0.00  0.00    +0.000 C 
ATOM     36  C   UNL     1      -6.970  -2.669   1.377  0.00  0.00    +0.000 C 
ENDBRANCH  30  31
ENDBRANCH  28  30
ENDBRANCH  16  28
TORSDOF 6
