REMARK  Name = 11439812
REMARK  7 active torsions:
REMARK  status: ('A' for Active; 'I' for Inactive)
REMARK    1  A    between atoms: C_2  and  O_13
REMARK    2  A    between atoms: C_3  and  O_7
REMARK    3  A    between atoms: C_4  and  O_9
REMARK    4  A    between atoms: C_5  and  O_11
REMARK    5  A    between atoms: C_6  and  C_27
REMARK    6  A    between atoms: O_13  and  C_24
REMARK    7  A    between atoms: C_27  and  O_28
REMARK                            x       y       z     vdW  Elec       q    Type
REMARK                         _______ _______ _______ _____ _____    ______ ____
ROOT
ATOM      1  O   UNL     1      -1.922  -0.703   0.105  0.00  0.00    -0.326 OA
ATOM      2  C   UNL     1      -1.687   0.700   0.205  0.00  0.00    +0.267 C 
ATOM      3  C   UNL     1      -2.682   1.473  -0.662  0.00  0.00    +0.196 C 
ATOM      4  C   UNL     1      -4.124   1.090  -0.329  0.00  0.00    +0.172 C 
ATOM      5  C   UNL     1      -4.298  -0.428  -0.289  0.00  0.00    +0.169 C 
ATOM      6  C   UNL     1      -3.217  -1.076   0.579  0.00  0.00    +0.176 C 
ENDROOT
BRANCH   3   7
ATOM      7  O   UNL     1      -2.494   2.868  -0.422  0.00  0.00    -0.378 OA
ATOM      8  H   UNL     1      -1.579   3.112  -0.632  0.00  0.00    +0.211 HD
ENDBRANCH   3   7
BRANCH   4   9
ATOM      9  O   UNL     1      -4.997   1.609  -1.333  0.00  0.00    -0.379 OA
ATOM     10  H   UNL     1      -4.903   2.573  -1.377  0.00  0.00    +0.211 HD
ENDBRANCH   4   9
BRANCH   5  11
ATOM     11  O   UNL     1      -5.582  -0.741   0.245  0.00  0.00    -0.379 OA
ATOM     12  H   UNL     1      -6.269  -0.331  -0.304  0.00  0.00    +0.211 HD
ENDBRANCH   5  11
BRANCH   2  13
ATOM     13  O   UNL     1      -0.372   1.003  -0.260  0.00  0.00    -0.303 OA
BRANCH  13  24
ATOM     14  O   UNL     1       4.073   0.856   1.357  0.00  0.00    -0.452 OA
ATOM     15  O   UNL     1       0.875  -1.002  -0.002  0.00  0.00    -0.330 OA
ATOM     16  O   UNL     1       2.380   0.585   2.860  0.00  0.00    -0.250 OA
ATOM     17  C   UNL     1       2.808   1.008  -0.650  0.00  0.00    +0.058 C 
ATOM     18  C   UNL     1       2.734  -0.325  -1.418  0.00  0.00    +0.034 C 
ATOM     19  C   UNL     1       4.211   1.071  -0.054  0.00  0.00    +0.169 C 
ATOM     20  C   UNL     1       3.894  -1.161  -0.849  0.00  0.00    +0.006 C 
ATOM     21  C   UNL     1       1.885   1.158   0.547  0.00  0.00    +0.159 C 
ATOM     22  C   UNL     1       4.980  -0.101  -0.649  0.00  0.00    +0.044 C 
ATOM     23  C   UNL     1       1.373  -0.997  -1.334  0.00  0.00    +0.145 C 
ATOM     24  C   UNL     1       0.618   0.309   0.499  0.00  0.00    +0.248 C 
ATOM     25  C   UNL     1       2.763   0.816   1.723  0.00  0.00    +0.321 C 
ATOM     26  C   UNL     1       4.351  -2.287  -1.766  0.00  0.00    +0.000 C 
ENDBRANCH  13  24
ENDBRANCH   2  13
BRANCH   6  27
ATOM     27  C   UNL     1      -3.300  -2.599   0.541  0.00  0.00    +0.169 C 
BRANCH  27  28
ATOM     28  O   UNL     1      -2.268  -3.127   1.354  0.00  0.00    -0.379 OA
ATOM     29  H   UNL     1      -2.308  -4.096   1.339  0.00  0.00    +0.211 HD
ENDBRANCH  27  28
ENDBRANCH   6  27
TORSDOF 7
