REMARK  Name = 11430952
REMARK  8 active torsions:
REMARK  status: ('A' for Active; 'I' for Inactive)
REMARK    1  A    between atoms: C_3  and  C_11
REMARK    2  A    between atoms: C_4  and  C_21
REMARK    3  A    between atoms: C_8  and  C_29
REMARK    4  A    between atoms: C_14  and  O_17
REMARK    5  A    between atoms: C_15  and  O_19
REMARK    6  A    between atoms: C_26  and  O_27
REMARK    7  A    between atoms: C_30  and  C_31
REMARK    8  A    between atoms: C_36  and  O_37
REMARK                            x       y       z     vdW  Elec       q    Type
REMARK                         _______ _______ _______ _____ _____    ______ ____
ROOT
ATOM      1  O   UNL     1      -1.736   3.181   1.959  0.00  0.00    -0.295 OA
ATOM      2  O   UNL     1      -1.413   3.236  -2.301  0.00  0.00    -0.291 OA
ATOM      3  C   UNL     1      -1.352   0.068   0.706  0.00  0.00    +0.038 C 
ATOM      4  C   UNL     1      -2.313   0.677  -0.381  0.00  0.00    +0.041 C 
ATOM      5  C   UNL     1      -0.471   1.244   1.200  0.00  0.00    +0.085 C 
ATOM      6  C   UNL     1      -2.160   2.217  -0.237  0.00  0.00    +0.124 C 
ATOM      7  C   UNL     1      -1.521   2.319   1.125  0.00  0.00    +0.162 C 
ATOM      8  C   UNL     1       0.599   1.722   0.228  0.00  0.00    -0.012 C 
ATOM      9  C   UNL     1      -1.116   2.689  -1.244  0.00  0.00    +0.180 C 
ATOM     10  C   UNL     1       0.316   2.398  -0.906  0.00  0.00    +0.034 C 
ENDROOT
BRANCH   3  11
ATOM     11  C   UNL     1      -0.567  -1.174   0.336  0.00  0.00    -0.015 C 
ATOM     12  C   UNL     1      -0.231  -2.104   1.319  0.00  0.00    +0.033 C 
ATOM     13  C   UNL     1      -0.181  -1.386  -0.987  0.00  0.00    +0.033 C 
ATOM     14  C   UNL     1       0.542  -2.530  -1.327  0.00  0.00    +0.136 C 
ATOM     15  C   UNL     1       0.492  -3.248   0.979  0.00  0.00    +0.136 C 
ATOM     16  C   UNL     1       0.879  -3.460  -0.344  0.00  0.00    +0.073 C 
BRANCH  14  17
ATOM     17  O   UNL     1       0.919  -2.737  -2.619  0.00  0.00    -0.505 OA
ATOM     18  H   UNL     1       0.694  -2.112  -3.279  0.00  0.00    +0.292 HD
ENDBRANCH  14  17
BRANCH  15  19
ATOM     19  O   UNL     1       0.821  -4.156   1.938  0.00  0.00    -0.505 OA
ATOM     20  H   UNL     1       0.561  -4.013   2.827  0.00  0.00    +0.292 HD
ENDBRANCH  15  19
ENDBRANCH   3  11
BRANCH   4  21
ATOM     21  C   UNL     1      -3.735   0.167  -0.206  0.00  0.00    -0.021 C 
ATOM     22  C   UNL     1      -4.344  -0.552  -1.231  0.00  0.00    -0.001 C 
ATOM     23  C   UNL     1      -4.422   0.423   0.978  0.00  0.00    -0.001 C 
ATOM     24  C   UNL     1      -5.649  -1.018  -1.071  0.00  0.00    +0.036 C 
ATOM     25  C   UNL     1      -5.726  -0.043   1.138  0.00  0.00    +0.036 C 
ATOM     26  C   UNL     1      -6.340  -0.764   0.114  0.00  0.00    +0.134 C 
BRANCH  26  27
ATOM     27  O   UNL     1      -7.613  -1.220   0.270  0.00  0.00    -0.506 OA
ATOM     28  H   UNL     1      -8.024  -1.704  -0.419  0.00  0.00    +0.292 HD
ENDBRANCH  26  27
ENDBRANCH   4  21
BRANCH   8  29
ATOM     29  C   UNL     1       1.963   1.411   0.580  0.00  0.00    -0.004 C 
ATOM     30  C   UNL     1       2.818   1.024  -0.389  0.00  0.00    -0.000 C 
BRANCH  30  31
ATOM     31  C   UNL     1       4.233   0.664  -0.188  0.00  0.00    +0.000 C 
ATOM     32  C   UNL     1       4.887   1.093   0.956  0.00  0.00    +0.003 C 
ATOM     33  C   UNL     1       4.881  -0.098  -1.146  0.00  0.00    +0.003 C 
ATOM     34  C   UNL     1       6.226   0.753   1.145  0.00  0.00    +0.037 C 
ATOM     35  C   UNL     1       6.221  -0.438  -0.957  0.00  0.00    +0.037 C 
ATOM     36  C   UNL     1       6.893  -0.013   0.189  0.00  0.00    +0.134 C 
BRANCH  36  37
ATOM     37  O   UNL     1       8.200  -0.345   0.374  0.00  0.00    -0.506 OA
ATOM     38  H   UNL     1       8.651  -0.059   1.144  0.00  0.00    +0.292 HD
ENDBRANCH  36  37
ENDBRANCH  30  31
ENDBRANCH   8  29
TORSDOF 8
