11430952
  -OEChem-03292013303D

 56 60  0     1  0  0  0  0  0999 V2000
   -1.7365    3.1813    1.9592 O   0  0  0  0  0  0  0  0  0  0  0  0
   -1.4126    3.2355   -2.3010 O   0  0  0  0  0  0  0  0  0  0  0  0
    0.9195   -2.7372   -2.6187 O   0  0  0  0  0  0  0  0  0  0  0  0
    0.8206   -4.1559    1.9380 O   0  0  0  0  0  0  0  0  0  0  0  0
   -7.6128   -1.2202    0.2695 O   0  0  0  0  0  0  0  0  0  0  0  0
    8.1996   -0.3451    0.3743 O   0  0  0  0  0  0  0  0  0  0  0  0
   -1.3519    0.0676    0.7056 C   0  0  2  0  0  0  0  0  0  0  0  0
   -2.3134    0.6767   -0.3805 C   0  0  2  0  0  0  0  0  0  0  0  0
   -0.4714    1.2445    1.2001 C   0  0  2  0  0  0  0  0  0  0  0  0
   -2.1602    2.2175   -0.2369 C   0  0  1  0  0  0  0  0  0  0  0  0
   -1.5214    2.3187    1.1246 C   0  0  0  0  0  0  0  0  0  0  0  0
    0.5992    1.7224    0.2278 C   0  0  0  0  0  0  0  0  0  0  0  0
   -0.5666   -1.1742    0.3360 C   0  0  0  0  0  0  0  0  0  0  0  0
   -1.1156    2.6886   -1.2436 C   0  0  0  0  0  0  0  0  0  0  0  0
   -3.7350    0.1674   -0.2061 C   0  0  0  0  0  0  0  0  0  0  0  0
    0.3160    2.3977   -0.9058 C   0  0  0  0  0  0  0  0  0  0  0  0
    1.9633    1.4109    0.5797 C   0  0  0  0  0  0  0  0  0  0  0  0
   -0.2307   -2.1042    1.3191 C   0  0  0  0  0  0  0  0  0  0  0  0
   -0.1806   -1.3862   -0.9871 C   0  0  0  0  0  0  0  0  0  0  0  0
   -4.3441   -0.5518   -1.2310 C   0  0  0  0  0  0  0  0  0  0  0  0
   -4.4217    0.4235    0.9781 C   0  0  0  0  0  0  0  0  0  0  0  0
    0.5423   -2.5295   -1.3274 C   0  0  0  0  0  0  0  0  0  0  0  0
    0.4921   -3.2476    0.9788 C   0  0  0  0  0  0  0  0  0  0  0  0
   -5.6489   -1.0181   -1.0709 C   0  0  0  0  0  0  0  0  0  0  0  0
   -5.7265   -0.0431    1.1381 C   0  0  0  0  0  0  0  0  0  0  0  0
    2.8182    1.0240   -0.3887 C   0  0  0  0  0  0  0  0  0  0  0  0
    0.8787   -3.4603   -0.3444 C   0  0  0  0  0  0  0  0  0  0  0  0
   -6.3401   -0.7639    0.1137 C   0  0  0  0  0  0  0  0  0  0  0  0
    4.2329    0.6636   -0.1875 C   0  0  0  0  0  0  0  0  0  0  0  0
    4.8866    1.0934    0.9557 C   0  0  0  0  0  0  0  0  0  0  0  0
    4.8815   -0.0975   -1.1464 C   0  0  0  0  0  0  0  0  0  0  0  0
    6.2259    0.7527    1.1453 C   0  0  0  0  0  0  0  0  0  0  0  0
    6.2207   -0.4382   -0.9566 C   0  0  0  0  0  0  0  0  0  0  0  0
    6.8929   -0.0131    0.1891 C   0  0  0  0  0  0  0  0  0  0  0  0
   -1.9650   -0.2296    1.5699 H   0  0  0  0  0  0  0  0  0  0  0  0
   -2.0151    0.4124   -1.3983 H   0  0  0  0  0  0  0  0  0  0  0  0
   -0.1182    1.1146    2.2273 H   0  0  0  0  0  0  0  0  0  0  0  0
   -3.0830    2.7965   -0.3059 H   0  0  0  0  0  0  0  0  0  0  0  0
    1.0607    2.7608   -1.6049 H   0  0  0  0  0  0  0  0  0  0  0  0
    2.2350    1.4723    1.6269 H   0  0  0  0  0  0  0  0  0  0  0  0
   -0.5258   -1.9439    2.3532 H   0  0  0  0  0  0  0  0  0  0  0  0
   -0.3909   -0.6672   -1.7705 H   0  0  0  0  0  0  0  0  0  0  0  0
   -3.8189   -0.7595   -2.1593 H   0  0  0  0  0  0  0  0  0  0  0  0
   -3.9694    0.9886    1.7876 H   0  0  0  0  0  0  0  0  0  0  0  0
   -6.1155   -1.5790   -1.8764 H   0  0  0  0  0  0  0  0  0  0  0  0
   -6.2605    0.1593    2.0626 H   0  0  0  0  0  0  0  0  0  0  0  0
    2.4803    0.9238   -1.4188 H   0  0  0  0  0  0  0  0  0  0  0  0
    1.4425   -4.3491   -0.6166 H   0  0  0  0  0  0  0  0  0  0  0  0
    0.6051   -1.9958   -3.1641 H   0  0  0  0  0  0  0  0  0  0  0  0
    1.3195   -4.8824    1.5266 H   0  0  0  0  0  0  0  0  0  0  0  0
   -7.8774   -1.6970   -0.5359 H   0  0  0  0  0  0  0  0  0  0  0  0
    4.4103    1.7063    1.7146 H   0  0  0  0  0  0  0  0  0  0  0  0
    4.3712   -0.4382   -2.0433 H   0  0  0  0  0  0  0  0  0  0  0  0
    6.7459    1.0901    2.0379 H   0  0  0  0  0  0  0  0  0  0  0  0
    6.7289   -1.0357   -1.7087 H   0  0  0  0  0  0  0  0  0  0  0  0
    8.5004   -0.8757   -0.3834 H   0  0  0  0  0  0  0  0  0  0  0  0
  1 11  2  0  0  0  0
  2 14  2  0  0  0  0
  3 22  1  0  0  0  0
  3 49  1  0  0  0  0
  4 23  1  0  0  0  0
  4 50  1  0  0  0  0
  5 28  1  0  0  0  0
  5 51  1  0  0  0  0
  6 34  1  0  0  0  0
  6 56  1  0  0  0  0
  7  8  1  0  0  0  0
  7  9  1  0  0  0  0
  7 13  1  0  0  0  0
  7 35  1  0  0  0  0
  8 10  1  0  0  0  0
  8 15  1  0  0  0  0
  8 36  1  0  0  0  0
  9 11  1  0  0  0  0
  9 12  1  0  0  0  0
  9 37  1  0  0  0  0
 10 11  1  0  0  0  0
 10 14  1  0  0  0  0
 10 38  1  0  0  0  0
 12 16  2  0  0  0  0
 12 17  1  0  0  0  0
 13 18  2  0  0  0  0
 13 19  1  0  0  0  0
 14 16  1  0  0  0  0
 15 20  2  0  0  0  0
 15 21  1  0  0  0  0
 16 39  1  0  0  0  0
 17 26  2  0  0  0  0
 17 40  1  0  0  0  0
 18 23  1  0  0  0  0
 18 41  1  0  0  0  0
 19 22  2  0  0  0  0
 19 42  1  0  0  0  0
 20 24  1  0  0  0  0
 20 43  1  0  0  0  0
 21 25  2  0  0  0  0
 21 44  1  0  0  0  0
 22 27  1  0  0  0  0
 23 27  2  0  0  0  0
 24 28  2  0  0  0  0
 24 45  1  0  0  0  0
 25 28  1  0  0  0  0
 25 46  1  0  0  0  0
 26 29  1  0  0  0  0
 26 47  1  0  0  0  0
 27 48  1  0  0  0  0
 29 30  2  0  0  0  0
 29 31  1  0  0  0  0
 30 32  1  0  0  0  0
 30 52  1  0  0  0  0
 31 33  2  0  0  0  0
 31 53  1  0  0  0  0
 32 34  2  0  0  0  0
 32 54  1  0  0  0  0
 33 34  1  0  0  0  0
 33 55  1  0  0  0  0
M  END
> <PUBCHEM_COMPOUND_CID>
11430952

> <PUBCHEM_CONFORMER_RMSD>
0.8

> <PUBCHEM_CONFORMER_DIVERSEORDER>
1
4
2
5
3

> <PUBCHEM_MMFF94_PARTIAL_CHARGES>
52
1 -0.57
10 0.12
11 0.45
12 -0.14
13 -0.14
14 0.49
15 -0.14
16 -0.14
17 -0.15
18 -0.15
19 -0.15
2 -0.57
20 -0.15
21 -0.15
22 0.08
23 0.08
24 -0.15
25 -0.15
26 -0.18
27 -0.15
28 0.08
29 0.03
3 -0.53
30 -0.15
31 -0.15
32 -0.15
33 -0.15
34 0.08
39 0.15
4 -0.53
40 0.15
41 0.15
42 0.15
43 0.15
44 0.15
45 0.15
46 0.15
47 0.15
48 0.15
49 0.45
5 -0.53
50 0.45
51 0.45
52 0.15
53 0.15
54 0.15
55 0.15
56 0.45
6 -0.53
7 0.14
8 0.14
9 0.2

> <PUBCHEM_EFFECTIVE_ROTOR_COUNT>
4.4

> <PUBCHEM_PHARMACOPHORE_FEATURES>
11
1 1 acceptor
1 10 anion
1 2 acceptor
1 3 donor
1 4 donor
1 5 donor
1 6 donor
6 13 18 19 22 23 27 rings
6 15 20 21 24 25 28 rings
6 29 30 31 32 33 34 rings
8 7 8 9 10 11 12 14 16 rings

> <PUBCHEM_HEAVY_ATOM_COUNT>
34

> <PUBCHEM_ATOM_DEF_STEREO_COUNT>
4

> <PUBCHEM_ATOM_UDEF_STEREO_COUNT>
0

> <PUBCHEM_BOND_DEF_STEREO_COUNT>
1

> <PUBCHEM_BOND_UDEF_STEREO_COUNT>
0

> <PUBCHEM_ISOTOPIC_ATOM_COUNT>
0

> <PUBCHEM_COMPONENT_COUNT>
1

> <PUBCHEM_CACTVS_TAUTO_COUNT>
530

> <PUBCHEM_CONFORMER_ID>
00AE6C2800000001

> <PUBCHEM_MMFF94_ENERGY>
115.8353

> <PUBCHEM_FEATURE_SELFOVERLAP>
55.823

> <PUBCHEM_SHAPE_FINGERPRINT>
102385 1 17756134592674908249
10930396 42 18191564524028118896
11135926 11 18336825304456513101
11578080 2 17606671427813685773
11991303 11 17386292115506554562
14068700 675 18271809050753637032
14840074 17 18411698802800433999
14955137 171 18270966881435027457
15183329 4 14201389482897919780
15849732 13 17967811686934179716
16112460 7 18269842071959819952
16728300 4 17824238437963959666
20028762 73 18201159939842684679
21781051 124 17968954113638119211
23559900 14 18198056083406719392
23569917 315 18339930406044091734
24893992 56 18189055451805748619
25019877 29 17846784022353657206
283562 15 18411419475397659385
3178227 256 18337120076567290753
3383291 50 18411417336968098290
340366 18 17750519657538372100
4015057 19 17631997733736647144
4258327 124 17897178012500725492
469060 322 18187376389004814477
59755656 215 18342739593954072351
6138700 20 18410855469008428618

> <PUBCHEM_SHAPE_MULTIPOLES>
664.49
15.21
3.88
1.71
10.49
1.92
0.34
1.69
-1.12
-0.5
-0.11
-0.2
0.18
0.2

> <PUBCHEM_SHAPE_SELFOVERLAP>
1485.436

> <PUBCHEM_SHAPE_VOLUME>
352.9

> <PUBCHEM_COORDINATE_TYPE>
2
5
10

$$$$
