REMARK  Name = 11447886
REMARK  5 active torsions:
REMARK  status: ('A' for Active; 'I' for Inactive)
REMARK    1  A    between atoms: C_2  and  O_17
REMARK    2  A    between atoms: C_3  and  O_15
REMARK    3  A    between atoms: C_4  and  C_19
REMARK    4  A    between atoms: C_5  and  N_8
REMARK    5  A    between atoms: C_19  and  N_20
REMARK                            x       y       z     vdW  Elec       q    Type
REMARK                         _______ _______ _______ _____ _____    ______ ____
ROOT
ATOM      1  O   UNL     1      -1.226  -0.392   1.266  0.00  0.00    -0.337 OA
ATOM      2  C   UNL     1      -2.727   0.513  -0.326  0.00  0.00    +0.166 C 
ATOM      3  C   UNL     1      -1.312   0.826  -0.764  0.00  0.00    +0.187 C 
ATOM      4  C   UNL     1      -2.512  -0.632   0.654  0.00  0.00    +0.125 C 
ATOM      5  C   UNL     1      -0.532   0.623   0.523  0.00  0.00    +0.229 C 
ENDROOT
BRANCH   5   8
ATOM      6  O   UNL     1       1.696   2.352   0.359  0.00  0.00    -0.252 OA
ATOM      7  O   UNL     1       4.591  -1.155  -0.396  0.00  0.00    -0.270 OA
ATOM      8  N   UNL     1       0.815   0.189   0.285  0.00  0.00    -0.217 N 
ATOM      9  N   UNL     1       3.136   0.604  -0.017  0.00  0.00    -0.236 N 
ATOM     10  C   UNL     1       1.862   1.138   0.220  0.00  0.00    +0.315 C 
ATOM     11  C   UNL     1       1.089  -1.164   0.119  0.00  0.00    +0.076 C 
ATOM     12  C   UNL     1       2.308  -1.657  -0.107  0.00  0.00    +0.074 C 
ATOM     13  C   UNL     1       3.457  -0.733  -0.190  0.00  0.00    +0.254 C 
ATOM     14  H   UNL     1       3.881   1.246  -0.067  0.00  0.00    +0.159 HD
ENDBRANCH   5   8
BRANCH   3  15
ATOM     15  O   UNL     1      -1.187   2.138  -1.275  0.00  0.00    -0.378 OA
ATOM     16  H   UNL     1      -1.701   2.216  -2.094  0.00  0.00    +0.211 HD
ENDBRANCH   3  15
BRANCH   2  17
ATOM     17  O   UNL     1      -3.277   1.614   0.397  0.00  0.00    -0.380 OA
ATOM     18  H   UNL     1      -3.424   2.358  -0.209  0.00  0.00    +0.211 HD
ENDBRANCH   2  17
BRANCH   4  19
ATOM     19  C   UNL     1      -2.471  -1.999  -0.016  0.00  0.00    -0.053 C 
BRANCH  19  20
ATOM     20  N   UNL     1      -3.709  -2.266  -0.734  0.00  0.00    +0.382 N 
ATOM     21  H   UNL     1      -3.656  -3.186  -1.172  0.00  0.00    -0.089 HD
ATOM     22  H   UNL     1      -3.847  -1.555  -1.452  0.00  0.00    -0.089 HD
ATOM     23  H   UNL     1      -4.493  -2.246  -0.081  0.00  0.00    -0.089 HD
ENDBRANCH  19  20
ENDBRANCH   4  19
TORSDOF 5
