REMARK  Name = 11442741
REMARK  11 active torsions:
REMARK  status: ('A' for Active; 'I' for Inactive)
REMARK    1  A    between atoms: C_1  and  C_4
REMARK    2  A    between atoms: C_1  and  N_19
REMARK    3  A    between atoms: C_1  and  C_35
REMARK    4  A    between atoms: N_3  and  C_6
REMARK    5  A    between atoms: C_6  and  C_9
REMARK    6  A    between atoms: C_6  and  C_12
REMARK    7  A    between atoms: C_12  and  C_13
REMARK    8  A    between atoms: N_19  and  S_21
REMARK    9  A    between atoms: S_21  and  C_24
REMARK   10  A    between atoms: C_35  and  C_36
REMARK   11  A    between atoms: C_36  and  N_37
REMARK                            x       y       z     vdW  Elec       q    Type
REMARK                         _______ _______ _______ _____ _____    ______ ____
ROOT
ATOM      1  C   UNL     1      -2.303   1.600   0.312  0.00  0.00    +0.149 C 
ENDROOT
BRANCH   1   4
ATOM      2  O   UNL     1      -0.479   1.233   1.857  0.00  0.00    -0.274 OA
ATOM      3  N   UNL     1       0.017   1.835  -0.329  0.00  0.00    -0.297 N 
ATOM      4  C   UNL     1      -0.839   1.524   0.719  0.00  0.00    +0.239 C 
ATOM      5  H   UNL     1      -0.373   2.056  -1.206  0.00  0.00    +0.150 HD
BRANCH   3   6
ATOM      6  C   UNL     1       1.454   1.850  -0.189  0.00  0.00    +0.153 C 
BRANCH   6   9
ATOM      7  O   UNL     1       1.484   3.221  -2.195  0.00  0.00    -0.274 OA
ATOM      8  N   UNL     1       3.053   3.624  -0.565  0.00  0.00    -0.327 N 
ATOM      9  C   UNL     1       1.983   2.943  -1.107  0.00  0.00    +0.238 C 
ATOM     10  H   UNL     1       3.478   4.354  -1.070  0.00  0.00    +0.145 HD
ATOM     11  H   UNL     1       3.391   3.380   0.327  0.00  0.00    +0.145 HD
ENDBRANCH   6   9
BRANCH   6  12
ATOM     12  C   UNL     1       2.086   0.500  -0.547  0.00  0.00    +0.055 C 
BRANCH  12  13
ATOM     13  C   UNL     1       3.464   0.325   0.043  0.00  0.00    -0.020 C 
ATOM     14  C   UNL     1       4.587   0.735  -0.674  0.00  0.00    -0.004 C 
ATOM     15  C   UNL     1       3.614  -0.247   1.307  0.00  0.00    -0.004 C 
ATOM     16  C   UNL     1       5.861   0.573  -0.128  0.00  0.00    -0.000 C 
ATOM     17  C   UNL     1       4.887  -0.409   1.853  0.00  0.00    -0.000 C 
ATOM     18  C   UNL     1       6.011   0.001   1.135  0.00  0.00    -0.000 C 
ENDBRANCH  12  13
ENDBRANCH   6  12
ENDBRANCH   3   6
ENDBRANCH   1   4
BRANCH   1  19
ATOM     19  N   UNL     1      -2.966   0.564   1.137  0.00  0.00    -0.172 NA
ATOM     20  H   UNL     1      -2.254   0.184   1.761  0.00  0.00    +0.149 HD
BRANCH  19  21
ATOM     21  S   UNL     1      -3.720  -0.761   0.387  0.00  0.00    +0.061 S 
ATOM     22  O   UNL     1      -4.674  -0.281  -0.594  0.00  0.00    -0.153 OA
ATOM     23  O   UNL     1      -4.135  -1.703   1.408  0.00  0.00    -0.153 OA
BRANCH  21  24
ATOM     24  C   UNL     1      -2.371  -1.503  -0.482  0.00  0.00    +0.122 C 
ATOM     25  C   UNL     1      -1.319  -2.166   0.169  0.00  0.00    +0.018 C 
ATOM     26  C   UNL     1      -0.276  -2.734  -0.601  0.00  0.00    -0.003 C 
ATOM     27  C   UNL     1      -2.396  -1.402  -1.873  0.00  0.00    +0.020 C 
ATOM     28  C   UNL     1      -0.317  -2.623  -2.001  0.00  0.00    -0.022 C 
ATOM     29  C   UNL     1      -1.371  -1.961  -2.631  0.00  0.00    -0.003 C 
ATOM     30  C   UNL     1      -1.277  -2.278   1.569  0.00  0.00    +0.001 C 
ATOM     31  C   UNL     1       0.777  -3.397   0.050  0.00  0.00    -0.000 C 
ATOM     32  C   UNL     1       0.752  -3.200  -2.875  0.00  0.00    +0.031 C 
ATOM     33  C   UNL     1      -0.224  -2.939   2.199  0.00  0.00    +0.000 C 
ATOM     34  C   UNL     1       0.802  -3.498   1.442  0.00  0.00    -0.000 C 
ENDBRANCH  21  24
ENDBRANCH  19  21
ENDBRANCH   1  19
BRANCH   1  35
ATOM     35  C   UNL     1      -2.912   2.974   0.609  0.00  0.00    +0.003 C 
BRANCH  35  36
ATOM     36  C   UNL     1      -4.370   3.129   0.166  0.00  0.00    -0.084 C 
BRANCH  36  37
ATOM     37  N   UNL     1      -4.882   4.468   0.429  0.00  0.00    +0.380 N 
ATOM     38  H   UNL     1      -5.852   4.529   0.120  0.00  0.00    -0.089 HD
ATOM     39  H   UNL     1      -4.320   5.152  -0.078  0.00  0.00    -0.089 HD
ATOM     40  H   UNL     1      -4.830   4.662   1.429  0.00  0.00    -0.089 HD
ENDBRANCH  36  37
ENDBRANCH  35  36
ENDBRANCH   1  35
TORSDOF 11
