REMARK  Name = 11440685
REMARK  4 active torsions:
REMARK  status: ('A' for Active; 'I' for Inactive)
REMARK    1  A    between atoms: C_9  and  C_27
REMARK    2  A    between atoms: C_16  and  O_24
REMARK    3  A    between atoms: C_17  and  C_20
REMARK    4  A    between atoms: C_27  and  O_28
REMARK                            x       y       z     vdW  Elec       q    Type
REMARK                         _______ _______ _______ _____ _____    ______ ____
ROOT
ATOM      1  O   UNL     1       3.182   1.608   0.295  0.00  0.00    -0.448 OA
ATOM      2  O   UNL     1      -0.371  -2.306   1.663  0.00  0.00    -0.294 OA
ATOM      3  O   UNL     1       2.132   3.593   0.422  0.00  0.00    -0.250 OA
ATOM      4  C   UNL     1      -2.001   0.484   0.248  0.00  0.00    +0.017 C 
ATOM      5  C   UNL     1       0.636   0.307   0.696  0.00  0.00    +0.020 C 
ATOM      6  C   UNL     1      -0.687  -0.376   0.199  0.00  0.00    +0.061 C 
ATOM      7  C   UNL     1       0.776   1.651  -0.055  0.00  0.00    +0.100 C 
ATOM      8  C   UNL     1      -1.722   1.870  -0.391  0.00  0.00    +0.001 C 
ATOM      9  C   UNL     1      -3.073  -0.280  -0.611  0.00  0.00    +0.102 C 
ATOM     10  C   UNL     1      -0.452   2.552   0.122  0.00  0.00    +0.011 C 
ATOM     11  C   UNL     1       1.854  -0.528   0.231  0.00  0.00    +0.049 C 
ATOM     12  C   UNL     1      -0.985  -1.785   0.736  0.00  0.00    +0.177 C 
ATOM     13  C   UNL     1      -3.348  -1.692  -0.078  0.00  0.00    +0.048 C 
ATOM     14  C   UNL     1      -2.538   0.691   1.686  0.00  0.00    +0.001 C 
ATOM     15  C   UNL     1       0.707   0.497   2.228  0.00  0.00    +0.001 C 
ATOM     16  C   UNL     1      -2.080  -2.535  -0.011  0.00  0.00    +0.168 C 
ATOM     17  C   UNL     1       3.194   0.169   0.503  0.00  0.00    +0.194 C 
ATOM     18  C   UNL     1       2.066   2.376   0.277  0.00  0.00    +0.317 C 
ENDROOT
BRANCH  17  20
ATOM     19  O   UNL     1       5.968  -1.780  -0.910  0.00  0.00    -0.448 OA
ATOM     20  C   UNL     1       4.286  -0.438  -0.294  0.00  0.00    +0.058 C 
ATOM     21  C   UNL     1       4.715  -0.037  -1.576  0.00  0.00    +0.043 C 
ATOM     22  C   UNL     1       5.072  -1.498   0.072  0.00  0.00    +0.179 C 
ATOM     23  C   UNL     1       5.744  -0.887  -1.909  0.00  0.00    +0.180 C 
ENDBRANCH  17  20
BRANCH  16  24
ATOM     24  O   UNL     1      -2.351  -3.772   0.618  0.00  0.00    -0.377 OA
ATOM     25  H   UNL     1      -1.538  -4.301   0.656  0.00  0.00    +0.211 HD
ENDBRANCH  16  24
BRANCH   9  27
ATOM     26  O   UNL     1      -4.599   1.540  -0.194  0.00  0.00    -0.250 OA
ATOM     27  C   UNL     1      -4.373   0.465  -0.731  0.00  0.00    +0.317 C 
BRANCH  27  28
ATOM     28  O   UNL     1      -5.233  -0.243  -1.518  0.00  0.00    -0.444 OA
ATOM     29  C   UNL     1      -6.518   0.355  -1.718  0.00  0.00    +0.256 C 
ENDBRANCH  27  28
ENDBRANCH   9  27
TORSDOF 4
