REMARK  Name = 11453871
REMARK  8 active torsions:
REMARK  status: ('A' for Active; 'I' for Inactive)
REMARK    1  A    between atoms: C_4  and  C_19
REMARK    2  A    between atoms: C_7  and  O_28
REMARK    3  A    between atoms: C_10  and  O_22
REMARK    4  A    between atoms: C_11  and  O_24
REMARK    5  A    between atoms: C_12  and  O_26
REMARK    6  A    between atoms: C_15  and  O_32
REMARK    7  A    between atoms: O_28  and  C_30
REMARK    8  A    between atoms: O_32  and  C_34
REMARK                            x       y       z     vdW  Elec       q    Type
REMARK                         _______ _______ _______ _____ _____    ______ ____
ROOT
ATOM      1  O   UNL     1      -0.654   0.582  -0.725  0.00  0.00    -0.354 OA
ATOM      2  C   UNL     1       1.330   1.308   0.288  0.00  0.00    +0.035 C 
ATOM      3  C   UNL     1       1.348  -0.236   0.277  0.00  0.00    +0.069 C 
ATOM      4  C   UNL     1       2.261   1.893  -0.797  0.00  0.00    +0.003 C 
ATOM      5  C   UNL     1      -0.157   1.637   0.090  0.00  0.00    +0.140 C 
ATOM      6  C   UNL     1       0.072  -0.623  -0.500  0.00  0.00    +0.148 C 
ATOM      7  C   UNL     1       2.683  -0.885  -0.183  0.00  0.00    +0.138 C 
ATOM      8  C   UNL     1       3.714   1.412  -0.597  0.00  0.00    +0.004 C 
ATOM      9  C   UNL     1       3.837   0.075   0.131  0.00  0.00    +0.040 C 
ATOM     10  C   UNL     1      -1.020   1.796   1.380  0.00  0.00    +0.113 C 
ATOM     11  C   UNL     1      -0.801  -1.643   0.258  0.00  0.00    +0.165 C 
ATOM     12  C   UNL     1      -2.260  -1.818  -0.268  0.00  0.00    +0.152 C 
ATOM     13  C   UNL     1       2.750  -1.346  -1.645  0.00  0.00    +0.044 C 
ATOM     14  C   UNL     1      -2.548   1.641   1.126  0.00  0.00    +0.033 C 
ATOM     15  C   UNL     1      -3.126  -0.519  -0.227  0.00  0.00    +0.195 C 
ATOM     16  C   UNL     1      -3.157   0.218   1.127  0.00  0.00    +0.049 C 
ATOM     17  C   UNL     1      -0.759   3.201   1.960  0.00  0.00    +0.032 C 
ATOM     18  C   UNL     1      -2.963  -2.977   0.469  0.00  0.00    +0.036 C 
ENDROOT
BRANCH   4  19
ATOM     19  C   UNL     1       2.247   3.426  -0.835  0.00  0.00    +0.000 C 
ATOM     20  C   UNL     1       2.759   3.991   0.485  0.00  0.00    +0.000 C 
ATOM     21  C   UNL     1       3.083   3.934  -2.004  0.00  0.00    +0.000 C 
ENDBRANCH   4  19
BRANCH  10  22
ATOM     22  O   UNL     1      -0.650   0.863   2.393  0.00  0.00    -0.384 OA
ATOM     23  H   UNL     1      -0.798  -0.040   2.071  0.00  0.00    +0.210 HD
ENDBRANCH  10  22
BRANCH  11  24
ATOM     24  O   UNL     1      -0.099  -2.890   0.197  0.00  0.00    -0.380 OA
ATOM     25  H   UNL     1       0.805  -2.769   0.526  0.00  0.00    +0.211 HD
ENDBRANCH  11  24
BRANCH  12  26
ATOM     26  O   UNL     1      -2.185  -2.202  -1.652  0.00  0.00    -0.381 OA
ATOM     27  H   UNL     1      -1.747  -1.500  -2.159  0.00  0.00    +0.210 HD
ENDBRANCH  12  26
BRANCH   7  28
ATOM     28  O   UNL     1       2.872  -2.064   0.617  0.00  0.00    -0.456 OA
BRANCH  28  30
ATOM     29  O   UNL     1       4.915  -2.426  -0.401  0.00  0.00    -0.250 OA
ATOM     30  C   UNL     1       4.037  -2.731   0.396  0.00  0.00    +0.317 C 
ATOM     31  C   UNL     1       4.097  -3.929   1.294  0.00  0.00    +0.121 C 
ENDBRANCH  28  30
ENDBRANCH   7  28
BRANCH  15  32
ATOM     32  O   UNL     1      -4.479  -0.872  -0.570  0.00  0.00    -0.450 OA
BRANCH  32  34
ATOM     33  O   UNL     1      -5.091   1.352  -0.441  0.00  0.00    -0.250 OA
ATOM     34  C   UNL     1      -5.347   0.172  -0.639  0.00  0.00    +0.318 C 
ATOM     35  C   UNL     1      -6.707  -0.342  -1.003  0.00  0.00    +0.121 C 
ENDBRANCH  32  34
ENDBRANCH  15  32
TORSDOF 8
