REMARK  Name = 11454753
REMARK  5 active torsions:
REMARK  status: ('A' for Active; 'I' for Inactive)
REMARK    1  A    between atoms: C_14  and  C_27
REMARK    2  A    between atoms: C_27  and  N_29
REMARK    3  A    between atoms: C_27  and  O_37
REMARK    4  A    between atoms: C_30  and  C_32
REMARK    5  A    between atoms: C_33  and  C_34
REMARK                            x       y       z     vdW  Elec       q    Type
REMARK                         _______ _______ _______ _____ _____    ______ ____
ROOT
ATOM      1  O   UNL     1      -3.112   1.252  -0.372  0.00  0.00    -0.353 OA
ATOM      2  O   UNL     1       1.739   0.806   0.302  0.00  0.00    -0.444 OA
ATOM      3  O   UNL     1      -4.119  -3.838   0.392  0.00  0.00    -0.291 OA
ATOM      4  O   UNL     1       0.459   0.202  -1.527  0.00  0.00    -0.245 OA
ATOM      5  C   UNL     1      -4.489   1.207  -0.790  0.00  0.00    +0.124 C 
ATOM      6  C   UNL     1      -2.789   2.508   0.248  0.00  0.00    +0.140 C 
ATOM      7  C   UNL     1      -5.415   1.302   0.431  0.00  0.00    +0.052 C 
ATOM      8  C   UNL     1      -3.624   2.696   1.527  0.00  0.00    +0.056 C 
ATOM      9  C   UNL     1      -5.087   2.556   1.197  0.00  0.00    -0.039 C 
ATOM     10  C   UNL     1      -4.719  -0.055  -1.637  0.00  0.00    +0.056 C 
ATOM     11  C   UNL     1      -1.319   2.505   0.581  0.00  0.00    -0.005 C 
ATOM     12  C   UNL     1      -0.330   3.153  -0.065  0.00  0.00    -0.042 C 
ATOM     13  C   UNL     1       1.087   3.137   0.484  0.00  0.00    +0.070 C 
ATOM     14  C   UNL     1       2.011   2.129  -0.216  0.00  0.00    +0.219 C 
ATOM     15  C   UNL     1      -6.005   3.473   1.531  0.00  0.00    -0.009 C 
ATOM     16  C   UNL     1      -4.493  -1.353  -0.910  0.00  0.00    -0.021 C 
ATOM     17  C   UNL     1      -0.513   3.961  -1.321  0.00  0.00    +0.026 C 
ATOM     18  C   UNL     1      -3.553  -2.235  -1.271  0.00  0.00    +0.033 C 
ATOM     19  C   UNL     1      -3.351  -3.497  -0.504  0.00  0.00    +0.177 C 
ATOM     20  C   UNL     1       0.959  -0.025  -0.437  0.00  0.00    +0.341 C 
ATOM     21  C   UNL     1      -2.133  -4.327  -0.874  0.00  0.00    +0.091 C 
ATOM     22  C   UNL     1      -1.195  -4.397   0.305  0.00  0.00    -0.036 C 
ATOM     23  C   UNL     1       0.800  -1.277   0.337  0.00  0.00    +0.082 C 
ATOM     24  C   UNL     1      -0.283  -3.454   0.618  0.00  0.00    -0.008 C 
ATOM     25  C   UNL     1      -0.047  -2.218  -0.099  0.00  0.00    +0.006 C 
ATOM     26  C   UNL     1      -1.330  -5.632   1.158  0.00  0.00    +0.027 C 
ENDROOT
BRANCH  14  27
ATOM     27  C   UNL     1       3.471   2.423   0.116  0.00  0.00    +0.229 C 
BRANCH  27  29
ATOM     28  O   UNL     1       6.111   1.626   0.973  0.00  0.00    -0.270 OA
ATOM     29  N   UNL     1       4.366   1.502  -0.555  0.00  0.00    -0.277 N 
ATOM     30  C   UNL     1       5.619   1.183  -0.060  0.00  0.00    +0.248 C 
ATOM     31  H   UNL     1       4.071   1.086  -1.397  0.00  0.00    +0.152 HD
BRANCH  30  32
ATOM     32  C   UNL     1       6.333   0.217  -0.940  0.00  0.00    +0.058 C 
ATOM     33  C   UNL     1       6.196  -1.101  -0.742  0.00  0.00    +0.004 C 
BRANCH  33  34
ATOM     34  C   UNL     1       5.370  -1.652   0.309  0.00  0.00    -0.004 C 
ATOM     35  C   UNL     1       5.226  -2.969   0.516  0.00  0.00    -0.026 C 
ATOM     36  C   UNL     1       4.375  -3.549   1.598  0.00  0.00    +0.031 C 
ENDBRANCH  33  34
ENDBRANCH  30  32
ENDBRANCH  27  29
BRANCH  27  37
ATOM     37  O   UNL     1       3.785   3.743  -0.302  0.00  0.00    -0.365 OA
ATOM     38  H   UNL     1       4.713   3.935  -0.093  0.00  0.00    +0.212 HD
ENDBRANCH  27  37
ENDBRANCH  14  27
TORSDOF 5
