REMARK  Name = 114505
REMARK  6 active torsions:
REMARK  status: ('A' for Active; 'I' for Inactive)
REMARK    1  A    between atoms: C_2  and  C_11
REMARK    2  A    between atoms: C_4  and  O_21
REMARK    3  A    between atoms: C_7  and  O_23
REMARK    4  A    between atoms: C_10  and  O_25
REMARK    5  A    between atoms: C_14  and  O_17
REMARK    6  A    between atoms: C_16  and  O_19
REMARK                            x       y       z     vdW  Elec       q    Type
REMARK                         _______ _______ _______ _____ _____    ______ ____
ROOT
ATOM      1  O   UNL     1       0.260   0.772  -0.235  0.00  0.00    -0.475 OA
ATOM      2  C   UNL     1      -0.447  -0.402  -0.668  0.00  0.00    +0.191 C 
ATOM      3  C   UNL     1       0.001  -1.637   0.113  0.00  0.00    +0.082 C 
ATOM      4  C   UNL     1       1.478  -1.898  -0.168  0.00  0.00    +0.142 C 
ATOM      5  C   UNL     1       2.267  -0.618  -0.080  0.00  0.00    +0.072 C 
ATOM      6  C   UNL     1       1.619   0.625  -0.127  0.00  0.00    +0.143 C 
ATOM      7  C   UNL     1       3.667  -0.646   0.009  0.00  0.00    +0.138 C 
ATOM      8  C   UNL     1       2.354   1.811  -0.034  0.00  0.00    +0.073 C 
ATOM      9  C   UNL     1       4.399   0.539   0.088  0.00  0.00    +0.073 C 
ATOM     10  C   UNL     1       3.743   1.767   0.072  0.00  0.00    +0.140 C 
ENDROOT
BRANCH   2  11
ATOM     11  C   UNL     1      -1.931  -0.154  -0.497  0.00  0.00    +0.020 C 
ATOM     12  C   UNL     1      -2.460   0.054   0.776  0.00  0.00    +0.039 C 
ATOM     13  C   UNL     1      -2.767  -0.136  -1.613  0.00  0.00    +0.002 C 
ATOM     14  C   UNL     1      -3.827   0.281   0.934  0.00  0.00    +0.167 C 
ATOM     15  C   UNL     1      -4.134   0.091  -1.455  0.00  0.00    +0.040 C 
ATOM     16  C   UNL     1      -4.664   0.300  -0.182  0.00  0.00    +0.167 C 
BRANCH  14  17
ATOM     17  O   UNL     1      -4.333   0.485   2.183  0.00  0.00    -0.503 OA
ATOM     18  H   UNL     1      -3.763   0.471   2.927  0.00  0.00    +0.292 HD
ENDBRANCH  14  17
BRANCH  16  19
ATOM     19  O   UNL     1      -6.001   0.521  -0.041  0.00  0.00    -0.503 OA
ATOM     20  H   UNL     1      -6.365   0.662   0.811  0.00  0.00    +0.292 HD
ENDBRANCH  16  19
ENDBRANCH   2  11
BRANCH   4  21
ATOM     21  O   UNL     1       1.961  -2.853   0.771  0.00  0.00    -0.380 OA
ATOM     22  H   UNL     1       1.441  -3.669   0.699  0.00  0.00    +0.211 HD
ENDBRANCH   4  21
BRANCH   7  23
ATOM     23  O   UNL     1       4.356  -1.824   0.000  0.00  0.00    -0.506 OA
ATOM     24  H   UNL     1       3.893  -2.637  -0.052  0.00  0.00    +0.292 HD
ENDBRANCH   7  23
BRANCH  10  25
ATOM     25  O   UNL     1       4.456   2.923   0.154  0.00  0.00    -0.505 OA
ATOM     26  H   UNL     1       4.014   3.748   0.143  0.00  0.00    +0.292 HD
ENDBRANCH  10  25
TORSDOF 6
