REMARK  Name = 11452716
REMARK  9 active torsions:
REMARK  status: ('A' for Active; 'I' for Inactive)
REMARK    1  A    between atoms: S_1  and  N_5
REMARK    2  A    between atoms: S_1  and  C_18
REMARK    3  A    between atoms: C_7  and  C_14
REMARK    4  A    between atoms: N_13  and  O_16
REMARK    5  A    between atoms: C_23  and  O_24
REMARK    6  A    between atoms: O_24  and  C_25
REMARK    7  A    between atoms: C_25  and  C_26
REMARK    8  A    between atoms: C_27  and  C_28
REMARK    9  A    between atoms: C_28  and  O_29
REMARK                            x       y       z     vdW  Elec       q    Type
REMARK                         _______ _______ _______ _____ _____    ______ ____
ROOT
ATOM      1  S   UNL     1      -1.570   1.498   0.452  0.00  0.00    +0.064 S 
ATOM      2  O   UNL     1      -2.010   1.822   1.792  0.00  0.00    -0.153 OA
ATOM      3  O   UNL     1      -1.892   2.355  -0.668  0.00  0.00    -0.153 OA
ENDROOT
BRANCH   1   5
ATOM      4  S   UNL     1      -3.097  -2.916  -0.938  0.00  0.00    -0.139 S 
ATOM      5  N   UNL     1      -2.051  -0.105   0.080  0.00  0.00    -0.146 NA
ATOM      6  C   UNL     1      -3.651  -1.995   0.559  0.00  0.00    +0.063 C 
ATOM      7  C   UNL     1      -3.465  -0.468   0.405  0.00  0.00    +0.166 C 
ATOM      8  C   UNL     1      -1.532  -0.653  -1.206  0.00  0.00    +0.108 C 
ATOM      9  C   UNL     1      -1.459  -2.169  -1.161  0.00  0.00    +0.077 C 
ATOM     10  C   UNL     1      -2.862  -2.511   1.778  0.00  0.00    +0.013 C 
ATOM     11  C   UNL     1      -5.136  -2.347   0.777  0.00  0.00    +0.013 C 
BRANCH   7  14
ATOM     12  O   UNL     1      -4.329  -0.137  -1.792  0.00  0.00    -0.271 OA
ATOM     13  N   UNL     1      -5.199   1.118  -0.056  0.00  0.00    -0.196 N 
ATOM     14  C   UNL     1      -4.364   0.180  -0.605  0.00  0.00    +0.261 C 
ATOM     15  H   UNL     1      -5.186   1.333   0.904  0.00  0.00    +0.182 HD
BRANCH  13  16
ATOM     16  O   UNL     1      -6.074   1.751  -0.950  0.00  0.00    -0.295 OA
ATOM     17  H   UNL     1      -6.619   2.393  -0.468  0.00  0.00    +0.241 HD
ENDBRANCH  13  16
ENDBRANCH   7  14
ENDBRANCH   1   5
BRANCH   1  18
ATOM     18  C   UNL     1       0.182   1.290   0.494  0.00  0.00    +0.122 C 
ATOM     19  C   UNL     1       0.974   2.018  -0.381  0.00  0.00    +0.023 C 
ATOM     20  C   UNL     1       0.739   0.402   1.401  0.00  0.00    +0.023 C 
ATOM     21  C   UNL     1       2.358   1.853  -0.347  0.00  0.00    +0.038 C 
ATOM     22  C   UNL     1       2.123   0.238   1.434  0.00  0.00    +0.038 C 
ATOM     23  C   UNL     1       2.933   0.964   0.560  0.00  0.00    +0.140 C 
BRANCH  23  24
ATOM     24  O   UNL     1       4.284   0.802   0.592  0.00  0.00    -0.461 OA
BRANCH  24  25
ATOM     25  C   UNL     1       4.990   0.993  -0.633  0.00  0.00    +0.281 C 
BRANCH  25  26
ATOM     26  C   UNL     1       6.199   0.170  -0.639  0.00  0.00    -0.041 C 
ATOM     27  C   UNL     1       7.191  -0.506  -0.647  0.00  0.00    -0.055 C 
BRANCH  27  28
ATOM     28  C   UNL     1       8.401  -1.328  -0.657  0.00  0.00    +0.214 C 
BRANCH  28  29
ATOM     29  O   UNL     1       8.315  -2.320   0.356  0.00  0.00    -0.370 OA
ATOM     30  H   UNL     1       9.119  -2.863   0.346  0.00  0.00    +0.212 HD
ENDBRANCH  28  29
ENDBRANCH  27  28
ENDBRANCH  25  26
ENDBRANCH  24  25
ENDBRANCH  23  24
ENDBRANCH   1  18
TORSDOF 9
