REMARK  Name = 11452022
REMARK  18 active torsions:
REMARK  status: ('A' for Active; 'I' for Inactive)
REMARK    1  A    between atoms: C_1  and  N_2
REMARK    2  A    between atoms: C_1  and  C_6
REMARK    3  A    between atoms: C_1  and  C_22
REMARK    4  A    between atoms: C_1  and  C_30
REMARK    5  A    between atoms: C_6  and  C_7
REMARK    6  A    between atoms: C_7  and  C_8
REMARK    7  A    between atoms: C_9  and  C_14
REMARK    8  A    between atoms: C_14  and  C_15
REMARK    9  A    between atoms: C_15  and  C_16
REMARK   10  A    between atoms: C_16  and  C_17
REMARK   11  A    between atoms: C_17  and  C_18
REMARK   12  A    between atoms: C_18  and  C_19
REMARK   13  A    between atoms: C_19  and  C_20
REMARK   14  A    between atoms: C_22  and  O_23
REMARK   15  A    between atoms: O_23  and  P_24
REMARK   16  A    between atoms: P_24  and  O_26
REMARK   17  A    between atoms: P_24  and  O_28
REMARK   18  A    between atoms: C_30  and  O_31
REMARK                            x       y       z     vdW  Elec       q    Type
REMARK                         _______ _______ _______ _____ _____    ______ ____
ROOT
ATOM      1  C   UNL     1      -4.680  -0.649  -0.136  0.00  0.00    +0.007 C 
ENDROOT
BRANCH   1   2
ATOM      2  N   UNL     1      -5.217  -1.030   1.179  0.00  0.00    +0.386 N 
ATOM      3  H   UNL     1      -4.802  -0.440   1.899  0.00  0.00    -0.089 HD
ATOM      4  H   UNL     1      -4.992  -2.007   1.368  0.00  0.00    -0.089 HD
ATOM      5  H   UNL     1      -6.230  -0.908   1.180  0.00  0.00    -0.089 HD
ENDBRANCH   1   2
BRANCH   1   6
ATOM      6  C   UNL     1      -3.132  -0.784  -0.116  0.00  0.00    -0.010 C 
BRANCH   6   7
ATOM      7  C   UNL     1      -2.586  -2.189   0.209  0.00  0.00    +0.024 C 
BRANCH   7   8
ATOM      8  C   UNL     1      -1.096  -2.208   0.280  0.00  0.00    -0.022 C 
ATOM      9  C   UNL     1       1.690  -2.240   0.411  0.00  0.00    -0.022 C 
ATOM     10  C   UNL     1      -0.452  -1.963   1.493  0.00  0.00    -0.005 C 
ATOM     11  C   UNL     1      -0.347  -2.469  -0.868  0.00  0.00    -0.005 C 
ATOM     12  C   UNL     1       0.941  -1.979   1.558  0.00  0.00    -0.005 C 
ATOM     13  C   UNL     1       1.046  -2.485  -0.802  0.00  0.00    -0.005 C 
BRANCH   9  14
ATOM     14  C   UNL     1       3.197  -2.257   0.481  0.00  0.00    +0.026 C 
BRANCH  14  15
ATOM     15  C   UNL     1       3.788  -0.871   0.211  0.00  0.00    +0.005 C 
BRANCH  15  16
ATOM     16  C   UNL     1       5.319  -0.858   0.181  0.00  0.00    +0.000 C 
BRANCH  16  17
ATOM     17  C   UNL     1       5.970   0.490  -0.141  0.00  0.00    +0.000 C 
BRANCH  17  18
ATOM     18  C   UNL     1       7.498   0.463  -0.072  0.00  0.00    +0.000 C 
BRANCH  18  19
ATOM     19  C   UNL     1       8.088   1.854  -0.314  0.00  0.00    +0.000 C 
BRANCH  19  20
ATOM     20  C   UNL     1       9.616   1.824  -0.278  0.00  0.00    +0.000 C 
ATOM     21  C   UNL     1      10.207   3.198  -0.552  0.00  0.00    +0.000 C 
ENDBRANCH  19  20
ENDBRANCH  18  19
ENDBRANCH  17  18
ENDBRANCH  16  17
ENDBRANCH  15  16
ENDBRANCH  14  15
ENDBRANCH   9  14
ENDBRANCH   7   8
ENDBRANCH   6   7
ENDBRANCH   1   6
BRANCH   1  22
ATOM     22  C   UNL     1      -5.072   0.818  -0.436  0.00  0.00    +0.136 C 
BRANCH  22  23
ATOM     23  O   UNL     1      -4.551   1.723   0.531  0.00  0.00    -0.276 OA
BRANCH  23  24
ATOM     24  P   UNL     1      -4.873   3.297   0.359  0.00  0.00    +0.473 P 
ATOM     25  O   UNL     1      -4.289   4.185   1.419  0.00  0.00    -0.228 OA
BRANCH  24  26
ATOM     26  O   UNL     1      -4.364   3.603  -1.145  0.00  0.00    -0.303 OA
ATOM     27  H   UNL     1      -4.789   2.987  -1.762  0.00  0.00    +0.222 HD
ENDBRANCH  24  26
BRANCH  24  28
ATOM     28  O   UNL     1      -6.484   3.349   0.224  0.00  0.00    -0.303 OA
ATOM     29  H   UNL     1      -6.769   2.747  -0.481  0.00  0.00    +0.222 HD
ENDBRANCH  24  28
ENDBRANCH  23  24
ENDBRANCH  22  23
ENDBRANCH   1  22
BRANCH   1  30
ATOM     30  C   UNL     1      -5.340  -1.570  -1.183  0.00  0.00    +0.120 C 
BRANCH  30  31
ATOM     31  O   UNL     1      -4.879  -1.254  -2.492  0.00  0.00    -0.384 OA
ATOM     32  H   UNL     1      -5.304  -1.843  -3.135  0.00  0.00    +0.210 HD
ENDBRANCH  30  31
ENDBRANCH   1  30
TORSDOF 18
