REMARK  Name = 11464980
REMARK  11 active torsions:
REMARK  status: ('A' for Active; 'I' for Inactive)
REMARK    1  A    between atoms: N_2  and  CA_21
REMARK    2  A    between atoms: C_3  and  C_5
REMARK    3  A    between atoms: C_5  and  N_11
REMARK    4  A    between atoms: C_12  and  C_14
REMARK    5  A    between atoms: C_14  and  S_15
REMARK    6  A    between atoms: C_14  and  C_17
REMARK    7  A    between atoms: C_17  and  C_18
REMARK    8  A    between atoms: CA_21  and  C_23
REMARK    9  A    between atoms: CA_21  and  CB_26
REMARK   10  A    between atoms: C_23  and  O_24
REMARK   11  A    between atoms: CB_26  and  CG_28
REMARK                            x       y       z     vdW  Elec       q    Type
REMARK                         _______ _______ _______ _____ _____    ______ ____
ROOT
ATOM      1  O   UNL     1       0.223   2.705   1.700  0.00  0.00    -0.273 OA
ATOM      2  N   UNL     1       0.413   1.699  -0.391  0.00  0.00    -0.295 N 
ATOM      3  C   ACE A   0      -0.253   2.064   0.766  0.00  0.00    +0.239 C 
ATOM      4  H   UNL     1      -0.077   1.183  -1.071  0.00  0.00    +0.150 HD
ENDROOT
BRANCH   3   5
ATOM      5  C   UNL     1      -1.682   1.606   0.768  0.00  0.00    +0.126 C 
ATOM      6  C   UNL     1      -2.422   2.046   2.040  0.00  0.00    +0.027 C 
ATOM      7  C   UNL     1      -2.456   2.211  -0.413  0.00  0.00    +0.027 C 
ATOM      8  C   UNL     1      -3.397   3.123   1.579  0.00  0.00    +0.002 C 
ATOM      9  C   UNL     1      -3.781   2.676   0.181  0.00  0.00    +0.002 C 
BRANCH   5  11
ATOM     10  O   UNL     1      -3.869  -0.280   0.701  0.00  0.00    -0.274 OA
ATOM     11  N   UNL     1      -1.591   0.170   0.682  0.00  0.00    -0.299 N 
ATOM     12  C   UNL     1      -2.701  -0.662   0.655  0.00  0.00    +0.232 C 
ATOM     13  H   UNL     1      -0.697  -0.240   0.640  0.00  0.00    +0.150 HD
BRANCH  12  14
ATOM     14  C   UNL     1      -2.323  -2.137   0.589  0.00  0.00    +0.120 C 
BRANCH  14  15
ATOM     15  S   UNL     1      -2.028  -2.684   2.311  0.00  0.00    -0.160 S 
ATOM     16  H   UNL     1      -1.048  -1.922   2.866  0.00  0.00    +0.103 HD
ENDBRANCH  14  15
BRANCH  14  17
ATOM     17  C   UNL     1      -3.430  -2.997  -0.038  0.00  0.00    +0.020 C 
BRANCH  17  18
ATOM     18  C   UNL     1      -3.768  -2.630  -1.500  0.00  0.00    +0.001 C 
ATOM     19  C   UNL     1      -2.551  -2.716  -2.422  0.00  0.00    +0.000 C 
ATOM     20  C   UNL     1      -4.875  -3.552  -2.021  0.00  0.00    +0.000 C 
ENDBRANCH  17  18
ENDBRANCH  14  17
ENDBRANCH  12  14
ENDBRANCH   5  11
ENDBRANCH   3   5
BRANCH   2  21
ATOM     21  CA  UNL     1       1.794   2.039  -0.649  0.00  0.00    +0.176 C 
BRANCH  21  23
ATOM     22  OXT UNL     1       2.982   3.965  -1.504  0.00  0.00    -0.248 OA
ATOM     23  C   UNL     1       1.906   3.422  -1.274  0.00  0.00    +0.332 C 
BRANCH  23  24
ATOM     24  O   UNL     1       0.723   4.020  -1.551  0.00  0.00    -0.479 OA
ATOM     25  H   UNL     1      -0.081   3.577  -1.362  0.00  0.00    +0.295 HD
ENDBRANCH  23  24
ENDBRANCH  21  23
BRANCH  21  26
ATOM     26  CB  UNL     1       2.468   0.998  -1.553  0.00  0.00    +0.059 C 
BRANCH  26  28
ATOM     27  NE1 UNL     1       1.774  -2.435  -0.518  0.00  0.00    -0.312 N 
ATOM     28  CG  UNL     1       2.433  -0.393  -0.985  0.00  0.00    -0.004 C 
ATOM     29  CD2 UNL     1       3.411  -0.964  -0.148  0.00  0.00    +0.011 C 
ATOM     30  CD1 UNL     1       1.440  -1.298  -1.204  0.00  0.00    +0.058 C 
ATOM     31  CE2 UNL     1       2.973  -2.260   0.136  0.00  0.00    +0.048 C 
ATOM     32  CE3 UNL     1       4.629  -0.523   0.406  0.00  0.00    +0.001 C 
ATOM     33  CZ2 UNL     1       3.696  -3.140   0.949  0.00  0.00    +0.015 C 
ATOM     34  CZ3 UNL     1       5.363  -1.393   1.221  0.00  0.00    +0.000 C 
ATOM     35  CH2 UNL     1       4.901  -2.680   1.488  0.00  0.00    +0.001 C 
ATOM     36  HE1 UNL     1       1.236  -3.258  -0.496  0.00  0.00    +0.152 HD
ENDBRANCH  26  28
ENDBRANCH  21  26
ENDBRANCH   2  21
TORSDOF 11
