114682
  -OEChem-03292013323D

 30 31  0     1  0  0  0  0  0999 V2000
   -1.2973   -0.7363   -0.7313 O   0  0  0  0  0  0  0  0  0  0  0  0
   -1.0071    2.6843    0.2074 O   0  0  0  0  0  0  0  0  0  0  0  0
   -3.2627    1.0950    1.6360 O   0  0  0  0  0  0  0  0  0  0  0  0
   -3.4112   -2.6063   -0.7518 O   0  0  0  0  0  0  0  0  0  0  0  0
    1.8254    1.8292   -1.3974 O   0  0  0  0  0  0  0  0  0  0  0  0
    0.8479    0.0695   -0.2689 N   0  0  0  0  0  0  0  0  0  0  0  0
    3.2378    0.3919   -0.3529 N   0  0  0  0  0  0  0  0  0  0  0  0
    4.6794   -1.0857    0.7179 N   0  0  0  0  0  0  0  0  0  0  0  0
   -1.1343    1.3020    0.4874 C   0  0  1  0  0  0  0  0  0  0  0  0
   -2.5816    0.8690    0.4173 C   0  0  1  0  0  0  0  0  0  0  0  0
   -0.4965    0.4492   -0.5982 C   0  0  2  0  0  0  0  0  0  0  0  0
   -2.4346   -0.6159    0.1379 C   0  0  1  0  0  0  0  0  0  0  0  0
   -3.6549   -1.2274   -0.5261 C   0  0  0  0  0  0  0  0  0  0  0  0
    1.0493   -1.0648    0.5022 C   0  0  0  0  0  0  0  0  0  0  0  0
    1.9692    0.8172   -0.7091 C   0  0  0  0  0  0  0  0  0  0  0  0
    2.2608   -1.4909    0.8542 C   0  0  0  0  0  0  0  0  0  0  0  0
    3.4103   -0.6801    0.3753 C   0  0  0  0  0  0  0  0  0  0  0  0
   -0.7132    1.1200    1.4830 H   0  0  0  0  0  0  0  0  0  0  0  0
   -3.1186    1.3879   -0.3859 H   0  0  0  0  0  0  0  0  0  0  0  0
   -0.4993    0.9627   -1.5669 H   0  0  0  0  0  0  0  0  0  0  0  0
   -2.2085   -1.1741    1.0556 H   0  0  0  0  0  0  0  0  0  0  0  0
   -3.8459   -0.7614   -1.4984 H   0  0  0  0  0  0  0  0  0  0  0  0
   -4.5419   -1.1241    0.1064 H   0  0  0  0  0  0  0  0  0  0  0  0
   -1.3892    2.8570   -0.6698 H   0  0  0  0  0  0  0  0  0  0  0  0
   -3.2230    2.0493    1.8186 H   0  0  0  0  0  0  0  0  0  0  0  0
    0.1815   -1.6130    0.8478 H   0  0  0  0  0  0  0  0  0  0  0  0
   -4.2059   -2.9715   -1.1769 H   0  0  0  0  0  0  0  0  0  0  0  0
    2.4251   -2.3699    1.4630 H   0  0  0  0  0  0  0  0  0  0  0  0
    5.4932   -0.5631    0.4123 H   0  0  0  0  0  0  0  0  0  0  0  0
    4.8460   -1.9133    1.2808 H   0  0  0  0  0  0  0  0  0  0  0  0
  1 11  1  0  0  0  0
  1 12  1  0  0  0  0
  2  9  1  0  0  0  0
  2 24  1  0  0  0  0
  3 10  1  0  0  0  0
  3 25  1  0  0  0  0
  4 13  1  0  0  0  0
  4 27  1  0  0  0  0
  5 15  2  0  0  0  0
  6 11  1  0  0  0  0
  6 14  1  0  0  0  0
  6 15  1  0  0  0  0
  7 15  1  0  0  0  0
  7 17  2  0  0  0  0
  8 17  1  0  0  0  0
  8 29  1  0  0  0  0
  8 30  1  0  0  0  0
  9 10  1  0  0  0  0
  9 11  1  0  0  0  0
  9 18  1  0  0  0  0
 10 12  1  0  0  0  0
 10 19  1  0  0  0  0
 11 20  1  0  0  0  0
 12 13  1  0  0  0  0
 12 21  1  0  0  0  0
 13 22  1  0  0  0  0
 13 23  1  0  0  0  0
 14 16  2  0  0  0  0
 14 26  1  0  0  0  0
 16 17  1  0  0  0  0
 16 28  1  0  0  0  0
M  END
> <PUBCHEM_COMPOUND_CID>
114682

> <PUBCHEM_CONFORMER_RMSD>
0.6

> <PUBCHEM_CONFORMER_DIVERSEORDER>
1
10
14
7
16
12
2
5
9
15
13
4
6
3
11
8

> <PUBCHEM_MMFF94_PARTIAL_CHARGES>
24
1 -0.56
10 0.28
11 0.58
12 0.28
13 0.28
14 -0.04
15 0.84
16 -0.14
17 0.49
2 -0.68
24 0.4
25 0.4
26 0.15
27 0.4
28 0.15
29 0.4
3 -0.68
30 0.4
4 -0.68
5 -0.57
6 -0.47
7 -0.66
8 -0.85
9 0.28

> <PUBCHEM_EFFECTIVE_ROTOR_COUNT>
3

> <PUBCHEM_PHARMACOPHORE_FEATURES>
12
1 1 acceptor
1 2 acceptor
1 2 donor
1 3 acceptor
1 3 donor
1 4 acceptor
1 4 donor
1 5 acceptor
1 7 donor
1 8 donor
5 1 9 10 11 12 rings
6 6 7 14 15 16 17 rings

> <PUBCHEM_HEAVY_ATOM_COUNT>
17

> <PUBCHEM_ATOM_DEF_STEREO_COUNT>
3

> <PUBCHEM_ATOM_UDEF_STEREO_COUNT>
1

> <PUBCHEM_BOND_DEF_STEREO_COUNT>
0

> <PUBCHEM_BOND_UDEF_STEREO_COUNT>
0

> <PUBCHEM_ISOTOPIC_ATOM_COUNT>
0

> <PUBCHEM_COMPONENT_COUNT>
1

> <PUBCHEM_CACTVS_TAUTO_COUNT>
3

> <PUBCHEM_CONFORMER_ID>
0001BFFA00000001

> <PUBCHEM_MMFF94_ENERGY>
49.1265

> <PUBCHEM_FEATURE_SELFOVERLAP>
60.949

> <PUBCHEM_SHAPE_FINGERPRINT>
11132069 177 18201726106821354521
11578080 2 18192966374929861173
11769659 78 18335133206846488902
11806522 49 18334850654255031990
12251169 10 18337397019578258049
13538477 17 18341335521974332877
13764800 53 16773524269846271241
15375462 189 18194410111449095099
15375462 478 18413100654540647950
16945 1 18268435637488961733
17844478 74 15123799486873924355
17862501 102 18335693941008391698
19050596 39 18409172094972822674
19422 9 18412267258917921710
19433438 48 18336824208432744338
200 152 18260821609718967823
20645477 70 17385719239999093422
21634736 98 18191588755732163118
21650355 55 18272365365314252385
22112679 90 18342747337975402549
22445834 79 18189338969951768834
23388829 49 18334295348937254740
23402539 116 18334565816308586970
23557571 272 17704079473035629584
23598291 2 18335432261187710988
26918003 58 17604158047026974473
57096353 35 18262244433641862462
6992083 37 18191310381505451740
7097593 13 18194402191107310818
77492 1 18409456902817859093
90316 7 18341055120755692985

> <PUBCHEM_SHAPE_MULTIPOLES>
305.56
6.94
2.16
1.06
2.32
0.21
0.08
-3.07
0.83
-1.19
-0.19
-0.24
0.18
-1.69

> <PUBCHEM_SHAPE_SELFOVERLAP>
642.845

> <PUBCHEM_SHAPE_VOLUME>
171.2

> <PUBCHEM_COORDINATE_TYPE>
2
5
10

$$$$
