11465695
  -OEChem-03292013303D

 61 63  0     0  0  0  0  0  0999 V2000
    6.0722    0.3273    0.1046 S   0  0  0  0  0  0  0  0  0  0  0  0
   -1.7186   -2.6890    1.1641 O   0  0  0  0  0  0  0  0  0  0  0  0
    4.4658   -2.2511   -0.4973 O   0  0  0  0  0  0  0  0  0  0  0  0
    6.6371   -0.5743    1.0890 O   0  0  0  0  0  0  0  0  0  0  0  0
    6.2942    1.7577    0.1887 O   0  0  0  0  0  0  0  0  0  0  0  0
    0.3938   -2.0045   -0.7004 N   0  0  0  0  0  0  0  0  0  0  0  0
    1.6882   -2.3762   -0.6804 N   0  0  0  0  0  0  0  0  0  0  0  0
    1.6845    1.1689   -0.0362 N   0  0  0  0  0  0  0  0  0  0  0  0
    0.6862    3.2618    0.2775 N   0  0  0  0  0  0  0  0  0  0  0  0
   -0.7353    1.4496   -0.1483 N   0  0  0  0  0  0  0  0  0  0  0  0
   -2.2181   -0.3747   -0.5791 N   0  0  0  0  0  0  0  0  0  0  0  0
    4.3920    0.0429   -0.0596 N   0  0  0  0  0  0  0  0  0  0  0  0
   -3.5843    1.5549   -0.3223 N   0  0  0  0  0  0  0  0  0  0  0  0
    0.1980   -0.6745   -0.4718 C   0  0  0  0  0  0  0  0  0  0  0  0
    1.4642   -0.1419   -0.2896 C   0  0  0  0  0  0  0  0  0  0  0  0
   -0.6130   -3.0099   -0.9510 C   0  0  0  0  0  0  0  0  0  0  0  0
    2.3374   -1.2346   -0.4294 C   0  0  0  0  0  0  0  0  0  0  0  0
   -0.9206    0.1340   -0.4001 C   0  0  0  0  0  0  0  0  0  0  0  0
    0.5378    1.8806    0.0160 C   0  0  0  0  0  0  0  0  0  0  0  0
   -1.1126   -3.6669    0.3287 C   0  0  0  0  0  0  0  0  0  0  0  0
    3.7694   -1.2353   -0.3335 C   0  0  0  0  0  0  0  0  0  0  0  0
   -0.4764    4.1223    0.3414 C   0  0  0  0  0  0  0  0  0  0  0  0
    2.0030    3.8318    0.4701 C   0  0  0  0  0  0  0  0  0  0  0  0
   -3.4955    0.2263   -0.5566 C   0  0  0  0  0  0  0  0  0  0  0  0
   -1.0191    4.1625    1.7571 C   0  0  0  0  0  0  0  0  0  0  0  0
   -2.1998   -3.2616    2.3723 C   0  0  0  0  0  0  0  0  0  0  0  0
   -4.5877   -0.5966   -0.7796 C   0  0  0  0  0  0  0  0  0  0  0  0
   -5.8525   -0.0191   -0.7607 C   0  0  0  0  0  0  0  0  0  0  0  0
    6.6177   -0.2033   -1.5007 C   0  0  0  0  0  0  0  0  0  0  0  0
   -2.8314   -2.1747    3.2158 C   0  0  0  0  0  0  0  0  0  0  0  0
   -5.9844    1.3445   -0.5227 C   0  0  0  0  0  0  0  0  0  0  0  0
   -4.8298    2.0807   -0.3111 C   0  0  0  0  0  0  0  0  0  0  0  0
   -7.0625   -0.8578   -0.9948 C   0  0  0  0  0  0  0  0  0  0  0  0
   -1.4033   -2.5955   -1.5784 H   0  0  0  0  0  0  0  0  0  0  0  0
   -0.1389   -3.7811   -1.5727 H   0  0  0  0  0  0  0  0  0  0  0  0
   -1.8462   -4.4410    0.0761 H   0  0  0  0  0  0  0  0  0  0  0  0
   -0.2779   -4.1357    0.8638 H   0  0  0  0  0  0  0  0  0  0  0  0
   -2.2848   -1.3798   -0.5142 H   0  0  0  0  0  0  0  0  0  0  0  0
   -0.2037    5.1417    0.0408 H   0  0  0  0  0  0  0  0  0  0  0  0
   -1.2604    3.8184   -0.3623 H   0  0  0  0  0  0  0  0  0  0  0  0
    2.5223    3.3449    1.3030 H   0  0  0  0  0  0  0  0  0  0  0  0
    2.6090    3.7254   -0.4362 H   0  0  0  0  0  0  0  0  0  0  0  0
    1.9516    4.9005    0.7058 H   0  0  0  0  0  0  0  0  0  0  0  0
    3.8024    0.8845   -0.0892 H   0  0  0  0  0  0  0  0  0  0  0  0
   -1.3445    3.1716    2.0903 H   0  0  0  0  0  0  0  0  0  0  0  0
   -0.2608    4.5196    2.4621 H   0  0  0  0  0  0  0  0  0  0  0  0
   -1.8794    4.8368    1.8143 H   0  0  0  0  0  0  0  0  0  0  0  0
   -1.3696   -3.7189    2.9222 H   0  0  0  0  0  0  0  0  0  0  0  0
   -2.9449   -4.0324    2.1460 H   0  0  0  0  0  0  0  0  0  0  0  0
   -4.4680   -1.6597   -0.9661 H   0  0  0  0  0  0  0  0  0  0  0  0
    6.4924   -1.2807   -1.6046 H   0  0  0  0  0  0  0  0  0  0  0  0
    6.0564    0.3374   -2.2651 H   0  0  0  0  0  0  0  0  0  0  0  0
    7.6786    0.0439   -1.5876 H   0  0  0  0  0  0  0  0  0  0  0  0
   -2.1031   -1.3880    3.4388 H   0  0  0  0  0  0  0  0  0  0  0  0
   -3.6566   -1.6988    2.6754 H   0  0  0  0  0  0  0  0  0  0  0  0
   -3.2127   -2.5808    4.1568 H   0  0  0  0  0  0  0  0  0  0  0  0
   -6.9550    1.8281   -0.5025 H   0  0  0  0  0  0  0  0  0  0  0  0
   -4.8778    3.1480   -0.1215 H   0  0  0  0  0  0  0  0  0  0  0  0
   -7.2685   -0.9296   -2.0673 H   0  0  0  0  0  0  0  0  0  0  0  0
   -6.9241   -1.8680   -0.5944 H   0  0  0  0  0  0  0  0  0  0  0  0
   -7.9417   -0.4340   -0.4976 H   0  0  0  0  0  0  0  0  0  0  0  0
  1  4  2  0  0  0  0
  1  5  2  0  0  0  0
  1 12  1  0  0  0  0
  1 29  1  0  0  0  0
  2 20  1  0  0  0  0
  2 26  1  0  0  0  0
  3 21  2  0  0  0  0
  6  7  1  0  0  0  0
  6 14  1  0  0  0  0
  6 16  1  0  0  0  0
  7 17  2  0  0  0  0
  8 15  1  0  0  0  0
  8 19  2  0  0  0  0
  9 19  1  0  0  0  0
  9 22  1  0  0  0  0
  9 23  1  0  0  0  0
 10 18  2  0  0  0  0
 10 19  1  0  0  0  0
 11 18  1  0  0  0  0
 11 24  1  0  0  0  0
 11 38  1  0  0  0  0
 12 21  1  0  0  0  0
 12 44  1  0  0  0  0
 13 24  2  0  0  0  0
 13 32  1  0  0  0  0
 14 15  2  0  0  0  0
 14 18  1  0  0  0  0
 15 17  1  0  0  0  0
 16 20  1  0  0  0  0
 16 34  1  0  0  0  0
 16 35  1  0  0  0  0
 17 21  1  0  0  0  0
 20 36  1  0  0  0  0
 20 37  1  0  0  0  0
 22 25  1  0  0  0  0
 22 39  1  0  0  0  0
 22 40  1  0  0  0  0
 23 41  1  0  0  0  0
 23 42  1  0  0  0  0
 23 43  1  0  0  0  0
 24 27  1  0  0  0  0
 25 45  1  0  0  0  0
 25 46  1  0  0  0  0
 25 47  1  0  0  0  0
 26 30  1  0  0  0  0
 26 48  1  0  0  0  0
 26 49  1  0  0  0  0
 27 28  2  0  0  0  0
 27 50  1  0  0  0  0
 28 31  1  0  0  0  0
 28 33  1  0  0  0  0
 29 51  1  0  0  0  0
 29 52  1  0  0  0  0
 29 53  1  0  0  0  0
 30 54  1  0  0  0  0
 30 55  1  0  0  0  0
 30 56  1  0  0  0  0
 31 32  2  0  0  0  0
 31 57  1  0  0  0  0
 32 58  1  0  0  0  0
 33 59  1  0  0  0  0
 33 60  1  0  0  0  0
 33 61  1  0  0  0  0
M  END
> <PUBCHEM_COMPOUND_CID>
11465695

> <PUBCHEM_CONFORMER_RMSD>
1.2

> <PUBCHEM_CONFORMER_DIVERSEORDER>
7
29
104
89
74
97
35
41
101
62
26
28
95
48
96
17
79
77
91
23
83
98
87
82
69
72
92
68
93
100
90
33
19
37
84
44
103
65
78
107
86
70
15
88
54
49
42
71
6
59
55
50
14
25
102
105
16
60
47
40
80
10
73
85
67
81
20
76
27
58
39
4
63
66
64
99
94
18
43
13
21
61
24
75
106
57
11
12
31
53
3
52
32
34
51
46
9
56
45
5
30
1
8
36
2
38
22

> <PUBCHEM_MMFF94_PARTIAL_CHARGES>
36
1 1.33
10 -0.62
11 -0.6
12 -0.79
13 -0.62
14 -0.15
15 0.26
16 0.26
17 0.2
18 0.41
19 0.72
2 -0.56
20 0.28
21 0.89
22 0.37
23 0.37
24 0.41
26 0.28
27 -0.15
28 -0.14
29 0.11
3 -0.57
31 -0.15
32 0.16
33 0.14
38 0.4
4 -0.65
44 0.42
5 -0.65
50 0.15
57 0.15
58 0.15
6 0.31
7 -0.71
8 -0.57
9 -0.84

> <PUBCHEM_EFFECTIVE_ROTOR_COUNT>
11

> <PUBCHEM_PHARMACOPHORE_FEATURES>
12
1 11 donor
1 12 donor
1 2 acceptor
1 3 acceptor
1 4 acceptor
1 5 acceptor
1 7 acceptor
3 11 13 24 cation
4 8 9 10 19 cation
5 6 7 14 15 17 rings
6 13 24 27 28 31 32 rings
6 8 10 14 15 18 19 rings

> <PUBCHEM_HEAVY_ATOM_COUNT>
33

> <PUBCHEM_ATOM_DEF_STEREO_COUNT>
0

> <PUBCHEM_ATOM_UDEF_STEREO_COUNT>
0

> <PUBCHEM_BOND_DEF_STEREO_COUNT>
0

> <PUBCHEM_BOND_UDEF_STEREO_COUNT>
0

> <PUBCHEM_ISOTOPIC_ATOM_COUNT>
0

> <PUBCHEM_COMPONENT_COUNT>
1

> <PUBCHEM_CACTVS_TAUTO_COUNT>
8

> <PUBCHEM_CONFORMER_ID>
00AEF3DF00000007

> <PUBCHEM_MMFF94_ENERGY>
74.6465

> <PUBCHEM_FEATURE_SELFOVERLAP>
61.031

> <PUBCHEM_SHAPE_FINGERPRINT>
10675989 125 17396130241104789197
10906281 52 18340220599877162076
10930396 42 18195777805372122032
1100329 8 18340481278865000500
12516196 113 18272084985306373413
12788726 201 18340201869672555512
13140716 1 18268141136461907160
13402501 40 18410572881561127679
14020679 6 18114175384398789539
140371 6 18339935839461752372
14040222 275 18128277622707406462
14787075 74 18336544911299780407
14790565 3 18341614776632741476
14849402 71 18341051912700102205
15131766 46 15865779719692135046
15439362 3 18267015232023753517
15927050 60 17767957998276797100
18681886 176 18129930265703025615
19319366 153 17604137152190843666
20642791 13 18128257791888754285
21049683 271 18409451422846447309
21421861 104 17468479214466421563
23558518 356 17689727358790439999
23559900 14 18341882010104267717
24771293 8 17844505881880409336
283562 15 18268429031792512521
3178227 256 18409455791170448139
335352 9 18340483460924632668
3380486 145 18341062903088863514
3383291 50 18411414051012278371
4258327 124 17241915192961573838
4340502 62 17022903411083802594
460360 51 18120669173482685892
5171179 24 18052817241116448779
5486654 2 18412546483774744868
6004065 56 18342729746016081759
6009941 240 17603586356963091098
6376802 137 17775287153444786849

> <PUBCHEM_SHAPE_MULTIPOLES>
619.65
14.4
4.99
1.56
7.05
2.74
1.53
0.21
-4.14
-1.12
2.51
-1.3
-1.19
1.59

> <PUBCHEM_SHAPE_SELFOVERLAP>
1288.71

> <PUBCHEM_SHAPE_VOLUME>
356.7

> <PUBCHEM_COORDINATE_TYPE>
2
5
10

$$$$
