114611
  -OEChem-03292013323D

 75 78  0     1  0  0  0  0  0999 V2000
   -5.8550    2.4997    1.2980 O   0  0  0  0  0  0  0  0  0  0  0  0
   -6.3202   -2.4309    2.5457 O   0  0  0  0  0  0  0  0  0  0  0  0
    6.0402    0.7521    1.3439 O   0  0  0  0  0  0  0  0  0  0  0  0
    8.2702   -1.9462    0.5077 O   0  0  0  0  0  0  0  0  0  0  0  0
   10.2141   -0.9615    1.1396 O   0  0  0  0  0  0  0  0  0  0  0  0
    7.2484    0.2057   -0.5644 N   0  0  0  0  0  0  0  0  0  0  0  0
   -1.2761    1.0091    0.2610 C   0  0  2  0  0  0  0  0  0  0  0  0
   -0.3277    0.3098   -0.7367 C   0  0  1  0  0  0  0  0  0  0  0  0
   -2.7246    1.0699   -0.2361 C   0  0  1  0  0  0  0  0  0  0  0  0
   -3.2392   -0.3902   -0.4558 C   0  0  1  0  0  0  0  0  0  0  0  0
   -4.7449   -0.4242   -0.9207 C   0  0  2  0  0  0  0  0  0  0  0  0
    1.0052    0.4740    0.0336 C   0  0  2  0  0  0  0  0  0  0  0  0
   -5.6212    0.3766    0.1037 C   0  0  2  0  0  0  0  0  0  0  0  0
   -0.8038   -1.1402   -0.8987 C   0  0  0  0  0  0  0  0  0  0  0  0
   -2.2736   -1.2108   -1.3531 C   0  0  0  0  0  0  0  0  0  0  0  0
   -0.5501    2.3087    0.5953 C   0  0  0  0  0  0  0  0  0  0  0  0
   -3.6220    1.8366    0.7420 C   0  0  0  0  0  0  0  0  0  0  0  0
    0.9406    1.9228    0.5716 C   0  0  0  0  0  0  0  0  0  0  0  0
   -5.0873    1.8098    0.3142 C   0  0  2  0  0  0  0  0  0  0  0  0
   -5.3010   -1.8744   -1.0240 C   0  0  0  0  0  0  0  0  0  0  0  0
   -0.2552    0.9911   -2.1266 C   0  0  0  0  0  0  0  0  0  0  0  0
   -5.7873   -0.3681    1.4499 C   0  0  0  0  0  0  0  0  0  0  0  0
    2.2821    0.1875   -0.7434 C   0  0  1  0  0  0  0  0  0  0  0  0
   -4.9052    0.1946   -2.3337 C   0  0  0  0  0  0  0  0  0  0  0  0
   -5.4250   -2.5876    0.3156 C   0  0  0  0  0  0  0  0  0  0  0  0
   -6.3022   -1.7927    1.2730 C   0  0  1  0  0  0  0  0  0  0  0  0
    3.5539    0.3748    0.1089 C   0  0  0  0  0  0  0  0  0  0  0  0
    2.2488   -1.2410   -1.2986 C   0  0  0  0  0  0  0  0  0  0  0  0
    4.8473    0.1537   -0.6761 C   0  0  0  0  0  0  0  0  0  0  0  0
    6.0863    0.4114    0.1650 C   0  0  0  0  0  0  0  0  0  0  0  0
    8.5707    0.3729   -0.0065 C   0  0  0  0  0  0  0  0  0  0  0  0
    9.1137   -0.8926    0.6056 C   0  0  0  0  0  0  0  0  0  0  0  0
   -1.2908    0.4230    1.1956 H   0  0  0  0  0  0  0  0  0  0  0  0
   -2.7484    1.6146   -1.1853 H   0  0  0  0  0  0  0  0  0  0  0  0
   -3.1920   -0.8771    0.5280 H   0  0  0  0  0  0  0  0  0  0  0  0
    0.9839   -0.1941    0.9086 H   0  0  0  0  0  0  0  0  0  0  0  0
   -6.6372    0.4696   -0.3083 H   0  0  0  0  0  0  0  0  0  0  0  0
   -0.7063   -1.6783    0.0531 H   0  0  0  0  0  0  0  0  0  0  0  0
   -0.2342   -1.7043   -1.6359 H   0  0  0  0  0  0  0  0  0  0  0  0
   -2.5661   -2.2664   -1.3461 H   0  0  0  0  0  0  0  0  0  0  0  0
   -2.3438   -0.8774   -2.3932 H   0  0  0  0  0  0  0  0  0  0  0  0
   -0.7554    3.0866   -0.1486 H   0  0  0  0  0  0  0  0  0  0  0  0
   -0.8426    2.7013    1.5745 H   0  0  0  0  0  0  0  0  0  0  0  0
   -3.2970    2.8825    0.8133 H   0  0  0  0  0  0  0  0  0  0  0  0
   -3.5162    1.4372    1.7585 H   0  0  0  0  0  0  0  0  0  0  0  0
    1.4912    2.6270   -0.0624 H   0  0  0  0  0  0  0  0  0  0  0  0
    1.3713    1.9789    1.5776 H   0  0  0  0  0  0  0  0  0  0  0  0
   -5.1927    2.3823   -0.6142 H   0  0  0  0  0  0  0  0  0  0  0  0
   -4.6951   -2.4819   -1.7048 H   0  0  0  0  0  0  0  0  0  0  0  0
   -6.3015   -1.8412   -1.4785 H   0  0  0  0  0  0  0  0  0  0  0  0
   -1.2337    1.0669   -2.6085 H   0  0  0  0  0  0  0  0  0  0  0  0
    0.3804    0.4314   -2.8192 H   0  0  0  0  0  0  0  0  0  0  0  0
    0.1457    2.0082   -2.0719 H   0  0  0  0  0  0  0  0  0  0  0  0
   -4.8456   -0.3934    2.0108 H   0  0  0  0  0  0  0  0  0  0  0  0
   -6.4878    0.1753    2.0967 H   0  0  0  0  0  0  0  0  0  0  0  0
    2.3669    0.8785   -1.5915 H   0  0  0  0  0  0  0  0  0  0  0  0
   -5.9642    0.2644   -2.6094 H   0  0  0  0  0  0  0  0  0  0  0  0
   -4.4189   -0.4203   -3.0984 H   0  0  0  0  0  0  0  0  0  0  0  0
   -4.4889    1.2016   -2.4111 H   0  0  0  0  0  0  0  0  0  0  0  0
   -5.8596   -3.5839    0.1674 H   0  0  0  0  0  0  0  0  0  0  0  0
   -4.4383   -2.7664    0.7589 H   0  0  0  0  0  0  0  0  0  0  0  0
   -7.3318   -1.7734    0.8961 H   0  0  0  0  0  0  0  0  0  0  0  0
    3.5718    1.3893    0.5251 H   0  0  0  0  0  0  0  0  0  0  0  0
    3.5270   -0.3084    0.9680 H   0  0  0  0  0  0  0  0  0  0  0  0
    1.6094   -1.3066   -2.1797 H   0  0  0  0  0  0  0  0  0  0  0  0
    1.9232   -1.9652   -0.5448 H   0  0  0  0  0  0  0  0  0  0  0  0
    3.2141   -1.5857   -1.6717 H   0  0  0  0  0  0  0  0  0  0  0  0
   -6.7816    2.4916    1.0032 H   0  0  0  0  0  0  0  0  0  0  0  0
   -6.9036   -1.9131    3.1263 H   0  0  0  0  0  0  0  0  0  0  0  0
    4.8776    0.8179   -1.5477 H   0  0  0  0  0  0  0  0  0  0  0  0
    4.9392   -0.8780   -1.0259 H   0  0  0  0  0  0  0  0  0  0  0  0
    7.1792   -0.0952   -1.5324 H   0  0  0  0  0  0  0  0  0  0  0  0
    8.5400    1.1477    0.7652 H   0  0  0  0  0  0  0  0  0  0  0  0
    9.2310    0.6777   -0.8232 H   0  0  0  0  0  0  0  0  0  0  0  0
    8.6461   -2.7568    0.9125 H   0  0  0  0  0  0  0  0  0  0  0  0
  1 19  1  0  0  0  0
  1 68  1  0  0  0  0
  2 26  1  0  0  0  0
  2 69  1  0  0  0  0
  3 30  2  0  0  0  0
  4 32  1  0  0  0  0
  4 75  1  0  0  0  0
  5 32  2  0  0  0  0
  6 30  1  0  0  0  0
  6 31  1  0  0  0  0
  6 72  1  0  0  0  0
  7  8  1  0  0  0  0
  7  9  1  0  0  0  0
  7 16  1  0  0  0  0
  7 33  1  0  0  0  0
  8 12  1  0  0  0  0
  8 14  1  0  0  0  0
  8 21  1  0  0  0  0
  9 10  1  0  0  0  0
  9 17  1  0  0  0  0
  9 34  1  0  0  0  0
 10 11  1  0  0  0  0
 10 15  1  0  0  0  0
 10 35  1  0  0  0  0
 11 13  1  0  0  0  0
 11 20  1  0  0  0  0
 11 24  1  0  0  0  0
 12 18  1  0  0  0  0
 12 23  1  0  0  0  0
 12 36  1  0  0  0  0
 13 19  1  0  0  0  0
 13 22  1  0  0  0  0
 13 37  1  0  0  0  0
 14 15  1  0  0  0  0
 14 38  1  0  0  0  0
 14 39  1  0  0  0  0
 15 40  1  0  0  0  0
 15 41  1  0  0  0  0
 16 18  1  0  0  0  0
 16 42  1  0  0  0  0
 16 43  1  0  0  0  0
 17 19  1  0  0  0  0
 17 44  1  0  0  0  0
 17 45  1  0  0  0  0
 18 46  1  0  0  0  0
 18 47  1  0  0  0  0
 19 48  1  0  0  0  0
 20 25  1  0  0  0  0
 20 49  1  0  0  0  0
 20 50  1  0  0  0  0
 21 51  1  0  0  0  0
 21 52  1  0  0  0  0
 21 53  1  0  0  0  0
 22 26  1  0  0  0  0
 22 54  1  0  0  0  0
 22 55  1  0  0  0  0
 23 27  1  0  0  0  0
 23 28  1  0  0  0  0
 23 56  1  0  0  0  0
 24 57  1  0  0  0  0
 24 58  1  0  0  0  0
 24 59  1  0  0  0  0
 25 26  1  0  0  0  0
 25 60  1  0  0  0  0
 25 61  1  0  0  0  0
 26 62  1  0  0  0  0
 27 29  1  0  0  0  0
 27 63  1  0  0  0  0
 27 64  1  0  0  0  0
 28 65  1  0  0  0  0
 28 66  1  0  0  0  0
 28 67  1  0  0  0  0
 29 30  1  0  0  0  0
 29 70  1  0  0  0  0
 29 71  1  0  0  0  0
 31 32  1  0  0  0  0
 31 73  1  0  0  0  0
 31 74  1  0  0  0  0
M  END
> <PUBCHEM_COMPOUND_CID>
114611

> <PUBCHEM_CONFORMER_RMSD>
1

> <PUBCHEM_CONFORMER_DIVERSEORDER>
1
13
5
3
4
10
11
2
14
6
12
9
8
7

> <PUBCHEM_MMFF94_PARTIAL_CHARGES>
16
1 -0.68
19 0.28
2 -0.68
26 0.28
29 0.06
3 -0.57
30 0.57
31 0.36
32 0.66
4 -0.65
5 -0.57
6 -0.73
68 0.4
69 0.4
72 0.37
75 0.5

> <PUBCHEM_EFFECTIVE_ROTOR_COUNT>
9.2

> <PUBCHEM_PHARMACOPHORE_FEATURES>
14
1 1 acceptor
1 1 donor
1 2 acceptor
1 2 donor
1 28 hydrophobe
1 3 acceptor
1 4 acceptor
1 5 acceptor
1 6 donor
3 4 5 32 anion
5 7 8 12 16 18 rings
6 11 13 20 22 25 26 rings
6 7 8 9 10 14 15 rings
6 9 10 11 13 17 19 rings

> <PUBCHEM_HEAVY_ATOM_COUNT>
32

> <PUBCHEM_ATOM_DEF_STEREO_COUNT>
10

> <PUBCHEM_ATOM_UDEF_STEREO_COUNT>
0

> <PUBCHEM_BOND_DEF_STEREO_COUNT>
0

> <PUBCHEM_BOND_UDEF_STEREO_COUNT>
0

> <PUBCHEM_ISOTOPIC_ATOM_COUNT>
0

> <PUBCHEM_COMPONENT_COUNT>
1

> <PUBCHEM_CACTVS_TAUTO_COUNT>
2

> <PUBCHEM_CONFORMER_ID>
0001BFB300000001

> <PUBCHEM_MMFF94_ENERGY>
102.3223

> <PUBCHEM_FEATURE_SELFOVERLAP>
71.234

> <PUBCHEM_SHAPE_FINGERPRINT>
10 15 18131072631817979872
10299344 5 18408884032534306886
10675989 125 16974783044894202377
11135926 11 18411976932193235422
11315181 36 18408602586984395357
11456790 92 17489867121325309298
11578080 2 11238904901398478033
12089408 11 18408885128067608388
13668630 136 17530962489072943814
13782708 43 17821726169304213280
14251764 18 18343298159679431086
14856354 85 17022619801856420727
15021287 119 18337951298246189733
15461852 350 16298386876912523942
17093844 174 17489587844770609393
1754908 1 18272081704869043162
1754911 235 9367344856594686786
17686467 74 18335137635765587608
1818759 1 18410578371569029726
195137 175 10231756695699664314
19611394 137 18339367486312664730
21792961 116 18261104171807545527
22393880 68 7997687542252358109
23559900 14 17632569448884778617
23576562 1 8862360012868809210
3178227 256 17775289383123006674
3383291 50 18339363066691862986
3711267 37 11599715226007231282
4093350 32 14979966839886752118
4169191 19 7997976786302570188
4616759 239 17703795808095571627
5104073 3 18130234743923362387
58083652 198 17846488270779449600
58260988 114 17604727672272002299
6009941 240 18334577911073636025
6201320 82 10087104962608156155
6441014 3 17539419038523667579
9953998 17 18343587322167976009
999808 66 18335143124005402123

> <PUBCHEM_SHAPE_MULTIPOLES>
624.22
25.56
2.29
1.65
68.04
0
0.06
10.5
-10.95
-3.64
-0.81
-2.33
0.49
0.13

> <PUBCHEM_SHAPE_SELFOVERLAP>
1300.329

> <PUBCHEM_SHAPE_VOLUME>
352.5

> <PUBCHEM_COORDINATE_TYPE>
2
5
10

$$$$
