11464346
  -OEChem-03292013303D

 56 58  0     1  0  0  0  0  0999 V2000
   -3.8034   -1.4416   -1.5081 O   0  0  0  0  0  0  0  0  0  0  0  0
   -0.1207    2.7757   -0.7888 O   0  0  0  0  0  0  0  0  0  0  0  0
    1.7098    0.4184   -0.5798 O   0  0  0  0  0  0  0  0  0  0  0  0
    0.1219   -1.8202    1.8381 O   0  0  0  0  0  0  0  0  0  0  0  0
   -0.0288   -3.5495   -0.3267 O   0  0  0  0  0  0  0  0  0  0  0  0
   -2.2611   -2.1609    0.5649 O   0  0  0  0  0  0  0  0  0  0  0  0
    0.7795    4.3719    0.6063 O   0  0  0  0  0  0  0  0  0  0  0  0
    3.2811   -1.1563    0.0115 O   0  0  0  0  0  0  0  0  0  0  0  0
    2.0386   -1.2450    2.9924 O   0  0  0  0  0  0  0  0  0  0  0  0
   -3.1936   -0.1578   -1.6794 C   0  0  2  0  0  0  0  0  0  0  0  0
   -2.3713   -1.4278   -1.6650 C   0  0  1  0  0  0  0  0  0  0  0  0
   -3.3444    0.7594   -0.4967 C   0  0  1  0  0  0  0  0  0  0  0  0
   -2.3658    1.9413   -0.5866 C   0  0  0  0  0  0  0  0  0  0  0  0
   -0.8743    1.5537   -0.5980 C   0  0  2  0  0  0  0  0  0  0  0  0
   -0.3411    0.9532    0.7060 C   0  0  1  0  0  0  0  0  0  0  0  0
    0.9290    0.0698    0.5585 C   0  0  1  0  0  0  0  0  0  0  0  0
   -0.1233   -2.1279   -0.5696 C   0  0  2  0  0  0  0  0  0  0  0  0
    0.6874   -1.4571    0.5720 C   0  0  2  0  0  0  0  0  0  0  0  0
   -1.6377   -1.9026   -0.4627 C   0  0  0  0  0  0  0  0  0  0  0  0
   -4.7821    1.2901   -0.4375 C   0  0  0  0  0  0  0  0  0  0  0  0
    0.0109    2.2279    1.4127 C   0  0  0  0  0  0  0  0  0  0  0  0
    0.4971   -1.8887   -1.9463 C   0  0  0  0  0  0  0  0  0  0  0  0
    0.2787    3.2796    0.4142 C   0  0  0  0  0  0  0  0  0  0  0  0
    0.0465    2.4639    2.7261 C   0  0  0  0  0  0  0  0  0  0  0  0
    2.8671   -0.2776   -0.7315 C   0  0  0  0  0  0  0  0  0  0  0  0
    0.8277   -1.4072    2.9238 C   0  0  0  0  0  0  0  0  0  0  0  0
    3.5716    0.1946   -1.9560 C   0  0  0  0  0  0  0  0  0  0  0  0
   -0.1167   -1.1697    4.0630 C   0  0  0  0  0  0  0  0  0  0  0  0
    2.9766    1.2802   -2.7996 C   0  0  0  0  0  0  0  0  0  0  0  0
    4.7406   -0.3896   -2.2573 C   0  0  0  0  0  0  0  0  0  0  0  0
   -3.3399    0.3399   -2.6304 H   0  0  0  0  0  0  0  0  0  0  0  0
   -2.0159   -1.7825   -2.6243 H   0  0  0  0  0  0  0  0  0  0  0  0
   -3.1700    0.2190    0.4386 H   0  0  0  0  0  0  0  0  0  0  0  0
   -2.5713    2.5196   -1.4985 H   0  0  0  0  0  0  0  0  0  0  0  0
   -2.5600    2.6389    0.2390 H   0  0  0  0  0  0  0  0  0  0  0  0
   -0.6720    0.9135   -1.4589 H   0  0  0  0  0  0  0  0  0  0  0  0
   -1.1100    0.4159    1.2673 H   0  0  0  0  0  0  0  0  0  0  0  0
    1.5689    0.3346    1.4059 H   0  0  0  0  0  0  0  0  0  0  0  0
    1.6013   -2.0438    0.5852 H   0  0  0  0  0  0  0  0  0  0  0  0
   -5.4978    0.4659   -0.3464 H   0  0  0  0  0  0  0  0  0  0  0  0
   -4.9196    1.9514    0.4245 H   0  0  0  0  0  0  0  0  0  0  0  0
   -5.0378    1.8510   -1.3434 H   0  0  0  0  0  0  0  0  0  0  0  0
    1.5512   -2.1817   -1.9610 H   0  0  0  0  0  0  0  0  0  0  0  0
    0.0300   -2.5393   -2.6958 H   0  0  0  0  0  0  0  0  0  0  0  0
    0.3901   -0.8611   -2.2962 H   0  0  0  0  0  0  0  0  0  0  0  0
   -0.2805   -3.7143    0.5987 H   0  0  0  0  0  0  0  0  0  0  0  0
   -0.1798    1.6815    3.4398 H   0  0  0  0  0  0  0  0  0  0  0  0
    0.2972    3.4421    3.1223 H   0  0  0  0  0  0  0  0  0  0  0  0
   -0.4010   -2.1263    4.5074 H   0  0  0  0  0  0  0  0  0  0  0  0
   -1.0057   -0.6363    3.7161 H   0  0  0  0  0  0  0  0  0  0  0  0
    0.3759   -0.5512    4.8185 H   0  0  0  0  0  0  0  0  0  0  0  0
    3.6093    1.5225   -3.6602 H   0  0  0  0  0  0  0  0  0  0  0  0
    1.9985    0.9762   -3.1864 H   0  0  0  0  0  0  0  0  0  0  0  0
    2.8526    2.1975   -2.2145 H   0  0  0  0  0  0  0  0  0  0  0  0
    5.3020   -0.0896   -3.1366 H   0  0  0  0  0  0  0  0  0  0  0  0
    5.1756   -1.1763   -1.6501 H   0  0  0  0  0  0  0  0  0  0  0  0
  1 10  1  0  0  0  0
  1 11  1  0  0  0  0
  2 14  1  0  0  0  0
  2 23  1  0  0  0  0
  3 16  1  0  0  0  0
  3 25  1  0  0  0  0
  4 18  1  0  0  0  0
  4 26  1  0  0  0  0
  5 17  1  0  0  0  0
  5 46  1  0  0  0  0
  6 19  2  0  0  0  0
  7 23  2  0  0  0  0
  8 25  2  0  0  0  0
  9 26  2  0  0  0  0
 10 11  1  0  0  0  0
 10 12  1  0  0  0  0
 10 31  1  0  0  0  0
 11 19  1  0  0  0  0
 11 32  1  0  0  0  0
 12 13  1  0  0  0  0
 12 20  1  0  0  0  0
 12 33  1  0  0  0  0
 13 14  1  0  0  0  0
 13 34  1  0  0  0  0
 13 35  1  0  0  0  0
 14 15  1  0  0  0  0
 14 36  1  0  0  0  0
 15 16  1  0  0  0  0
 15 21  1  0  0  0  0
 15 37  1  0  0  0  0
 16 18  1  0  0  0  0
 16 38  1  0  0  0  0
 17 18  1  0  0  0  0
 17 19  1  0  0  0  0
 17 22  1  0  0  0  0
 18 39  1  0  0  0  0
 20 40  1  0  0  0  0
 20 41  1  0  0  0  0
 20 42  1  0  0  0  0
 21 23  1  0  0  0  0
 21 24  2  0  0  0  0
 22 43  1  0  0  0  0
 22 44  1  0  0  0  0
 22 45  1  0  0  0  0
 24 47  1  0  0  0  0
 24 48  1  0  0  0  0
 25 27  1  0  0  0  0
 26 28  1  0  0  0  0
 27 29  1  0  0  0  0
 27 30  2  0  0  0  0
 28 49  1  0  0  0  0
 28 50  1  0  0  0  0
 28 51  1  0  0  0  0
 29 52  1  0  0  0  0
 29 53  1  0  0  0  0
 29 54  1  0  0  0  0
 30 55  1  0  0  0  0
 30 56  1  0  0  0  0
M  END
> <PUBCHEM_COMPOUND_CID>
11464346

> <PUBCHEM_CONFORMER_RMSD>
0.8

> <PUBCHEM_CONFORMER_DIVERSEORDER>
1
3
2

> <PUBCHEM_MMFF94_PARTIAL_CHARGES>
34
1 -0.3
10 -0.05
11 0.05
12 0.09
14 0.28
15 0.14
16 0.28
17 0.34
18 0.28
19 0.51
2 -0.43
21 -0.12
23 0.71
24 -0.3
25 0.71
26 0.66
27 -0.12
28 0.06
29 0.14
3 -0.43
30 -0.3
31 0.1
32 0.1
4 -0.43
46 0.4
47 0.15
48 0.15
5 -0.68
55 0.15
56 0.15
6 -0.57
7 -0.57
8 -0.57
9 -0.57

> <PUBCHEM_EFFECTIVE_ROTOR_COUNT>
6.4

> <PUBCHEM_PHARMACOPHORE_FEATURES>
8
1 1 acceptor
1 5 acceptor
1 5 donor
1 6 acceptor
1 7 acceptor
1 8 acceptor
1 9 acceptor
5 2 14 15 21 23 rings

> <PUBCHEM_HEAVY_ATOM_COUNT>
30

> <PUBCHEM_ATOM_DEF_STEREO_COUNT>
8

> <PUBCHEM_ATOM_UDEF_STEREO_COUNT>
0

> <PUBCHEM_BOND_DEF_STEREO_COUNT>
0

> <PUBCHEM_BOND_UDEF_STEREO_COUNT>
0

> <PUBCHEM_ISOTOPIC_ATOM_COUNT>
0

> <PUBCHEM_COMPONENT_COUNT>
1

> <PUBCHEM_CACTVS_TAUTO_COUNT>
2

> <PUBCHEM_CONFORMER_ID>
00AEEE9A00000001

> <PUBCHEM_MMFF94_ENERGY>
90.4387

> <PUBCHEM_FEATURE_SELFOVERLAP>
40.612

> <PUBCHEM_SHAPE_FINGERPRINT>
10863032 1 17385730222156700959
11578080 2 17274539969930162840
11725454 13 14634876340057760860
12035759 4 18194412091086036670
12553582 1 18197477568565267429
12788726 201 18198354965653330316
13009979 54 17900798488524502323
13134695 92 15123504852302087003
13140716 1 18054757772572262881
13149001 5 18268433614464484996
14251757 17 18197504145311127140
14787075 74 17822876271737085651
14955137 171 18058191512793733097
1601671 61 18128253394617540797
16945 1 18193558002210261614
17492 54 18335710416197055805
17876694 64 17392172063378713064
19765921 60 17822016380154726628
20600515 1 18129077039931269104
20775438 99 17195133352143031007
20905425 154 17403985594333160323
22149856 69 16759428286378341793
22907989 373 17978833161505357292
23419403 2 17613473298268146832
23559900 14 18201721752410299564
3027735 51 17558295149316495110
35225 105 16955117466964437538
394222 165 17678182594088701201
513532 50 16628240279715276133

> <PUBCHEM_SHAPE_MULTIPOLES>
564.56
5.73
3.86
3.34
0.33
2.36
3.54
-0.45
-5.67
-0.81
0.55
1.69
-0.75
-0.66

> <PUBCHEM_SHAPE_SELFOVERLAP>
1189.899

> <PUBCHEM_SHAPE_VOLUME>
313.4

> <PUBCHEM_COORDINATE_TYPE>
2
5
10

$$$$
