REMARK  Name = 11464346
REMARK  6 active torsions:
REMARK  status: ('A' for Active; 'I' for Inactive)
REMARK    1  A    between atoms: C_11  and  O_22
REMARK    2  A    between atoms: C_12  and  O_20
REMARK    3  A    between atoms: C_13  and  O_28
REMARK    4  A    between atoms: O_22  and  C_24
REMARK    5  A    between atoms: C_24  and  C_25
REMARK    6  A    between atoms: O_28  and  C_30
REMARK                            x       y       z     vdW  Elec       q    Type
REMARK                         _______ _______ _______ _____ _____    ______ ____
ROOT
ATOM      1  O   UNL     1      -3.803  -1.442  -1.508  0.00  0.00    -0.346 OA
ATOM      2  O   UNL     1      -0.121   2.776  -0.789  0.00  0.00    -0.449 OA
ATOM      3  O   UNL     1      -2.261  -2.161   0.565  0.00  0.00    -0.291 OA
ATOM      4  O   UNL     1       0.779   4.372   0.606  0.00  0.00    -0.245 OA
ATOM      5  C   UNL     1      -3.194  -0.158  -1.679  0.00  0.00    +0.150 C 
ATOM      6  C   UNL     1      -2.371  -1.428  -1.665  0.00  0.00    +0.201 C 
ATOM      7  C   UNL     1      -3.344   0.759  -0.497  0.00  0.00    +0.034 C 
ATOM      8  C   UNL     1      -2.366   1.941  -0.587  0.00  0.00    +0.047 C 
ATOM      9  C   UNL     1      -0.874   1.554  -0.598  0.00  0.00    +0.177 C 
ATOM     10  C   UNL     1      -0.341   0.953   0.706  0.00  0.00    +0.113 C 
ATOM     11  C   UNL     1       0.929   0.070   0.558  0.00  0.00    +0.219 C 
ATOM     12  C   UNL     1      -0.123  -2.128  -0.570  0.00  0.00    +0.182 C 
ATOM     13  C   UNL     1       0.687  -1.457   0.572  0.00  0.00    +0.240 C 
ATOM     14  C   UNL     1      -1.638  -1.903  -0.463  0.00  0.00    +0.207 C 
ATOM     15  C   UNL     1      -4.782   1.290  -0.438  0.00  0.00    +0.003 C 
ATOM     16  C   UNL     1       0.011   2.228   1.413  0.00  0.00    +0.060 C 
ATOM     17  C   UNL     1       0.497  -1.889  -1.946  0.00  0.00    +0.041 C 
ATOM     18  C   UNL     1       0.279   3.280   0.414  0.00  0.00    +0.337 C 
ATOM     19  C   UNL     1       0.046   2.464   2.726  0.00  0.00    +0.002 C 
ENDROOT
BRANCH  12  20
ATOM     20  O   UNL     1      -0.029  -3.550  -0.327  0.00  0.00    -0.376 OA
ATOM     21  H   UNL     1      -0.411  -3.755   0.541  0.00  0.00    +0.211 HD
ENDBRANCH  12  20
BRANCH  11  22
ATOM     22  O   UNL     1       1.710   0.418  -0.580  0.00  0.00    -0.445 OA
BRANCH  22  24
ATOM     23  O   UNL     1       3.281  -1.156   0.011  0.00  0.00    -0.245 OA
ATOM     24  C   UNL     1       2.867  -0.278  -0.732  0.00  0.00    +0.337 C 
BRANCH  24  25
ATOM     25  C   UNL     1       3.572   0.195  -1.956  0.00  0.00    +0.054 C 
ATOM     26  C   UNL     1       2.977   1.280  -2.800  0.00  0.00    +0.038 C 
ATOM     27  C   UNL     1       4.741  -0.390  -2.257  0.00  0.00    +0.002 C 
ENDBRANCH  24  25
ENDBRANCH  22  24
ENDBRANCH  11  22
BRANCH  13  28
ATOM     28  O   UNL     1       0.122  -1.820   1.838  0.00  0.00    -0.446 OA
BRANCH  28  30
ATOM     29  O   UNL     1       2.039  -1.245   2.992  0.00  0.00    -0.250 OA
ATOM     30  C   UNL     1       0.828  -1.407   2.924  0.00  0.00    +0.318 C 
ATOM     31  C   UNL     1      -0.117  -1.170   4.063  0.00  0.00    +0.121 C 
ENDBRANCH  28  30
ENDBRANCH  13  28
TORSDOF 6
