REMARK  Name = 11465695
REMARK  7 active torsions:
REMARK  status: ('A' for Active; 'I' for Inactive)
REMARK    1  A    between atoms: N_1  and  C_31
REMARK    2  A    between atoms: N_4  and  C_29
REMARK    3  A    between atoms: C_10  and  C_23
REMARK    4  A    between atoms: N_22  and  S_25
REMARK    5  A    between atoms: C_31  and  C_32
REMARK    6  A    between atoms: C_32  and  O_33
REMARK    7  A    between atoms: O_33  and  C_34
REMARK                            x       y       z     vdW  Elec       q    Type
REMARK                         _______ _______ _______ _____ _____    ______ ____
ROOT
ATOM      1  N   UNL     1       0.394  -2.005  -0.700  0.00  0.00    -0.217 N 
ATOM      2  N   UNL     1       1.688  -2.376  -0.680  0.00  0.00    -0.174 NA
ATOM      3  N   UNL     1       1.685   1.169  -0.036  0.00  0.00    -0.329 NA
ATOM      4  N   UNL     1       0.686   3.262   0.278  0.00  0.00    -0.232 N 
ATOM      5  N   UNL     1      -0.735   1.450  -0.148  0.00  0.00    -0.315 NA
ATOM      6  N   UNL     1      -2.218  -0.375  -0.579  0.00  0.00    -0.274 N 
ATOM      7  N   UNL     1      -3.584   1.555  -0.322  0.00  0.00    -0.229 NA
ATOM      8  C   UNL     1       0.198  -0.674  -0.472  0.00  0.00    +0.213 C 
ATOM      9  C   UNL     1       1.464  -0.142  -0.290  0.00  0.00    +0.174 C 
ATOM     10  C   UNL     1       2.337  -1.235  -0.429  0.00  0.00    +0.181 C 
ATOM     11  C   UNL     1      -0.921   0.134  -0.400  0.00  0.00    +0.202 C 
ATOM     12  C   UNL     1       0.538   1.881   0.016  0.00  0.00    +0.204 C 
ATOM     13  C   UNL     1       2.003   3.832   0.470  0.00  0.00    +0.125 C 
ATOM     14  C   UNL     1      -3.495   0.226  -0.557  0.00  0.00    +0.133 C 
ATOM     15  C   UNL     1      -4.588  -0.597  -0.780  0.00  0.00    +0.030 C 
ATOM     16  C   UNL     1      -5.853  -0.019  -0.761  0.00  0.00    -0.018 C 
ATOM     17  C   UNL     1      -5.984   1.345  -0.523  0.00  0.00    +0.017 C 
ATOM     18  C   UNL     1      -4.830   2.081  -0.311  0.00  0.00    +0.100 C 
ATOM     19  C   UNL     1      -7.063  -0.858  -0.995  0.00  0.00    +0.031 C 
ATOM     20  H   UNL     1      -2.241  -1.343  -0.755  0.00  0.00    +0.156 HD
ENDROOT
BRANCH  10  23
ATOM     21  O   UNL     1       4.466  -2.251  -0.497  0.00  0.00    -0.267 OA
ATOM     22  N   UNL     1       4.392   0.043  -0.060  0.00  0.00    -0.184 N 
ATOM     23  C   UNL     1       3.769  -1.235  -0.334  0.00  0.00    +0.286 C 
ATOM     24  H   UNL     1       3.795   0.819   0.041  0.00  0.00    +0.177 HD
BRANCH  22  25
ATOM     25  S   UNL     1       6.072   0.327   0.105  0.00  0.00    +0.058 S 
ATOM     26  O   UNL     1       6.637  -0.574   1.089  0.00  0.00    -0.154 OA
ATOM     27  O   UNL     1       6.294   1.758   0.189  0.00  0.00    -0.154 OA
ATOM     28  C   UNL     1       6.618  -0.203  -1.501  0.00  0.00    +0.200 C 
ENDBRANCH  22  25
ENDBRANCH  10  23
BRANCH   4  29
ATOM     29  C   UNL     1      -0.476   4.122   0.341  0.00  0.00    +0.103 C 
ATOM     30  C   UNL     1      -1.019   4.162   1.757  0.00  0.00    +0.024 C 
ENDBRANCH   4  29
BRANCH   1  31
ATOM     31  C   UNL     1      -0.613  -3.010  -0.951  0.00  0.00    +0.144 C 
BRANCH  31  32
ATOM     32  C   UNL     1      -1.113  -3.667   0.329  0.00  0.00    +0.165 C 
BRANCH  32  33
ATOM     33  O   UNL     1      -1.719  -2.689   1.164  0.00  0.00    -0.352 OA
BRANCH  33  34
ATOM     34  C   UNL     1      -2.200  -3.262   2.372  0.00  0.00    +0.142 C 
ATOM     35  C   UNL     1      -2.831  -2.175   3.216  0.00  0.00    +0.035 C 
ENDBRANCH  33  34
ENDBRANCH  32  33
ENDBRANCH  31  32
ENDBRANCH   1  31
TORSDOF 7
