REMARK  Name = 114682
REMARK  5 active torsions:
REMARK  status: ('A' for Active; 'I' for Inactive)
REMARK    1  A    between atoms: C2*_2  and  O2*_16
REMARK    2  A    between atoms: C3*_3  and  O3*_18
REMARK    3  A    between atoms: C1*_4  and  N1_7
REMARK    4  A    between atoms: C4*_5  and  C5*_20
REMARK    5  A    between atoms: C5*_20  and  O5*_21
REMARK                            x       y       z     vdW  Elec       q    Type
REMARK                         _______ _______ _______ _____ _____    ______ ____
ROOT
ATOM      1  O4* C   A   1      -1.297  -0.736  -0.731  0.00  0.00    -0.332 OA
ATOM      2  C2* C   A   1      -1.134   1.302   0.487  0.00  0.00    +0.188 C 
ATOM      3  C3* C   A   1      -2.582   0.869   0.417  0.00  0.00    +0.171 C 
ATOM      4  C1* C   A   1      -0.496   0.449  -0.598  0.00  0.00    +0.236 C 
ATOM      5  C4* C   A   1      -2.435  -0.616   0.138  0.00  0.00    +0.175 C 
ENDROOT
BRANCH   4   7
ATOM      6  O2  C   A   1       1.825   1.829  -1.397  0.00  0.00    -0.193 OA
ATOM      7  N1  C   A   1       0.848   0.070  -0.269  0.00  0.00    -0.178 N 
ATOM      8  N3  C   A   1       3.238   0.392  -0.353  0.00  0.00    -0.306 NA
ATOM      9  N4  C   A   1       4.679  -1.086   0.718  0.00  0.00    -0.332 N 
ATOM     10  C6  C   A   1       1.049  -1.065   0.502  0.00  0.00    +0.083 C 
ATOM     11  C2  C   A   1       1.969   0.817  -0.709  0.00  0.00    +0.276 C 
ATOM     12  C5  C   A   1       2.261  -1.491   0.854  0.00  0.00    +0.065 C 
ATOM     13  C4  C   A   1       3.410  -0.680   0.375  0.00  0.00    +0.193 C 
ATOM     14  H41 C   A   1       5.460  -0.568   0.415  0.00  0.00    +0.145 HD
ATOM     15  H42 C   A   1       4.807  -1.893   1.266  0.00  0.00    +0.145 HD
ENDBRANCH   4   7
BRANCH   2  16
ATOM     16  O2* C   A   1      -1.007   2.684   0.207  0.00  0.00    -0.378 OA
ATOM     17  H2* C   A   1      -1.423   3.198   0.917  0.00  0.00    +0.211 HD
ENDBRANCH   2  16
BRANCH   3  18
ATOM     18  O3* C   A   1      -3.263   1.095   1.636  0.00  0.00    -0.379 OA
ATOM     19  H3* C   A   1      -3.343   2.049   1.790  0.00  0.00    +0.211 HD
ENDBRANCH   3  18
BRANCH   5  20
ATOM     20  C5* C   A   1      -3.655  -1.227  -0.526  0.00  0.00    +0.169 C 
BRANCH  20  21
ATOM     21  O5* C   A   1      -3.411  -2.606  -0.752  0.00  0.00    -0.379 OA
ATOM     22  H5* C   A   1      -4.186  -3.006  -1.176  0.00  0.00    +0.211 HD
ENDBRANCH  20  21
ENDBRANCH   5  20
TORSDOF 5
