REMARK  Name = 11464906
REMARK  8 active torsions:
REMARK  status: ('A' for Active; 'I' for Inactive)
REMARK    1  A    between atoms: N_1  and  C_12
REMARK    2  A    between atoms: C_4  and  C_27
REMARK    3  A    between atoms: C_6  and  C_38
REMARK    4  A    between atoms: C_9  and  C_15
REMARK    5  A    between atoms: C_15  and  C_16
REMARK    6  A    between atoms: C_16  and  N_18
REMARK    7  A    between atoms: C_24  and  C_30
REMARK    8  A    between atoms: C_30  and  N_33
REMARK                            x       y       z     vdW  Elec       q    Type
REMARK                         _______ _______ _______ _____ _____    ______ ____
ROOT
ATOM      1  N   UNL     1      -0.432  -3.618   0.071  0.00  0.00    -0.247 N 
ATOM      2  N   UNL     1      -1.870  -1.766   0.007  0.00  0.00    -0.337 NA
ATOM      3  N   UNL     1      -2.734  -4.008  -0.173  0.00  0.00    -0.169 NA
ATOM      4  C   UNL     1      -3.136  -1.310  -0.099  0.00  0.00    +0.155 C 
ATOM      5  C   UNL     1      -1.740  -3.107  -0.037  0.00  0.00    +0.149 C 
ATOM      6  C   UNL     1      -4.237  -2.129  -0.243  0.00  0.00    +0.119 C 
ATOM      7  C   UNL     1      -3.973  -3.483  -0.274  0.00  0.00    +0.125 C 
ATOM      8  H   UNL     1      -0.388  -4.601   0.033  0.00  0.00    +0.165 HD
ENDROOT
BRANCH   1  12
ATOM      9  C   UNL     1       3.300  -1.782   0.519  0.00  0.00    -0.024 C 
ATOM     10  C   UNL     1       2.172  -1.167   1.041  0.00  0.00    -0.003 C 
ATOM     11  C   UNL     1       3.213  -2.994  -0.148  0.00  0.00    -0.003 C 
ATOM     12  C   UNL     1       0.826  -2.999   0.223  0.00  0.00    +0.058 C 
ATOM     13  C   UNL     1       0.927  -1.779   0.892  0.00  0.00    +0.015 C 
ATOM     14  C   UNL     1       1.969  -3.607  -0.297  0.00  0.00    +0.015 C 
BRANCH   9  15
ATOM     15  C   UNL     1       4.645  -1.119   0.680  0.00  0.00    +0.004 C 
BRANCH  15  16
ATOM     16  C   UNL     1       4.953  -0.183  -0.489  0.00  0.00    -0.072 C 
BRANCH  16  18
ATOM     17  O   UNL     1       7.986   2.695  -0.129  0.00  0.00    -0.358 OA
ATOM     18  N   UNL     1       6.268   0.435  -0.331  0.00  0.00    +0.391 N 
ATOM     19  C   UNL     1       6.604   1.253  -1.505  0.00  0.00    -0.045 C 
ATOM     20  C   UNL     1       6.316   1.258   0.886  0.00  0.00    -0.045 C 
ATOM     21  C   UNL     1       7.974   1.896  -1.312  0.00  0.00    +0.119 C 
ATOM     22  C   UNL     1       7.692   1.902   1.022  0.00  0.00    +0.119 C 
ATOM     23  H   UNL     1       6.957  -0.312  -0.246  0.00  0.00    -0.079 HD
ENDBRANCH  16  18
ENDBRANCH  15  16
ENDBRANCH   9  15
ENDBRANCH   1  12
BRANCH   4  27
ATOM     24  C   UNL     1      -3.448   2.913   0.048  0.00  0.00    -0.041 C 
ATOM     25  C   UNL     1      -3.515   2.167   1.224  0.00  0.00    -0.006 C 
ATOM     26  C   UNL     1      -3.278   2.268  -1.178  0.00  0.00    -0.006 C 
ATOM     27  C   UNL     1      -3.242   0.133  -0.049  0.00  0.00    +0.031 C 
ATOM     28  C   UNL     1      -3.412   0.777   1.176  0.00  0.00    +0.002 C 
ATOM     29  C   UNL     1      -3.175   0.878  -1.226  0.00  0.00    +0.002 C 
BRANCH  24  30
ATOM     30  C   UNL     1      -3.558   4.399   0.099  0.00  0.00    -0.029 C 
ATOM     31  C   UNL     1      -3.439   5.138  -1.270  0.00  0.00    -0.018 C 
ATOM     32  C   UNL     1      -4.920   4.834   0.714  0.00  0.00    -0.018 C 
BRANCH  30  33
ATOM     33  N   UNL     1      -2.496   4.999   0.955  0.00  0.00    +0.385 N 
ATOM     34  H   UNL     1      -1.579   4.740   0.590  0.00  0.00    -0.089 HD
ATOM     35  H   UNL     1      -2.592   4.651   1.909  0.00  0.00    -0.089 HD
ATOM     36  H   UNL     1      -2.590   6.014   0.952  0.00  0.00    -0.089 HD
ENDBRANCH  30  33
ENDBRANCH  24  30
ENDBRANCH   4  27
BRANCH   6  38
ATOM     37  N   UNL     1      -6.665  -1.250  -0.444  0.00  0.00    -0.191 NA
ATOM     38  C   UNL     1      -5.575  -1.645  -0.353  0.00  0.00    +0.105 C 
ENDBRANCH   6  38
TORSDOF 8
