REMARK  Name = 11464176
REMARK  7 active torsions:
REMARK  status: ('A' for Active; 'I' for Inactive)
REMARK    1  A    between atoms: C_5  and  C_16
REMARK    2  A    between atoms: C_6  and  C_30
REMARK    3  A    between atoms: C_10  and  O_28
REMARK    4  A    between atoms: C_19  and  O_22
REMARK    5  A    between atoms: C_20  and  O_24
REMARK    6  A    between atoms: C_21  and  O_26
REMARK    7  A    between atoms: C_30  and  O_31
REMARK                            x       y       z     vdW  Elec       q    Type
REMARK                         _______ _______ _______ _____ _____    ______ ____
ROOT
ATOM      1  O   UNL     1       0.040   0.999   0.159  0.00  0.00    -0.465 OA
ATOM      2  O   UNL     1      -1.471  -1.447   0.222  0.00  0.00    -0.466 OA
ATOM      3  O   UNL     1      -4.182  -1.359   0.177  0.00  0.00    -0.418 OA
ATOM      4  O   UNL     1      -6.207  -2.430   0.207  0.00  0.00    -0.244 OA
ATOM      5  C   UNL     1       0.607  -0.248   0.597  0.00  0.00    +0.231 C 
ATOM      6  C   UNL     1      -0.076  -1.418  -0.129  0.00  0.00    +0.239 C 
ATOM      7  C   UNL     1      -2.060  -0.216   0.143  0.00  0.00    +0.210 C 
ATOM      8  C   UNL     1      -1.327   0.968   0.102  0.00  0.00    +0.209 C 
ATOM      9  C   UNL     1      -3.453  -0.152   0.116  0.00  0.00    +0.186 C 
ATOM     10  C   UNL     1      -1.983   2.196  -0.008  0.00  0.00    +0.176 C 
ATOM     11  C   UNL     1      -4.124   1.066   0.020  0.00  0.00    +0.041 C 
ATOM     12  C   UNL     1      -3.379   2.246  -0.047  0.00  0.00    +0.043 C 
ATOM     13  C   UNL     1      -5.577   1.069  -0.010  0.00  0.00    +0.010 C 
ATOM     14  C   UNL     1      -6.255  -0.079   0.052  0.00  0.00    +0.082 C 
ATOM     15  C   UNL     1      -5.572  -1.382   0.151  0.00  0.00    +0.346 C 
ENDROOT
BRANCH   5  16
ATOM     16  C   UNL     1       2.098  -0.163   0.348  0.00  0.00    +0.027 C 
ATOM     17  C   UNL     1       2.986  -0.187   1.423  0.00  0.00    +0.040 C 
ATOM     18  C   UNL     1       2.582  -0.060  -0.956  0.00  0.00    +0.040 C 
ATOM     19  C   UNL     1       3.955   0.019  -1.185  0.00  0.00    +0.175 C 
ATOM     20  C   UNL     1       4.360  -0.108   1.194  0.00  0.00    +0.175 C 
ATOM     21  C   UNL     1       4.844  -0.005  -0.110  0.00  0.00    +0.202 C 
BRANCH  19  22
ATOM     22  O   UNL     1       4.415   0.117  -2.463  0.00  0.00    -0.468 OA
ATOM     23  C   UNL     1       4.692  -1.103  -3.148  0.00  0.00    +0.253 C 
ENDBRANCH  19  22
BRANCH  20  24
ATOM     24  O   UNL     1       5.218  -0.135   2.251  0.00  0.00    -0.468 OA
ATOM     25  C   UNL     1       5.568   1.119   2.834  0.00  0.00    +0.253 C 
ENDBRANCH  20  24
BRANCH  21  26
ATOM     26  O   UNL     1       6.187   0.069  -0.335  0.00  0.00    -0.501 OA
ATOM     27  H   UNL     1       6.513   0.139  -1.211  0.00  0.00    +0.292 HD
ENDBRANCH  21  26
ENDBRANCH   5  16
BRANCH  10  28
ATOM     28  O   UNL     1      -1.276   3.360  -0.065  0.00  0.00    -0.468 OA
ATOM     29  C   UNL     1      -0.896   3.824  -1.359  0.00  0.00    +0.253 C 
ENDBRANCH  10  28
BRANCH   6  30
ATOM     30  C   UNL     1       0.493  -2.778   0.265  0.00  0.00    +0.185 C 
BRANCH  30  31
ATOM     31  O   UNL     1      -0.208  -3.782  -0.446  0.00  0.00    -0.378 OA
ATOM     32  H   UNL     1       0.144  -4.654  -0.206  0.00  0.00    +0.211 HD
ENDBRANCH  30  31
ENDBRANCH   6  30
TORSDOF 7
