REMARK  Name = 114611
REMARK  9 active torsions:
REMARK  status: ('A' for Active; 'I' for Inactive)
REMARK    1  A    between atoms: C_6  and  C_24
REMARK    2  A    between atoms: C_13  and  O_20
REMARK    3  A    between atoms: C_19  and  O_22
REMARK    4  A    between atoms: C_24  and  C_26
REMARK    5  A    between atoms: C_26  and  C_27
REMARK    6  A    between atoms: C_27  and  C_30
REMARK    7  A    between atoms: N_29  and  C_32
REMARK    8  A    between atoms: C_32  and  C_34
REMARK    9  A    between atoms: C_34  and  O_35
REMARK                            x       y       z     vdW  Elec       q    Type
REMARK                         _______ _______ _______ _____ _____    ______ ____
ROOT
ATOM      1  C   UNL     1      -1.276   1.009   0.261  0.00  0.00    +0.000 C 
ATOM      2  C   UNL     1      -0.328   0.310  -0.737  0.00  0.00    +0.000 C 
ATOM      3  C   UNL     1      -2.725   1.070  -0.236  0.00  0.00    +0.002 C 
ATOM      4  C   UNL     1      -3.239  -0.390  -0.456  0.00  0.00    +0.000 C 
ATOM      5  C   UNL     1      -4.745  -0.424  -0.921  0.00  0.00    +0.002 C 
ATOM      6  C   UNL     1       1.005   0.474   0.034  0.00  0.00    +0.000 C 
ATOM      7  C   UNL     1      -5.621   0.377   0.104  0.00  0.00    +0.029 C 
ATOM      8  C   UNL     1      -0.804  -1.140  -0.899  0.00  0.00    +0.000 C 
ATOM      9  C   UNL     1      -2.274  -1.211  -1.353  0.00  0.00    +0.000 C 
ATOM     10  C   UNL     1      -0.550   2.309   0.595  0.00  0.00    +0.000 C 
ATOM     11  C   UNL     1      -3.622   1.837   0.742  0.00  0.00    +0.029 C 
ATOM     12  C   UNL     1       0.941   1.923   0.572  0.00  0.00    +0.000 C 
ATOM     13  C   UNL     1      -5.087   1.810   0.314  0.00  0.00    +0.111 C 
ATOM     14  C   UNL     1      -5.301  -1.874  -1.024  0.00  0.00    +0.003 C 
ATOM     15  C   UNL     1      -0.255   0.991  -2.127  0.00  0.00    +0.000 C 
ATOM     16  C   UNL     1      -5.787  -0.368   1.450  0.00  0.00    +0.032 C 
ATOM     17  C   UNL     1      -4.905   0.195  -2.334  0.00  0.00    +0.000 C 
ATOM     18  C   UNL     1      -5.425  -2.588   0.316  0.00  0.00    +0.029 C 
ATOM     19  C   UNL     1      -6.302  -1.793   1.273  0.00  0.00    +0.111 C 
ENDROOT
BRANCH  13  20
ATOM     20  O   UNL     1      -5.855   2.500   1.298  0.00  0.00    -0.384 OA
ATOM     21  H   UNL     1      -6.791   2.492   1.042  0.00  0.00    +0.210 HD
ENDBRANCH  13  20
BRANCH  19  22
ATOM     22  O   UNL     1      -6.320  -2.431   2.546  0.00  0.00    -0.384 OA
ATOM     23  H   UNL     1      -6.879  -1.923   3.154  0.00  0.00    +0.210 HD
ENDBRANCH  19  22
BRANCH   6  24
ATOM     24  C   UNL     1       2.282   0.188  -0.743  0.00  0.00    +0.000 C 
ATOM     25  C   UNL     1       2.249  -1.241  -1.299  0.00  0.00    +0.000 C 
BRANCH  24  26
ATOM     26  C   UNL     1       3.554   0.375   0.109  0.00  0.00    +0.010 C 
BRANCH  26  27
ATOM     27  C   UNL     1       4.847   0.154  -0.676  0.00  0.00    +0.085 C 
BRANCH  27  30
ATOM     28  O   UNL     1       6.040   0.752   1.344  0.00  0.00    -0.275 OA
ATOM     29  N   UNL     1       7.248   0.206  -0.564  0.00  0.00    -0.295 N 
ATOM     30  C   UNL     1       6.086   0.411   0.165  0.00  0.00    +0.223 C 
ATOM     31  H   UNL     1       7.168  -0.067  -1.507  0.00  0.00    +0.150 HD
BRANCH  29  32
ATOM     32  C   UNL     1       8.571   0.373  -0.006  0.00  0.00    +0.200 C 
BRANCH  32  34
ATOM     33  O   UNL     1      10.214  -0.962   1.140  0.00  0.00    -0.248 OA
ATOM     34  C   UNL     1       9.114  -0.893   0.606  0.00  0.00    +0.334 C 
BRANCH  34  35
ATOM     35  O   UNL     1       8.270  -1.946   0.508  0.00  0.00    -0.479 OA
ATOM     36  H   UNL     1       7.438  -1.843   0.089  0.00  0.00    +0.295 HD
ENDBRANCH  34  35
ENDBRANCH  32  34
ENDBRANCH  29  32
ENDBRANCH  27  30
ENDBRANCH  26  27
ENDBRANCH  24  26
ENDBRANCH   6  24
TORSDOF 9
