11471869
  -OEChem-03292013303D

 37 38  0     1  0  0  0  0  0999 V2000
   -1.9508   -1.6850    1.2201 O   0  0  0  0  0  0  0  0  0  0  0  0
    0.3898   -2.5050    0.5319 O   0  0  0  0  0  0  0  0  0  0  0  0
   -3.6429   -2.6596    0.0191 O   0  0  0  0  0  0  0  0  0  0  0  0
   -4.2957    2.6365   -0.2247 O   0  0  0  0  0  0  0  0  0  0  0  0
    2.3490   -2.0229   -1.1710 O   0  0  0  0  0  0  0  0  0  0  0  0
   -2.6726    2.3123   -1.7871 O   0  0  0  0  0  0  0  0  0  0  0  0
   -1.5796    0.2107   -0.1192 C   0  0  1  0  0  0  0  0  0  0  0  0
   -1.0043   -0.6389    0.9996 C   0  0  2  0  0  0  0  0  0  0  0  0
   -2.4073   -0.7929   -0.9039 C   0  0  0  0  0  0  0  0  0  0  0  0
   -2.4544    1.3368    0.4358 C   0  0  0  0  0  0  0  0  0  0  0  0
    0.2968   -1.2837    0.6307 C   0  0  0  0  0  0  0  0  0  0  0  0
   -2.7705   -1.8127    0.1338 C   0  0  0  0  0  0  0  0  0  0  0  0
    1.4874   -0.4226    0.3821 C   0  0  0  0  0  0  0  0  0  0  0  0
   -3.1133    2.1320   -0.6619 C   0  0  0  0  0  0  0  0  0  0  0  0
    2.4553   -0.8354   -0.5075 C   0  0  0  0  0  0  0  0  0  0  0  0
    1.5711    0.7728    1.0640 C   0  0  0  0  0  0  0  0  0  0  0  0
    3.5611   -0.0137   -0.7262 C   0  0  0  0  0  0  0  0  0  0  0  0
    2.6768    1.5943    0.8454 C   0  0  0  0  0  0  0  0  0  0  0  0
    3.6719    1.2012   -0.0497 C   0  0  0  0  0  0  0  0  0  0  0  0
    4.6364   -0.4172   -1.6804 C   0  0  0  0  0  0  0  0  0  0  0  0
    2.7957    2.8931    1.5689 C   0  0  0  0  0  0  0  0  0  0  0  0
   -0.8141    0.6542   -0.7659 H   0  0  0  0  0  0  0  0  0  0  0  0
   -0.9032   -0.1053    1.9484 H   0  0  0  0  0  0  0  0  0  0  0  0
   -1.8016   -1.2888   -1.6695 H   0  0  0  0  0  0  0  0  0  0  0  0
   -3.3091   -0.3772   -1.3579 H   0  0  0  0  0  0  0  0  0  0  0  0
   -3.2330    0.9212    1.0875 H   0  0  0  0  0  0  0  0  0  0  0  0
   -1.8513    2.0303    1.0326 H   0  0  0  0  0  0  0  0  0  0  0  0
    0.8201    1.0974    1.7755 H   0  0  0  0  0  0  0  0  0  0  0  0
    4.5316    1.8452   -0.2191 H   0  0  0  0  0  0  0  0  0  0  0  0
    4.2247   -0.5396   -2.6876 H   0  0  0  0  0  0  0  0  0  0  0  0
    5.4339    0.3312   -1.7397 H   0  0  0  0  0  0  0  0  0  0  0  0
    5.0934   -1.3600   -1.3619 H   0  0  0  0  0  0  0  0  0  0  0  0
    2.3985    2.8128    2.5865 H   0  0  0  0  0  0  0  0  0  0  0  0
    3.8415    3.2064    1.6576 H   0  0  0  0  0  0  0  0  0  0  0  0
    2.2429    3.6722    1.0348 H   0  0  0  0  0  0  0  0  0  0  0  0
   -4.7492    3.1597   -0.9196 H   0  0  0  0  0  0  0  0  0  0  0  0
    1.4802   -2.4263   -1.0189 H   0  0  0  0  0  0  0  0  0  0  0  0
  1  8  1  0  0  0  0
  1 12  1  0  0  0  0
  2 11  2  0  0  0  0
  3 12  2  0  0  0  0
  4 14  1  0  0  0  0
  4 36  1  0  0  0  0
  5 15  1  0  0  0  0
  5 37  1  0  0  0  0
  6 14  2  0  0  0  0
  7  8  1  0  0  0  0
  7  9  1  0  0  0  0
  7 10  1  0  0  0  0
  7 22  1  0  0  0  0
  8 11  1  0  0  0  0
  8 23  1  0  0  0  0
  9 12  1  0  0  0  0
  9 24  1  0  0  0  0
  9 25  1  0  0  0  0
 10 14  1  0  0  0  0
 10 26  1  0  0  0  0
 10 27  1  0  0  0  0
 11 13  1  0  0  0  0
 13 15  1  0  0  0  0
 13 16  2  0  0  0  0
 15 17  2  0  0  0  0
 16 18  1  0  0  0  0
 16 28  1  0  0  0  0
 17 19  1  0  0  0  0
 17 20  1  0  0  0  0
 18 19  2  0  0  0  0
 18 21  1  0  0  0  0
 19 29  1  0  0  0  0
 20 30  1  0  0  0  0
 20 31  1  0  0  0  0
 20 32  1  0  0  0  0
 21 33  1  0  0  0  0
 21 34  1  0  0  0  0
 21 35  1  0  0  0  0
M  END
> <PUBCHEM_COMPOUND_CID>
11471869

> <PUBCHEM_CONFORMER_RMSD>
0.8

> <PUBCHEM_CONFORMER_DIVERSEORDER>
1
80
201
8
93
208
33
151
202
50
114
141
137
51
100
57
36
167
29
187
48
83
104
112
157
85
207
134
169
189
122
113
174
28
81
147
2
148
193
125
133
131
91
56
180
200
79
31
203
102
197
182
74
117
158
123
204
143
103
166
53
55
20
118
139
173
162
35
84
150
76
171
198
185
190
72
132
205
11
61
19
206
126
194
177
199
154
110
128
5
142
69
184
179
109
47
176
121
191
18
192
22
156
23
65
124
168
26
186
160
153
108
107
52
16
196
181
175
21
106
96
119
146
159
95
130
15
129
145
38
40
9
136
188
120
135
149
59
97
138
163
172
6
116
99
12
170
68
94
195
24
105
127
60
89
87
46
75
71
178
82
111
115
70
101
41
7
165
54
44
144
42
161
90
86
183
66
14
17
140
30
4
10
63
78
88
13
25
152
39
164
49
92
37
27
155
62
32
67
77
3
98
43
45
58
73
34
64

> <PUBCHEM_MMFF94_PARTIAL_CHARGES>
24
1 -0.43
10 0.06
11 0.42
12 0.66
13 0.09
14 0.66
15 0.08
16 -0.15
17 -0.14
18 -0.14
19 -0.15
2 -0.57
20 0.14
21 0.14
28 0.15
29 0.15
3 -0.57
36 0.5
37 0.45
4 -0.65
5 -0.53
6 -0.57
8 0.34
9 0.06

> <PUBCHEM_EFFECTIVE_ROTOR_COUNT>
4.8

> <PUBCHEM_PHARMACOPHORE_FEATURES>
8
1 2 acceptor
1 3 acceptor
1 4 acceptor
1 5 donor
1 6 acceptor
3 4 6 14 anion
5 1 7 8 9 12 rings
6 13 15 16 17 18 19 rings

> <PUBCHEM_HEAVY_ATOM_COUNT>
21

> <PUBCHEM_ATOM_DEF_STEREO_COUNT>
0

> <PUBCHEM_ATOM_UDEF_STEREO_COUNT>
2

> <PUBCHEM_BOND_DEF_STEREO_COUNT>
0

> <PUBCHEM_BOND_UDEF_STEREO_COUNT>
0

> <PUBCHEM_ISOTOPIC_ATOM_COUNT>
0

> <PUBCHEM_COMPONENT_COUNT>
1

> <PUBCHEM_CACTVS_TAUTO_COUNT>
18

> <PUBCHEM_CONFORMER_ID>
00AF0BFD00000001

> <PUBCHEM_MMFF94_ENERGY>
47.7241

> <PUBCHEM_FEATURE_SELFOVERLAP>
40.654

> <PUBCHEM_SHAPE_FINGERPRINT>
10165383 225 18117008688493459117
10498660 4 18114174254996548253
10608611 8 18340767143198021968
10646746 165 18408877456290777088
10764073 3 17264361542321976442
11640471 11 16153692233080886881
11759241 127 17982440800362522148
12173636 292 18335133185778003455
12403259 226 18268996564808276690
12403259 415 18200875188328244504
12403260 363 18263911302139157890
12623949 98 17342123698400291767
13134695 92 16845573098236119992
13140716 1 18338785754404149304
13294875 104 18045201770469273098
13464514 151 18267306434989437296
14957384 54 16443898367372417700
15961568 22 17756423017199621148
17134986 127 18046057164803894317
17357779 13 18194954360977382903
17980427 23 17764260086683719898
18186145 218 18272657852597510122
18219364 16 18337124357985455865
20510252 161 18266454489540038913
20600515 1 17173196986908411523
20645477 70 17418379086435880340
21524375 3 17971187020164468859
21756936 100 16298970713682172700
21864079 5 17603879917835380468
221357 26 18272093824243300494
22182313 1 18200872984814777792
22182937 141 18412263922171756433
22393880 68 18413395319768437918
23114952 82 18056775440638640444
23227448 37 18408322190176468245
23557571 272 18117555347799242315
238 59 17987782081974337924
25 1 18265618680119065080
2637199 183 18125725586909153529
2748010 2 18341046410519467984
5161694 15 18272938189381669452
5252454 2 18115869603179474949
5281201 14 18201446925520762204
57527585 21 18053363681416610053
6049 1 18343025535739066232
621550 34 18055070127498649266
6287921 2 18053109711288889612
6442390 28 18187656769218038851
6913067 236 17769634727084730202
7399639 24 18055063526239306370
7808743 9 17968104092323493420
81228 2 18187368787413126537
9709674 26 18271517680324743925

> <PUBCHEM_SHAPE_MULTIPOLES>
396.95
7.87
3.16
1.39
0.9
0.93
-0.24
2.14
-2.59
-2.07
0.21
0.54
0.34
2.29

> <PUBCHEM_SHAPE_SELFOVERLAP>
851.651

> <PUBCHEM_SHAPE_VOLUME>
220.3

> <PUBCHEM_COORDINATE_TYPE>
2
5
10

$$$$
