REMARK  Name = 11471869
REMARK  6 active torsions:
REMARK  status: ('A' for Active; 'I' for Inactive)
REMARK    1  A    between atoms: C_2  and  C_3
REMARK    2  A    between atoms: C_2  and  C_16
REMARK    3  A    between atoms: C_4  and  O_11
REMARK    4  A    between atoms: C_15  and  C_19
REMARK    5  A    between atoms: C_19  and  C_21
REMARK    6  A    between atoms: C_21  and  O_22
REMARK                            x       y       z     vdW  Elec       q    Type
REMARK                         _______ _______ _______ _____ _____    ______ ____
ROOT
ATOM      1  O   UNL     1       0.390  -2.505   0.532  0.00  0.00    -0.287 OA
ATOM      2  C   UNL     1       0.297  -1.284   0.631  0.00  0.00    +0.216 C 
ENDROOT
BRANCH   2   3
ATOM      3  C   UNL     1       1.487  -0.423   0.382  0.00  0.00    +0.071 C 
ATOM      4  C   UNL     1       2.455  -0.835  -0.507  0.00  0.00    +0.132 C 
ATOM      5  C   UNL     1       1.571   0.773   1.064  0.00  0.00    +0.002 C 
ATOM      6  C   UNL     1       3.561  -0.014  -0.726  0.00  0.00    +0.012 C 
ATOM      7  C   UNL     1       2.677   1.594   0.845  0.00  0.00    -0.022 C 
ATOM      8  C   UNL     1       3.672   1.201  -0.050  0.00  0.00    -0.006 C 
ATOM      9  C   UNL     1       4.636  -0.417  -1.680  0.00  0.00    +0.034 C 
ATOM     10  C   UNL     1       2.796   2.893   1.569  0.00  0.00    +0.031 C 
BRANCH   4  11
ATOM     11  O   UNL     1       2.349  -2.023  -1.171  0.00  0.00    -0.506 OA
ATOM     12  H   UNL     1       1.607  -2.576  -1.025  0.00  0.00    +0.292 HD
ENDBRANCH   4  11
ENDBRANCH   2   3
BRANCH   2  16
ATOM     13  O   UNL     1      -1.951  -1.685   1.220  0.00  0.00    -0.444 OA
ATOM     14  O   UNL     1      -3.643  -2.660   0.019  0.00  0.00    -0.250 OA
ATOM     15  C   UNL     1      -1.580   0.211  -0.119  0.00  0.00    +0.070 C 
ATOM     16  C   UNL     1      -1.004  -0.639   1.000  0.00  0.00    +0.231 C 
ATOM     17  C   UNL     1      -2.407  -0.793  -0.904  0.00  0.00    +0.114 C 
ATOM     18  C   UNL     1      -2.771  -1.813   0.134  0.00  0.00    +0.317 C 
BRANCH  15  19
ATOM     19  C   UNL     1      -2.454   1.337   0.436  0.00  0.00    +0.114 C 
BRANCH  19  21
ATOM     20  O   UNL     1      -2.673   2.312  -1.787  0.00  0.00    -0.250 OA
ATOM     21  C   UNL     1      -3.113   2.132  -0.662  0.00  0.00    +0.314 C 
BRANCH  21  22
ATOM     22  O   UNL     1      -4.296   2.636  -0.225  0.00  0.00    -0.480 OA
ATOM     23  H   UNL     1      -4.583   2.465   0.650  0.00  0.00    +0.295 HD
ENDBRANCH  21  22
ENDBRANCH  19  21
ENDBRANCH  15  19
ENDBRANCH   2  16
TORSDOF 6
