REMARK  Name = 114756
REMARK  10 active torsions:
REMARK  status: ('A' for Active; 'I' for Inactive)
REMARK    1  A    between atoms: C_1  and  C_3
REMARK    2  A    between atoms: C_1  and  C_6
REMARK    3  A    between atoms: C_2  and  CA_13
REMARK    4  A    between atoms: C_3  and  C_4
REMARK    5  A    between atoms: C_6  and  P_7
REMARK    6  A    between atoms: P_7  and  O_9
REMARK    7  A    between atoms: P_7  and  O_11
REMARK    8  A    between atoms: CA_13  and  N_14
REMARK    9  A    between atoms: CA_13  and  C_19
REMARK   10  A    between atoms: C_19  and  O_20
REMARK                            x       y       z     vdW  Elec       q    Type
REMARK                         _______ _______ _______ _____ _____    ______ ____
ROOT
ATOM      1  C   UNL     1      -0.805  -0.427   0.171  0.00  0.00    -0.038 C 
ATOM      2  C   UNL     1       0.329  -1.141   0.021  0.00  0.00    -0.045 C 
ENDROOT
BRANCH   1   3
ATOM      3  C   UNL     1      -2.083  -0.878  -0.510  0.00  0.00    +0.022 C 
BRANCH   3   4
ATOM      4  C   UNL     1      -2.910  -1.885   0.295  0.00  0.00    +0.004 C 
ATOM      5  C   UNL     1      -4.143  -2.380  -0.448  0.00  0.00    +0.000 C 
ENDBRANCH   3   4
ENDBRANCH   1   3
BRANCH   1   6
ATOM      6  C   UNL     1      -0.912   0.794   1.041  0.00  0.00    +0.137 C 
BRANCH   6   7
ATOM      7  P   UNL     1      -0.548   2.248   0.049  0.00  0.00    +0.341 P 
ATOM      8  O   UNL     1       0.816   2.244  -0.554  0.00  0.00    -0.258 OA
BRANCH   7   9
ATOM      9  O   UNL     1      -0.866   3.460   1.063  0.00  0.00    -0.323 OA
ATOM     10  H   UNL     1      -0.699   4.306   0.619  0.00  0.00    +0.220 HD
ENDBRANCH   7   9
BRANCH   7  11
ATOM     11  O   UNL     1      -1.778   2.285  -0.993  0.00  0.00    -0.323 OA
ATOM     12  H   UNL     1      -1.677   3.046  -1.585  0.00  0.00    +0.220 HD
ENDBRANCH   7  11
ENDBRANCH   6   7
ENDBRANCH   1   6
BRANCH   2  13
ATOM     13  CA  UNL     1       1.678  -0.841   0.619  0.00  0.00    +0.058 C 
BRANCH  13  14
ATOM     14  N   UNL     1       2.165  -1.950   1.438  0.00  0.00    +0.391 N 
ATOM     15  H1  UNL     1       1.504  -2.131   2.193  0.00  0.00    -0.088 HD
ATOM     16  H2  UNL     1       3.074  -1.707   1.833  0.00  0.00    -0.088 HD
ATOM     17  H3  UNL     1       2.257  -2.785   0.859  0.00  0.00    -0.088 HD
ENDBRANCH  13  14
BRANCH  13  19
ATOM     18  OXT UNL     1       2.444  -0.628  -1.692  0.00  0.00    -0.252 OA
ATOM     19  C   UNL     1       2.689  -0.603  -0.493  0.00  0.00    +0.297 C 
BRANCH  19  20
ATOM     20  O   UNL     1       3.924  -0.298  -0.008  0.00  0.00    -0.481 OA
ATOM     21  H   UNL     1       4.075  -0.289   0.916  0.00  0.00    +0.295 HD
ENDBRANCH  19  20
ENDBRANCH  13  19
ENDBRANCH   2  13
TORSDOF 10
