REMARK  Name = 114750
REMARK  6 active torsions:
REMARK  status: ('A' for Active; 'I' for Inactive)
REMARK    1  A    between atoms: C_1  and  C_8
REMARK    2  A    between atoms: C_1  and  N_15
REMARK    3  A    between atoms: C_1  and  C_28
REMARK    4  A    between atoms: C_4  and  C_11
REMARK    5  A    between atoms: C_16  and  C_22
REMARK    6  A    between atoms: C_28  and  C_31
REMARK                            x       y       z     vdW  Elec       q    Type
REMARK                         _______ _______ _______ _____ _____    ______ ____
ROOT
ATOM      1  C   UNL     1       0.988  -0.756  -0.325  0.00  0.00    +0.155 C 
ENDROOT
BRANCH   1   8
ATOM      2  O   UNL     1       0.875   1.259  -1.588  0.00  0.00    -0.273 OA
ATOM      3  N   UNL     1       2.068   1.320   0.395  0.00  0.00    -0.272 N 
ATOM      4  C   UNL     1       2.320   2.755   0.393  0.00  0.00    +0.152 C 
ATOM      5  C   UNL     1       2.781   3.069   1.812  0.00  0.00    +0.031 C 
ATOM      6  C   UNL     1       2.585   0.695   1.610  0.00  0.00    +0.094 C 
ATOM      7  C   UNL     1       3.439   1.769   2.267  0.00  0.00    +0.024 C 
ATOM      8  C   UNL     1       1.295   0.699  -0.573  0.00  0.00    +0.244 C 
BRANCH   4  11
ATOM      9  O   UNL     1       3.925   2.105  -1.255  0.00  0.00    -0.274 OA
ATOM     10  N   UNL     1       3.751   4.337  -0.724  0.00  0.00    -0.327 N 
ATOM     11  C   UNL     1       3.401   3.012  -0.613  0.00  0.00    +0.237 C 
ATOM     12  H   UNL     1       4.453   4.609  -1.359  0.00  0.00    +0.145 HD
ATOM     13  H   UNL     1       3.300   5.014  -0.169  0.00  0.00    +0.145 HD
ENDBRANCH   4  11
ENDBRANCH   1   8
BRANCH   1  15
ATOM     14  O   UNL     1      -1.524  -0.201   1.020  0.00  0.00    -0.273 OA
ATOM     15  N   UNL     1      -0.337  -0.914  -0.853  0.00  0.00    -0.297 N 
ATOM     16  C   UNL     1      -1.490  -0.622  -0.134  0.00  0.00    +0.241 C 
ATOM     17  H   UNL     1      -0.434  -1.247  -1.774  0.00  0.00    +0.150 HD
BRANCH  16  22
ATOM     18  O   UNL     1      -3.748   2.617  -1.073  0.00  0.00    -0.274 OA
ATOM     19  O   UNL     1      -5.357  -0.890   1.553  0.00  0.00    -0.252 OA
ATOM     20  N   UNL     1      -3.744  -1.305  -0.002  0.00  0.00    -0.282 N 
ATOM     21  N   UNL     1      -4.465   0.914   0.363  0.00  0.00    -0.212 N 
ATOM     22  C   UNL     1      -2.738  -0.851  -0.929  0.00  0.00    +0.159 C 
ATOM     23  C   UNL     1      -3.186   0.382  -1.677  0.00  0.00    +0.115 C 
ATOM     24  C   UNL     1      -3.796   1.425  -0.765  0.00  0.00    +0.235 C 
ATOM     25  C   UNL     1      -4.577  -0.453   0.703  0.00  0.00    +0.310 C 
ATOM     26  C   UNL     1      -5.178   1.870   1.203  0.00  0.00    +0.124 C 
ATOM     27  H   UNL     1      -3.844  -2.274   0.137  0.00  0.00    +0.151 HD
ENDBRANCH  16  22
ENDBRANCH   1  15
BRANCH   1  28
ATOM     28  C   UNL     1       2.022  -1.639  -1.013  0.00  0.00    +0.071 C 
BRANCH  28  31
ATOM     29  N   UNL     1       3.164  -3.588   0.117  0.00  0.00    -0.319 N 
ATOM     30  N   UNL     1       1.573  -5.128   0.293  0.00  0.00    -0.315 N 
ATOM     31  C   UNL     1       2.043  -3.033  -0.433  0.00  0.00    +0.040 C 
ATOM     32  C   UNL     1       1.075  -4.002  -0.313  0.00  0.00    +0.069 C 
ATOM     33  C   UNL     1       2.834  -4.846   0.539  0.00  0.00    +0.182 C 
ATOM     34  H   UNL     1       4.047  -3.161   0.195  0.00  0.00    +0.148 HD
ATOM     35  H   UNL     1       1.093  -5.963   0.499  0.00  0.00    +0.148 HD
ENDBRANCH  28  31
ENDBRANCH   1  28
TORSDOF 6
