114769
  -OEChem-03292013323D

 26 27  0     1  0  0  0  0  0999 V2000
   -2.7784    1.1105   -0.8748 O   0  0  0  0  0  0  0  0  0  0  0  0
   -4.8534   -0.7455   -0.8574 O   0  0  0  0  0  0  0  0  0  0  0  0
   -0.3889    0.5163    0.6206 N   0  0  0  0  0  0  0  0  0  0  0  0
    1.2890    1.8807    0.0798 N   0  0  0  0  0  0  0  0  0  0  0  0
    0.7235   -1.6294    0.3773 N   0  0  0  0  0  0  0  0  0  0  0  0
    3.0485   -1.3494   -0.3100 N   0  0  0  0  0  0  0  0  0  0  0  0
    4.0301    0.8025   -0.6749 N   0  0  0  0  0  0  0  0  0  0  0  0
   -1.7095    0.0952    1.0214 C   0  0  0  0  0  0  0  0  0  0  0  0
   -2.6380   -0.1269   -0.1740 C   0  0  1  0  0  0  0  0  0  0  0  0
    0.6779   -0.2892    0.3402 C   0  0  0  0  0  0  0  0  0  0  0  0
    1.7081    0.5759    0.0078 C   0  0  0  0  0  0  0  0  0  0  0  0
   -4.0202   -0.5812    0.2848 C   0  0  0  0  0  0  0  0  0  0  0  0
    0.0272    1.8100    0.4495 C   0  0  0  0  0  0  0  0  0  0  0  0
    2.9299    0.0002   -0.3260 C   0  0  0  0  0  0  0  0  0  0  0  0
    1.9541   -2.0697    0.0356 C   0  0  0  0  0  0  0  0  0  0  0  0
   -1.6071   -0.8193    1.6164 H   0  0  0  0  0  0  0  0  0  0  0  0
   -2.1050    0.8790    1.6793 H   0  0  0  0  0  0  0  0  0  0  0  0
   -2.2101   -0.8494   -0.8787 H   0  0  0  0  0  0  0  0  0  0  0  0
   -4.4868    0.1727    0.9276 H   0  0  0  0  0  0  0  0  0  0  0  0
   -3.9650   -1.5337    0.8207 H   0  0  0  0  0  0  0  0  0  0  0  0
   -0.6278    2.6558    0.6087 H   0  0  0  0  0  0  0  0  0  0  0  0
   -3.3858    0.9560   -1.6183 H   0  0  0  0  0  0  0  0  0  0  0  0
    2.0851   -3.1465    0.0378 H   0  0  0  0  0  0  0  0  0  0  0  0
   -5.7246   -1.0334   -0.5352 H   0  0  0  0  0  0  0  0  0  0  0  0
    4.9076    0.3605   -0.9128 H   0  0  0  0  0  0  0  0  0  0  0  0
    3.9444    1.8098   -0.6868 H   0  0  0  0  0  0  0  0  0  0  0  0
  1  9  1  0  0  0  0
  1 22  1  0  0  0  0
  2 12  1  0  0  0  0
  2 24  1  0  0  0  0
  3  8  1  0  0  0  0
  3 10  1  0  0  0  0
  3 13  1  0  0  0  0
  4 11  1  0  0  0  0
  4 13  2  0  0  0  0
  5 10  2  0  0  0  0
  5 15  1  0  0  0  0
  6 14  1  0  0  0  0
  6 15  2  0  0  0  0
  7 14  1  0  0  0  0
  7 25  1  0  0  0  0
  7 26  1  0  0  0  0
  8  9  1  0  0  0  0
  8 16  1  0  0  0  0
  8 17  1  0  0  0  0
  9 12  1  0  0  0  0
  9 18  1  0  0  0  0
 10 11  1  0  0  0  0
 11 14  2  0  0  0  0
 12 19  1  0  0  0  0
 12 20  1  0  0  0  0
 13 21  1  0  0  0  0
 15 23  1  0  0  0  0
M  END
> <PUBCHEM_COMPOUND_CID>
114769

> <PUBCHEM_CONFORMER_RMSD>
0.6

> <PUBCHEM_CONFORMER_DIVERSEORDER>
1
20
14
19
21
17
3
6
22
2
11
18
10
16
4
9
15
5
13
7
12
8

> <PUBCHEM_MMFF94_PARTIAL_CHARGES>
21
1 -0.68
10 0.11
11 0.23
12 0.28
13 0.04
14 0.41
15 0.47
2 -0.68
21 0.15
22 0.4
23 0.15
24 0.4
25 0.4
26 0.4
3 0.05
4 -0.57
5 -0.57
6 -0.62
7 -0.9
8 0.26
9 0.28

> <PUBCHEM_EFFECTIVE_ROTOR_COUNT>
3

> <PUBCHEM_PHARMACOPHORE_FEATURES>
11
1 1 acceptor
1 1 donor
1 2 acceptor
1 2 donor
1 7 cation
1 7 donor
3 3 4 13 cation
3 3 5 10 cation
3 5 6 15 cation
5 3 4 10 11 13 rings
6 5 6 10 11 14 15 rings

> <PUBCHEM_HEAVY_ATOM_COUNT>
15

> <PUBCHEM_ATOM_DEF_STEREO_COUNT>
0

> <PUBCHEM_ATOM_UDEF_STEREO_COUNT>
1

> <PUBCHEM_BOND_DEF_STEREO_COUNT>
0

> <PUBCHEM_BOND_UDEF_STEREO_COUNT>
0

> <PUBCHEM_ISOTOPIC_ATOM_COUNT>
0

> <PUBCHEM_COMPONENT_COUNT>
1

> <PUBCHEM_CACTVS_TAUTO_COUNT>
3

> <PUBCHEM_CONFORMER_ID>
0001C05100000001

> <PUBCHEM_MMFF94_ENERGY>
26.6019

> <PUBCHEM_FEATURE_SELFOVERLAP>
56.434

> <PUBCHEM_SHAPE_FINGERPRINT>
10498660 4 16516510107218653229
11471102 20 18410012156189775339
11806522 49 18272088322416587544
12251169 10 10303815388990581709
13705890 14 18410853244035891346
14251717 144 18411138047517440754
14252887 29 17632587049549545910
14576447 43 18272646891751605239
14911166 2 18338807805140507084
14993402 34 18202289116772455734
15477762 27 18412825806651053903
15757776 16 18412544297219789274
16945 1 18339375118786021456
18186145 218 17313391063052997219
19422 9 18059583429509901707
200 152 18343303647571553330
20201158 50 18334298669041913755
20645477 70 18413385437006478679
21256008 61 18201720682045635448
21501502 16 18193563268109380272
21637258 2 15913053062908267476
221490 88 18193843858312531771
22169311 14 11600003258543641461
23402539 116 18342460297063772900
23402655 69 18409726240802553709
2748010 2 17906470062090648536
2871803 45 18408321073205149383
57096353 35 18411993459084621044
58051976 378 18336267932853011756
94968 8 18343019999404934743

> <PUBCHEM_SHAPE_MULTIPOLES>
272.05
7.03
1.81
0.83
5.65
0.1
0.01
1.53
-2.19
-1.06
0.06
0.37
-0.05
-0.12

> <PUBCHEM_SHAPE_SELFOVERLAP>
579.723

> <PUBCHEM_SHAPE_VOLUME>
149.7

> <PUBCHEM_COORDINATE_TYPE>
2
5
10

$$$$
