REMARK  Name = 114708
REMARK  6 active torsions:
REMARK  status: ('A' for Active; 'I' for Inactive)
REMARK    1  A    between atoms: C_3  and  O_21
REMARK    2  A    between atoms: C_6  and  O_23
REMARK    3  A    between atoms: C_7  and  O_25
REMARK    4  A    between atoms: C_13  and  O_27
REMARK    5  A    between atoms: C_16  and  C_29
REMARK    6  A    between atoms: C_29  and  O_30
REMARK                            x       y       z     vdW  Elec       q    Type
REMARK                         _______ _______ _______ _____ _____    ______ ____
ROOT
ATOM      1  O   UNL     1       4.204  -0.335   0.726  0.00  0.00    -0.289 OA
ATOM      2  C   UNL     1      -1.894   1.211   0.375  0.00  0.00    +0.036 C 
ATOM      3  C   UNL     1      -3.077   0.526  -0.248  0.00  0.00    +0.113 C 
ATOM      4  C   UNL     1      -3.000   0.661   1.246  0.00  0.00    +0.027 C 
ATOM      5  C   UNL     1      -0.516   0.555   0.445  0.00  0.00    +0.049 C 
ATOM      6  C   UNL     1      -0.345  -0.508  -0.693  0.00  0.00    +0.101 C 
ATOM      7  C   UNL     1      -2.910  -0.783  -0.943  0.00  0.00    +0.137 C 
ATOM      8  C   UNL     1      -1.579  -1.500  -0.622  0.00  0.00    +0.055 C 
ATOM      9  C   UNL     1      -2.810  -0.544   2.103  0.00  0.00    +0.002 C 
ATOM     10  C   UNL     1      -3.883   1.674   1.904  0.00  0.00    +0.002 C 
ATOM     11  C   UNL     1       1.015  -1.275  -0.631  0.00  0.00    +0.079 C 
ATOM     12  C   UNL     1       0.541   1.627   0.627  0.00  0.00    -0.030 C 
ATOM     13  C   UNL     1       2.327  -0.480  -0.821  0.00  0.00    +0.152 C 
ATOM     14  C   UNL     1      -1.464  -2.724  -1.553  0.00  0.00    +0.005 C 
ATOM     15  C   UNL     1       2.264   1.015  -1.120  0.00  0.00    +0.059 C 
ATOM     16  C   UNL     1       1.687   1.870  -0.029  0.00  0.00    -0.017 C 
ATOM     17  C   UNL     1       1.240  -2.007   0.670  0.00  0.00    -0.023 C 
ATOM     18  C   UNL     1       3.102  -0.786   0.447  0.00  0.00    +0.193 C 
ATOM     19  C   UNL     1       2.383  -1.740   1.304  0.00  0.00    +0.011 C 
ATOM     20  C   UNL     1       2.907  -2.264   2.583  0.00  0.00    +0.034 C 
ENDROOT
BRANCH   3  21
ATOM     21  O   UNL     1      -4.016   1.392  -0.916  0.00  0.00    -0.384 OA
ATOM     22  H   UNL     1      -4.090   2.227  -0.428  0.00  0.00    +0.210 HD
ENDBRANCH   3  21
BRANCH   6  23
ATOM     23  O   UNL     1      -0.422   0.172  -1.954  0.00  0.00    -0.386 OA
ATOM     24  H   UNL     1      -1.261   0.654  -2.011  0.00  0.00    +0.210 HD
ENDBRANCH   6  23
BRANCH   7  25
ATOM     25  O   UNL     1      -4.001  -1.633  -0.590  0.00  0.00    -0.382 OA
ATOM     26  H   UNL     1      -4.838  -1.185  -0.790  0.00  0.00    +0.210 HD
ENDBRANCH   7  25
BRANCH  13  27
ATOM     27  O   UNL     1       3.093  -1.119  -1.850  0.00  0.00    -0.379 OA
ATOM     28  H   UNL     1       2.666  -0.974  -2.708  0.00  0.00    +0.211 HD
ENDBRANCH  13  27
BRANCH  16  29
ATOM     29  C   UNL     1       2.517   3.076   0.333  0.00  0.00    +0.159 C 
BRANCH  29  30
ATOM     30  O   UNL     1       2.637   3.919  -0.794  0.00  0.00    -0.378 OA
ATOM     31  H   UNL     1       3.171   4.695  -0.562  0.00  0.00    +0.211 HD
ENDBRANCH  29  30
ENDBRANCH  16  29
TORSDOF 6
