REMARK  Name = 114751
REMARK  3 active torsions:
REMARK  status: ('A' for Active; 'I' for Inactive)
REMARK    1  A    between atoms: C_4  and  C_16
REMARK    2  A    between atoms: C_5  and  C_10
REMARK    3  A    between atoms: C_16  and  O_17
REMARK                            x       y       z     vdW  Elec       q    Type
REMARK                         _______ _______ _______ _____ _____    ______ ____
ROOT
ATOM      1  S   UNK     1      -2.937   2.105  -0.396  0.00  0.00    -0.116 S 
ATOM      2  O   UNK     1       0.606  -1.107   0.850  0.00  0.00    -0.273 OA
ATOM      3  N   UNK     1      -0.912   0.462   0.065  0.00  0.00    -0.259 N 
ATOM      4  C   UNK     1      -2.070  -0.138   0.721  0.00  0.00    +0.186 C 
ATOM      5  C   UNK     1       0.355  -0.102   0.183  0.00  0.00    +0.245 C 
ATOM      6  C   UNK     1      -3.115   0.936   0.975  0.00  0.00    +0.090 C 
ATOM      7  C   UNK     1      -1.219   1.651  -0.722  0.00  0.00    +0.153 C 
ENDROOT
BRANCH   5  10
ATOM      8  O   UNK     1       4.481  -1.185  -0.161  0.00  0.00    -0.275 OA
ATOM      9  N   UNK     1       2.413  -0.407  -0.936  0.00  0.00    -0.298 N 
ATOM     10  C   UNK     1       1.458   0.600  -0.571  0.00  0.00    +0.149 C 
ATOM     11  C   UNK     1       2.252   1.553   0.301  0.00  0.00    +0.039 C 
ATOM     12  C   UNK     1       3.353   0.682   0.906  0.00  0.00    +0.087 C 
ATOM     13  C   UNK     1       3.534  -0.416  -0.113  0.00  0.00    +0.223 C 
ATOM     14  H   UNK     1       2.289  -1.027  -1.691  0.00  0.00    +0.150 HD
ENDBRANCH   5  10
BRANCH   4  16
ATOM     15  O   UNK     1      -2.504  -1.186  -1.417  0.00  0.00    -0.248 OA
ATOM     16  C   UNK     1      -2.573  -1.215  -0.198  0.00  0.00    +0.333 C 
BRANCH  16  17
ATOM     17  O   UNK     1      -3.121  -2.232   0.512  0.00  0.00    -0.479 OA
ATOM     18  H   UNK     1      -3.142  -2.192   1.448  0.00  0.00    +0.295 HD
ENDBRANCH  16  17
ENDBRANCH   4  16
TORSDOF 3
