REMARK  Name = 11476774
REMARK  4 active torsions:
REMARK  status: ('A' for Active; 'I' for Inactive)
REMARK    1  A    between atoms: C_4  and  C_27
REMARK    2  A    between atoms: C_5  and  O_34
REMARK    3  A    between atoms: C_10  and  O_36
REMARK    4  A    between atoms: C_24  and  N_30
REMARK                            x       y       z     vdW  Elec       q    Type
REMARK                         _______ _______ _______ _____ _____    ______ ____
ROOT
ATOM      1  O   UNL     1      -4.292  -2.135   1.122  0.00  0.00    -0.291 OA
ATOM      2  O   UNL     1      -2.436  -2.185  -0.656  0.00  0.00    -0.287 OA
ATOM      3  O   UNL     1       0.008   2.446  -0.317  0.00  0.00    -0.286 OA
ATOM      4  C   UNL     1       2.346  -1.017   0.032  0.00  0.00    +0.038 C 
ATOM      5  C   UNL     1      -6.943   0.048  -0.243  0.00  0.00    +0.100 C 
ATOM      6  C   UNL     1      -6.317   1.275   0.428  0.00  0.00    +0.054 C 
ATOM      7  C   UNL     1      -4.817   1.260   0.280  0.00  0.00    -0.017 C 
ATOM      8  C   UNL     1      -4.095   0.052   0.248  0.00  0.00    +0.034 C 
ATOM      9  C   UNL     1      -6.349  -1.239   0.327  0.00  0.00    +0.096 C 
ATOM     10  C   UNL     1       1.613   0.169  -0.020  0.00  0.00    +0.135 C 
ATOM     11  C   UNL     1      -2.701   0.071   0.023  0.00  0.00    +0.044 C 
ATOM     12  C   UNL     1       0.217   0.122  -0.103  0.00  0.00    +0.075 C 
ATOM     13  C   UNL     1      -0.439  -1.106  -0.136  0.00  0.00    +0.045 C 
ATOM     14  C   UNL     1      -4.854  -1.187   0.578  0.00  0.00    +0.175 C 
ATOM     15  C   UNL     1       1.690  -2.246  -0.003  0.00  0.00    +0.001 C 
ATOM     16  C   UNL     1      -2.033   1.304  -0.036  0.00  0.00    +0.042 C 
ATOM     17  C   UNL     1      -1.907  -1.155  -0.258  0.00  0.00    +0.196 C 
ATOM     18  C   UNL     1      -8.464   0.054  -0.064  0.00  0.00    +0.030 C 
ATOM     19  C   UNL     1      -0.561   1.371  -0.171  0.00  0.00    +0.199 C 
ATOM     20  C   UNL     1       0.298  -2.295  -0.091  0.00  0.00    +0.003 C 
ATOM     21  C   UNL     1      -4.132   2.477   0.193  0.00  0.00    -0.004 C 
ATOM     22  C   UNL     1      -2.748   2.502   0.054  0.00  0.00    +0.003 C 
ENDROOT
BRANCH   4  27
ATOM     23  O   UNL     1       4.250   0.158   0.882  0.00  0.00    -0.356 OA
ATOM     24  C   UNL     1       6.379   0.355  -0.296  0.00  0.00    -0.030 C 
ATOM     25  C   UNL     1       6.015  -0.852  -1.164  0.00  0.00    -0.016 C 
ATOM     26  C   UNL     1       5.665   0.307   1.069  0.00  0.00    +0.097 C 
ATOM     27  C   UNL     1       3.858  -0.995   0.127  0.00  0.00    +0.140 C 
ATOM     28  C   UNL     1       4.498  -0.985  -1.265  0.00  0.00    +0.032 C 
ATOM     29  C   UNL     1       6.189  -0.741   2.054  0.00  0.00    +0.030 C 
BRANCH  24  30
ATOM     30  N   UNL     1       7.827   0.486  -0.161  0.00  0.00    +0.387 N 
ATOM     31  C   UNL     1       8.163   1.643   0.670  0.00  0.00    -0.101 C 
ATOM     32  C   UNL     1       8.457   0.604  -1.476  0.00  0.00    -0.101 C 
ATOM     33  H   UNL     1       8.184  -0.354   0.294  0.00  0.00    -0.080 HD
ENDBRANCH  24  30
ENDBRANCH   4  27
BRANCH   5  34
ATOM     34  O   UNL     1      -6.682   0.081  -1.650  0.00  0.00    -0.386 OA
ATOM     35  H   UNL     1      -5.724   0.077  -1.801  0.00  0.00    +0.210 HD
ENDBRANCH   5  34
BRANCH  10  36
ATOM     36  O   UNL     1       2.295   1.351   0.026  0.00  0.00    -0.506 OA
ATOM     37  H   UNL     1       3.231   1.350   0.081  0.00  0.00    +0.292 HD
ENDBRANCH  10  36
TORSDOF 4
