REMARK  Name = 114713
REMARK  8 active torsions:
REMARK  status: ('A' for Active; 'I' for Inactive)
REMARK    1  A    between atoms: C_4  and  O_30
REMARK    2  A    between atoms: C_8  and  O_32
REMARK    3  A    between atoms: C_10  and  C_16
REMARK    4  A    between atoms: N_15  and  CA_18
REMARK    5  A    between atoms: CA_18  and  C_20
REMARK    6  A    between atoms: CA_18  and  CB_23
REMARK    7  A    between atoms: C_20  and  O_21
REMARK    8  A    between atoms: CB_23  and  CG_24
REMARK                            x       y       z     vdW  Elec       q    Type
REMARK                         _______ _______ _______ _____ _____    ______ ____
ROOT
ATOM      1 CL   UNL     1      -1.698   2.843   1.700  0.00  0.00    -0.082 Cl
ATOM      2  O   UNL     1      -5.358  -0.504  -0.399  0.00  0.00    -0.446 OA
ATOM      3  O   UNL     1      -4.176  -1.913  -1.719  0.00  0.00    -0.245 OA
ATOM      4  C   UNL     1      -4.312   1.463   0.591  0.00  0.00    +0.174 C 
ATOM      5  C   UNL     1      -5.358   0.365   0.759  0.00  0.00    +0.200 C 
ATOM      6  C   UNL     1      -2.989   0.808   0.324  0.00  0.00    +0.028 C 
ATOM      7  C   UNL     1      -2.947  -0.401  -0.381  0.00  0.00    +0.109 C 
ATOM      8  C   UNL     1      -1.720  -1.018  -0.649  0.00  0.00    +0.144 C 
ATOM      9  C   UNL     1      -1.793   1.397   0.752  0.00  0.00    +0.057 C 
ATOM     10  C   UNL     1      -0.535  -0.428  -0.209  0.00  0.00    +0.088 C 
ATOM     11  C   UNL     1      -6.771   0.916   0.909  0.00  0.00    +0.050 C 
ATOM     12  C   UNL     1      -4.197  -1.015  -0.888  0.00  0.00    +0.344 C 
ATOM     13  C   UNL     1      -0.571   0.779   0.488  0.00  0.00    +0.019 C 
ENDROOT
BRANCH  10  16
ATOM     14  O   UNL     1       0.966  -1.738  -1.468  0.00  0.00    -0.270 OA
ATOM     15  N   UNL     1       1.745  -0.821   0.499  0.00  0.00    -0.293 N 
ATOM     16  C   ACE A   0       0.756  -1.058  -0.457  0.00  0.00    +0.249 C 
ATOM     17  H   UNL     1       1.521  -0.272   1.285  0.00  0.00    +0.150 HD
BRANCH  15  18
ATOM     18  CA  UNL     1       3.084  -1.351   0.380  0.00  0.00    +0.176 C 
BRANCH  18  20
ATOM     19  OXT UNL     1       4.186  -3.444   0.884  0.00  0.00    -0.248 OA
ATOM     20  C   UNL     1       3.170  -2.760   0.947  0.00  0.00    +0.332 C 
BRANCH  20  21
ATOM     21  O   UNL     1       2.035  -3.205   1.538  0.00  0.00    -0.479 OA
ATOM     22  H   UNL     1       1.276  -2.656   1.568  0.00  0.00    +0.295 HD
ENDBRANCH  20  21
ENDBRANCH  18  20
BRANCH  18  23
ATOM     23  CB  UNL     1       4.102  -0.442   1.080  0.00  0.00    +0.057 C 
BRANCH  23  24
ATOM     24  CG  UNL     1       4.456   0.781   0.269  0.00  0.00    -0.020 C 
ATOM     25  CD1 UNL     1       5.518   0.723  -0.620  0.00  0.00    -0.004 C 
ATOM     26  CD2 UNL     1       3.712   1.940   0.426  0.00  0.00    -0.004 C 
ATOM     27  CE1 UNL     1       5.845   1.853  -1.370  0.00  0.00    -0.000 C 
ATOM     28  CE2 UNL     1       4.039   3.070  -0.324  0.00  0.00    -0.000 C 
ATOM     29  CZ  UNL     1       5.106   3.026  -1.222  0.00  0.00    -0.000 C 
ENDBRANCH  23  24
ENDBRANCH  18  23
ENDBRANCH  15  18
ENDBRANCH  10  16
BRANCH   4  30
ATOM     30  O   UNL     1      -4.656   2.320  -0.494  0.00  0.00    -0.376 OA
ATOM     31  H   UNL     1      -5.512   2.740  -0.315  0.00  0.00    +0.211 HD
ENDBRANCH   4  30
BRANCH   8  32
ATOM     32  O   UNL     1      -1.639  -2.188  -1.347  0.00  0.00    -0.505 OA
ATOM     33  H   UNL     1      -2.419  -2.605  -1.654  0.00  0.00    +0.292 HD
ENDBRANCH   8  32
TORSDOF 8
