REMARK  Name = 114771
REMARK  4 active torsions:
REMARK  status: ('A' for Active; 'I' for Inactive)
REMARK    1  A    between atoms: N_2  and  C_5
REMARK    2  A    between atoms: N_2  and  C_23
REMARK    3  A    between atoms: C_6  and  C_14
REMARK    4  A    between atoms: C_23  and  C_26
REMARK                            x       y       z     vdW  Elec       q    Type
REMARK                         _______ _______ _______ _____ _____    ______ ____
ROOT
ATOM      1  O   UNL     1       0.657   0.904   0.053  0.00  0.00    -0.267 OA
ATOM      2  N   UNL     1       1.179  -1.355   0.353  0.00  0.00    -0.250 N 
ATOM      3  N   UNL     1      -0.062  -3.301   0.636  0.00  0.00    -0.371 N 
ATOM      4  C   UNL     1      -0.090  -1.938   0.459  0.00  0.00    +0.189 C 
ATOM      5  C   UNL     1       1.479  -0.001   0.161  0.00  0.00    +0.285 C 
ATOM      6  H   UNL     1       1.947  -1.966   0.421  0.00  0.00    +0.158 HD
ATOM      7  H   UNL     1      -0.904  -3.804   0.721  0.00  0.00    +0.159 HD
ATOM      8  H   UNL     1       0.800  -3.775   0.677  0.00  0.00    +0.159 HD
ENDROOT
BRANCH   5  13
ATOM      9 CL   UNL     1       5.905  -1.660  -1.265  0.00  0.00    -0.044 Cl
ATOM     10  N   UNL     1       3.661  -0.660  -0.477  0.00  0.00    -0.378 NA
ATOM     11  N   UNL     1       4.738   1.799   0.338  0.00  0.00    -0.367 NA
ATOM     12  N   UNL     1       6.890   1.059  -0.329  0.00  0.00    -0.330 N 
ATOM     13  C   UNL     1       2.924   0.323   0.047  0.00  0.00    +0.229 C 
ATOM     14  C   UNL     1       3.423   1.523   0.450  0.00  0.00    +0.213 C 
ATOM     15  C   UNL     1       5.504   0.823  -0.188  0.00  0.00    +0.220 C 
ATOM     16  C   UNL     1       4.975  -0.384  -0.589  0.00  0.00    +0.232 C 
ATOM     17  H   UNL     1       7.274   1.920  -0.045  0.00  0.00    +0.145 HD
ATOM     18  H   UNL     1       7.472   0.363  -0.711  0.00  0.00    +0.145 HD
ATOM     19  N   UNL     1       2.567   2.507   0.993  0.00  0.00    -0.331 N 
ATOM     20  H   UNL     1       2.934   3.374   1.283  0.00  0.00    +0.145 HD
ATOM     21  H   UNL     1       1.603   2.326   1.083  0.00  0.00    +0.145 HD
ENDBRANCH   5  13
BRANCH   4  22
ATOM     22  N   UNL     1      -1.131  -1.174   0.386  0.00  0.00    -0.237 NA
BRANCH  22  23
ATOM     23  C   UNL     1      -2.437  -1.810   0.500  0.00  0.00    +0.155 C 
BRANCH  23  26
ATOM     24 CL   UNL     1      -5.729   0.633  -2.657  0.00  0.00    -0.081 Cl
ATOM     25 CL   UNL     1      -6.914   2.158  -0.062  0.00  0.00    -0.081 Cl
ATOM     26  C   UNL     1      -3.557  -0.820   0.343  0.00  0.00    +0.003 C 
ATOM     27  C   UNL     1      -4.076  -0.566  -0.920  0.00  0.00    +0.010 C 
ATOM     28  C   UNL     1      -4.060  -0.171   1.463  0.00  0.00    -0.001 C 
ATOM     29  C   UNL     1      -5.116   0.352  -1.065  0.00  0.00    +0.068 C 
ATOM     30  C   UNL     1      -5.100   0.748   1.318  0.00  0.00    +0.012 C 
ATOM     31  C   UNL     1      -5.628   1.009   0.054  0.00  0.00    +0.068 C 
ENDBRANCH  23  26
ENDBRANCH  22  23
ENDBRANCH   4  22
TORSDOF 4
