114713
  -OEChem-03292013323D

 47 49  0     1  0  0  0  0  0999 V2000
   -1.6981    2.8430    1.7004 Cl  0  0  0  0  0  0  0  0  0  0  0  0
   -5.3579   -0.5045   -0.3989 O   0  0  0  0  0  0  0  0  0  0  0  0
   -4.6563    2.3201   -0.4937 O   0  0  0  0  0  0  0  0  0  0  0  0
   -1.6386   -2.1875   -1.3474 O   0  0  0  0  0  0  0  0  0  0  0  0
   -4.1765   -1.9128   -1.7192 O   0  0  0  0  0  0  0  0  0  0  0  0
    0.9664   -1.7378   -1.4682 O   0  0  0  0  0  0  0  0  0  0  0  0
    2.0347   -3.2054    1.5378 O   0  0  0  0  0  0  0  0  0  0  0  0
    4.1857   -3.4443    0.8845 O   0  0  0  0  0  0  0  0  0  0  0  0
    1.7446   -0.8211    0.4990 N   0  0  0  0  0  0  0  0  0  0  0  0
   -4.3121    1.4634    0.5907 C   0  0  1  0  0  0  0  0  0  0  0  0
   -5.3579    0.3650    0.7587 C   0  0  1  0  0  0  0  0  0  0  0  0
   -2.9887    0.8084    0.3241 C   0  0  0  0  0  0  0  0  0  0  0  0
   -2.9467   -0.4007   -0.3812 C   0  0  0  0  0  0  0  0  0  0  0  0
   -1.7202   -1.0180   -0.6488 C   0  0  0  0  0  0  0  0  0  0  0  0
   -1.7929    1.3975    0.7520 C   0  0  0  0  0  0  0  0  0  0  0  0
   -0.5353   -0.4276   -0.2091 C   0  0  0  0  0  0  0  0  0  0  0  0
   -6.7707    0.9161    0.9088 C   0  0  0  0  0  0  0  0  0  0  0  0
   -4.1965   -1.0146   -0.8878 C   0  0  0  0  0  0  0  0  0  0  0  0
   -0.5709    0.7786    0.4884 C   0  0  0  0  0  0  0  0  0  0  0  0
    3.0842   -1.3507    0.3801 C   0  0  1  0  0  0  0  0  0  0  0  0
    4.1024   -0.4415    1.0802 C   0  0  0  0  0  0  0  0  0  0  0  0
    0.7557   -1.0576   -0.4566 C   0  0  0  0  0  0  0  0  0  0  0  0
    4.4562    0.7813    0.2686 C   0  0  0  0  0  0  0  0  0  0  0  0
    3.1695   -2.7601    0.9472 C   0  0  0  0  0  0  0  0  0  0  0  0
    5.5181    0.7228   -0.6200 C   0  0  0  0  0  0  0  0  0  0  0  0
    3.7123    1.9401    0.4265 C   0  0  0  0  0  0  0  0  0  0  0  0
    5.8449    1.8525   -1.3701 C   0  0  0  0  0  0  0  0  0  0  0  0
    4.0392    3.0697   -0.3238 C   0  0  0  0  0  0  0  0  0  0  0  0
    5.1055    3.0258   -1.2221 C   0  0  0  0  0  0  0  0  0  0  0  0
   -4.3009    2.0632    1.5063 H   0  0  0  0  0  0  0  0  0  0  0  0
   -5.1303   -0.2580    1.6339 H   0  0  0  0  0  0  0  0  0  0  0  0
   -7.4820    0.0959    1.0557 H   0  0  0  0  0  0  0  0  0  0  0  0
   -6.8433    1.5956    1.7634 H   0  0  0  0  0  0  0  0  0  0  0  0
   -7.0929    1.4455    0.0057 H   0  0  0  0  0  0  0  0  0  0  0  0
    0.3438    1.2664    0.8164 H   0  0  0  0  0  0  0  0  0  0  0  0
    3.3170   -1.4444   -0.6883 H   0  0  0  0  0  0  0  0  0  0  0  0
    3.7335   -0.1351    2.0689 H   0  0  0  0  0  0  0  0  0  0  0  0
    5.0303   -0.9920    1.2871 H   0  0  0  0  0  0  0  0  0  0  0  0
    1.5064   -0.3596    1.3712 H   0  0  0  0  0  0  0  0  0  0  0  0
   -3.8943    2.8958   -0.6771 H   0  0  0  0  0  0  0  0  0  0  0  0
   -0.7453   -2.5628   -1.3108 H   0  0  0  0  0  0  0  0  0  0  0  0
    6.0981   -0.1872   -0.7444 H   0  0  0  0  0  0  0  0  0  0  0  0
    2.8819    1.9859    1.1250 H   0  0  0  0  0  0  0  0  0  0  0  0
    6.6745    1.8183   -2.0701 H   0  0  0  0  0  0  0  0  0  0  0  0
    3.4637    3.9834   -0.2083 H   0  0  0  0  0  0  0  0  0  0  0  0
    5.3598    3.9053   -1.8063 H   0  0  0  0  0  0  0  0  0  0  0  0
    2.1373   -4.1149    1.8907 H   0  0  0  0  0  0  0  0  0  0  0  0
  1 15  1  0  0  0  0
  2 11  1  0  0  0  0
  2 18  1  0  0  0  0
  3 10  1  0  0  0  0
  3 40  1  0  0  0  0
  4 14  1  0  0  0  0
  4 41  1  0  0  0  0
  5 18  2  0  0  0  0
  6 22  2  0  0  0  0
  7 24  1  0  0  0  0
  7 47  1  0  0  0  0
  8 24  2  0  0  0  0
  9 20  1  0  0  0  0
  9 22  1  0  0  0  0
  9 39  1  0  0  0  0
 10 11  1  0  0  0  0
 10 12  1  0  0  0  0
 10 30  1  0  0  0  0
 11 17  1  0  0  0  0
 11 31  1  0  0  0  0
 12 13  1  0  0  0  0
 12 15  2  0  0  0  0
 13 14  2  0  0  0  0
 13 18  1  0  0  0  0
 14 16  1  0  0  0  0
 15 19  1  0  0  0  0
 16 19  2  0  0  0  0
 16 22  1  0  0  0  0
 17 32  1  0  0  0  0
 17 33  1  0  0  0  0
 17 34  1  0  0  0  0
 19 35  1  0  0  0  0
 20 21  1  0  0  0  0
 20 24  1  0  0  0  0
 20 36  1  0  0  0  0
 21 23  1  0  0  0  0
 21 37  1  0  0  0  0
 21 38  1  0  0  0  0
 23 25  2  0  0  0  0
 23 26  1  0  0  0  0
 25 27  1  0  0  0  0
 25 42  1  0  0  0  0
 26 28  2  0  0  0  0
 26 43  1  0  0  0  0
 27 29  2  0  0  0  0
 27 44  1  0  0  0  0
 28 29  1  0  0  0  0
 28 45  1  0  0  0  0
 29 46  1  0  0  0  0
M  END
> <PUBCHEM_COMPOUND_CID>
114713

> <PUBCHEM_CONFORMER_RMSD>
0.8

> <PUBCHEM_CONFORMER_DIVERSEORDER>
4
73
79
44
71
43
35
60
14
27
39
80
11
25
57
70
75
62
61
30
13
56
78
10
59
19
65
77
69
47
46
23
16
76
51
29
17
50
68
2
42
36
32
49
34
8
33
67
66
58
72
24
55
12
18
74
53
45
48
5
64
63
15
41
31
40
28
9
20
21
6
22
52
1
38
26
7
3
54
37
81

> <PUBCHEM_MMFF94_PARTIAL_CHARGES>
38
1 -0.18
10 0.42
11 0.28
12 -0.14
13 0.09
14 0.08
15 0.18
16 0.09
18 0.63
19 -0.15
2 -0.43
20 0.36
21 0.14
22 0.54
23 -0.14
24 0.66
25 -0.15
26 -0.15
27 -0.15
28 -0.15
29 -0.15
3 -0.68
35 0.15
39 0.37
4 -0.53
40 0.4
41 0.45
42 0.15
43 0.15
44 0.15
45 0.15
46 0.15
47 0.5
5 -0.57
6 -0.57
7 -0.65
8 -0.57
9 -0.73

> <PUBCHEM_EFFECTIVE_ROTOR_COUNT>
6.6

> <PUBCHEM_PHARMACOPHORE_FEATURES>
12
1 3 acceptor
1 3 donor
1 4 donor
1 5 acceptor
1 6 acceptor
1 7 acceptor
1 8 acceptor
1 9 donor
3 7 8 24 anion
6 12 13 14 15 16 19 rings
6 2 10 11 12 13 18 rings
6 23 25 26 27 28 29 rings

> <PUBCHEM_HEAVY_ATOM_COUNT>
29

> <PUBCHEM_ATOM_DEF_STEREO_COUNT>
3

> <PUBCHEM_ATOM_UDEF_STEREO_COUNT>
0

> <PUBCHEM_BOND_DEF_STEREO_COUNT>
0

> <PUBCHEM_BOND_UDEF_STEREO_COUNT>
0

> <PUBCHEM_ISOTOPIC_ATOM_COUNT>
0

> <PUBCHEM_COMPONENT_COUNT>
1

> <PUBCHEM_CACTVS_TAUTO_COUNT>
9

> <PUBCHEM_CONFORMER_ID>
0001C01900000004

> <PUBCHEM_MMFF94_ENERGY>
87.6111

> <PUBCHEM_FEATURE_SELFOVERLAP>
60.986

> <PUBCHEM_SHAPE_FINGERPRINT>
10090160 65 18260260884700796874
10165383 225 17822303401121159670
10554248 39 18199737064891483655
10670039 82 18059586763022228016
10759866 29 18411699881127453410
10906281 52 18131081415928206139
11578080 2 17896027759448735421
12107183 9 17835519319278394072
12236239 1 18410576209976237181
12390115 104 16916521229270454929
12596602 18 18186523185699138835
12616971 3 18336817624316483570
12788726 201 17918000425566746841
13009979 54 17914613848628645058
13140716 1 18060126640653454483
13533116 47 18335140851861928346
13583140 156 17898015620546969235
1361 2 18189899897303602484
13782708 43 14189288326784084437
14528608 73 18339079397313307500
14787075 74 18411134783679860707
14790565 3 18201723976744584937
14840074 17 18261960742399360181
14849402 71 18260829285685355946
15142526 21 18188770699108822290
15183329 4 17916885568701193468
15250474 111 18341879822969297767
15575132 122 18409450293138160021
15685185 35 17827933041836438604
17844677 252 18263647264545124105
19319366 153 18409724076012825938
20465049 17 18338530681461377132
20715895 44 17908415862707301337
21033648 29 16370711647801439732
21781055 127 16772686403099611355
21792964 463 18043274399342945117
21814621 53 17241329050185097769
21857420 4 14685480465363142780
23522609 53 18129681746010851945
23559900 14 17703231689715899086
23845131 108 18041001799603304778
25147074 1 18272925029939497639
38570 142 18263659480017423342
397830 11 17749686159585212209
474 4 18260546762414566272
504579 68 18342728641877229863
5104073 3 18272925008306782859
5312544 6 18409728465426710522
6034566 193 17389116838751607804
67856867 119 18411128122401765106

> <PUBCHEM_SHAPE_MULTIPOLES>
552.61
14.92
3.69
1.38
3.45
0.69
-0.06
-6.89
-1.44
-4.31
0.56
-0.16
0.23
-3.64

> <PUBCHEM_SHAPE_SELFOVERLAP>
1190.679

> <PUBCHEM_SHAPE_VOLUME>
302.2

> <PUBCHEM_COORDINATE_TYPE>
2
5
10

$$$$
