REMARK  Name = 114769
REMARK  5 active torsions:
REMARK  status: ('A' for Active; 'I' for Inactive)
REMARK    1  A    between atoms: N_1  and  C_13
REMARK    2  A    between atoms: C_13  and  C_14
REMARK    3  A    between atoms: C_14  and  O_15
REMARK    4  A    between atoms: C_14  and  C_17
REMARK    5  A    between atoms: C_17  and  O_18
REMARK                            x       y       z     vdW  Elec       q    Type
REMARK                         _______ _______ _______ _____ _____    ______ ____
ROOT
ATOM      1  N   UNL     1      -0.389   0.516   0.621  0.00  0.00    -0.269 N 
ATOM      2  N   UNL     1       1.289   1.881   0.080  0.00  0.00    -0.242 NA
ATOM      3  N   UNL     1       0.724  -1.629   0.377  0.00  0.00    -0.228 NA
ATOM      4  N   UNL     1       3.049  -1.349  -0.310  0.00  0.00    -0.229 NA
ATOM      5  C   UNL     1       0.678  -0.289   0.340  0.00  0.00    +0.151 C 
ATOM      6  C   UNL     1       1.708   0.576   0.008  0.00  0.00    +0.140 C 
ATOM      7  C   UNL     1       0.027   1.810   0.450  0.00  0.00    +0.221 C 
ATOM      8  C   UNL     1       2.930   0.000  -0.326  0.00  0.00    +0.143 C 
ATOM      9  C   UNL     1       1.954  -2.070   0.036  0.00  0.00    +0.253 C 
ATOM     10  N   UNL     1       4.030   0.802  -0.675  0.00  0.00    -0.342 N 
ATOM     11  H   UNL     1       4.890   0.384  -0.909  0.00  0.00    +0.144 HD
ATOM     12  H   UNL     1       3.941   1.783  -0.685  0.00  0.00    +0.144 HD
ENDROOT
BRANCH   1  13
ATOM     13  C   UNL     1      -1.710   0.095   1.021  0.00  0.00    +0.126 C 
BRANCH  13  14
ATOM     14  C   UNL     1      -2.638  -0.127  -0.174  0.00  0.00    +0.159 C 
BRANCH  14  15
ATOM     15  O   UNL     1      -2.778   1.111  -0.875  0.00  0.00    -0.380 OA
ATOM     16  H   UNL     1      -1.907   1.413  -1.174  0.00  0.00    +0.211 HD
ENDBRANCH  14  15
BRANCH  14  17
ATOM     17  C   UNL     1      -4.020  -0.581   0.285  0.00  0.00    +0.168 C 
BRANCH  17  18
ATOM     18  O   UNL     1      -4.853  -0.746  -0.857  0.00  0.00    -0.379 OA
ATOM     19  H   UNL     1      -5.735  -1.035  -0.575  0.00  0.00    +0.211 HD
ENDBRANCH  17  18
ENDBRANCH  14  17
ENDBRANCH  13  14
ENDBRANCH   1  13
TORSDOF 5
