REMARK  Name = 11486133
REMARK  10 active torsions:
REMARK  status: ('A' for Active; 'I' for Inactive)
REMARK    1  A    between atoms: C_1  and  C_16
REMARK    2  A    between atoms: C_2  and  C_8
REMARK    3  A    between atoms: N_7  and  O_14
REMARK    4  A    between atoms: C_8  and  C_11
REMARK    5  A    between atoms: C_16  and  O_17
REMARK    6  A    between atoms: O_17  and  N_18
REMARK    7  A    between atoms: C_19  and  C_22
REMARK    8  A    between atoms: N_21  and  O_28
REMARK    9  A    between atoms: C_22  and  C_24
REMARK   10  A    between atoms: N_23  and  O_26
REMARK                            x       y       z     vdW  Elec       q    Type
REMARK                         _______ _______ _______ _____ _____    ______ ____
ROOT
ATOM      1  C   UNL     1      -2.756   1.272  -0.437  0.00  0.00    +0.026 C 
ATOM      2  C   UNL     1      -3.298   0.113   0.119  0.00  0.00    +0.025 C 
ATOM      3  C   UNL     1      -3.489   2.459  -0.427  0.00  0.00    -0.001 C 
ATOM      4  C   UNL     1      -4.573   0.141   0.685  0.00  0.00    +0.002 C 
ATOM      5  C   UNL     1      -4.763   2.487   0.139  0.00  0.00    -0.000 C 
ATOM      6  C   UNL     1      -5.305   1.328   0.695  0.00  0.00    +0.000 C 
ENDROOT
BRANCH   2   8
ATOM      7  N   UNL     1      -2.639  -2.003  -0.866  0.00  0.00    -0.078 NA
ATOM      8  C   UNL     1      -2.555  -1.140   0.122  0.00  0.00    +0.172 C 
BRANCH   8  11
ATOM      9  O   UNL     1      -2.140  -1.575   2.402  0.00  0.00    -0.268 OA
ATOM     10  N   UNL     1      -0.332  -1.647   0.904  0.00  0.00    -0.298 N 
ATOM     11  C   UNL     1      -1.642  -1.477   1.292  0.00  0.00    +0.267 C 
ATOM     12  C   UNL     1       0.721  -1.993   1.830  0.00  0.00    +0.111 C 
ATOM     13  H   UNL     1      -0.103  -1.527  -0.046  0.00  0.00    +0.150 HD
ENDBRANCH   8  11
BRANCH   7  14
ATOM     14  O   UNL     1      -3.502  -1.581  -1.887  0.00  0.00    -0.373 OA
ATOM     15  C   UNL     1      -3.515  -2.581  -2.894  0.00  0.00    +0.288 C 
ENDBRANCH   7  14
ENDBRANCH   2   8
BRANCH   1  16
ATOM     16  C   UNL     1      -1.387   1.270  -1.052  0.00  0.00    +0.265 C 
BRANCH  16  17
ATOM     17  O   UNL     1      -0.431   1.589  -0.053  0.00  0.00    -0.373 OA
BRANCH  17  18
ATOM     18  N   UNL     1       0.823   1.146  -0.493  0.00  0.00    -0.085 NA
ATOM     19  C   UNL     1       1.733   1.415   0.387  0.00  0.00    +0.119 C 
ATOM     20  C   UNL     1       1.530   2.105   1.703  0.00  0.00    +0.057 C 
BRANCH  19  22
ATOM     21  N   UNL     1       3.838   1.882  -0.596  0.00  0.00    -0.080 NA
ATOM     22  C   UNL     1       3.132   1.005   0.045  0.00  0.00    +0.153 C 
BRANCH  22  24
ATOM     23  N   UNL     1       3.534  -1.287  -0.444  0.00  0.00    -0.086 NA
ATOM     24  C   UNL     1       3.678  -0.339   0.425  0.00  0.00    +0.119 C 
ATOM     25  C   UNL     1       4.356  -0.441   1.759  0.00  0.00    +0.057 C 
BRANCH  23  26
ATOM     26  O   UNL     1       4.101  -2.477   0.030  0.00  0.00    -0.373 OA
ATOM     27  C   UNL     1       3.914  -3.478  -0.959  0.00  0.00    +0.288 C 
ENDBRANCH  23  26
ENDBRANCH  22  24
BRANCH  21  28
ATOM     28  O   UNL     1       5.126   1.399  -0.864  0.00  0.00    -0.373 OA
ATOM     29  C   UNL     1       5.840   2.406  -1.564  0.00  0.00    +0.288 C 
ENDBRANCH  21  28
ENDBRANCH  19  22
ENDBRANCH  17  18
ENDBRANCH  16  17
ENDBRANCH   1  16
TORSDOF 10
