REMARK  Name = 114833
REMARK  7 active torsions:
REMARK  status: ('A' for Active; 'I' for Inactive)
REMARK    1  A    between atoms: C_18  and  O_21
REMARK    2  A    between atoms: O_21  and  C_23
REMARK    3  A    between atoms: C_24  and  O_28
REMARK    4  A    between atoms: C_25  and  O_30
REMARK    5  A    between atoms: C_26  and  C_35
REMARK    6  A    between atoms: C_27  and  O_32
REMARK    7  A    between atoms: C_35  and  O_36
REMARK                            x       y       z     vdW  Elec       q    Type
REMARK                         _______ _______ _______ _____ _____    ______ ____
ROOT
ATOM      1  O   UNL     1      -7.396  -2.159  -0.599  0.00  0.00    -0.296 OA
ATOM      2  C   UNL     1      -2.717  -0.077   0.437  0.00  0.00    +0.000 C 
ATOM      3  C   UNL     1      -1.488   0.654   1.094  0.00  0.00    +0.000 C 
ATOM      4  C   UNL     1      -3.667   0.926  -0.300  0.00  0.00    +0.000 C 
ATOM      5  C   UNL     1      -4.799   0.122  -0.946  0.00  0.00    +0.007 C 
ATOM      6  C   UNL     1      -0.758   1.446  -0.040  0.00  0.00    +0.002 C 
ATOM      7  C   UNL     1      -5.630  -0.640   0.106  0.00  0.00    +0.052 C 
ATOM      8  C   UNL     1      -3.492  -1.022   1.396  0.00  0.00    +0.000 C 
ATOM      9  C   UNL     1      -2.901   1.762  -1.334  0.00  0.00    +0.000 C 
ATOM     10  C   UNL     1      -1.680   2.455  -0.734  0.00  0.00    +0.000 C 
ATOM     11  C   UNL     1      -4.725  -1.684   0.751  0.00  0.00    +0.007 C 
ATOM     12  C   UNL     1      -0.480  -0.379   1.672  0.00  0.00    +0.002 C 
ATOM     13  C   UNL     1      -5.841   0.830  -1.805  0.00  0.00    +0.008 C 
ATOM     14  C   UNL     1       0.543   2.112   0.438  0.00  0.00    +0.030 C 
ATOM     15  C   UNL     1      -1.952   1.583   2.246  0.00  0.00    +0.000 C 
ATOM     16  C   UNL     1      -6.721  -1.161  -0.813  0.00  0.00    +0.150 C 
ATOM     17  C   UNL     1       0.844   0.245   2.132  0.00  0.00    +0.030 C 
ATOM     18  C   UNL     1       1.506   1.093   1.049  0.00  0.00    +0.118 C 
ATOM     19  C   UNL     1      -6.895  -0.265  -2.028  0.00  0.00    +0.064 C 
ATOM     20  C   UNL     1      -6.331   0.227   1.169  0.00  0.00    +0.007 C 
ENDROOT
BRANCH  18  21
ATOM     21  O   UNL     1       1.991   0.219   0.030  0.00  0.00    -0.331 OA
BRANCH  21  23
ATOM     22  O   UNL     1       4.262   0.684  -0.238  0.00  0.00    -0.317 OA
ATOM     23  C   UNL     1       3.316  -0.228   0.316  0.00  0.00    +0.266 C 
ATOM     24  C   UNL     1       3.490  -1.615  -0.301  0.00  0.00    +0.196 C 
ATOM     25  C   UNL     1       4.929  -2.110  -0.156  0.00  0.00    +0.172 C 
ATOM     26  C   UNL     1       5.605   0.302   0.034  0.00  0.00    +0.245 C 
ATOM     27  C   UNL     1       5.932  -1.044  -0.600  0.00  0.00    +0.178 C 
BRANCH  24  28
ATOM     28  O   UNL     1       2.610  -2.517   0.369  0.00  0.00    -0.378 OA
ATOM     29  H   UNL     1       1.696  -2.205   0.278  0.00  0.00    +0.211 HD
ENDBRANCH  24  28
BRANCH  25  30
ATOM     30  O   UNL     1       5.122  -3.265  -0.974  0.00  0.00    -0.379 OA
ATOM     31  H   UNL     1       4.495  -3.956  -0.710  0.00  0.00    +0.211 HD
ENDBRANCH  25  30
BRANCH  27  32
ATOM     32  O   UNL     1       7.242  -1.437  -0.191  0.00  0.00    -0.379 OA
ATOM     33  H   UNL     1       7.461  -2.294  -0.589  0.00  0.00    +0.211 HD
ENDBRANCH  27  32
BRANCH  26  35
ATOM     34  O   UNL     1       5.942   2.335  -1.222  0.00  0.00    -0.247 OA
ATOM     35  C   UNL     1       6.407   1.397  -0.591  0.00  0.00    +0.344 C 
BRANCH  35  36
ATOM     36  O   UNL     1       7.730   1.210  -0.367  0.00  0.00    -0.478 OA
ATOM     37  H   UNL     1       8.022   0.468   0.126  0.00  0.00    +0.295 HD
ENDBRANCH  35  36
ENDBRANCH  26  35
ENDBRANCH  21  23
ENDBRANCH  18  21
TORSDOF 7
