114821
  -OEChem-03292013323D

 29 30  0     0  0  0  0  0  0999 V2000
    0.6468    2.3134   -0.1820 S   0  0  0  0  0  0  0  0  0  0  0  0
    0.3322    3.5128    0.5853 O   0  0  0  0  0  0  0  0  0  0  0  0
    0.9821    2.4509   -1.5941 O   0  0  0  0  0  0  0  0  0  0  0  0
    2.4350   -1.6222   -0.9569 O   0  0  0  0  0  0  0  0  0  0  0  0
   -4.2340   -2.3755   -0.6162 O   0  0  0  0  0  0  0  0  0  0  0  0
    1.9126    1.4746    0.6320 N   0  0  0  0  0  0  0  0  0  0  0  0
    2.1082   -0.2726   -1.0111 N   0  0  0  0  0  0  0  0  0  0  0  0
   -3.9522   -1.4211    0.3281 N   0  0  0  0  0  0  0  0  0  0  0  0
   -0.7034    1.2167   -0.0323 C   0  0  0  0  0  0  0  0  0  0  0  0
   -1.5586    1.3093    1.0659 C   0  0  0  0  0  0  0  0  0  0  0  0
   -0.9271    0.2478   -1.0106 C   0  0  0  0  0  0  0  0  0  0  0  0
    2.1829    0.1162    0.2444 C   0  0  0  0  0  0  0  0  0  0  0  0
   -2.8608   -0.5356    0.2077 C   0  0  0  0  0  0  0  0  0  0  0  0
   -2.6372    0.4331    1.1858 C   0  0  0  0  0  0  0  0  0  0  0  0
   -2.0058   -0.6283   -0.8905 C   0  0  0  0  0  0  0  0  0  0  0  0
    2.5376   -0.8773    1.1422 C   0  0  0  0  0  0  0  0  0  0  0  0
    2.6886   -1.9704    0.3305 C   0  0  0  0  0  0  0  0  0  0  0  0
    3.0530   -3.3718    0.5718 C   0  0  0  0  0  0  0  0  0  0  0  0
    2.0548    1.6981    1.6256 H   0  0  0  0  0  0  0  0  0  0  0  0
   -1.3997    2.0509    1.8437 H   0  0  0  0  0  0  0  0  0  0  0  0
   -0.2999    0.1724   -1.8933 H   0  0  0  0  0  0  0  0  0  0  0  0
   -3.2956    0.5141    2.0470 H   0  0  0  0  0  0  0  0  0  0  0  0
   -2.1621   -1.3696   -1.6696 H   0  0  0  0  0  0  0  0  0  0  0  0
    2.6683   -0.8303    2.2131 H   0  0  0  0  0  0  0  0  0  0  0  0
    3.2396   -3.5542    1.6347 H   0  0  0  0  0  0  0  0  0  0  0  0
    2.2480   -4.0396    0.2498 H   0  0  0  0  0  0  0  0  0  0  0  0
    3.9600   -3.6344    0.0187 H   0  0  0  0  0  0  0  0  0  0  0  0
   -4.5801   -1.3539    1.1191 H   0  0  0  0  0  0  0  0  0  0  0  0
   -4.1247   -3.1973   -0.1083 H   0  0  0  0  0  0  0  0  0  0  0  0
  1  2  2  0  0  0  0
  1  3  2  0  0  0  0
  1  6  1  0  0  0  0
  1  9  1  0  0  0  0
  4  7  1  0  0  0  0
  4 17  1  0  0  0  0
  5  8  1  0  0  0  0
  5 29  1  0  0  0  0
  6 12  1  0  0  0  0
  6 19  1  0  0  0  0
  7 12  2  0  0  0  0
  8 13  1  0  0  0  0
  8 28  1  0  0  0  0
  9 10  2  0  0  0  0
  9 11  1  0  0  0  0
 10 14  1  0  0  0  0
 10 20  1  0  0  0  0
 11 15  2  0  0  0  0
 11 21  1  0  0  0  0
 12 16  1  0  0  0  0
 13 14  2  0  0  0  0
 13 15  1  0  0  0  0
 14 22  1  0  0  0  0
 15 23  1  0  0  0  0
 16 17  2  0  0  0  0
 16 24  1  0  0  0  0
 17 18  1  0  0  0  0
 18 25  1  0  0  0  0
 18 26  1  0  0  0  0
 18 27  1  0  0  0  0
M  END
> <PUBCHEM_COMPOUND_CID>
114821

> <PUBCHEM_CONFORMER_RMSD>
0.6

> <PUBCHEM_CONFORMER_DIVERSEORDER>
2
13
20
8
9
12
6
7
25
26
18
3
21
24
1
10
14
23
5
27
16
11
4
15
19
28
22
17

> <PUBCHEM_MMFF94_PARTIAL_CHARGES>
26
1 1.45
10 -0.15
11 -0.15
12 0.43
13 0.1
14 -0.15
15 -0.15
16 -0.15
17 -0.04
18 0.18
19 0.42
2 -0.65
20 0.15
21 0.15
22 0.15
23 0.15
24 0.15
28 0.4
29 0.4
3 -0.65
4 -0.02
5 -0.38
6 -0.7
7 -0.41
8 -0.52
9 -0.01

> <PUBCHEM_EFFECTIVE_ROTOR_COUNT>
4

> <PUBCHEM_PHARMACOPHORE_FEATURES>
7
1 2 acceptor
1 3 acceptor
1 5 anion
1 6 donor
1 7 acceptor
5 4 7 12 16 17 rings
6 9 10 11 13 14 15 rings

> <PUBCHEM_HEAVY_ATOM_COUNT>
18

> <PUBCHEM_ATOM_DEF_STEREO_COUNT>
0

> <PUBCHEM_ATOM_UDEF_STEREO_COUNT>
0

> <PUBCHEM_BOND_DEF_STEREO_COUNT>
0

> <PUBCHEM_BOND_UDEF_STEREO_COUNT>
0

> <PUBCHEM_ISOTOPIC_ATOM_COUNT>
0

> <PUBCHEM_COMPONENT_COUNT>
1

> <PUBCHEM_CACTVS_TAUTO_COUNT>
2

> <PUBCHEM_CONFORMER_ID>
0001C08500000002

> <PUBCHEM_MMFF94_ENERGY>
29.4382

> <PUBCHEM_FEATURE_SELFOVERLAP>
35.54

> <PUBCHEM_SHAPE_FINGERPRINT>
10618630 7 18263926536208925578
12400797 245 18343012302986999318
12553582 1 18337963285262502946
13533116 47 18265904738749566635
14817 1 17767978527829705380
15422964 175 18337662049230687338
16945 1 18196920278714116773
18522851 12 18193297224834080442
20291156 8 18338239266949616314
20361792 2 18187931625180550084
20559304 39 18129105691679283929
20645477 70 18117269479487816671
21452121 199 18187355498715805810
21665056 4 17184179544706767198
21731516 1 18263369096640308370
22445834 79 18271529800811987625
2255824 54 18118972630945643757
23530152 11 17543072728530590052
23728640 28 17255672002552914802
257057 1 18337947896436671496
3060560 45 17609499680536490836
598444 67 17048252428080753013
7097593 13 18341904008419998513
7364860 26 18197783408189938448
81228 2 17975964376412268696

> <PUBCHEM_SHAPE_MULTIPOLES>
335.86
5.95
3.54
1.22
1.55
0.62
0.11
-6.67
-0.74
-0.78
0.04
0.02
0.23
-0.77

> <PUBCHEM_SHAPE_SELFOVERLAP>
699.884

> <PUBCHEM_SHAPE_VOLUME>
191.4

> <PUBCHEM_COORDINATE_TYPE>
2
5
10

$$$$
