REMARK  Name = 11488385
REMARK  14 active torsions:
REMARK  status: ('A' for Active; 'I' for Inactive)
REMARK    1  A    between atoms: C_3  and  O_11
REMARK    2  A    between atoms: C_4  and  C_30
REMARK    3  A    between atoms: C_5  and  O_13
REMARK    4  A    between atoms: C_8  and  O_15
REMARK    5  A    between atoms: O_15  and  C_17
REMARK    6  A    between atoms: C_17  and  C_18
REMARK    7  A    between atoms: C_19  and  C_20
REMARK    8  A    between atoms: C_21  and  C_22
REMARK    9  A    between atoms: C_23  and  C_24
REMARK   10  A    between atoms: C_25  and  C_27
REMARK   11  A    between atoms: C_27  and  O_28
REMARK   12  A    between atoms: C_30  and  O_31
REMARK   13  A    between atoms: C_30  and  C_33
REMARK   14  A    between atoms: C_33  and  C_34
REMARK                            x       y       z     vdW  Elec       q    Type
REMARK                         _______ _______ _______ _____ _____    ______ ____
ROOT
ATOM      1  O   UNL     1       4.852   0.438   2.229  0.00  0.00    -0.354 OA
ATOM      2  C   UNL     1       3.680  -0.613   0.464  0.00  0.00    +0.085 C 
ATOM      3  C   UNL     1       3.557  -1.458   1.724  0.00  0.00    +0.120 C 
ATOM      4  C   UNL     1       4.871   0.303   0.779  0.00  0.00    +0.122 C 
ATOM      5  C   UNL     1       3.643  -1.475  -0.795  0.00  0.00    +0.160 C 
ATOM      6  C   UNL     1       2.224  -2.197   1.749  0.00  0.00    +0.033 C 
ATOM      7  C   UNL     1       3.801  -0.397   2.777  0.00  0.00    +0.169 C 
ATOM      8  C   UNL     1       2.336  -2.299  -0.832  0.00  0.00    +0.196 C 
ATOM      9  C   UNL     1       2.053  -3.059   0.478  0.00  0.00    +0.049 C 
ATOM     10  C   UNL     1       6.242  -0.235   0.366  0.00  0.00    +0.032 C 
ENDROOT
BRANCH   3  11
ATOM     11  O   UNL     1       4.614  -2.411   1.863  0.00  0.00    -0.384 OA
ATOM     12  H   UNL     1       4.502  -3.116   1.207  0.00  0.00    +0.210 HD
ENDBRANCH   3  11
BRANCH   5  13
ATOM     13  O   UNL     1       3.739  -0.668  -1.963  0.00  0.00    -0.350 OA
ATOM     14  C   UNL     1       3.706  -1.456  -3.145  0.00  0.00    +0.174 C 
ENDBRANCH   5  13
BRANCH   8  15
ATOM     15  O   UNL     1       1.223  -1.448  -1.122  0.00  0.00    -0.447 OA
BRANCH  15  17
ATOM     16  O   UNL     1      -0.180  -3.218  -1.608  0.00  0.00    -0.245 OA
ATOM     17  C   UNL     1       0.021  -2.075  -1.230  0.00  0.00    +0.341 C 
BRANCH  17  18
ATOM     18  C   UNL     1      -1.023  -1.119  -0.800  0.00  0.00    +0.082 C 
ATOM     19  C   UNL     1      -2.311  -1.490  -0.808  0.00  0.00    +0.007 C 
BRANCH  19  20
ATOM     20  C   UNL     1      -3.381  -0.606  -0.401  0.00  0.00    +0.000 C 
ATOM     21  C   UNL     1      -4.673  -0.971  -0.406  0.00  0.00    +0.000 C 
BRANCH  21  22
ATOM     22  C   UNL     1      -5.782  -0.118  -0.036  0.00  0.00    +0.000 C 
ATOM     23  C   UNL     1      -7.073  -0.484  -0.042  0.00  0.00    +0.000 C 
BRANCH  23  24
ATOM     24  C   UNL     1      -8.149   0.418   0.309  0.00  0.00    +0.007 C 
ATOM     25  C   UNL     1      -9.437   0.044   0.300  0.00  0.00    +0.082 C 
BRANCH  25  27
ATOM     26  O   UNL     1     -10.393   2.106   0.984  0.00  0.00    -0.245 OA
ATOM     27  C   UNL     1     -10.556   0.940   0.653  0.00  0.00    +0.338 C 
BRANCH  27  28
ATOM     28  O   UNL     1     -11.762   0.336   0.572  0.00  0.00    -0.477 OA
ATOM     29  H   UNL     1     -11.819  -0.562   0.312  0.00  0.00    +0.295 HD
ENDBRANCH  27  28
ENDBRANCH  25  27
ENDBRANCH  23  24
ENDBRANCH  21  22
ENDBRANCH  19  20
ENDBRANCH  17  18
ENDBRANCH  15  17
ENDBRANCH   8  15
BRANCH   4  30
ATOM     30  C   UNL     1       4.684   1.706   0.191  0.00  0.00    +0.140 C 
BRANCH  30  31
ATOM     31  O   UNL     1       5.850   2.469   0.485  0.00  0.00    -0.382 OA
ATOM     32  H   UNL     1       6.626   2.035   0.098  0.00  0.00    +0.210 HD
ENDBRANCH  30  31
BRANCH  30  33
ATOM     33  C   UNL     1       3.463   2.392   0.803  0.00  0.00    +0.057 C 
BRANCH  33  34
ATOM     34  C   UNL     1       3.284   3.784   0.260  0.00  0.00    -0.032 C 
ATOM     35  C   UNL     1       2.584   4.157  -0.828  0.00  0.00    -0.048 C 
ATOM     36  C   UNL     1       2.442   5.570  -1.320  0.00  0.00    +0.026 C 
ATOM     37  C   UNL     1       1.851   3.133  -1.653  0.00  0.00    +0.026 C 
ENDBRANCH  33  34
ENDBRANCH  30  33
ENDBRANCH   4  30
TORSDOF 14
