REMARK  Name = 114854
REMARK  8 active torsions:
REMARK  status: ('A' for Active; 'I' for Inactive)
REMARK    1  A    between atoms: N_1  and  C1*_12
REMARK    2  A    between atoms: C2*_11  and  O2*_15
REMARK    3  A    between atoms: C3*_13  and  O3*_17
REMARK    4  A    between atoms: C4*_14  and  C5*_19
REMARK    5  A    between atoms: C5*_19  and  O5*_20
REMARK    6  A    between atoms: N_22  and  C_24
REMARK    7  A    between atoms: C_24  and  C_26
REMARK    8  A    between atoms: C_26  and  C_27
REMARK                            x       y       z     vdW  Elec       q    Type
REMARK                         _______ _______ _______ _____ _____    ______ ____
ROOT
ATOM      1  N   UNL     1       2.091  -0.012  -0.041  0.00  0.00    -0.247 N 
ATOM      2  N   UNL     1       0.331  -0.660   1.169  0.00  0.00    -0.242 NA
ATOM      3  N   UNL     1       1.101   1.850  -1.247  0.00  0.00    -0.228 NA
ATOM      4  N   UNL     1      -1.240   2.163  -0.632  0.00  0.00    -0.228 NA
ATOM      5  C   UNL     1       1.069   0.833  -0.373  0.00  0.00    +0.152 C 
ATOM      6  C   UNL     1       1.597  -0.891   0.888  0.00  0.00    +0.223 C 
ATOM      7  C   UNL     1      -0.012   0.415   0.388  0.00  0.00    +0.140 C 
ATOM      8  C   UNL     1      -1.200   1.123   0.235  0.00  0.00    +0.146 C 
ATOM      9  C   UNL     1      -0.104   2.458  -1.309  0.00  0.00    +0.253 C 
ATOM     10  N   UNL     1      -2.345   0.769   0.969  0.00  0.00    -0.318 N 
ATOM     11  H   UNL     1      -2.287   0.009   1.592  0.00  0.00    +0.148 HD
ENDROOT
BRANCH   1  14
ATOM     12  O4* UNL     1       3.970  -1.336  -0.630  0.00  0.00    -0.333 OA
ATOM     13  C2* UNL     1       4.435   0.801   0.279  0.00  0.00    +0.187 C 
ATOM     14  C1* UNL     1       3.453   0.008  -0.569  0.00  0.00    +0.225 C 
ATOM     15  C3* UNL     1       5.752   0.150  -0.096  0.00  0.00    +0.171 C 
ATOM     16  C4* UNL     1       5.360  -1.318  -0.233  0.00  0.00    +0.175 C 
BRANCH  13  17
ATOM     17  O2* UNL     1       4.395   2.181  -0.022  0.00  0.00    -0.378 OA
ATOM     18  H2* UNL     1       3.534   2.544   0.238  0.00  0.00    +0.211 HD
ENDBRANCH  13  17
BRANCH  15  19
ATOM     19  O3* UNL     1       6.177   0.634  -1.370  0.00  0.00    -0.379 OA
ATOM     20  H3* UNL     1       6.428   1.568  -1.293  0.00  0.00    +0.211 HD
ENDBRANCH  15  19
BRANCH  16  21
ATOM     21  C5* UNL     1       5.497  -2.093   1.070  0.00  0.00    +0.169 C 
BRANCH  21  22
ATOM     22  O5* UNL     1       5.103  -3.435   0.843  0.00  0.00    -0.379 OA
ATOM     23  H5* UNL     1       5.186  -3.940   1.667  0.00  0.00    +0.211 HD
ENDBRANCH  21  22
ENDBRANCH  16  21
ENDBRANCH   1  14
BRANCH  10  24
ATOM     24  C   UNL     1      -3.594   1.462   0.851  0.00  0.00    +0.075 C 
ATOM     25  C   UNL     1      -3.502   2.765   1.640  0.00  0.00    +0.022 C 
BRANCH  24  26
ATOM     26  C   UNL     1      -4.740   0.585   1.377  0.00  0.00    +0.046 C 
BRANCH  26  27
ATOM     27  C   UNL     1      -5.189  -0.458   0.380  0.00  0.00    -0.021 C 
ATOM     28  C   UNL     1      -6.195  -0.146  -0.521  0.00  0.00    -0.004 C 
ATOM     29  C   UNL     1      -4.586  -1.705   0.384  0.00  0.00    -0.004 C 
ATOM     30  C   UNL     1      -6.609  -1.108  -1.442  0.00  0.00    -0.000 C 
ATOM     31  C   UNL     1      -5.001  -2.667  -0.537  0.00  0.00    -0.000 C 
ATOM     32  C   UNL     1      -6.013  -2.369  -1.450  0.00  0.00    -0.000 C 
ENDBRANCH  26  27
ENDBRANCH  24  26
ENDBRANCH  10  24
TORSDOF 8
