REMARK  Name = 11483087
REMARK  5 active torsions:
REMARK  status: ('A' for Active; 'I' for Inactive)
REMARK    1  A    between atoms: C_3  and  C_12
REMARK    2  A    between atoms: C_8  and  O_22
REMARK    3  A    between atoms: C_11  and  O_24
REMARK    4  A    between atoms: C_15  and  O_18
REMARK    5  A    between atoms: C_16  and  O_20
REMARK                            x       y       z     vdW  Elec       q    Type
REMARK                         _______ _______ _______ _____ _____    ______ ____
ROOT
ATOM      1  O   UNL     1       0.214  -0.781  -0.161  0.00  0.00    -0.474 OA
ATOM      2  O   UNL     1       1.920   2.947  -0.023  0.00  0.00    -0.291 OA
ATOM      3  C   UNL     1      -0.504   0.335   0.389  0.00  0.00    +0.196 C 
ATOM      4  C   UNL     1      -0.077   1.643  -0.275  0.00  0.00    +0.117 C 
ATOM      5  C   UNL     1       2.215   0.605  -0.001  0.00  0.00    +0.103 C 
ATOM      6  C   UNL     1       1.403   1.838  -0.070  0.00  0.00    +0.183 C 
ATOM      7  C   UNL     1       1.575  -0.636  -0.073  0.00  0.00    +0.148 C 
ATOM      8  C   UNL     1       3.607   0.677   0.091  0.00  0.00    +0.142 C 
ATOM      9  C   UNL     1       2.333  -1.807  -0.087  0.00  0.00    +0.074 C 
ATOM     10  C   UNL     1       4.358  -0.498   0.097  0.00  0.00    +0.073 C 
ATOM     11  C   UNL     1       3.724  -1.737   0.003  0.00  0.00    +0.140 C 
ENDROOT
BRANCH   3  12
ATOM     12  C   UNL     1      -1.986   0.088   0.205  0.00  0.00    +0.024 C 
ATOM     13  C   UNL     1      -2.814  -0.048   1.319  0.00  0.00    +0.036 C 
ATOM     14  C   UNL     1      -2.523  -0.003  -1.079  0.00  0.00    +0.036 C 
ATOM     15  C   UNL     1      -3.889  -0.231  -1.249  0.00  0.00    +0.136 C 
ATOM     16  C   UNL     1      -4.179  -0.276   1.149  0.00  0.00    +0.136 C 
ATOM     17  C   UNL     1      -4.717  -0.367  -0.135  0.00  0.00    +0.073 C 
BRANCH  15  18
ATOM     18  O   UNL     1      -4.413  -0.319  -2.502  0.00  0.00    -0.505 OA
ATOM     19  H   UNL     1      -3.857  -0.228  -3.251  0.00  0.00    +0.292 HD
ENDBRANCH  15  18
BRANCH  16  20
ATOM     20  O   UNL     1      -4.988  -0.409   2.236  0.00  0.00    -0.505 OA
ATOM     21  H   UNL     1      -4.627  -0.348   3.098  0.00  0.00    +0.292 HD
ENDBRANCH  16  20
ENDBRANCH   3  12
BRANCH   8  22
ATOM     22  O   UNL     1       4.279   1.860   0.169  0.00  0.00    -0.505 OA
ATOM     23  H   UNL     1       3.806   2.669   0.167  0.00  0.00    +0.292 HD
ENDBRANCH   8  22
BRANCH  11  24
ATOM     24  O   UNL     1       4.463  -2.881  -0.001  0.00  0.00    -0.505 OA
ATOM     25  H   UNL     1       4.037  -3.713  -0.064  0.00  0.00    +0.292 HD
ENDBRANCH  11  24
TORSDOF 5
