REMARK  Name = 11482553
REMARK  9 active torsions:
REMARK  status: ('A' for Active; 'I' for Inactive)
REMARK    1  A    between atoms: C_1  and  C_13
REMARK    2  A    between atoms: C_3  and  O_8
REMARK    3  A    between atoms: C_5  and  O_10
REMARK    4  A    between atoms: C_13  and  O_14
REMARK    5  A    between atoms: O_14  and  C_15
REMARK    6  A    between atoms: C_15  and  C_17
REMARK    7  A    between atoms: C_17  and  C_18
REMARK    8  A    between atoms: C_18  and  C_19
REMARK    9  A    between atoms: C_19  and  O_21
REMARK                            x       y       z     vdW  Elec       q    Type
REMARK                         _______ _______ _______ _____ _____    ______ ____
ROOT
ATOM      1  C   UNL     1       1.862   0.204   0.430  0.00  0.00    +0.105 C 
ATOM      2  C   UNL     1       2.561   1.127  -0.325  0.00  0.00    -0.010 C 
ATOM      3  C   UNL     1       2.331  -1.081   0.629  0.00  0.00    +0.143 C 
ATOM      4  C   UNL     1       3.774   0.751  -0.902  0.00  0.00    +0.033 C 
ATOM      5  C   UNL     1       4.265  -0.541  -0.714  0.00  0.00    +0.136 C 
ATOM      6  C   UNL     1       3.544  -1.457   0.052  0.00  0.00    +0.073 C 
ATOM      7  C   UNL     1       2.060   2.517  -0.544  0.00  0.00    +0.031 C 
ENDROOT
BRANCH   3   8
ATOM      8  O   UNL     1       1.643  -1.992   1.374  0.00  0.00    -0.505 OA
ATOM      9  H   UNL     1       0.827  -1.755   1.768  0.00  0.00    +0.292 HD
ENDBRANCH   3   8
BRANCH   5  10
ATOM     10  O   UNL     1       5.449  -0.908  -1.277  0.00  0.00    -0.505 OA
ATOM     11  H   UNL     1       5.933  -0.293  -1.792  0.00  0.00    +0.292 HD
ENDBRANCH   5  10
BRANCH   1  13
ATOM     12  O   UNL     1       0.483   1.087   2.164  0.00  0.00    -0.245 OA
ATOM     13  C   UNL     1       0.571   0.598   1.048  0.00  0.00    +0.344 C 
BRANCH  13  14
ATOM     14  O   UNL     1      -0.475   0.343   0.207  0.00  0.00    -0.437 OA
BRANCH  14  15
ATOM     15  C   UNL     1      -1.761   0.679   0.684  0.00  0.00    +0.272 C 
BRANCH  15  17
ATOM     16  O   UNL     1      -2.535  -0.168  -1.433  0.00  0.00    -0.292 OA
ATOM     17  C   UNL     1      -2.817   0.343  -0.348  0.00  0.00    +0.197 C 
BRANCH  17  18
ATOM     18  C   UNL     1      -4.258   0.638   0.025  0.00  0.00    +0.098 C 
BRANCH  18  19
ATOM     19  C   UNL     1      -5.206  -0.360  -0.632  0.00  0.00    +0.118 C 
ATOM     20  C   UNL     1      -6.648  -0.104  -0.217  0.00  0.00    +0.032 C 
BRANCH  19  21
ATOM     21  O   UNL     1      -4.841  -1.676  -0.221  0.00  0.00    -0.384 OA
ATOM     22  H   UNL     1      -3.923  -1.852  -0.479  0.00  0.00    +0.210 HD
ENDBRANCH  19  21
ENDBRANCH  18  19
ENDBRANCH  17  18
ENDBRANCH  15  17
ENDBRANCH  14  15
ENDBRANCH  13  14
ENDBRANCH   1  13
TORSDOF 9
