114813
  -OEChem-03292013323D

 44 45  0     0  0  0  0  0  0999 V2000
    4.1884   -1.8941   -0.1059 O   0  0  0  0  0  0  0  0  0  0  0  0
   -4.1875    1.8934   -0.1157 O   0  0  0  0  0  0  0  0  0  0  0  0
    6.9075   -2.0345   -0.1973 O   0  0  0  0  0  0  0  0  0  0  0  0
    5.1379    2.2369    0.1593 O   0  0  0  0  0  0  0  0  0  0  0  0
   -6.9070    2.0366   -0.1877 O   0  0  0  0  0  0  0  0  0  0  0  0
   -5.1391   -2.2370    0.1498 O   0  0  0  0  0  0  0  0  0  0  0  0
    5.6357   -0.0709    0.0272 N   0  0  0  0  0  0  0  0  0  0  0  0
   -5.6356    0.0714    0.0247 N   0  0  0  0  0  0  0  0  0  0  0  0
    0.6505    0.4016   -0.0331 C   0  0  0  0  0  0  0  0  0  0  0  0
   -0.6500   -0.4053   -0.0294 C   0  0  0  0  0  0  0  0  0  0  0  0
    1.8746   -0.5182    0.0030 C   0  0  0  0  0  0  0  0  0  0  0  0
   -1.8744    0.5153   -0.0251 C   0  0  0  0  0  0  0  0  0  0  0  0
    3.1880    0.2573    0.0299 C   0  0  0  0  0  0  0  0  0  0  0  0
   -3.1882   -0.2591    0.0099 C   0  0  0  0  0  0  0  0  0  0  0  0
    4.3696   -0.6795    0.0054 C   0  0  0  0  0  0  0  0  0  0  0  0
   -4.3690    0.6788   -0.0050 C   0  0  0  0  0  0  0  0  0  0  0  0
    7.9626    0.1212   -0.1767 C   0  0  0  0  0  0  0  0  0  0  0  0
    7.4002    1.4511    0.2730 C   0  0  0  0  0  0  0  0  0  0  0  0
   -7.9641   -0.1182   -0.1631 C   0  0  0  0  0  0  0  0  0  0  0  0
   -7.3998   -1.4494    0.2805 C   0  0  0  0  0  0  0  0  0  0  0  0
    6.7954   -0.8182   -0.1137 C   0  0  0  0  0  0  0  0  0  0  0  0
    5.9132    1.2905    0.1498 C   0  0  0  0  0  0  0  0  0  0  0  0
   -6.7955    0.8201   -0.1068 C   0  0  0  0  0  0  0  0  0  0  0  0
   -5.9135   -1.2899    0.1472 C   0  0  0  0  0  0  0  0  0  0  0  0
    0.6911    1.0333   -0.9287 H   0  0  0  0  0  0  0  0  0  0  0  0
    0.6717    1.0698    0.8362 H   0  0  0  0  0  0  0  0  0  0  0  0
   -0.6833   -1.0575   -0.9104 H   0  0  0  0  0  0  0  0  0  0  0  0
   -0.6785   -1.0532    0.8550 H   0  0  0  0  0  0  0  0  0  0  0  0
    1.8149   -1.1692    0.8847 H   0  0  0  0  0  0  0  0  0  0  0  0
    1.8485   -1.1760   -0.8754 H   0  0  0  0  0  0  0  0  0  0  0  0
   -1.8199    1.1855    0.8424 H   0  0  0  0  0  0  0  0  0  0  0  0
   -1.8430    1.1535   -0.9176 H   0  0  0  0  0  0  0  0  0  0  0  0
    3.2264    0.8600    0.9434 H   0  0  0  0  0  0  0  0  0  0  0  0
    3.2388    0.9153   -0.8444 H   0  0  0  0  0  0  0  0  0  0  0  0
   -3.2217   -0.8615    0.9240 H   0  0  0  0  0  0  0  0  0  0  0  0
   -3.2446   -0.9174   -0.8638 H   0  0  0  0  0  0  0  0  0  0  0  0
    8.7715   -0.2182    0.4756 H   0  0  0  0  0  0  0  0  0  0  0  0
    8.3217    0.1684   -1.2097 H   0  0  0  0  0  0  0  0  0  0  0  0
    7.7563    2.2733   -0.3534 H   0  0  0  0  0  0  0  0  0  0  0  0
    7.6468    1.6568    1.3195 H   0  0  0  0  0  0  0  0  0  0  0  0
   -8.7679    0.2210    0.4955 H   0  0  0  0  0  0  0  0  0  0  0  0
   -8.3305   -0.1634   -1.1937 H   0  0  0  0  0  0  0  0  0  0  0  0
   -7.7611   -2.2702   -0.3447 H   0  0  0  0  0  0  0  0  0  0  0  0
   -7.6392   -1.6564    1.3284 H   0  0  0  0  0  0  0  0  0  0  0  0
  1 15  2  0  0  0  0
  2 16  2  0  0  0  0
  3 21  2  0  0  0  0
  4 22  2  0  0  0  0
  5 23  2  0  0  0  0
  6 24  2  0  0  0  0
  7 15  1  0  0  0  0
  7 21  1  0  0  0  0
  7 22  1  0  0  0  0
  8 16  1  0  0  0  0
  8 23  1  0  0  0  0
  8 24  1  0  0  0  0
  9 10  1  0  0  0  0
  9 11  1  0  0  0  0
  9 25  1  0  0  0  0
  9 26  1  0  0  0  0
 10 12  1  0  0  0  0
 10 27  1  0  0  0  0
 10 28  1  0  0  0  0
 11 13  1  0  0  0  0
 11 29  1  0  0  0  0
 11 30  1  0  0  0  0
 12 14  1  0  0  0  0
 12 31  1  0  0  0  0
 12 32  1  0  0  0  0
 13 15  1  0  0  0  0
 13 33  1  0  0  0  0
 13 34  1  0  0  0  0
 14 16  1  0  0  0  0
 14 35  1  0  0  0  0
 14 36  1  0  0  0  0
 17 18  1  0  0  0  0
 17 21  1  0  0  0  0
 17 37  1  0  0  0  0
 17 38  1  0  0  0  0
 18 22  1  0  0  0  0
 18 39  1  0  0  0  0
 18 40  1  0  0  0  0
 19 20  1  0  0  0  0
 19 23  1  0  0  0  0
 19 41  1  0  0  0  0
 19 42  1  0  0  0  0
 20 24  1  0  0  0  0
 20 43  1  0  0  0  0
 20 44  1  0  0  0  0
M  END
> <PUBCHEM_COMPOUND_CID>
114813

> <PUBCHEM_CONFORMER_RMSD>
1

> <PUBCHEM_CONFORMER_DIVERSEORDER>
1
18
15
44
138
141
153
159
32
31
73
47
42
36
35
174
8
49
116
5
182
11
13
14
120
56
81
140
38
134
53
147
167
30
150
114
169
145
16
43
25
84
170
164
82
54
157
161
22
99
2
23
26
4
59
60
58
107
21
66
165
67
24
188
100
103
189
40
160
91
92
111
166
63
104
102
154
86
7
68
80
126
6
187
122
101
106
87
51
88
162
181
143
156
52
61
110
168
171
94
29
55
39
97
137
27
50
78
190
192
93
132
72
112
77
117
75
133
158
41
62
20
148
163
71
146
191
184
123
90
175
76
89
95
155
34
69
186
33
173
48
12
19
149
9
136
142
46
10
144
178
172
130
108
70
151
74
152
79
185
125
176
64
121
128
124
57
177
109
113
28
3
119
85
45
17
180
139
83
37
179
129
65
98
131
183
105
135
115
96
118
127

> <PUBCHEM_MMFF94_PARTIAL_CHARGES>
20
1 -0.57
13 0.06
14 0.06
15 0.57
16 0.57
17 0.06
18 0.06
19 0.06
2 -0.57
20 0.06
21 0.57
22 0.57
23 0.57
24 0.57
3 -0.57
4 -0.57
5 -0.57
6 -0.57
7 -0.18
8 -0.18

> <PUBCHEM_EFFECTIVE_ROTOR_COUNT>
10.2

> <PUBCHEM_PHARMACOPHORE_FEATURES>
10
1 1 acceptor
1 2 acceptor
1 3 acceptor
1 4 acceptor
1 5 acceptor
1 6 acceptor
3 10 12 14 hydrophobe
3 9 11 13 hydrophobe
5 7 17 18 21 22 rings
5 8 19 20 23 24 rings

> <PUBCHEM_HEAVY_ATOM_COUNT>
24

> <PUBCHEM_ATOM_DEF_STEREO_COUNT>
0

> <PUBCHEM_ATOM_UDEF_STEREO_COUNT>
0

> <PUBCHEM_BOND_DEF_STEREO_COUNT>
0

> <PUBCHEM_BOND_UDEF_STEREO_COUNT>
0

> <PUBCHEM_ISOTOPIC_ATOM_COUNT>
0

> <PUBCHEM_COMPONENT_COUNT>
1

> <PUBCHEM_CACTVS_TAUTO_COUNT>
6

> <PUBCHEM_CONFORMER_ID>
0001C07D00000001

> <PUBCHEM_MMFF94_ENERGY>
38.246

> <PUBCHEM_FEATURE_SELFOVERLAP>
50.762

> <PUBCHEM_SHAPE_FINGERPRINT>
10 15 18202846564936211087
10050765 1 18050286972739537961
10066227 49 18129666292597311862
100830 39 18410573942919975965
10299344 5 18202002135531717846
11315181 36 18202003227619060097
11524674 6 16845570933604440159
11719270 70 18060419097535013182
12082328 90 18413106139730927541
12091667 2 17749392555742130841
13533116 47 13901639489204166468
13885169 127 18408886218213919421
14251732 16 18410575106137915399
14251764 18 18410573989446418533
14251764 46 18411136939410395746
14933364 13 18411418414513921361
15183329 4 18410575063193524290
15716309 27 18272651255570155719
15849732 13 18410293622576552005
17093844 174 18113900460307339001
18335252 98 18412548721358039539
20157964 124 18343022186492691790
21150785 3 18410293618281577890
21315763 28 18411136909836267624
22224240 67 17603302661403658386
23559900 14 18339355379480566433
4073 2 18114186375304853250
4325135 7 18410575101848223053
444735 82 18335985376141518460
5758199 1 17603585222838186155
67123 10 18410575101842948151
8209 1 18410292510185296501

> <PUBCHEM_SHAPE_MULTIPOLES>
448.73
30.13
1.91
0.6
0.01
0
0
0.02
0.06
0
-0.02
0
0
0.77

> <PUBCHEM_SHAPE_SELFOVERLAP>
930.227

> <PUBCHEM_SHAPE_VOLUME>
254.1

> <PUBCHEM_COORDINATE_TYPE>
2
5
10

$$$$
