11488385
  -OEChem-03292013303D

 70 71  0     1  0  0  0  0  0999 V2000
    4.8523    0.4380    2.2288 O   0  0  0  0  0  0  0  0  0  0  0  0
    4.6135   -2.4107    1.8634 O   0  0  0  0  0  0  0  0  0  0  0  0
    3.7391   -0.6682   -1.9626 O   0  0  0  0  0  0  0  0  0  0  0  0
    1.2226   -1.4478   -1.1218 O   0  0  0  0  0  0  0  0  0  0  0  0
    5.8498    2.4688    0.4850 O   0  0  0  0  0  0  0  0  0  0  0  0
   -0.1798   -3.2183   -1.6083 O   0  0  0  0  0  0  0  0  0  0  0  0
  -11.7618    0.3363    0.5723 O   0  0  0  0  0  0  0  0  0  0  0  0
  -10.3926    2.1060    0.9840 O   0  0  0  0  0  0  0  0  0  0  0  0
    3.6799   -0.6130    0.4641 C   0  0  1  0  0  0  0  0  0  0  0  0
    3.5568   -1.4579    1.7245 C   0  0  1  0  0  0  0  0  0  0  0  0
    4.8712    0.3034    0.7787 C   0  0  1  0  0  0  0  0  0  0  0  0
    3.6428   -1.4747   -0.7947 C   0  0  1  0  0  0  0  0  0  0  0  0
    2.2240   -2.1970    1.7494 C   0  0  0  0  0  0  0  0  0  0  0  0
    3.8006   -0.3973    2.7766 C   0  0  0  0  0  0  0  0  0  0  0  0
    2.3357   -2.2987   -0.8324 C   0  0  1  0  0  0  0  0  0  0  0  0
    2.0528   -3.0586    0.4780 C   0  0  0  0  0  0  0  0  0  0  0  0
    4.6844    1.7056    0.1910 C   0  0  1  0  0  0  0  0  0  0  0  0
    6.2424   -0.2348    0.3660 C   0  0  0  0  0  0  0  0  0  0  0  0
    3.4635    2.3917    0.8030 C   0  0  0  0  0  0  0  0  0  0  0  0
    3.7061   -1.4562   -3.1447 C   0  0  0  0  0  0  0  0  0  0  0  0
    3.2838    3.7844    0.2603 C   0  0  0  0  0  0  0  0  0  0  0  0
    0.0205   -2.0752   -1.2297 C   0  0  0  0  0  0  0  0  0  0  0  0
    2.5837    4.1569   -0.8279 C   0  0  0  0  0  0  0  0  0  0  0  0
   -1.0233   -1.1186   -0.8003 C   0  0  0  0  0  0  0  0  0  0  0  0
    2.4421    5.5697   -1.3196 C   0  0  0  0  0  0  0  0  0  0  0  0
    1.8511    3.1327   -1.6525 C   0  0  0  0  0  0  0  0  0  0  0  0
   -2.3106   -1.4897   -0.8085 C   0  0  0  0  0  0  0  0  0  0  0  0
   -3.3813   -0.6056   -0.4005 C   0  0  0  0  0  0  0  0  0  0  0  0
   -4.6726   -0.9713   -0.4064 C   0  0  0  0  0  0  0  0  0  0  0  0
   -5.7815   -0.1183   -0.0359 C   0  0  0  0  0  0  0  0  0  0  0  0
   -7.0728   -0.4842   -0.0420 C   0  0  0  0  0  0  0  0  0  0  0  0
   -8.1493    0.4182    0.3091 C   0  0  0  0  0  0  0  0  0  0  0  0
   -9.4367    0.0443    0.3003 C   0  0  0  0  0  0  0  0  0  0  0  0
  -10.5563    0.9403    0.6534 C   0  0  0  0  0  0  0  0  0  0  0  0
    2.7719   -0.0075    0.4108 H   0  0  0  0  0  0  0  0  0  0  0  0
    4.4978   -2.1618   -0.7865 H   0  0  0  0  0  0  0  0  0  0  0  0
    1.3928   -1.4843    1.8141 H   0  0  0  0  0  0  0  0  0  0  0  0
    2.1656   -2.8504    2.6278 H   0  0  0  0  0  0  0  0  0  0  0  0
    4.1490   -0.8000    3.7320 H   0  0  0  0  0  0  0  0  0  0  0  0
    2.9238    0.2360    2.9486 H   0  0  0  0  0  0  0  0  0  0  0  0
    2.4005   -3.0429   -1.6360 H   0  0  0  0  0  0  0  0  0  0  0  0
    1.0556   -3.5069    0.5116 H   0  0  0  0  0  0  0  0  0  0  0  0
    2.7514   -3.9028    0.5370 H   0  0  0  0  0  0  0  0  0  0  0  0
    4.5843    1.6597   -0.9000 H   0  0  0  0  0  0  0  0  0  0  0  0
    7.0582    0.3344    0.8260 H   0  0  0  0  0  0  0  0  0  0  0  0
    6.3712   -0.2204   -0.7212 H   0  0  0  0  0  0  0  0  0  0  0  0
    6.3965   -1.2633    0.7032 H   0  0  0  0  0  0  0  0  0  0  0  0
    4.5758   -3.0456    1.1312 H   0  0  0  0  0  0  0  0  0  0  0  0
    2.5234    1.8521    0.6885 H   0  0  0  0  0  0  0  0  0  0  0  0
    3.6004    2.5186    1.8849 H   0  0  0  0  0  0  0  0  0  0  0  0
    6.5129    2.2762   -0.1996 H   0  0  0  0  0  0  0  0  0  0  0  0
    4.3499   -2.3382   -3.0668 H   0  0  0  0  0  0  0  0  0  0  0  0
    2.6824   -1.7392   -3.4046 H   0  0  0  0  0  0  0  0  0  0  0  0
    4.0842   -0.8371   -3.9640 H   0  0  0  0  0  0  0  0  0  0  0  0
    3.7999    4.5643    0.8188 H   0  0  0  0  0  0  0  0  0  0  0  0
   -0.7144   -0.1273   -0.4840 H   0  0  0  0  0  0  0  0  0  0  0  0
    1.3881    5.8647   -1.3346 H   0  0  0  0  0  0  0  0  0  0  0  0
    2.9782    6.2759   -0.6769 H   0  0  0  0  0  0  0  0  0  0  0  0
    2.8477    5.6643   -2.3319 H   0  0  0  0  0  0  0  0  0  0  0  0
    2.1167    3.2487   -2.7094 H   0  0  0  0  0  0  0  0  0  0  0  0
    0.7701    3.2790   -1.5558 H   0  0  0  0  0  0  0  0  0  0  0  0
    2.0725    2.0953   -1.3921 H   0  0  0  0  0  0  0  0  0  0  0  0
   -2.5941   -2.4892   -1.1285 H   0  0  0  0  0  0  0  0  0  0  0  0
   -3.1056    0.3997   -0.0902 H   0  0  0  0  0  0  0  0  0  0  0  0
   -4.9374   -1.9799   -0.7201 H   0  0  0  0  0  0  0  0  0  0  0  0
   -5.5190    0.8974    0.2556 H   0  0  0  0  0  0  0  0  0  0  0  0
   -7.3459   -1.4960   -0.3330 H   0  0  0  0  0  0  0  0  0  0  0  0
   -7.8784    1.4332    0.5881 H   0  0  0  0  0  0  0  0  0  0  0  0
   -9.7119   -0.9702    0.0225 H   0  0  0  0  0  0  0  0  0  0  0  0
  -12.4947    0.9436    0.8100 H   0  0  0  0  0  0  0  0  0  0  0  0
  1 11  1  0  0  0  0
  1 14  1  0  0  0  0
  2 10  1  0  0  0  0
  2 48  1  0  0  0  0
  3 12  1  0  0  0  0
  3 20  1  0  0  0  0
  4 15  1  0  0  0  0
  4 22  1  0  0  0  0
  5 17  1  0  0  0  0
  5 51  1  0  0  0  0
  6 22  2  0  0  0  0
  7 34  1  0  0  0  0
  7 70  1  0  0  0  0
  8 34  2  0  0  0  0
  9 10  1  0  0  0  0
  9 11  1  0  0  0  0
  9 12  1  0  0  0  0
  9 35  1  0  0  0  0
 10 13  1  0  0  0  0
 10 14  1  0  0  0  0
 11 17  1  0  0  0  0
 11 18  1  0  0  0  0
 12 15  1  0  0  0  0
 12 36  1  0  0  0  0
 13 16  1  0  0  0  0
 13 37  1  0  0  0  0
 13 38  1  0  0  0  0
 14 39  1  0  0  0  0
 14 40  1  0  0  0  0
 15 16  1  0  0  0  0
 15 41  1  0  0  0  0
 16 42  1  0  0  0  0
 16 43  1  0  0  0  0
 17 19  1  0  0  0  0
 17 44  1  0  0  0  0
 18 45  1  0  0  0  0
 18 46  1  0  0  0  0
 18 47  1  0  0  0  0
 19 21  1  0  0  0  0
 19 49  1  0  0  0  0
 19 50  1  0  0  0  0
 20 52  1  0  0  0  0
 20 53  1  0  0  0  0
 20 54  1  0  0  0  0
 21 23  2  0  0  0  0
 21 55  1  0  0  0  0
 22 24  1  0  0  0  0
 23 25  1  0  0  0  0
 23 26  1  0  0  0  0
 24 27  2  0  0  0  0
 24 56  1  0  0  0  0
 25 57  1  0  0  0  0
 25 58  1  0  0  0  0
 25 59  1  0  0  0  0
 26 60  1  0  0  0  0
 26 61  1  0  0  0  0
 26 62  1  0  0  0  0
 27 28  1  0  0  0  0
 27 63  1  0  0  0  0
 28 29  2  0  0  0  0
 28 64  1  0  0  0  0
 29 30  1  0  0  0  0
 29 65  1  0  0  0  0
 30 31  2  0  0  0  0
 30 66  1  0  0  0  0
 31 32  1  0  0  0  0
 31 67  1  0  0  0  0
 32 33  2  0  0  0  0
 32 68  1  0  0  0  0
 33 34  1  0  0  0  0
 33 69  1  0  0  0  0
M  END
> <PUBCHEM_COMPOUND_CID>
11488385

> <PUBCHEM_CONFORMER_RMSD>
1.2

> <PUBCHEM_CONFORMER_DIVERSEORDER>
1
18
19
24
2
28
21
16
13
26
20
8
7
10
4
15
9
22
11
6
14
17
12
23
29
27
5
25
3

> <PUBCHEM_MMFF94_PARTIAL_CHARGES>
42
1 -0.56
10 0.28
11 0.28
12 0.28
14 0.28
15 0.28
17 0.28
19 0.14
2 -0.68
20 0.28
21 -0.29
22 0.71
23 -0.28
24 -0.14
25 0.14
26 0.14
27 -0.15
28 -0.15
29 -0.15
3 -0.56
30 -0.15
31 -0.15
32 -0.15
33 -0.14
34 0.71
4 -0.43
48 0.4
5 -0.68
51 0.4
55 0.15
56 0.15
6 -0.57
63 0.15
64 0.15
65 0.15
66 0.15
67 0.15
68 0.15
69 0.15
7 -0.65
70 0.5
8 -0.57

> <PUBCHEM_EFFECTIVE_ROTOR_COUNT>
12.4

> <PUBCHEM_PHARMACOPHORE_FEATURES>
13
1 1 acceptor
1 2 acceptor
1 2 donor
1 3 acceptor
1 5 acceptor
1 5 donor
1 6 acceptor
1 7 acceptor
1 8 acceptor
3 23 25 26 hydrophobe
3 7 8 34 anion
5 1 9 10 11 14 rings
6 9 10 12 13 15 16 rings

> <PUBCHEM_HEAVY_ATOM_COUNT>
34

> <PUBCHEM_ATOM_DEF_STEREO_COUNT>
6

> <PUBCHEM_ATOM_UDEF_STEREO_COUNT>
0

> <PUBCHEM_BOND_DEF_STEREO_COUNT>
4

> <PUBCHEM_BOND_UDEF_STEREO_COUNT>
0

> <PUBCHEM_ISOTOPIC_ATOM_COUNT>
0

> <PUBCHEM_COMPONENT_COUNT>
1

> <PUBCHEM_CACTVS_TAUTO_COUNT>
1

> <PUBCHEM_CONFORMER_ID>
00AF4C8100000001

> <PUBCHEM_MMFF94_ENERGY>
104.0073

> <PUBCHEM_FEATURE_SELFOVERLAP>
66.1

> <PUBCHEM_SHAPE_FINGERPRINT>
11578821 258 18270399379560869881
11966995 178 18343030995233382341
12664476 115 17775003453642945063
14747281 78 17749681791203110252
15840311 113 17775568620353294975
16087824 20 18411420648778480972
1754908 1 17822300072732612451
19301679 30 13984659231647062263
19302320 297 18410571794728679687
19315092 285 10810158090463349468
20721686 146 17202189911112825976
21026386 69 18116438025877105421
21057603 10 17603876555414097353
23523788 1 9437740946502441628
394071 54 18411982481369699997
4112364 45 18341335570047110125
444735 82 18131072589986613017
5109719 28 18412270523957970219
57676310 115 17972048191795925700
59520647 147 17831306365149367525
60111433 81 17273400897317524089
6438161 24 11169916087432449219
6609424 69 18268424638246769548
6636735 143 17749398109382960219
68570916 9 18339637949990675903

> <PUBCHEM_SHAPE_MULTIPOLES>
652.75
27.06
4.98
2.12
128.22
7.65
0.19
11.85
-11.43
-8.56
1.79
-3.86
-0.94
-1.84

> <PUBCHEM_SHAPE_SELFOVERLAP>
1337.194

> <PUBCHEM_SHAPE_VOLUME>
374.3

> <PUBCHEM_COORDINATE_TYPE>
2
5
10

$$$$
