REMARK  Name = 114894
REMARK  14 active torsions:
REMARK  status: ('A' for Active; 'I' for Inactive)
REMARK    1  A    between atoms: N_2  and  C_5
REMARK    2  A    between atoms: C_3  and  C_20
REMARK    3  A    between atoms: C_5  and  C_8
REMARK    4  A    between atoms: C_5  and  C_17
REMARK    5  A    between atoms: N_7  and  C_10
REMARK    6  A    between atoms: C_10  and  C_12
REMARK    7  A    between atoms: C_12  and  O_13
REMARK    8  A    between atoms: O_13  and  C_14
REMARK    9  A    between atoms: C_17  and  S_18
REMARK   10  A    between atoms: C_20  and  C_21
REMARK   11  A    between atoms: C_21  and  CA_22
REMARK   12  A    between atoms: CA_22  and  N_23
REMARK   13  A    between atoms: CA_22  and  C_28
REMARK   14  A    between atoms: C_28  and  O_29
REMARK                            x       y       z     vdW  Elec       q    Type
REMARK                         _______ _______ _______ _____ _____    ______ ____
ROOT
ATOM      1  O   UNL     1      -0.826  -0.317   2.001  0.00  0.00    -0.275 OA
ATOM      2  N   UNL     1      -0.726  -2.181   0.619  0.00  0.00    -0.298 N 
ATOM      3  C   UNL     1      -1.372  -1.145   1.278  0.00  0.00    +0.223 C 
ATOM      4  H   UNL     1      -1.261  -2.791   0.062  0.00  0.00    +0.150 HD
ENDROOT
BRANCH   2   5
ATOM      5  C   UNL     1       0.698  -2.403   0.716  0.00  0.00    +0.159 C 
BRANCH   5   8
ATOM      6  O   UNL     1       0.939  -1.294  -1.429  0.00  0.00    -0.273 OA
ATOM      7  N   UNL     1       2.631  -1.063   0.141  0.00  0.00    -0.294 N 
ATOM      8  C   UNL     1       1.406  -1.529  -0.317  0.00  0.00    +0.242 C 
ATOM      9  H   UNL     1       2.919  -1.306   1.050  0.00  0.00    +0.150 HD
BRANCH   7  10
ATOM     10  C   UNL     1       3.500  -0.236  -0.664  0.00  0.00    +0.201 C 
BRANCH  10  12
ATOM     11  O   UNL     1       3.888   2.092  -1.096  0.00  0.00    -0.248 OA
ATOM     12  C   UNL     1       3.239   1.242  -0.495  0.00  0.00    +0.337 C 
BRANCH  12  13
ATOM     13  O   UNL     1       2.227   1.494   0.380  0.00  0.00    -0.451 OA
BRANCH  13  14
ATOM     14  C   UNL     1       1.919   2.876   0.594  0.00  0.00    +0.169 C 
ATOM     15  C   UNL     1       0.891   3.325  -0.433  0.00  0.00    +0.047 C 
ATOM     16  C   UNL     1       1.417   3.062   2.018  0.00  0.00    +0.047 C 
ENDBRANCH  13  14
ENDBRANCH  12  13
ENDBRANCH  10  12
ENDBRANCH   7  10
ENDBRANCH   5   8
BRANCH   5  17
ATOM     17  C   UNL     1       1.066  -3.885   0.611  0.00  0.00    +0.082 C 
BRANCH  17  18
ATOM     18  S   UNL     1       0.632  -4.637  -0.992  0.00  0.00    -0.166 S 
ATOM     19  H   UNL     1       0.995  -5.948  -0.991  0.00  0.00    +0.102 HD
ENDBRANCH  17  18
ENDBRANCH   5  17
ENDBRANCH   2   5
BRANCH   3  20
ATOM     20  C   UNL     1      -2.867  -1.157   1.005  0.00  0.00    +0.083 C 
BRANCH  20  21
ATOM     21  C   UNL     1      -3.479   0.245   1.052  0.00  0.00    -0.001 C 
BRANCH  21  22
ATOM     22  CA  UNL     1      -2.815   1.217   0.070  0.00  0.00    +0.036 C 
BRANCH  22  23
ATOM     23  N   UNL     1      -3.455   2.531   0.174  0.00  0.00    +0.389 N 
ATOM     24  H1  UNL     1      -3.360   2.881   1.127  0.00  0.00    -0.088 HD
ATOM     25  H2  UNL     1      -4.444   2.446  -0.060  0.00  0.00    -0.088 HD
ATOM     26  H3  UNL     1      -3.007   3.179  -0.473  0.00  0.00    -0.088 HD
ENDBRANCH  22  23
BRANCH  22  28
ATOM     27  OXT UNL     1      -3.963   1.014  -2.071  0.00  0.00    -0.253 OA
ATOM     28  C   UNL     1      -2.994   0.758  -1.366  0.00  0.00    +0.293 C 
BRANCH  28  29
ATOM     29  O   UNL     1      -1.957  -0.006  -1.796  0.00  0.00    -0.482 OA
ATOM     30  H   UNL     1      -1.234  -0.178  -1.225  0.00  0.00    +0.295 HD
ENDBRANCH  28  29
ENDBRANCH  22  28
ENDBRANCH  21  22
ENDBRANCH  20  21
ENDBRANCH   3  20
TORSDOF 14
