11482553
  -OEChem-03292013303D

 35 35  0     1  0  0  0  0  0999 V2000
   -0.4748    0.3433    0.2069 O   0  0  0  0  0  0  0  0  0  0  0  0
   -4.8410   -1.6758   -0.2209 O   0  0  0  0  0  0  0  0  0  0  0  0
   -2.5353   -0.1675   -1.4325 O   0  0  0  0  0  0  0  0  0  0  0  0
    1.6427   -1.9923    1.3737 O   0  0  0  0  0  0  0  0  0  0  0  0
    5.4485   -0.9081   -1.2774 O   0  0  0  0  0  0  0  0  0  0  0  0
    0.4833    1.0866    2.1637 O   0  0  0  0  0  0  0  0  0  0  0  0
   -4.2580    0.6385    0.0254 C   0  0  0  0  0  0  0  0  0  0  0  0
   -5.2057   -0.3602   -0.6321 C   0  0  2  0  0  0  0  0  0  0  0  0
   -2.8175    0.3426   -0.3482 C   0  0  0  0  0  0  0  0  0  0  0  0
    1.8622    0.2039    0.4304 C   0  0  0  0  0  0  0  0  0  0  0  0
   -1.7609    0.6788    0.6841 C   0  0  0  0  0  0  0  0  0  0  0  0
    2.5610    1.1268   -0.3245 C   0  0  0  0  0  0  0  0  0  0  0  0
   -6.6482   -0.1039   -0.2174 C   0  0  0  0  0  0  0  0  0  0  0  0
    2.3309   -1.0811    0.6293 C   0  0  0  0  0  0  0  0  0  0  0  0
    0.5708    0.5984    1.0477 C   0  0  0  0  0  0  0  0  0  0  0  0
    3.7737    0.7508   -0.9020 C   0  0  0  0  0  0  0  0  0  0  0  0
    4.2650   -0.5410   -0.7138 C   0  0  0  0  0  0  0  0  0  0  0  0
    3.5436   -1.4570    0.0518 C   0  0  0  0  0  0  0  0  0  0  0  0
    2.0596    2.5172   -0.5439 C   0  0  0  0  0  0  0  0  0  0  0  0
   -4.4883    1.6669   -0.2701 H   0  0  0  0  0  0  0  0  0  0  0  0
   -4.3411    0.5584    1.1158 H   0  0  0  0  0  0  0  0  0  0  0  0
   -5.1324   -0.3150   -1.7248 H   0  0  0  0  0  0  0  0  0  0  0  0
   -1.8143    1.7540    0.8860 H   0  0  0  0  0  0  0  0  0  0  0  0
   -1.9775    0.1065    1.5925 H   0  0  0  0  0  0  0  0  0  0  0  0
   -7.3128   -0.8437   -0.6765 H   0  0  0  0  0  0  0  0  0  0  0  0
   -6.9769    0.8955   -0.5183 H   0  0  0  0  0  0  0  0  0  0  0  0
   -6.7697   -0.2038    0.8668 H   0  0  0  0  0  0  0  0  0  0  0  0
    4.3446    1.4562   -1.5010 H   0  0  0  0  0  0  0  0  0  0  0  0
    3.9214   -2.4655    0.2020 H   0  0  0  0  0  0  0  0  0  0  0  0
    1.0983    2.5000   -1.0679 H   0  0  0  0  0  0  0  0  0  0  0  0
    1.9423    3.0383    0.4119 H   0  0  0  0  0  0  0  0  0  0  0  0
    2.7515    3.1092   -1.1529 H   0  0  0  0  0  0  0  0  0  0  0  0
   -3.9914   -1.8954   -0.6391 H   0  0  0  0  0  0  0  0  0  0  0  0
    0.8191   -1.6044    1.7106 H   0  0  0  0  0  0  0  0  0  0  0  0
    5.6350   -1.8339   -1.0447 H   0  0  0  0  0  0  0  0  0  0  0  0
  1 11  1  0  0  0  0
  1 15  1  0  0  0  0
  2  8  1  0  0  0  0
  2 33  1  0  0  0  0
  3  9  2  0  0  0  0
  4 14  1  0  0  0  0
  4 34  1  0  0  0  0
  5 17  1  0  0  0  0
  5 35  1  0  0  0  0
  6 15  2  0  0  0  0
  7  8  1  0  0  0  0
  7  9  1  0  0  0  0
  7 20  1  0  0  0  0
  7 21  1  0  0  0  0
  8 13  1  0  0  0  0
  8 22  1  0  0  0  0
  9 11  1  0  0  0  0
 10 12  1  0  0  0  0
 10 14  2  0  0  0  0
 10 15  1  0  0  0  0
 11 23  1  0  0  0  0
 11 24  1  0  0  0  0
 12 16  2  0  0  0  0
 12 19  1  0  0  0  0
 13 25  1  0  0  0  0
 13 26  1  0  0  0  0
 13 27  1  0  0  0  0
 14 18  1  0  0  0  0
 16 17  1  0  0  0  0
 16 28  1  0  0  0  0
 17 18  2  0  0  0  0
 18 29  1  0  0  0  0
 19 30  1  0  0  0  0
 19 31  1  0  0  0  0
 19 32  1  0  0  0  0
M  END
> <PUBCHEM_COMPOUND_CID>
11482553

> <PUBCHEM_CONFORMER_RMSD>
0.8

> <PUBCHEM_CONFORMER_DIVERSEORDER>
1
124
356
82
297
28
381
238
405
425
418
358
391
85
276
55
383
227
23
280
244
370
369
340
289
308
414
16
384
292
311
251
42
290
382
186
113
277
72
346
344
396
314
395
262
337
220
88
240
408
219
321
354
403
61
284
201
406
373
422
316
278
392
202
52
12
259
117
390
153
334
429
141
303
54
374
386
328
172
253
184
182
248
232
411
25
185
148
150
332
74
256
323
90
409
377
305
351
26
137
271
302
207
283
221
119
319
428
199
112
371
71
366
298
171
269
81
389
178
401
333
140
285
127
33
380
322
310
360
400
111
363
226
196
306
130
39
329
234
78
176
68
430
413
312
263
198
102
287
131
120
357
129
70
286
272
194
410
349
301
313
273
8
412
361
275
415
2
318
101
163
223
133
211
5
242
235
89
109
138
92
228
161
355
103
216
261
62
200
91
209
257
94
376
218
249
394
341
169
233
134
65
173
59
136
167
18
331
309
353
13
157
35
267
183
175
350
241
264
250
75
99
243
121
270
343
237
151
375
423
282
294
274
116
125
77
164
45
142
326
315
107
181
106
98
246
291
179
388
9
339
69
300
149
304
327
247
114
7
338
187
38
245
158
105
115
347
168
424
11
80
46
30
378
325
159
139
293
170
147
307
266
95
22
50
64
368
48
87
214
230
426
205
330
417
144
398
379
4
3
224
15
255
160
189
29
76
122
399
345
359
222
56
393
174
258
204
165
154
96
79
416
365
43
239
100
385
63
14
195
84
225
190
427
279
295
34
24
108
252
335
320
288
268
299
44
32
93
324
6
166
402
212
27
143
110
66
281
20
145
192
104
419
21
118
397
229
265
73
156
352
19
348
213
60
47
40
57
197
336
41
260
210
97
188
254
367
177
342
10
372
51
208
362
217
132
17
155
420
86
152
58
67
135
36
404
364
191
387
203
236
31
83
317
53
206
215
231
123
37
49
296
146
193
126
162
128
421
180
407

> <PUBCHEM_MMFF94_PARTIAL_CHARGES>
23
1 -0.43
10 0.09
11 0.34
12 -0.14
14 0.08
15 0.63
16 -0.15
17 0.08
18 -0.15
19 0.14
2 -0.68
28 0.15
29 0.15
3 -0.57
33 0.4
34 0.45
35 0.45
4 -0.53
5 -0.53
6 -0.57
7 0.06
8 0.28
9 0.45

> <PUBCHEM_EFFECTIVE_ROTOR_COUNT>
6

> <PUBCHEM_PHARMACOPHORE_FEATURES>
7
1 2 acceptor
1 2 donor
1 3 acceptor
1 4 donor
1 5 donor
1 6 acceptor
6 10 12 14 16 17 18 rings

> <PUBCHEM_HEAVY_ATOM_COUNT>
19

> <PUBCHEM_ATOM_DEF_STEREO_COUNT>
1

> <PUBCHEM_ATOM_UDEF_STEREO_COUNT>
0

> <PUBCHEM_BOND_DEF_STEREO_COUNT>
0

> <PUBCHEM_BOND_UDEF_STEREO_COUNT>
0

> <PUBCHEM_ISOTOPIC_ATOM_COUNT>
0

> <PUBCHEM_COMPONENT_COUNT>
1

> <PUBCHEM_CACTVS_TAUTO_COUNT>
75

> <PUBCHEM_CONFORMER_ID>
00AF35B900000001

> <PUBCHEM_MMFF94_ENERGY>
44.5224

> <PUBCHEM_FEATURE_SELFOVERLAP>
35.523

> <PUBCHEM_SHAPE_FINGERPRINT>
10366900 7 17385726889473043089
10498660 4 14706931743725470101
10670039 82 13623806060555860206
10688039 33 13254802321695918419
10693767 8 18265336110617732390
11089746 13 12035735352886695958
11724838 91 8358248238385768609
11796584 16 18202284701962982479
12236239 1 18202007594867693688
12251169 10 10735870668962983824
12507560 40 10951783944762674705
12596602 18 14333117598993033583
12616999 72 18040429971393040082
12730499 353 17603311457354028601
13167823 11 18411417337009802255
13675066 3 13614242611897086057
13836976 161 18408324388888448446
14252887 29 14261360141168773052
14576447 43 18410858720583488802
14863182 85 16845300414782813870
15188451 53 14188993619472239317
15527383 91 13542459865173888554
15885798 251 16200433572311415465
17834072 33 18260265261610068549
17844677 252 18335143090315706621
19784866 240 17775294841156131684
20369508 70 17489581290233875617
20645477 70 18410012121888208822
21637258 2 17489022648633649790
221357 26 18113336388365588757
22224240 67 11671771647012054740
22289505 5 17676478415506274901
23402655 69 17968095270328440909
23559900 14 18337949099533968625
23590187 302 18333166171880765852
26918003 58 12679457590916065711
29717793 49 18202567267618728173
3004659 81 18343584035958467855
3060560 45 18113900472643666590
3472631 163 13912621479877597198
351380 3 17989766692109902727
42 15 13542465375817252721
46194498 28 18040720276901548796
465052 167 17560803277347120407
5104073 3 15625654055324184951
5281201 14 17968091993326436173
6327066 14 17536323875200787652
9841814 1 16486971833984658808

> <PUBCHEM_SHAPE_MULTIPOLES>
355.8
12.75
1.72
1.27
17.09
0.18
-0.35
-3.54
5.01
-1.48
-0.1
-0.56
0.05
-0.4

> <PUBCHEM_SHAPE_SELFOVERLAP>
735.565

> <PUBCHEM_SHAPE_VOLUME>
204

> <PUBCHEM_COORDINATE_TYPE>
2
5
10

$$$$
