REMARK  Name = 11488689
REMARK  4 active torsions:
REMARK  status: ('A' for Active; 'I' for Inactive)
REMARK    1  A    between atoms: C_19  and  O_31
REMARK    2  A    between atoms: C_20  and  O_33
REMARK    3  A    between atoms: C_23  and  S_27
REMARK    4  A    between atoms: C_24  and  S_29
REMARK                            x       y       z     vdW  Elec       q    Type
REMARK                         _______ _______ _______ _____ _____    ______ ____
ROOT
ATOM      1  S   UNL     1      -0.747   3.597   0.707  0.00  0.00    -0.054 S 
ATOM      2  S   UNL     1       0.751   3.597  -0.706  0.00  0.00    -0.054 S 
ATOM      3  O   UNL     1       0.617   1.024   2.596  0.00  0.00    -0.272 OA
ATOM      4  O   UNL     1      -0.616   1.026  -2.595  0.00  0.00    -0.272 OA
ATOM      5  O   UNL     1      -1.611  -1.109   2.786  0.00  0.00    -0.296 OA
ATOM      6  O   UNL     1       1.611  -1.110  -2.786  0.00  0.00    -0.296 OA
ATOM      7  N   UNL     1      -1.263   1.109  -0.344  0.00  0.00    -0.263 N 
ATOM      8  N   UNL     1       1.265   1.108   0.344  0.00  0.00    -0.263 N 
ATOM      9  C   UNL     1      -0.963   1.791   0.926  0.00  0.00    +0.178 C 
ATOM     10  C   UNL     1       0.966   1.790  -0.926  0.00  0.00    +0.178 C 
ATOM     11  C   UNL     1      -2.604   0.506  -0.323  0.00  0.00    +0.111 C 
ATOM     12  C   UNL     1       2.605   0.503   0.323  0.00  0.00    +0.111 C 
ATOM     13  C   UNL     1      -2.811   0.258   1.184  0.00  0.00    +0.081 C 
ATOM     14  C   UNL     1       2.811   0.255  -1.184  0.00  0.00    +0.081 C 
ATOM     15  C   UNL     1      -2.174   1.502   1.823  0.00  0.00    +0.048 C 
ATOM     16  C   UNL     1       2.176   1.500  -1.823  0.00  0.00    +0.048 C 
ATOM     17  C   UNL     1       0.373   1.227   1.412  0.00  0.00    +0.253 C 
ATOM     18  C   UNL     1      -0.371   1.228  -1.412  0.00  0.00    +0.253 C 
ATOM     19  C   UNL     1      -2.851  -0.775  -1.136  0.00  0.00    +0.139 C 
ATOM     20  C   UNL     1       2.850  -0.778   1.136  0.00  0.00    +0.139 C 
ATOM     21  C   UNL     1      -2.123  -1.024   1.668  0.00  0.00    +0.153 C 
ATOM     22  C   UNL     1       2.123  -1.026  -1.669  0.00  0.00    +0.153 C 
ATOM     23  C   UNL     1      -1.946  -1.919  -0.674  0.00  0.00    +0.080 C 
ATOM     24  C   UNL     1       1.943  -1.921   0.673  0.00  0.00    +0.080 C 
ATOM     25  C   UNL     1      -2.226  -2.250   0.789  0.00  0.00    +0.078 C 
ATOM     26  C   UNL     1       2.223  -2.252  -0.789  0.00  0.00    +0.078 C 
ENDROOT
BRANCH  23  27
ATOM     27  S   UNL     1      -2.217  -3.426  -1.675  0.00  0.00    -0.166 S 
ATOM     28  H   UNL     1      -1.972  -3.150  -2.985  0.00  0.00    +0.102 HD
ENDBRANCH  23  27
BRANCH  24  29
ATOM     29  S   UNL     1       2.211  -3.428   1.675  0.00  0.00    -0.166 S 
ATOM     30  H   UNL     1       1.966  -3.152   2.984  0.00  0.00    +0.102 HD
ENDBRANCH  24  29
BRANCH  19  31
ATOM     31  O   UNL     1      -2.711  -0.500  -2.523  0.00  0.00    -0.382 OA
ATOM     32  H   UNL     1      -3.301   0.229  -2.769  0.00  0.00    +0.210 HD
ENDBRANCH  19  31
BRANCH  20  33
ATOM     33  O   UNL     1       2.711  -0.503   2.523  0.00  0.00    -0.382 OA
ATOM     34  H   UNL     1       3.303   0.225   2.769  0.00  0.00    +0.210 HD
ENDBRANCH  20  33
TORSDOF 4
