REMARK  Name = 11487079
REMARK  2 active torsions:
REMARK  status: ('A' for Active; 'I' for Inactive)
REMARK    1  A    between atoms: C_19  and  O_27
REMARK    2  A    between atoms: C_20  and  O_29
REMARK                            x       y       z     vdW  Elec       q    Type
REMARK                         _______ _______ _______ _____ _____    ______ ____
ROOT
ATOM      1  S   UNL     1       0.869  -1.045   3.233  0.00  0.00    -0.054 S 
ATOM      2  S   UNL     1      -0.850  -2.050   2.715  0.00  0.00    -0.054 S 
ATOM      3  O   UNL     1      -0.143   2.005   1.917  0.00  0.00    -0.272 OA
ATOM      4  O   UNL     1       0.145  -2.716  -0.546  0.00  0.00    -0.272 OA
ATOM      5  O   UNL     1       2.125   2.803  -0.085  0.00  0.00    -0.296 OA
ATOM      6  O   UNL     1      -2.141  -1.546  -2.334  0.00  0.00    -0.296 OA
ATOM      7  N   UNL     1       1.185  -0.898   0.505  0.00  0.00    -0.263 N 
ATOM      8  N   UNL     1      -1.180   0.099   1.031  0.00  0.00    -0.263 N 
ATOM      9  C   UNL     1       1.118  -0.056   1.710  0.00  0.00    +0.178 C 
ATOM     10  C   UNL     1      -1.110  -1.371   1.032  0.00  0.00    +0.178 C 
ATOM     11  C   UNL     1       2.509  -0.823  -0.126  0.00  0.00    +0.110 C 
ATOM     12  C   UNL     1      -2.506   0.571   0.613  0.00  0.00    +0.110 C 
ATOM     13  C   UNL     1       2.989   0.574   0.319  0.00  0.00    +0.081 C 
ATOM     14  C   UNL     1      -2.990  -0.596  -0.271  0.00  0.00    +0.081 C 
ATOM     15  C   UNL     1       2.469   0.669   1.761  0.00  0.00    +0.048 C 
ATOM     16  C   UNL     1      -2.463  -1.831   0.476  0.00  0.00    +0.048 C 
ATOM     17  C   UNL     1      -0.112   0.839   1.542  0.00  0.00    +0.253 C 
ATOM     18  C   UNL     1       0.116  -1.742   0.197  0.00  0.00    +0.253 C 
ATOM     19  C   UNL     1       2.612  -0.976  -1.647  0.00  0.00    +0.129 C 
ATOM     20  C   UNL     1      -2.612   1.905  -0.136  0.00  0.00    +0.129 C 
ATOM     21  C   UNL     1       2.417   1.701  -0.552  0.00  0.00    +0.152 C 
ATOM     22  C   UNL     1      -2.430  -0.531  -1.698  0.00  0.00    +0.152 C 
ATOM     23  C   UNL     1       1.824   0.096  -2.387  0.00  0.00    +0.039 C 
ATOM     24  C   UNL     1      -1.837   1.892  -1.446  0.00  0.00    +0.039 C 
ATOM     25  C   UNL     1       2.360   1.475  -2.046  0.00  0.00    +0.067 C 
ATOM     26  C   UNL     1      -2.384   0.821  -2.373  0.00  0.00    +0.067 C 
ENDROOT
BRANCH  19  27
ATOM     27  O   UNL     1       2.222  -2.275  -2.064  0.00  0.00    -0.383 OA
ATOM     28  H   UNL     1       2.737  -2.938  -1.579  0.00  0.00    +0.210 HD
ENDBRANCH  19  27
BRANCH  20  29
ATOM     29  O   UNL     1      -2.201   3.006   0.657  0.00  0.00    -0.383 OA
ATOM     30  H   UNL     1      -2.698   3.009   1.490  0.00  0.00    +0.210 HD
ENDBRANCH  20  29
TORSDOF 2
