REMARK  Name = 114821
REMARK  4 active torsions:
REMARK  status: ('A' for Active; 'I' for Inactive)
REMARK    1  A    between atoms: S_1  and  N_5
REMARK    2  A    between atoms: S_1  and  C_12
REMARK    3  A    between atoms: C_15  and  N_18
REMARK    4  A    between atoms: N_18  and  O_20
REMARK                            x       y       z     vdW  Elec       q    Type
REMARK                         _______ _______ _______ _____ _____    ______ ____
ROOT
ATOM      1  S   UNL     1       0.647   2.313  -0.182  0.00  0.00    +0.075 S 
ATOM      2  O   UNL     1       0.332   3.513   0.585  0.00  0.00    -0.150 OA
ATOM      3  O   UNL     1       0.982   2.451  -1.594  0.00  0.00    -0.150 OA
ENDROOT
BRANCH   1   5
ATOM      4  O   UNL     1       2.435  -1.622  -0.957  0.00  0.00    -0.356 OA
ATOM      5  N   UNL     1       1.913   1.475   0.632  0.00  0.00    -0.196 N 
ATOM      6  N   UNL     1       2.108  -0.273  -1.011  0.00  0.00    -0.061 NA
ATOM      7  C   UNL     1       2.183   0.116   0.244  0.00  0.00    +0.189 C 
ATOM      8  C   UNL     1       2.538  -0.877   1.142  0.00  0.00    +0.074 C 
ATOM      9  C   UNL     1       2.689  -1.970   0.331  0.00  0.00    +0.156 C 
ATOM     10  C   UNL     1       3.053  -3.372   0.572  0.00  0.00    +0.075 C 
ATOM     11  H   UNL     1       2.436   1.912   1.342  0.00  0.00    +0.175 HD
ENDBRANCH   1   5
BRANCH   1  12
ATOM     12  C   UNL     1      -0.703   1.217  -0.032  0.00  0.00    +0.125 C 
ATOM     13  C   UNL     1      -1.559   1.309   1.066  0.00  0.00    +0.022 C 
ATOM     14  C   UNL     1      -0.927   0.248  -1.011  0.00  0.00    +0.022 C 
ATOM     15  C   UNL     1      -2.861  -0.536   0.208  0.00  0.00    +0.078 C 
ATOM     16  C   UNL     1      -2.637   0.433   1.186  0.00  0.00    +0.020 C 
ATOM     17  C   UNL     1      -2.006  -0.628  -0.890  0.00  0.00    +0.020 C 
BRANCH  15  18
ATOM     18  N   UNL     1      -3.952  -1.421   0.328  0.00  0.00    -0.267 N 
ATOM     19  H   UNL     1      -4.534  -1.352   1.120  0.00  0.00    +0.194 HD
BRANCH  18  20
ATOM     20  O   UNL     1      -4.234  -2.376  -0.616  0.00  0.00    -0.289 OA
ATOM     21  H   UNL     1      -5.020  -2.876  -0.346  0.00  0.00    +0.244 HD
ENDBRANCH  18  20
ENDBRANCH  15  18
ENDBRANCH   1  12
TORSDOF 4
