REMARK  Name = 114899
REMARK  8 active torsions:
REMARK  status: ('A' for Active; 'I' for Inactive)
REMARK    1  A    between atoms: N_3  and  C_30
REMARK    2  A    between atoms: C_5  and  C_14
REMARK    3  A    between atoms: C_10  and  C_17
REMARK    4  A    between atoms: C_14  and  O_15
REMARK    5  A    between atoms: C_17  and  C_18
REMARK    6  A    between atoms: C_17  and  C_24
REMARK    7  A    between atoms: C_30  and  C_31
REMARK    8  A    between atoms: C_36  and  N_38
REMARK                            x       y       z     vdW  Elec       q    Type
REMARK                         _______ _______ _______ _____ _____    ______ ____
ROOT
ATOM      1  O   UNL     1       2.399  -0.557  -1.875  0.00  0.00    -0.274 OA
ATOM      2  N   UNL     1       0.957  -1.011  -0.098  0.00  0.00    -0.265 N 
ATOM      3  N   UNL     1      -2.899  -1.452   1.302  0.00  0.00    -0.289 N 
ATOM      4  N   UNL     1      -1.385  -0.851   2.829  0.00  0.00    -0.317 N 
ATOM      5  C   UNL     1       0.111  -1.910  -0.928  0.00  0.00    +0.180 C 
ATOM      6  C   UNL     1      -1.407  -1.702  -0.754  0.00  0.00    +0.073 C 
ATOM      7  C   UNL     1      -1.697  -1.417   0.663  0.00  0.00    +0.039 C 
ATOM      8  C   UNL     1       0.663  -0.886   1.359  0.00  0.00    +0.136 C 
ATOM      9  C   UNL     1      -0.782  -1.042   1.614  0.00  0.00    +0.053 C 
ATOM     10  C   UNL     1       2.119  -0.475  -0.676  0.00  0.00    +0.234 C 
ATOM     11  C   UNL     1      -2.659  -1.105   2.607  0.00  0.00    +0.185 C 
ATOM     12  H   UNL     1      -0.961  -0.585   3.677  0.00  0.00    +0.148 HD
ENDROOT
BRANCH   5  14
ATOM     13  O   UNL     1       0.913  -3.680   0.516  0.00  0.00    -0.248 OA
ATOM     14  C   UNL     1       0.531  -3.311  -0.585  0.00  0.00    +0.332 C 
BRANCH  14  15
ATOM     15  O   UNL     1       0.433  -4.119  -1.669  0.00  0.00    -0.479 OA
ATOM     16  H   UNL     1       0.133  -3.773  -2.486  0.00  0.00    +0.295 HD
ENDBRANCH  14  15
ENDBRANCH   5  14
BRANCH  10  17
ATOM     17  C   UNL     1       3.062   0.246   0.255  0.00  0.00    +0.121 C 
BRANCH  17  18
ATOM     18  C   UNL     1       4.508   0.070  -0.159  0.00  0.00    -0.010 C 
ATOM     19  C   UNL     1       5.228  -0.998   0.346  0.00  0.00    -0.003 C 
ATOM     20  C   UNL     1       5.075   0.980  -1.032  0.00  0.00    -0.003 C 
ATOM     21  C   UNL     1       6.560  -1.161  -0.035  0.00  0.00    -0.000 C 
ATOM     22  C   UNL     1       6.407   0.817  -1.414  0.00  0.00    -0.000 C 
ATOM     23  C   UNL     1       7.149  -0.254  -0.915  0.00  0.00    -0.000 C 
ENDBRANCH  17  18
BRANCH  17  24
ATOM     24  C   UNL     1       2.671   1.695   0.473  0.00  0.00    -0.010 C 
ATOM     25  C   UNL     1       2.978   2.301   1.677  0.00  0.00    -0.003 C 
ATOM     26  C   UNL     1       2.018   2.375  -0.538  0.00  0.00    -0.003 C 
ATOM     27  C   UNL     1       2.618   3.634   1.878  0.00  0.00    -0.000 C 
ATOM     28  C   UNL     1       1.659   3.708  -0.338  0.00  0.00    -0.000 C 
ATOM     29  C   UNL     1       1.959   4.337   0.870  0.00  0.00    -0.000 C 
ENDBRANCH  17  24
ENDBRANCH  10  17
BRANCH   3  30
ATOM     30  C   UNL     1      -4.183  -1.784   0.734  0.00  0.00    +0.119 C 
BRANCH  30  31
ATOM     31  C   UNL     1      -4.878  -0.562   0.196  0.00  0.00    -0.003 C 
ATOM     32  C   UNL     1      -4.672  -0.183  -1.123  0.00  0.00    -0.006 C 
ATOM     33  C   UNL     1      -5.715   0.169   1.028  0.00  0.00    -0.001 C 
ATOM     34  C   UNL     1      -5.316   0.950  -1.621  0.00  0.00    -0.009 C 
ATOM     35  C   UNL     1      -6.359   1.302   0.530  0.00  0.00    +0.013 C 
ATOM     36  C   UNL     1      -6.160   1.692  -0.794  0.00  0.00    +0.037 C 
ATOM     37  C   UNL     1      -5.085   1.345  -3.043  0.00  0.00    +0.032 C 
BRANCH  36  38
ATOM     38  N   UNL     1      -6.821   2.841  -1.281  0.00  0.00    -0.357 N 
ATOM     39  H   UNL     1      -6.688   3.127  -2.214  0.00  0.00    +0.142 HD
ATOM     40  H   UNL     1      -7.414   3.357  -0.688  0.00  0.00    +0.142 HD
ENDBRANCH  36  38
ENDBRANCH  30  31
ENDBRANCH   3  30
TORSDOF 8
