REMARK  Name = 114851
REMARK  7 active torsions:
REMARK  status: ('A' for Active; 'I' for Inactive)
REMARK    1  A    between atoms: C_2  and  O_7
REMARK    2  A    between atoms: C_3  and  O_9
REMARK    3  A    between atoms: C_4  and  O_11
REMARK    4  A    between atoms: C_5  and  O_17
REMARK    5  A    between atoms: C_6  and  C_14
REMARK    6  A    between atoms: C_14  and  O_15
REMARK    7  A    between atoms: O_17  and  C_18
REMARK                            x       y       z     vdW  Elec       q    Type
REMARK                         _______ _______ _______ _____ _____    ______ ____
ROOT
ATOM      1  O   UNL     1       0.992   0.377   0.097  0.00  0.00    -0.307 OA
ATOM      2  C   UNL     1       3.408  -1.137  -0.260  0.00  0.00    +0.173 C 
ATOM      3  C   UNL     1       2.028  -1.706  -0.592  0.00  0.00    +0.210 C 
ATOM      4  C   UNL     1       3.396   0.392  -0.261  0.00  0.00    +0.178 C 
ATOM      5  C   UNL     1       0.938  -1.040   0.248  0.00  0.00    +0.318 C 
ATOM      6  C   UNL     1       2.224   0.923   0.554  0.00  0.00    +0.246 C 
ENDROOT
BRANCH   2   7
ATOM      7  O   UNL     1       4.352  -1.572  -1.239  0.00  0.00    -0.379 OA
ATOM      8  H   UNL     1       4.377  -2.542  -1.256  0.00  0.00    +0.211 HD
ENDBRANCH   2   7
BRANCH   3   9
ATOM      9  O   UNL     1       2.014  -3.106  -0.314  0.00  0.00    -0.377 OA
ATOM     10  H   UNL     1       2.701  -3.547  -0.839  0.00  0.00    +0.211 HD
ENDBRANCH   3   9
BRANCH   4  11
ATOM     11  O   UNL     1       4.610   0.869   0.318  0.00  0.00    -0.379 OA
ATOM     12  H   UNL     1       5.364   0.536  -0.194  0.00  0.00    +0.211 HD
ENDBRANCH   4  11
BRANCH   6  14
ATOM     13  O   UNL     1       1.066   2.915  -0.164  0.00  0.00    -0.247 OA
ATOM     14  C   UNL     1       2.047   2.392   0.343  0.00  0.00    +0.344 C 
BRANCH  14  15
ATOM     15  O   UNL     1       3.130   3.074   0.791  0.00  0.00    -0.478 OA
ATOM     16  H   UNL     1       3.851   2.611   1.170  0.00  0.00    +0.295 HD
ENDBRANCH  14  15
ENDBRANCH   6  14
BRANCH   5  17
ATOM     17  O   UNL     1      -0.325  -1.525  -0.206  0.00  0.00    -0.451 OA
BRANCH  17  18
ATOM     18  C   UNL     1      -1.434  -1.032   0.425  0.00  0.00    +0.141 C 
ATOM     19  C   UNL     1      -2.424  -0.331  -0.281  0.00  0.00    +0.034 C 
ATOM     20  C   UNL     1      -3.553   0.160   0.417  0.00  0.00    +0.003 C 
ATOM     21  C   UNL     1      -1.552  -1.247   1.798  0.00  0.00    +0.037 C 
ATOM     22  C   UNL     1      -2.319  -0.106  -1.663  0.00  0.00    +0.003 C 
ATOM     23  C   UNL     1      -3.657  -0.065   1.800  0.00  0.00    +0.000 C 
ATOM     24  C   UNL     1      -2.662  -0.764   2.484  0.00  0.00    +0.003 C 
ATOM     25  C   UNL     1      -4.544   0.861  -0.288  0.00  0.00    +0.000 C 
ATOM     26  C   UNL     1      -3.314   0.593  -2.348  0.00  0.00    +0.000 C 
ATOM     27  C   UNL     1      -4.424   1.075  -1.661  0.00  0.00    +0.000 C 
ENDBRANCH  17  18
ENDBRANCH   5  17
TORSDOF 7
