REMARK  Name = 114813
REMARK  7 active torsions:
REMARK  status: ('A' for Active; 'I' for Inactive)
REMARK    1  A    between atoms: C_1  and  C_2
REMARK    2  A    between atoms: C_1  and  C_14
REMARK    3  A    between atoms: C_2  and  C_3
REMARK    4  A    between atoms: C_3  and  C_4
REMARK    5  A    between atoms: C_4  and  C_9
REMARK    6  A    between atoms: C_14  and  C_15
REMARK    7  A    between atoms: C_15  and  C_20
REMARK                            x       y       z     vdW  Elec       q    Type
REMARK                         _______ _______ _______ _____ _____    ______ ____
ROOT
ATOM      1  C   UNL     1       0.650   0.402  -0.033  0.00  0.00    +0.001 C 
ENDROOT
BRANCH   1   2
ATOM      2  C   UNL     1      -0.650  -0.405  -0.029  0.00  0.00    +0.001 C 
BRANCH   2   3
ATOM      3  C   UNL     1      -1.874   0.515  -0.025  0.00  0.00    +0.010 C 
BRANCH   3   4
ATOM      4  C   UNL     1      -3.188  -0.259   0.010  0.00  0.00    +0.086 C 
BRANCH   4   9
ATOM      5  O   UNL     1      -4.188   1.893  -0.116  0.00  0.00    -0.274 OA
ATOM      6  O   UNL     1      -6.907   2.037  -0.188  0.00  0.00    -0.274 OA
ATOM      7  O   UNL     1      -5.139  -2.237   0.150  0.00  0.00    -0.274 OA
ATOM      8  N   UNL     1      -5.636   0.071   0.025  0.00  0.00    -0.178 N 
ATOM      9  C   UNL     1      -4.369   0.679  -0.005  0.00  0.00    +0.237 C 
ATOM     10  C   UNL     1      -7.964  -0.118  -0.163  0.00  0.00    +0.096 C 
ATOM     11  C   UNL     1      -7.400  -1.449   0.281  0.00  0.00    +0.096 C 
ATOM     12  C   UNL     1      -6.795   0.820  -0.107  0.00  0.00    +0.238 C 
ATOM     13  C   UNL     1      -5.913  -1.290   0.147  0.00  0.00    +0.238 C 
ENDBRANCH   4   9
ENDBRANCH   3   4
ENDBRANCH   2   3
ENDBRANCH   1   2
BRANCH   1  14
ATOM     14  C   UNL     1       1.875  -0.518   0.003  0.00  0.00    +0.010 C 
BRANCH  14  15
ATOM     15  C   UNL     1       3.188   0.257   0.030  0.00  0.00    +0.086 C 
BRANCH  15  20
ATOM     16  O   UNL     1       4.188  -1.894  -0.106  0.00  0.00    -0.274 OA
ATOM     17  O   UNL     1       6.907  -2.034  -0.197  0.00  0.00    -0.274 OA
ATOM     18  O   UNL     1       5.138   2.237   0.159  0.00  0.00    -0.274 OA
ATOM     19  N   UNL     1       5.636  -0.071   0.027  0.00  0.00    -0.178 N 
ATOM     20  C   UNL     1       4.370  -0.679   0.005  0.00  0.00    +0.237 C 
ATOM     21  C   UNL     1       7.963   0.121  -0.177  0.00  0.00    +0.096 C 
ATOM     22  C   UNL     1       7.400   1.451   0.273  0.00  0.00    +0.096 C 
ATOM     23  C   UNL     1       6.795  -0.818  -0.114  0.00  0.00    +0.238 C 
ATOM     24  C   UNL     1       5.913   1.290   0.150  0.00  0.00    +0.238 C 
ENDBRANCH  15  20
ENDBRANCH  14  15
ENDBRANCH   1  14
TORSDOF 7
