11487079
  -OEChem-03292013303D

 48 53  0     1  0  0  0  0  0999 V2000
    0.8687   -1.0449    3.2334 S   0  0  0  0  0  0  0  0  0  0  0  0
   -0.8503   -2.0502    2.7151 S   0  0  0  0  0  0  0  0  0  0  0  0
   -0.1428    2.0051    1.9167 O   0  0  0  0  0  0  0  0  0  0  0  0
    0.1448   -2.7162   -0.5462 O   0  0  0  0  0  0  0  0  0  0  0  0
    2.2216   -2.2746   -2.0638 O   0  0  0  0  0  0  0  0  0  0  0  0
   -2.2007    3.0064    0.6567 O   0  0  0  0  0  0  0  0  0  0  0  0
    2.1253    2.8033   -0.0848 O   0  0  0  0  0  0  0  0  0  0  0  0
   -2.1408   -1.5464   -2.3340 O   0  0  0  0  0  0  0  0  0  0  0  0
    1.1855   -0.8981    0.5055 N   0  0  0  0  0  0  0  0  0  0  0  0
   -1.1804    0.0994    1.0313 N   0  0  0  0  0  0  0  0  0  0  0  0
    1.1182   -0.0555    1.7105 C   0  0  2  0  0  0  0  0  0  0  0  0
   -1.1100   -1.3706    1.0323 C   0  0  2  0  0  0  0  0  0  0  0  0
    2.5094   -0.8228   -0.1255 C   0  0  2  0  0  0  0  0  0  0  0  0
   -2.5065    0.5708    0.6134 C   0  0  2  0  0  0  0  0  0  0  0  0
    2.9888    0.5739    0.3188 C   0  0  2  0  0  0  0  0  0  0  0  0
   -2.9904   -0.5964   -0.2710 C   0  0  2  0  0  0  0  0  0  0  0  0
    2.4688    0.6694    1.7613 C   0  0  0  0  0  0  0  0  0  0  0  0
   -2.4630   -1.8311    0.4756 C   0  0  0  0  0  0  0  0  0  0  0  0
   -0.1115    0.8387    1.5425 C   0  0  0  0  0  0  0  0  0  0  0  0
    0.1163   -1.7423    0.1969 C   0  0  0  0  0  0  0  0  0  0  0  0
    2.6119   -0.9761   -1.6473 C   0  0  2  0  0  0  0  0  0  0  0  0
   -2.6120    1.9046   -0.1363 C   0  0  2  0  0  0  0  0  0  0  0  0
    2.4166    1.7009   -0.5517 C   0  0  0  0  0  0  0  0  0  0  0  0
   -2.4301   -0.5312   -1.6982 C   0  0  0  0  0  0  0  0  0  0  0  0
    1.8236    0.0958   -2.3868 C   0  0  0  0  0  0  0  0  0  0  0  0
   -1.8375    1.8920   -1.4455 C   0  0  0  0  0  0  0  0  0  0  0  0
    2.3600    1.4749   -2.0459 C   0  0  0  0  0  0  0  0  0  0  0  0
   -2.3835    0.8211   -2.3730 C   0  0  0  0  0  0  0  0  0  0  0  0
    3.1055   -1.6090    0.3562 H   0  0  0  0  0  0  0  0  0  0  0  0
   -3.0975    0.6303    1.5366 H   0  0  0  0  0  0  0  0  0  0  0  0
    4.0804    0.6557    0.2761 H   0  0  0  0  0  0  0  0  0  0  0  0
   -4.0827   -0.6101   -0.3539 H   0  0  0  0  0  0  0  0  0  0  0  0
    3.1861    0.1426    2.4048 H   0  0  0  0  0  0  0  0  0  0  0  0
    2.3960    1.6967    2.1312 H   0  0  0  0  0  0  0  0  0  0  0  0
   -3.1751   -2.0573    1.2804 H   0  0  0  0  0  0  0  0  0  0  0  0
   -2.3916   -2.7236   -0.1535 H   0  0  0  0  0  0  0  0  0  0  0  0
    3.6710   -0.8817   -1.9213 H   0  0  0  0  0  0  0  0  0  0  0  0
   -3.6734    2.0771   -0.3590 H   0  0  0  0  0  0  0  0  0  0  0  0
    0.7597    0.0202   -2.1359 H   0  0  0  0  0  0  0  0  0  0  0  0
    1.8854   -0.0690   -3.4692 H   0  0  0  0  0  0  0  0  0  0  0  0
   -0.7718    1.7284   -1.2501 H   0  0  0  0  0  0  0  0  0  0  0  0
   -1.9022    2.8716   -1.9344 H   0  0  0  0  0  0  0  0  0  0  0  0
    1.7170    2.2389   -2.4961 H   0  0  0  0  0  0  0  0  0  0  0  0
    3.3724    1.6068   -2.4430 H   0  0  0  0  0  0  0  0  0  0  0  0
   -1.7505    0.7512   -3.2641 H   0  0  0  0  0  0  0  0  0  0  0  0
   -3.4001    1.0691   -2.6975 H   0  0  0  0  0  0  0  0  0  0  0  0
    2.3276   -2.3207   -3.0291 H   0  0  0  0  0  0  0  0  0  0  0  0
   -2.3337    3.8156    0.1343 H   0  0  0  0  0  0  0  0  0  0  0  0
  1  2  1  0  0  0  0
  1 11  1  0  0  0  0
  2 12  1  0  0  0  0
  3 19  2  0  0  0  0
  4 20  2  0  0  0  0
  5 21  1  0  0  0  0
  5 47  1  0  0  0  0
  6 22  1  0  0  0  0
  6 48  1  0  0  0  0
  7 23  2  0  0  0  0
  8 24  2  0  0  0  0
  9 11  1  0  0  0  0
  9 13  1  0  0  0  0
  9 20  1  0  0  0  0
 10 12  1  0  0  0  0
 10 14  1  0  0  0  0
 10 19  1  0  0  0  0
 11 17  1  0  0  0  0
 11 19  1  0  0  0  0
 12 18  1  0  0  0  0
 12 20  1  0  0  0  0
 13 15  1  0  0  0  0
 13 21  1  0  0  0  0
 13 29  1  0  0  0  0
 14 16  1  0  0  0  0
 14 22  1  0  0  0  0
 14 30  1  0  0  0  0
 15 17  1  0  0  0  0
 15 23  1  0  0  0  0
 15 31  1  0  0  0  0
 16 18  1  0  0  0  0
 16 24  1  0  0  0  0
 16 32  1  0  0  0  0
 17 33  1  0  0  0  0
 17 34  1  0  0  0  0
 18 35  1  0  0  0  0
 18 36  1  0  0  0  0
 21 25  1  0  0  0  0
 21 37  1  0  0  0  0
 22 26  1  0  0  0  0
 22 38  1  0  0  0  0
 23 27  1  0  0  0  0
 24 28  1  0  0  0  0
 25 27  1  0  0  0  0
 25 39  1  0  0  0  0
 25 40  1  0  0  0  0
 26 28  1  0  0  0  0
 26 41  1  0  0  0  0
 26 42  1  0  0  0  0
 27 43  1  0  0  0  0
 27 44  1  0  0  0  0
 28 45  1  0  0  0  0
 28 46  1  0  0  0  0
M  END
> <PUBCHEM_COMPOUND_CID>
11487079

> <PUBCHEM_CONFORMER_RMSD>
0.6

> <PUBCHEM_CONFORMER_DIVERSEORDER>
3
2
4
1

> <PUBCHEM_MMFF94_PARTIAL_CHARGES>
26
1 -0.23
10 -0.66
11 0.59
12 0.59
13 0.3
14 0.3
15 0.06
16 0.06
19 0.57
2 -0.23
20 0.57
21 0.28
22 0.28
23 0.45
24 0.45
27 0.06
28 0.06
3 -0.57
4 -0.57
47 0.4
48 0.4
5 -0.68
6 -0.68
7 -0.57
8 -0.57
9 -0.66

> <PUBCHEM_EFFECTIVE_ROTOR_COUNT>
2

> <PUBCHEM_PHARMACOPHORE_FEATURES>
13
1 3 acceptor
1 4 acceptor
1 5 acceptor
1 5 donor
1 6 acceptor
1 6 donor
1 7 acceptor
1 8 acceptor
5 10 12 14 16 18 rings
5 9 11 13 15 17 rings
6 13 15 21 23 25 27 rings
6 14 16 22 24 26 28 rings
8 1 2 9 10 11 12 19 20 rings

> <PUBCHEM_HEAVY_ATOM_COUNT>
28

> <PUBCHEM_ATOM_DEF_STEREO_COUNT>
8

> <PUBCHEM_ATOM_UDEF_STEREO_COUNT>
0

> <PUBCHEM_BOND_DEF_STEREO_COUNT>
0

> <PUBCHEM_BOND_UDEF_STEREO_COUNT>
0

> <PUBCHEM_ISOTOPIC_ATOM_COUNT>
0

> <PUBCHEM_COMPONENT_COUNT>
1

> <PUBCHEM_CACTVS_TAUTO_COUNT>
6

> <PUBCHEM_CONFORMER_ID>
00AF476700000003

> <PUBCHEM_MMFF94_ENERGY>
92.7974

> <PUBCHEM_FEATURE_SELFOVERLAP>
66.494

> <PUBCHEM_SHAPE_FINGERPRINT>
10165383 225 16447047334098039540
10863032 1 17987262030307041585
11578080 2 16773792576152793552
11640471 11 17313090947854911939
12156800 1 10149555719705225281
12553582 1 14045740413203112066
12633257 1 11819539399239766917
128993 33 16951145979171914005
14223421 5 11170495550706552348
14713325 29 14855883718371229454
15664445 248 17271128194593755677
16945 1 16950280719365828923
17492 54 17548960604570266005
17980427 23 18125124278671423064
18981168 100 18114744837101313359
20600515 1 15764968487074011395
20691752 17 17699539714537939727
21421861 104 12461845621523644669
21731516 1 14045739309401713611
23419403 2 16746499712950041515
23557571 272 17825399736479201738
238 59 17915162727525470765
2818148 4 16951995875937678075
35225 105 15865224401109249879
5845 1 16601209709104709106
81228 2 16519665898188782018

> <PUBCHEM_SHAPE_MULTIPOLES>
538.75
4.64
3.24
2.68
0.02
1.23
-0.01
-2.28
-0.02
0
0.01
-0.01
-0.67
-0.59

> <PUBCHEM_SHAPE_SELFOVERLAP>
1178.654

> <PUBCHEM_SHAPE_VOLUME>
294.1

> <PUBCHEM_COORDINATE_TYPE>
2
5
10

$$$$
