REMARK  Name = 114859
REMARK  7 active torsions:
REMARK  status: ('A' for Active; 'I' for Inactive)
REMARK    1  A    between atoms: N_2  and  N_3
REMARK    2  A    between atoms: N_2  and  C_5
REMARK    3  A    between atoms: N_3  and  C_18
REMARK    4  A    between atoms: C_6  and  N_13
REMARK    5  A    between atoms: C_8  and  N_16
REMARK    6  A    between atoms: C_19  and  N_26
REMARK    7  A    between atoms: C_21  and  N_29
REMARK                            x       y       z     vdW  Elec       q    Type
REMARK                         _______ _______ _______ _____ _____    ______ ____
ROOT
ATOM      1  O   UNL     1       0.068  -0.021  -1.734  0.00  0.00    -0.063 OA
ATOM      2  N   UNL     1      -0.363  -0.006  -0.530  0.00  0.00    -0.112 N 
ENDROOT
BRANCH   2   4
ATOM      3  C   UNL     1      -2.508  -1.147  -0.180  0.00  0.00    +0.020 C 
ATOM      4  C   UNL     1      -1.801   0.032  -0.303  0.00  0.00    +0.107 C 
ATOM      5  C   UNL     1      -3.885  -1.088   0.036  0.00  0.00    +0.142 C 
ATOM      6  C   UNL     1      -2.411   1.267  -0.219  0.00  0.00    +0.045 C 
ATOM      7  C   UNL     1      -3.788   1.326  -0.003  0.00  0.00    +0.146 C 
ATOM      8  C   UNL     1      -4.524   0.148   0.125  0.00  0.00    +0.048 C 
ATOM      9  C   UNL     1      -1.814  -2.470  -0.278  0.00  0.00    +0.034 C 
BRANCH   5  12
ATOM     10  O   UNL     1      -5.892  -2.174   0.364  0.00  0.00    -0.126 OA
ATOM     11  O   UNL     1      -4.081  -3.385   0.090  0.00  0.00    -0.126 OA
ATOM     12  N   UNL     1      -4.658  -2.274   0.170  0.00  0.00    +0.057 N 
ENDBRANCH   5  12
BRANCH   7  15
ATOM     13  O   UNL     1      -3.758   3.631  -0.031  0.00  0.00    -0.126 OA
ATOM     14  O   UNL     1      -5.678   2.615   0.282  0.00  0.00    -0.126 OA
ATOM     15  N   UNL     1      -4.439   2.584   0.087  0.00  0.00    +0.058 N 
ENDBRANCH   7  15
ENDBRANCH   2   4
BRANCH   2  16
ATOM     16  N   UNL     1       0.367  -0.008   0.522  0.00  0.00    -0.111 NA
BRANCH  16  18
ATOM     17  C   UNL     1       2.493   1.143   0.264  0.00  0.00    +0.018 C 
ATOM     18  C   UNL     1       1.757  -0.039   0.360  0.00  0.00    +0.091 C 
ATOM     19  C   UNL     1       3.877   1.091   0.103  0.00  0.00    +0.142 C 
ATOM     20  C   UNL     1       2.407  -1.272   0.296  0.00  0.00    +0.042 C 
ATOM     21  C   UNL     1       3.791  -1.323   0.136  0.00  0.00    +0.146 C 
ATOM     22  C   UNL     1       4.527  -0.142   0.039  0.00  0.00    +0.048 C 
ATOM     23  C   UNL     1       1.788   2.462   0.335  0.00  0.00    +0.034 C 
BRANCH  19  26
ATOM     24  O   UNL     1       5.891   2.188  -0.141  0.00  0.00    -0.126 OA
ATOM     25  O   UNL     1       4.065   3.389   0.060  0.00  0.00    -0.126 OA
ATOM     26  N   UNL     1       4.649   2.282   0.002  0.00  0.00    +0.057 N 
ENDBRANCH  19  26
BRANCH  21  29
ATOM     27  O   UNL     1       3.771  -3.629   0.156  0.00  0.00    -0.126 OA
ATOM     28  O   UNL     1       5.697  -2.603  -0.076  0.00  0.00    -0.126 OA
ATOM     29  N   UNL     1       4.451  -2.579   0.069  0.00  0.00    +0.058 N 
ENDBRANCH  21  29
ENDBRANCH  16  18
ENDBRANCH   2  16
TORSDOF 7
