REMARK  Name = 11496886
REMARK  5 active torsions:
REMARK  status: ('A' for Active; 'I' for Inactive)
REMARK    1  A    between atoms: N_2  and  S_14
REMARK    2  A    between atoms: C_10  and  O_28
REMARK    3  A    between atoms: S_14  and  C_18
REMARK    4  A    between atoms: C_19  and  C_25
REMARK    5  A    between atoms: C_25  and  O_26
REMARK                            x       y       z     vdW  Elec       q    Type
REMARK                         _______ _______ _______ _____ _____    ______ ____
ROOT
ATOM      1  O   UNL     1       0.284   0.702   1.102  0.00  0.00    -0.250 OA
ATOM      2  N   UNL     1      -0.715  -1.393   1.216  0.00  0.00    -0.168 N 
ATOM      3  N   UNL     1       1.498  -1.204   0.512  0.00  0.00    -0.191 N 
ATOM      4  N   UNL     1       3.679  -1.573  -0.243  0.00  0.00    -0.264 NA
ATOM      5  N   UNL     1       2.902   0.645   0.238  0.00  0.00    -0.229 NA
ATOM      6  N   UNL     1       5.147   0.302  -0.535  0.00  0.00    -0.247 NA
ATOM      7  C   UNL     1       0.383  -0.509   0.948  0.00  0.00    +0.333 C 
ATOM      8  C   UNL     1       2.761  -0.682   0.150  0.00  0.00    +0.229 C 
ATOM      9  C   UNL     1       4.852  -1.007  -0.571  0.00  0.00    +0.142 C 
ATOM     10  C   UNL     1       4.124   1.068  -0.121  0.00  0.00    +0.331 C 
ATOM     11  C   UNL     1       5.936  -1.926  -1.021  0.00  0.00    +0.145 C 
ATOM     12  H   UNL     1      -0.553  -2.359   1.118  0.00  0.00    +0.178 HD
ATOM     13  H   UNL     1       1.399  -2.181   0.446  0.00  0.00    +0.170 HD
ENDROOT
BRANCH   2  14
ATOM     14  S   UNL     1      -2.286  -0.903   1.694  0.00  0.00    +0.077 S 
ATOM     15  O   UNL     1      -2.178  -0.064   2.878  0.00  0.00    -0.150 OA
ATOM     16  O   UNL     1      -3.157  -2.068   1.710  0.00  0.00    -0.150 OA
BRANCH  14  18
ATOM     17  I   UNL     1      -3.419   4.346  -0.254  0.00  0.00    -0.042 I 
ATOM     18  C   UNL     1      -2.770   0.094   0.339  0.00  0.00    +0.132 C 
ATOM     19  C   UNL     1      -3.047  -0.463  -0.910  0.00  0.00    +0.094 C 
ATOM     20  C   UNL     1      -2.877   1.472   0.527  0.00  0.00    +0.026 C 
ATOM     21  C   UNL     1      -3.430   0.358  -1.970  0.00  0.00    +0.008 C 
ATOM     22  C   UNL     1      -3.260   2.294  -0.533  0.00  0.00    +0.031 C 
ATOM     23  C   UNL     1      -3.537   1.737  -1.782  0.00  0.00    +0.006 C 
BRANCH  19  25
ATOM     24  O   UNL     1      -3.862  -2.710  -0.995  0.00  0.00    -0.245 OA
ATOM     25  C   UNL     1      -2.946  -1.897  -1.144  0.00  0.00    +0.339 C 
BRANCH  25  26
ATOM     26  O   UNL     1      -1.705  -2.269  -1.558  0.00  0.00    -0.477 OA
ATOM     27  H   UNL     1      -1.032  -1.624  -1.660  0.00  0.00    +0.295 HD
ENDBRANCH  25  26
ENDBRANCH  19  25
ENDBRANCH  14  18
ENDBRANCH   2  14
BRANCH  10  28
ATOM     28  O   UNL     1       4.353   2.422  -0.058  0.00  0.00    -0.395 OA
ATOM     29  C   UNL     1       3.269   3.229   0.380  0.00  0.00    +0.271 C 
ENDBRANCH  10  28
TORSDOF 5
