REMARK  Name = 114973
REMARK  9 active torsions:
REMARK  status: ('A' for Active; 'I' for Inactive)
REMARK    1  A    between atoms: CA_1  and  C_4
REMARK    2  A    between atoms: CA_1  and  N_20
REMARK    3  A    between atoms: CA_1  and  CB_29
REMARK    4  A    between atoms: N_3  and  CA_6
REMARK    5  A    between atoms: CA_6  and  C_14
REMARK    6  A    between atoms: CA_10  and  C_16
REMARK    7  A    between atoms: C_16  and  O_17
REMARK    8  A    between atoms: C_21  and  C_23
REMARK    9  A    between atoms: CB_29  and  CG_30
REMARK                            x       y       z     vdW  Elec       q    Type
REMARK                         _______ _______ _______ _____ _____    ______ ____
ROOT
ATOM      1  CA  PHE A   1       1.703  -0.388   0.179  0.00  0.00    +0.153 C 
ENDROOT
BRANCH   1   4
ATOM      2  O   PHE A   1       0.913   1.600   1.319  0.00  0.00    -0.273 OA
ATOM      3  N   PHE A   1      -0.457   0.620  -0.283  0.00  0.00    -0.297 N 
ATOM      4  C   PHE A   1       0.697   0.712   0.496  0.00  0.00    +0.241 C 
ATOM      5  H   PHE A   1      -0.532  -0.132  -0.914  0.00  0.00    +0.150 HD
BRANCH   3   6
ATOM      6  CA  PHE A   1      -1.538   1.557  -0.217  0.00  0.00    +0.149 C 
ATOM      7  CB  PHE A   1      -1.417   2.648  -1.256  0.00  0.00    +0.031 C 
BRANCH   6  14
ATOM      8  O   PHE A   1      -2.731  -0.240  -1.226  0.00  0.00    -0.273 OA
ATOM      9  N   PHE A   1      -3.909   1.130   0.219  0.00  0.00    -0.270 N 
ATOM     10  CA  PHE A   1      -5.139   0.348   0.225  0.00  0.00    +0.175 C 
ATOM     11  CB  PHE A   1      -5.931   0.881   1.413  0.00  0.00    +0.033 C 
ATOM     12  CG  PHE A   1      -5.472   2.333   1.524  0.00  0.00    +0.024 C 
ATOM     13  CD  PHE A   1      -4.003   2.265   1.134  0.00  0.00    +0.094 C 
ATOM     14  C   PHE A   1      -2.772   0.724  -0.460  0.00  0.00    +0.244 C 
BRANCH  10  16
ATOM     15  OXT PHE A   1      -5.765   1.654  -1.711  0.00  0.00    -0.248 OA
ATOM     16  C   PHE A   1      -5.838   0.613  -1.075  0.00  0.00    +0.332 C 
BRANCH  16  17
ATOM     17  O   PHE A   1      -6.570  -0.463  -1.452  0.00  0.00    -0.479 OA
ATOM     18  H   PHE A   1      -6.583  -1.232  -0.918  0.00  0.00    +0.295 HD
ENDBRANCH  16  17
ENDBRANCH  10  16
ENDBRANCH   6  14
ENDBRANCH   3   6
ENDBRANCH   1   4
BRANCH   1  20
ATOM     19  O   UNK A   0       4.001  -1.083  -1.397  0.00  0.00    -0.270 OA
ATOM     20  N   PHE A   1       3.017   0.197   0.269  0.00  0.00    -0.295 N 
ATOM     21  C   UNK A   0       4.071  -0.206  -0.539  0.00  0.00    +0.246 C 
ATOM     22  H   PHE A   1       3.173   0.910   0.930  0.00  0.00    +0.150 HD
BRANCH  21  23
ATOM     23  C   UNK A   0       5.370   0.476  -0.304  0.00  0.00    +0.053 C 
ATOM     24  C   UNK A   0       6.538  -0.190  -0.611  0.00  0.00    +0.005 C 
ATOM     25  C   UNK A   0       5.366   1.755   0.214  0.00  0.00    +0.005 C 
ATOM     26  C   UNK A   0       7.757   0.451  -0.391  0.00  0.00    +0.000 C 
ATOM     27  C   UNK A   0       6.585   2.396   0.434  0.00  0.00    +0.000 C 
ATOM     28  C   UNK A   0       7.780   1.744   0.132  0.00  0.00    +0.000 C 
ENDBRANCH  21  23
ENDBRANCH   1  20
BRANCH   1  29
ATOM     29  CB  PHE A   1       1.526  -1.567   1.143  0.00  0.00    +0.055 C 
BRANCH  29  30
ATOM     30  CG  PHE A   1       0.400  -2.487   0.739  0.00  0.00    -0.020 C 
ATOM     31  CD1 PHE A   1      -0.879  -2.245   1.217  0.00  0.00    -0.004 C 
ATOM     32  CD2 PHE A   1       0.664  -3.556  -0.102  0.00  0.00    -0.004 C 
ATOM     33  CE1 PHE A   1      -1.920  -3.095   0.844  0.00  0.00    -0.000 C 
ATOM     34  CE2 PHE A   1      -0.378  -4.406  -0.475  0.00  0.00    -0.000 C 
ATOM     35  CZ  PHE A   1      -1.670  -4.176  -0.002  0.00  0.00    -0.000 C 
ENDBRANCH  29  30
ENDBRANCH   1  29
TORSDOF 9
