REMARK  Name = 114918
REMARK  5 active torsions:
REMARK  status: ('A' for Active; 'I' for Inactive)
REMARK    1  A    between atoms: C_8  and  C_20
REMARK    2  A    between atoms: C_9  and  N_16
REMARK    3  A    between atoms: C_10  and  C_24
REMARK    4  A    between atoms: C_20  and  O_21
REMARK    5  A    between atoms: C_24  and  O_25
REMARK                            x       y       z     vdW  Elec       q    Type
REMARK                         _______ _______ _______ _____ _____    ______ ____
ROOT
ATOM      1  O   UNL     1       0.288  -2.365  -0.013  0.00  0.00    -0.449 OA
ATOM      2  O   UNL     1      -4.382  -1.936   0.052  0.00  0.00    -0.285 OA
ATOM      3  N   UNL     1       0.438   0.492   0.003  0.00  0.00    -0.399 NA
ATOM      4  C   UNL     1      -0.720  -0.098   0.014  0.00  0.00    +0.173 C 
ATOM      5  C   UNL     1      -0.853  -1.577   0.007  0.00  0.00    +0.178 C 
ATOM      6  C   UNL     1       1.582  -0.320  -0.016  0.00  0.00    +0.158 C 
ATOM      7  C   UNL     1       1.497  -1.715  -0.024  0.00  0.00    +0.171 C 
ATOM      8  C   UNL     1      -1.981   0.710   0.035  0.00  0.00    +0.124 C 
ATOM      9  C   UNL     1      -3.198   0.133   0.048  0.00  0.00    +0.090 C 
ATOM     10  C   UNL     1       2.846   0.279  -0.028  0.00  0.00    +0.176 C 
ATOM     11  C   UNL     1      -2.055  -2.150   0.019  0.00  0.00    +0.083 C 
ATOM     12  C   UNL     1      -3.296  -1.359   0.041  0.00  0.00    +0.212 C 
ATOM     13  C   UNL     1       2.648  -2.505  -0.043  0.00  0.00    +0.040 C 
ATOM     14  C   UNL     1       4.001  -0.506  -0.047  0.00  0.00    -0.008 C 
ATOM     15  C   UNL     1       3.901  -1.897  -0.055  0.00  0.00    -0.000 C 
ENDROOT
BRANCH   9  16
ATOM     16  N   UNL     1      -4.417   0.756   0.069  0.00  0.00    -0.354 N 
ATOM     17  H   UNL     1      -4.467   1.740   0.075  0.00  0.00    +0.142 HD
ATOM     18  H   UNL     1      -5.243   0.221   0.077  0.00  0.00    +0.142 HD
ENDBRANCH   9  16
BRANCH   8  20
ATOM     19  O   UNL     1      -1.839   2.855   1.049  0.00  0.00    -0.245 OA
ATOM     20  C   UNL     1      -1.893   2.185   0.043  0.00  0.00    +0.342 C 
BRANCH  20  21
ATOM     21  O   UNL     1      -1.884   2.631  -1.226  0.00  0.00    -0.477 OA
ATOM     22  H   UNL     1      -1.930   2.022  -1.937  0.00  0.00    +0.295 HD
ENDBRANCH  20  21
ENDBRANCH   8  20
BRANCH  10  24
ATOM     23  O   UNL     1       2.190   2.528  -0.508  0.00  0.00    -0.249 OA
ATOM     24  C   UNL     1       2.992   1.729  -0.020  0.00  0.00    +0.324 C 
BRANCH  24  25
ATOM     25  O   UNL     1       4.134   2.131   0.599  0.00  0.00    -0.480 OA
ATOM     26  H   UNL     1       4.721   1.495   0.959  0.00  0.00    +0.295 HD
ENDBRANCH  24  25
ENDBRANCH  10  24
TORSDOF 5
