REMARK  Name = 114989
REMARK  6 active torsions:
REMARK  status: ('A' for Active; 'I' for Inactive)
REMARK    1  A    between atoms: N_1  and  O_9
REMARK    2  A    between atoms: C_4  and  C_16
REMARK    3  A    between atoms: O_9  and  P_10
REMARK    4  A    between atoms: P_10  and  O_12
REMARK    5  A    between atoms: P_10  and  O_14
REMARK    6  A    between atoms: C_16  and  N_17
REMARK                            x       y       z     vdW  Elec       q    Type
REMARK                         _______ _______ _______ _____ _____    ______ ____
ROOT
ATOM      1  N   UNL     1       0.237  -0.865   0.017  0.00  0.00    -0.203 N 
ATOM      2  N   UNL     1      -1.097  -2.688  -0.017  0.00  0.00    -0.238 NA
ATOM      3  N   UNL     1       1.040  -2.786  -1.082  0.00  0.00    -0.328 N 
ATOM      4  C   UNL     1      -0.985  -0.293   0.511  0.00  0.00    +0.117 C 
ATOM      5  C   UNL     1      -1.781  -1.595   0.753  0.00  0.00    +0.151 C 
ATOM      6  C   UNL     1       0.057  -2.163  -0.371  0.00  0.00    +0.210 C 
ATOM      7  H   UNL     1       1.871  -2.305  -1.298  0.00  0.00    +0.145 HD
ATOM      8  H   UNL     1       0.918  -3.716  -1.379  0.00  0.00    +0.145 HD
ENDROOT
BRANCH   1   9
ATOM      9  O   UNL     1       1.169  -0.070  -0.612  0.00  0.00    -0.163 OA
BRANCH   9  10
ATOM     10  P   UNL     1       2.299   0.473   0.413  0.00  0.00    +0.497 P 
ATOM     11  O   UNL     1       3.099  -0.593   1.105  0.00  0.00    -0.225 OA
BRANCH  10  12
ATOM     12  O   UNL     1       3.188   1.514  -0.453  0.00  0.00    -0.269 OA
ATOM     13  C   UNL     1       2.559   2.570  -1.158  0.00  0.00    +0.186 C 
ENDBRANCH  10  12
BRANCH  10  14
ATOM     14  O   UNL     1       1.462   1.424   1.421  0.00  0.00    -0.301 OA
ATOM     15  H   UNL     1       0.971   2.086   0.909  0.00  0.00    +0.222 HD
ENDBRANCH  10  14
ENDBRANCH   9  10
ENDBRANCH   1   9
BRANCH   4  16
ATOM     16  C   UNL     1      -1.663   0.599  -0.521  0.00  0.00    -0.050 C 
BRANCH  16  17
ATOM     17  N   UNL     1      -2.984   0.974  -0.104  0.00  0.00    +0.385 N 
ATOM     18  C   UNL     1      -3.639   1.835  -1.101  0.00  0.00    -0.101 C 
ATOM     19  C   UNL     1      -2.961   1.663   1.197  0.00  0.00    -0.101 C 
ATOM     20  H   UNL     1      -3.519   0.110  -0.011  0.00  0.00    -0.080 HD
ENDBRANCH  16  17
ENDBRANCH   4  16
TORSDOF 6
