11493841
  -OEChem-03292013303D

 49 51  0     1  0  0  0  0  0999 V2000
    3.4127    3.5336    0.5776 O   0  0  0  0  0  0  0  0  0  0  0  0
   -2.3598    1.0708    0.1568 N   0  0  0  0  0  0  0  0  0  0  0  0
   -4.3879    0.6607    2.1673 N   0  0  0  0  0  0  0  0  0  0  0  0
   -0.0539    0.6801    0.3436 N   0  0  0  0  0  0  0  0  0  0  0  0
   -0.8909    2.8137   -0.4007 N   0  0  0  0  0  0  0  0  0  0  0  0
    2.2799    0.3075    0.5246 N   0  0  0  0  0  0  0  0  0  0  0  0
    3.4565    2.8091   -1.5977 N   0  0  0  0  0  0  0  0  0  0  0  0
   -2.7001   -0.2686    0.6022 C   0  0  1  0  0  0  0  0  0  0  0  0
   -4.1468   -0.3404    1.1273 C   0  0  2  0  0  0  0  0  0  0  0  0
   -2.4788   -1.2564   -0.5495 C   0  0  0  0  0  0  0  0  0  0  0  0
   -5.1870   -0.1946    0.0081 C   0  0  0  0  0  0  0  0  0  0  0  0
   -3.5225   -1.1156   -1.6581 C   0  0  0  0  0  0  0  0  0  0  0  0
   -4.9440   -1.2037   -1.1123 C   0  0  0  0  0  0  0  0  0  0  0  0
   -1.0851    1.5273    0.0312 C   0  0  0  0  0  0  0  0  0  0  0  0
    1.1976    1.1659    0.2092 C   0  0  0  0  0  0  0  0  0  0  0  0
    0.3862    3.2341   -0.5123 C   0  0  0  0  0  0  0  0  0  0  0  0
    1.4809    2.4468   -0.2187 C   0  0  0  0  0  0  0  0  0  0  0  0
    2.4360   -1.0859    0.4526 C   0  0  0  0  0  0  0  0  0  0  0  0
    2.8289    2.9721   -0.3661 C   0  0  0  0  0  0  0  0  0  0  0  0
    1.7443   -1.8231   -0.5132 C   0  0  0  0  0  0  0  0  0  0  0  0
    3.2853   -1.7458    1.3460 C   0  0  0  0  0  0  0  0  0  0  0  0
    1.8999   -3.2074   -0.5848 C   0  0  0  0  0  0  0  0  0  0  0  0
    3.4411   -3.1301    1.2742 C   0  0  0  0  0  0  0  0  0  0  0  0
    2.7483   -3.8610    0.3089 C   0  0  0  0  0  0  0  0  0  0  0  0
    1.1592   -3.9891   -1.6162 C   0  0  0  0  0  0  0  0  0  0  0  0
   -2.0390   -0.5475    1.4346 H   0  0  0  0  0  0  0  0  0  0  0  0
   -4.2861   -1.3274    1.5878 H   0  0  0  0  0  0  0  0  0  0  0  0
   -2.5335   -2.2773   -0.1494 H   0  0  0  0  0  0  0  0  0  0  0  0
   -1.4801   -1.1521   -0.9866 H   0  0  0  0  0  0  0  0  0  0  0  0
   -5.1677    0.8195   -0.4108 H   0  0  0  0  0  0  0  0  0  0  0  0
   -6.1964   -0.3464    0.4106 H   0  0  0  0  0  0  0  0  0  0  0  0
   -3.3687   -1.9018   -2.4062 H   0  0  0  0  0  0  0  0  0  0  0  0
   -3.3873   -0.1576   -2.1746 H   0  0  0  0  0  0  0  0  0  0  0  0
   -5.6611   -1.0328   -1.9232 H   0  0  0  0  0  0  0  0  0  0  0  0
   -5.1264   -2.2173   -0.7344 H   0  0  0  0  0  0  0  0  0  0  0  0
   -3.1039    1.6990   -0.1223 H   0  0  0  0  0  0  0  0  0  0  0  0
   -5.3564    0.6041    2.4805 H   0  0  0  0  0  0  0  0  0  0  0  0
   -4.2717    1.5959    1.7791 H   0  0  0  0  0  0  0  0  0  0  0  0
    0.4988    4.2574   -0.8569 H   0  0  0  0  0  0  0  0  0  0  0  0
    3.0159    0.7738    1.0484 H   0  0  0  0  0  0  0  0  0  0  0  0
    1.0929   -1.3243   -1.2270 H   0  0  0  0  0  0  0  0  0  0  0  0
    3.8309   -1.1893    2.1040 H   0  0  0  0  0  0  0  0  0  0  0  0
    4.1019   -3.6390    1.9699 H   0  0  0  0  0  0  0  0  0  0  0  0
    2.8798   -4.9388    0.2628 H   0  0  0  0  0  0  0  0  0  0  0  0
    1.0127   -5.0277   -1.3006 H   0  0  0  0  0  0  0  0  0  0  0  0
    0.1646   -3.5640   -1.7898 H   0  0  0  0  0  0  0  0  0  0  0  0
    1.7137   -3.9866   -2.5598 H   0  0  0  0  0  0  0  0  0  0  0  0
    3.0008    2.3464   -2.3779 H   0  0  0  0  0  0  0  0  0  0  0  0
    4.3991    3.1510   -1.7522 H   0  0  0  0  0  0  0  0  0  0  0  0
  1 19  2  0  0  0  0
  2  8  1  0  0  0  0
  2 14  1  0  0  0  0
  2 36  1  0  0  0  0
  3  9  1  0  0  0  0
  3 37  1  0  0  0  0
  3 38  1  0  0  0  0
  4 14  1  0  0  0  0
  4 15  2  0  0  0  0
  5 14  2  0  0  0  0
  5 16  1  0  0  0  0
  6 15  1  0  0  0  0
  6 18  1  0  0  0  0
  6 40  1  0  0  0  0
  7 19  1  0  0  0  0
  7 48  1  0  0  0  0
  7 49  1  0  0  0  0
  8  9  1  0  0  0  0
  8 10  1  0  0  0  0
  8 26  1  0  0  0  0
  9 11  1  0  0  0  0
  9 27  1  0  0  0  0
 10 12  1  0  0  0  0
 10 28  1  0  0  0  0
 10 29  1  0  0  0  0
 11 13  1  0  0  0  0
 11 30  1  0  0  0  0
 11 31  1  0  0  0  0
 12 13  1  0  0  0  0
 12 32  1  0  0  0  0
 12 33  1  0  0  0  0
 13 34  1  0  0  0  0
 13 35  1  0  0  0  0
 15 17  1  0  0  0  0
 16 17  2  0  0  0  0
 16 39  1  0  0  0  0
 17 19  1  0  0  0  0
 18 20  1  0  0  0  0
 18 21  2  0  0  0  0
 20 22  2  0  0  0  0
 20 41  1  0  0  0  0
 21 23  1  0  0  0  0
 21 42  1  0  0  0  0
 22 24  1  0  0  0  0
 22 25  1  0  0  0  0
 23 24  2  0  0  0  0
 23 43  1  0  0  0  0
 24 44  1  0  0  0  0
 25 45  1  0  0  0  0
 25 46  1  0  0  0  0
 25 47  1  0  0  0  0
M  END
> <PUBCHEM_COMPOUND_CID>
11493841

> <PUBCHEM_CONFORMER_RMSD>
0.8

> <PUBCHEM_CONFORMER_DIVERSEORDER>
1
203
300
268
175
235
330
329
236
241
277
365
194
237
112
287
331
322
357
361
147
190
176
324
310
304
335
233
156
169
320
133
60
100
309
24
62
245
317
360
124
155
68
247
364
369
191
366
362
325
117
83
261
150
354
140
160
85
265
195
238
280
321
298
129
294
356
288
275
222
228
168
289
138
145
349
65
273
199
61
122
326
161
302
174
120
370
178
323
307
375
52
170
196
171
159
202
30
179
198
351
9
148
285
177
218
291
172
262
98
232
81
8
50
106
306
93
219
359
282
23
211
54
162
278
279
220
71
374
95
221
276
135
104
363
153
53
173
7
267
350
89
67
137
355
63
206
139
183
313
131
250
353
334
229
119
193
88
66
372
149
214
303
146
371
315
11
35
318
74
249
244
340
226
271
328
136
296
48
259
344
205
17
311
281
230
346
141
225
192
246
253
105
82
283
64
51
166
123
209
210
305
80
34
167
121
327
231
352
132
108
348
91
358
163
157
242
373
312
286
216
158
77
258
181
343
2
103
107
134
319
87
33
97
292
316
255
345
37
227
36
31
128
75
234
301
217
25
263
197
347
256
213
260
130
295
269
76
154
367
44
293
284
215
26
46
58
337
57
308
90
272
18
270
94
336
266
207
111
56
200
339
223
55
239
19
47
297
264
165
79
299
3
257
72
32
78
41
20
28
116
290
59
102
254
224
208
240
27
109
39
125
12
84
144
43
92
21
115
243
127
314
201
368
70
73
69
126
14
40
204
188
184
142
42
110
248
143
251
13
185
189
342
118
332
212
113
333
16
252
15
338
182
186
101
45
86
151
152
180
96
10
187
22
38
341
99
274
49
114
4
164
5
6
29

> <PUBCHEM_MMFF94_PARTIAL_CHARGES>
32
1 -0.57
14 0.72
15 0.41
16 0.16
17 0.09
18 0.1
19 0.54
2 -0.87
20 -0.15
21 -0.15
22 -0.14
23 -0.15
24 -0.15
25 0.14
3 -0.99
36 0.4
37 0.36
38 0.36
39 0.15
4 -0.62
40 0.4
41 0.15
42 0.15
43 0.15
44 0.15
48 0.37
49 0.37
5 -0.62
6 -0.6
7 -0.8
8 0.37
9 0.27

> <PUBCHEM_EFFECTIVE_ROTOR_COUNT>
6.2

> <PUBCHEM_PHARMACOPHORE_FEATURES>
10
1 1 acceptor
1 2 donor
1 3 cation
1 3 donor
1 6 donor
1 7 donor
4 2 4 5 14 cation
6 18 20 21 22 23 24 rings
6 4 5 14 15 16 17 rings
6 8 9 10 11 12 13 rings

> <PUBCHEM_HEAVY_ATOM_COUNT>
25

> <PUBCHEM_ATOM_DEF_STEREO_COUNT>
2

> <PUBCHEM_ATOM_UDEF_STEREO_COUNT>
0

> <PUBCHEM_BOND_DEF_STEREO_COUNT>
0

> <PUBCHEM_BOND_UDEF_STEREO_COUNT>
0

> <PUBCHEM_ISOTOPIC_ATOM_COUNT>
0

> <PUBCHEM_COMPONENT_COUNT>
1

> <PUBCHEM_CACTVS_TAUTO_COUNT>
21

> <PUBCHEM_CONFORMER_ID>
00AF61D100000001

> <PUBCHEM_MMFF94_ENERGY>
77.8628

> <PUBCHEM_FEATURE_SELFOVERLAP>
50.749

> <PUBCHEM_SHAPE_FINGERPRINT>
1100329 8 17042320013077496962
11578080 2 17241323560647129972
12107183 9 18124604089876552921
12363563 72 18189337857656018235
12403259 327 16343407420083828475
12422481 6 17767993951800966737
12553582 1 18339085873723277583
13052359 8 17616527806501169152
13083527 12 18337373985995612784
13140716 1 18265895946407698994
13149001 5 17682372785626465013
13533116 47 18341613755010254355
13690498 29 17548994251867211710
138480 1 18410289173106581238
13911987 19 17827080915560323125
1454969 45 18410562982300060738
14790565 3 18121218946355578460
14844126 61 17614550450286085378
14863182 85 18117009972720381028
14866123 147 17906160008913266472
15042514 8 17543351549111835130
17138139 8 17051872506123772127
17818456 19 17701550506804716897
1813 80 18266746779160316339
19591789 44 18193278722589528028
20645477 70 18261102015538770713
21285901 2 17677591194952588853
21421861 104 18341066128793445153
21796203 349 18050321130952606250
2255824 54 18411703230953920430
23559900 14 18338784624859320609
3421961 26 18408042896689462825
38695281 34 18193273233036105628
5265222 85 15458207853029690126
57091435 65 18410016541673268150
59682541 52 18193528209066524703
6669772 16 18267312109327278540
7064713 232 17417523597791839115

> <PUBCHEM_SHAPE_MULTIPOLES>
478.73
8.87
5.49
1.43
10.35
0.65
-0.08
-3.58
-1.49
-8.08
1.57
0.57
-0.58
-1.61

> <PUBCHEM_SHAPE_SELFOVERLAP>
1014.559

> <PUBCHEM_SHAPE_VOLUME>
264.6

> <PUBCHEM_COORDINATE_TYPE>
2
5
10

$$$$
