11493311
  -OEChem-03292013303D

 40 41  0     1  0  0  0  0  0999 V2000
   -1.7366    1.0286   -1.1422 O   0  0  0  0  0  0  0  0  0  0  0  0
   -3.6313   -0.5404    1.4669 O   0  0  0  0  0  0  0  0  0  0  0  0
   -4.4911    1.5393   -0.0739 O   0  0  0  0  0  0  0  0  0  0  0  0
   -0.1711    3.3395   -0.8648 O   0  0  0  0  0  0  0  0  0  0  0  0
   -2.2807   -2.9651   -0.3510 O   0  0  0  0  0  0  0  0  0  0  0  0
    2.2760   -3.4023    0.0947 O   0  0  0  0  0  0  0  0  0  0  0  0
   -0.9962   -1.0162   -0.2846 N   0  0  0  0  0  0  0  0  0  0  0  0
   -0.0071   -3.1686   -0.1287 N   0  0  0  0  0  0  0  0  0  0  0  0
   -2.6574    0.3284    0.9260 C   0  0  2  0  0  0  0  0  0  0  0  0
   -3.2288    1.6861    0.5761 C   0  0  1  0  0  0  0  0  0  0  0  0
   -2.1310   -0.1476   -0.4170 C   0  0  1  0  0  0  0  0  0  0  0  0
   -2.2287    2.1979   -0.4515 C   0  0  1  0  0  0  0  0  0  0  0  0
   -1.0394    2.9164    0.1717 C   0  0  0  0  0  0  0  0  0  0  0  0
    0.2817   -0.4767   -0.1791 C   0  0  0  0  0  0  0  0  0  0  0  0
   -1.1800   -2.4171   -0.2618 C   0  0  0  0  0  0  0  0  0  0  0  0
    1.3997   -1.2010   -0.0522 C   0  0  0  0  0  0  0  0  0  0  0  0
    1.2874   -2.6825   -0.0198 C   0  0  0  0  0  0  0  0  0  0  0  0
    2.6706   -0.5729    0.0498 C   0  0  0  0  0  0  0  0  0  0  0  0
    5.0574    0.6091    0.2410 C   0  0  0  0  0  0  0  0  0  0  0  0
    3.7432   -0.0402    0.1355 C   0  0  0  0  0  0  0  0  0  0  0  0
    5.0072    2.0856   -0.1510 C   0  0  0  0  0  0  0  0  0  0  0  0
    4.0560    2.8996    0.7161 C   0  0  0  0  0  0  0  0  0  0  0  0
   -1.8509    0.4446    1.6600 H   0  0  0  0  0  0  0  0  0  0  0  0
   -3.3726    2.3414    1.4390 H   0  0  0  0  0  0  0  0  0  0  0  0
   -2.9110   -0.6580   -0.9946 H   0  0  0  0  0  0  0  0  0  0  0  0
   -2.6975    2.8375   -1.2081 H   0  0  0  0  0  0  0  0  0  0  0  0
   -0.4752    2.2831    0.8606 H   0  0  0  0  0  0  0  0  0  0  0  0
   -1.3777    3.8030    0.7180 H   0  0  0  0  0  0  0  0  0  0  0  0
   -3.2130   -1.4099    1.5861 H   0  0  0  0  0  0  0  0  0  0  0  0
   -4.3657    1.0491   -0.9034 H   0  0  0  0  0  0  0  0  0  0  0  0
    0.3610    0.6008   -0.2047 H   0  0  0  0  0  0  0  0  0  0  0  0
    0.5765    3.7973   -0.4439 H   0  0  0  0  0  0  0  0  0  0  0  0
   -0.1168   -4.1787   -0.1100 H   0  0  0  0  0  0  0  0  0  0  0  0
    5.4323    0.5138    1.2668 H   0  0  0  0  0  0  0  0  0  0  0  0
    5.7736    0.0915   -0.4076 H   0  0  0  0  0  0  0  0  0  0  0  0
    6.0154    2.5082   -0.0684 H   0  0  0  0  0  0  0  0  0  0  0  0
    4.7035    2.1842   -1.2005 H   0  0  0  0  0  0  0  0  0  0  0  0
    3.0150    2.5911    0.5785 H   0  0  0  0  0  0  0  0  0  0  0  0
    4.1228    3.9596    0.4502 H   0  0  0  0  0  0  0  0  0  0  0  0
    4.3098    2.8012    1.7765 H   0  0  0  0  0  0  0  0  0  0  0  0
  1 11  1  0  0  0  0
  1 12  1  0  0  0  0
  2  9  1  0  0  0  0
  2 29  1  0  0  0  0
  3 10  1  0  0  0  0
  3 30  1  0  0  0  0
  4 13  1  0  0  0  0
  4 32  1  0  0  0  0
  5 15  2  0  0  0  0
  6 17  2  0  0  0  0
  7 11  1  0  0  0  0
  7 14  1  0  0  0  0
  7 15  1  0  0  0  0
  8 15  1  0  0  0  0
  8 17  1  0  0  0  0
  8 33  1  0  0  0  0
  9 10  1  0  0  0  0
  9 11  1  0  0  0  0
  9 23  1  0  0  0  0
 10 12  1  0  0  0  0
 10 24  1  0  0  0  0
 11 25  1  0  0  0  0
 12 13  1  0  0  0  0
 12 26  1  0  0  0  0
 13 27  1  0  0  0  0
 13 28  1  0  0  0  0
 14 16  2  0  0  0  0
 14 31  1  0  0  0  0
 16 17  1  0  0  0  0
 16 18  1  0  0  0  0
 18 20  3  0  0  0  0
 19 20  1  0  0  0  0
 19 21  1  0  0  0  0
 19 34  1  0  0  0  0
 19 35  1  0  0  0  0
 21 22  1  0  0  0  0
 21 36  1  0  0  0  0
 21 37  1  0  0  0  0
 22 38  1  0  0  0  0
 22 39  1  0  0  0  0
 22 40  1  0  0  0  0
M  END
> <PUBCHEM_COMPOUND_CID>
11493311

> <PUBCHEM_CONFORMER_RMSD>
0.6

> <PUBCHEM_CONFORMER_DIVERSEORDER>
1
15
40
25
35
44
28
34
10
12
19
21
20
29
32
16
39
36
7
17
6
42
45
31
37
3
41
38
11
33
5
18
23
22
9
26
24
27
8
43
2
14
30
4
13

> <PUBCHEM_MMFF94_PARTIAL_CHARGES>
25
1 -0.56
10 0.28
11 0.58
12 0.28
13 0.28
14 -0.04
15 0.69
16 0.08
17 0.62
18 -0.06
19 0.2
2 -0.68
20 -0.2
29 0.4
3 -0.68
30 0.4
31 0.15
32 0.4
33 0.37
4 -0.68
5 -0.57
6 -0.57
7 -0.47
8 -0.49
9 0.28

> <PUBCHEM_EFFECTIVE_ROTOR_COUNT>
4

> <PUBCHEM_PHARMACOPHORE_FEATURES>
13
1 1 acceptor
1 2 acceptor
1 2 donor
1 22 hydrophobe
1 3 acceptor
1 3 donor
1 4 acceptor
1 4 donor
1 5 acceptor
1 6 acceptor
1 8 donor
5 1 9 10 11 12 rings
6 7 8 14 15 16 17 rings

> <PUBCHEM_HEAVY_ATOM_COUNT>
22

> <PUBCHEM_ATOM_DEF_STEREO_COUNT>
4

> <PUBCHEM_ATOM_UDEF_STEREO_COUNT>
0

> <PUBCHEM_BOND_DEF_STEREO_COUNT>
0

> <PUBCHEM_BOND_UDEF_STEREO_COUNT>
0

> <PUBCHEM_ISOTOPIC_ATOM_COUNT>
0

> <PUBCHEM_COMPONENT_COUNT>
1

> <PUBCHEM_CACTVS_TAUTO_COUNT>
3

> <PUBCHEM_CONFORMER_ID>
00AF5FBF00000001

> <PUBCHEM_MMFF94_ENERGY>
44.9387

> <PUBCHEM_FEATURE_SELFOVERLAP>
65.991

> <PUBCHEM_SHAPE_FINGERPRINT>
10411042 1 17402329768783364878
10493431 412 18412831304151462985
10498660 4 18337944684112266660
10608611 8 17759806940326831631
10670039 82 18118974822402501036
10871710 139 18267582605523457486
1100329 8 17617378828031959075
12173636 292 18267578190782380478
12390115 104 18270134512177219938
12403260 363 17907001894879591475
12633257 1 18411689994545560072
13140716 1 18266185117496214528
13583140 156 17168971293356122138
138480 1 17547007425543137412
14123255 52 18411700967801600034
14790565 3 18412550894385255193
15163728 17 15337169477037892833
15342168 16 18341050714108307789
15403338 16 16879607311867990856
17834072 32 18412262839697319472
19930381 70 18266736879144725873
20510252 161 18268991075924520370
20621476 13 17688579473305218660
21623110 236 18123469646478028008
22182937 141 18342460395589674872
23227448 37 18341894134047767164
23557571 272 18127703832018905804
23559900 14 17976816484858941009
27216 239 18334860519409678929
283562 15 18194392527331278410
350125 39 18196093471876619345
5104073 3 18118133463682898985
7808743 9 18338235002901705168

> <PUBCHEM_SHAPE_MULTIPOLES>
407.57
8.42
4.52
0.86
7.96
0.93
-0.09
-5.85
-1.47
0.46
0.34
-0.47
-0.24
0.23

> <PUBCHEM_SHAPE_SELFOVERLAP>
846.476

> <PUBCHEM_SHAPE_VOLUME>
230.4

> <PUBCHEM_COORDINATE_TYPE>
2
5
10

$$$$
