11496886
  -OEChem-03292013303D

 38 39  0     0  0  0  0  0  0999 V2000
   -3.4191    4.3462   -0.2543 I   0  0  0  0  0  0  0  0  0  0  0  0
   -2.2857   -0.9033    1.6941 S   0  0  0  0  0  0  0  0  0  0  0  0
   -2.1784   -0.0644    2.8785 O   0  0  0  0  0  0  0  0  0  0  0  0
   -3.1570   -2.0685    1.7100 O   0  0  0  0  0  0  0  0  0  0  0  0
   -1.7046   -2.2686   -1.5579 O   0  0  0  0  0  0  0  0  0  0  0  0
    0.2840    0.7017    1.1021 O   0  0  0  0  0  0  0  0  0  0  0  0
   -3.8620   -2.7103   -0.9951 O   0  0  0  0  0  0  0  0  0  0  0  0
    4.3529    2.4225   -0.0581 O   0  0  0  0  0  0  0  0  0  0  0  0
   -0.7152   -1.3934    1.2161 N   0  0  0  0  0  0  0  0  0  0  0  0
    1.4978   -1.2038    0.5119 N   0  0  0  0  0  0  0  0  0  0  0  0
    3.6793   -1.5734   -0.2426 N   0  0  0  0  0  0  0  0  0  0  0  0
    2.9016    0.6451    0.2385 N   0  0  0  0  0  0  0  0  0  0  0  0
    5.1470    0.3023   -0.5354 N   0  0  0  0  0  0  0  0  0  0  0  0
   -2.7700    0.0944    0.3390 C   0  0  0  0  0  0  0  0  0  0  0  0
   -3.0466   -0.4627   -0.9097 C   0  0  0  0  0  0  0  0  0  0  0  0
   -2.8765    1.4725    0.5272 C   0  0  0  0  0  0  0  0  0  0  0  0
   -3.4303    0.3585   -1.9699 C   0  0  0  0  0  0  0  0  0  0  0  0
   -3.2599    2.2936   -0.5332 C   0  0  0  0  0  0  0  0  0  0  0  0
   -3.5370    1.7367   -1.7817 C   0  0  0  0  0  0  0  0  0  0  0  0
    0.3825   -0.5095    0.9479 C   0  0  0  0  0  0  0  0  0  0  0  0
   -2.9460   -1.8972   -1.1440 C   0  0  0  0  0  0  0  0  0  0  0  0
    2.7615   -0.6825    0.1498 C   0  0  0  0  0  0  0  0  0  0  0  0
    4.8517   -1.0072   -0.5711 C   0  0  0  0  0  0  0  0  0  0  0  0
    4.1243    1.0677   -0.1213 C   0  0  0  0  0  0  0  0  0  0  0  0
    5.9362   -1.9261   -1.0208 C   0  0  0  0  0  0  0  0  0  0  0  0
    3.2694    3.2295    0.3802 C   0  0  0  0  0  0  0  0  0  0  0  0
   -2.6605    1.9175    1.4948 H   0  0  0  0  0  0  0  0  0  0  0  0
   -0.5898   -2.3890    0.9935 H   0  0  0  0  0  0  0  0  0  0  0  0
   -3.6489   -0.0633   -2.9478 H   0  0  0  0  0  0  0  0  0  0  0  0
   -3.8374    2.3583   -2.6214 H   0  0  0  0  0  0  0  0  0  0  0  0
    1.4190   -2.2142    0.4352 H   0  0  0  0  0  0  0  0  0  0  0  0
    6.5180   -2.2612   -0.1571 H   0  0  0  0  0  0  0  0  0  0  0  0
    5.5182   -2.8034   -1.5242 H   0  0  0  0  0  0  0  0  0  0  0  0
    6.6083   -1.4213   -1.7219 H   0  0  0  0  0  0  0  0  0  0  0  0
   -1.6449   -3.2356   -1.7113 H   0  0  0  0  0  0  0  0  0  0  0  0
    2.9765    2.9738    1.4042 H   0  0  0  0  0  0  0  0  0  0  0  0
    2.4156    3.1470   -0.3010 H   0  0  0  0  0  0  0  0  0  0  0  0
    3.6022    4.2718    0.3766 H   0  0  0  0  0  0  0  0  0  0  0  0
  1 18  1  0  0  0  0
  2  3  2  0  0  0  0
  2  4  2  0  0  0  0
  2  9  1  0  0  0  0
  2 14  1  0  0  0  0
  5 21  1  0  0  0  0
  5 35  1  0  0  0  0
  6 20  2  0  0  0  0
  7 21  2  0  0  0  0
  8 24  1  0  0  0  0
  8 26  1  0  0  0  0
  9 20  1  0  0  0  0
  9 28  1  0  0  0  0
 10 20  1  0  0  0  0
 10 22  1  0  0  0  0
 10 31  1  0  0  0  0
 11 22  1  0  0  0  0
 11 23  2  0  0  0  0
 12 22  2  0  0  0  0
 12 24  1  0  0  0  0
 13 23  1  0  0  0  0
 13 24  2  0  0  0  0
 14 15  2  0  0  0  0
 14 16  1  0  0  0  0
 15 17  1  0  0  0  0
 15 21  1  0  0  0  0
 16 18  2  0  0  0  0
 16 27  1  0  0  0  0
 17 19  2  0  0  0  0
 17 29  1  0  0  0  0
 18 19  1  0  0  0  0
 19 30  1  0  0  0  0
 23 25  1  0  0  0  0
 25 32  1  0  0  0  0
 25 33  1  0  0  0  0
 25 34  1  0  0  0  0
 26 36  1  0  0  0  0
 26 37  1  0  0  0  0
 26 38  1  0  0  0  0
M  END
> <PUBCHEM_COMPOUND_CID>
11496886

> <PUBCHEM_CONFORMER_RMSD>
0.8

> <PUBCHEM_CONFORMER_DIVERSEORDER>
1
218
231
126
174
115
134
138
180
30
146
197
131
244
87
237
7
171
114
154
238
85
177
71
166
225
80
159
245
93
144
239
129
88
229
145
165
5
44
163
137
170
140
152
101
173
206
108
70
124
149
27
8
249
52
67
233
153
181
123
54
84
89
220
109
83
232
191
22
16
243
90
175
40
162
228
196
76
219
97
204
59
147
96
136
55
194
207
248
120
201
178
167
37
111
223
122
242
216
179
195
202
186
133
143
95
73
91
33
75
11
176
78
110
211
31
118
125
69
208
127
116
39
215
185
56
36
28
236
23
43
217
46
247
205
187
94
32
199
222
210
99
66
226
13
38
193
119
82
41
63
105
156
64
160
209
34
150
50
6
240
15
168
164
102
214
35
92
212
213
98
130
79
57
184
246
81
48
172
65
227
183
198
72
9
45
234
53
121
74
24
12
189
61
141
241
139
200
142
2
221
188
128
25
60
17
51
10
169
224
112
103
182
29
86
190
157
42
49
148
100
18
68
203
21
235
107
77
161
58
62
47
113
192
4
26
135
132
19
14
20
230
155
158
106
117
3
151
104

> <PUBCHEM_MMFF94_PARTIAL_CHARGES>
32
1 -0.08
10 -0.55
11 -0.62
12 -0.62
13 -0.62
14 -0.01
15 0.09
16 -0.15
17 -0.15
18 0.08
19 -0.15
2 1.45
20 0.87
21 0.63
22 0.74
23 0.48
24 0.7
25 0.14
26 0.28
27 0.15
28 0.42
29 0.15
3 -0.65
30 0.15
31 0.37
35 0.5
4 -0.65
5 -0.65
6 -0.57
7 -0.57
8 -0.36
9 -0.79

> <PUBCHEM_EFFECTIVE_ROTOR_COUNT>
7

> <PUBCHEM_PHARMACOPHORE_FEATURES>
13
1 1 hydrophobe
1 10 donor
1 3 acceptor
1 4 acceptor
1 5 acceptor
1 6 acceptor
1 7 acceptor
1 9 donor
3 11 13 23 cation
3 12 13 24 cation
3 5 7 21 anion
6 11 12 13 22 23 24 rings
6 14 15 16 17 18 19 rings

> <PUBCHEM_HEAVY_ATOM_COUNT>
26

> <PUBCHEM_ATOM_DEF_STEREO_COUNT>
0

> <PUBCHEM_ATOM_UDEF_STEREO_COUNT>
0

> <PUBCHEM_BOND_DEF_STEREO_COUNT>
0

> <PUBCHEM_BOND_UDEF_STEREO_COUNT>
0

> <PUBCHEM_ISOTOPIC_ATOM_COUNT>
0

> <PUBCHEM_COMPONENT_COUNT>
1

> <PUBCHEM_CACTVS_TAUTO_COUNT>
9

> <PUBCHEM_CONFORMER_ID>
00AF6DB600000001

> <PUBCHEM_MMFF94_ENERGY>
56.0785

> <PUBCHEM_FEATURE_SELFOVERLAP>
67.016

> <PUBCHEM_SHAPE_FINGERPRINT>
12173636 292 17967255282405597995
12363563 72 14979662308523191426
12788726 201 18261376868135243307
13583140 156 18334587806272344770
13944108 23 16822480875245855925
14142880 1 16225761888210116247
14251764 38 18335977657942765084
14713325 29 18411702050534532119
15131766 46 17841166746086021305
15183329 4 16805608019778478882
16989378 47 16557652754746862508
16994733 274 15141775360592599967
17844677 252 18412266146990825814
20775530 9 15693750202786338503
21033648 144 18198349644605224292
21709351 56 18412548704520970846
21756936 100 18042691602603111257
221357 26 18411416215416903781
22393880 68 18410567375661292142
22907989 373 18059845191135129341
23352939 185 18056756761941771803
23557571 272 17604997102978947971
23559900 14 18202274776509657250
25265897 201 18057626290455070749
312425 83 18342737390926090892
341906 21 16588577725441171648
484985 159 15841546367298606623
497634 4 17917159415188076115
508706 21 17676202489732837964
5252454 2 17313665923606122096
5281201 14 18411142467650484318
531348 171 18339644413193724310
57527585 103 17168996753959488185
59027123 10 18413665807775329758
59755656 520 17531820025936662515
7288768 16 17242184435571277337

> <PUBCHEM_SHAPE_MULTIPOLES>
490.73
11.68
4.01
1.8
17.06
3.61
0.51
2.14
-4.3
-3.38
-0.42
-2.08
-0.85
0.95

> <PUBCHEM_SHAPE_SELFOVERLAP>
1007.15

> <PUBCHEM_SHAPE_VOLUME>
286

> <PUBCHEM_COORDINATE_TYPE>
2
5
10

$$$$
