REMARK  Name = 11493311
REMARK  8 active torsions:
REMARK  status: ('A' for Active; 'I' for Inactive)
REMARK    1  A    between atoms: N_3  and  C1*_13
REMARK    2  A    between atoms: C_7  and  C_22
REMARK    3  A    between atoms: C2*_11  and  O2*_15
REMARK    4  A    between atoms: C3*_12  and  O3*_17
REMARK    5  A    between atoms: C4*_14  and  C5*_19
REMARK    6  A    between atoms: C5*_19  and  O5*_20
REMARK    7  A    between atoms: C_23  and  C_24
REMARK    8  A    between atoms: C_24  and  C_25
REMARK                            x       y       z     vdW  Elec       q    Type
REMARK                         _______ _______ _______ _____ _____    ______ ____
ROOT
ATOM      1  O   UNL     1      -2.281  -2.965  -0.351  0.00  0.00    -0.252 OA
ATOM      2  O   UNL     1       2.276  -3.402   0.095  0.00  0.00    -0.269 OA
ATOM      3  N   UNL     1      -0.996  -1.016  -0.285  0.00  0.00    -0.216 N 
ATOM      4  N   UNL     1      -0.007  -3.169  -0.129  0.00  0.00    -0.235 N 
ATOM      5  C   UNL     1       0.282  -0.477  -0.179  0.00  0.00    +0.084 C 
ATOM      6  C   UNL     1      -1.180  -2.417  -0.262  0.00  0.00    +0.315 C 
ATOM      7  C   UNL     1       1.400  -1.201  -0.052  0.00  0.00    +0.110 C 
ATOM      8  C   UNL     1       1.287  -2.683  -0.020  0.00  0.00    +0.262 C 
ATOM      9  H   UNL     1      -0.112  -4.147  -0.110  0.00  0.00    +0.159 HD
ENDROOT
BRANCH   3  13
ATOM     10  O4* UNL     1      -1.737   1.029  -1.142  0.00  0.00    -0.333 OA
ATOM     11  C2* UNL     1      -2.657   0.328   0.926  0.00  0.00    +0.187 C 
ATOM     12  C3* UNL     1      -3.229   1.686   0.576  0.00  0.00    +0.171 C 
ATOM     13  C1* UNL     1      -2.131  -0.148  -0.417  0.00  0.00    +0.229 C 
ATOM     14  C4* UNL     1      -2.229   2.198  -0.452  0.00  0.00    +0.175 C 
BRANCH  11  15
ATOM     15  O2* UNL     1      -3.631  -0.540   1.467  0.00  0.00    -0.378 OA
ATOM     16  H2* UNL     1      -3.935  -0.194   2.321  0.00  0.00    +0.211 HD
ENDBRANCH  11  15
BRANCH  12  17
ATOM     17  O3* UNL     1      -4.491   1.539  -0.074  0.00  0.00    -0.379 OA
ATOM     18  H3* UNL     1      -5.147   1.213   0.563  0.00  0.00    +0.211 HD
ENDBRANCH  12  17
BRANCH  14  19
ATOM     19  C5* UNL     1      -1.039   2.916   0.172  0.00  0.00    +0.169 C 
BRANCH  19  20
ATOM     20  O5* UNL     1      -0.171   3.340  -0.865  0.00  0.00    -0.379 OA
ATOM     21  H5* UNL     1       0.592   3.799  -0.480  0.00  0.00    +0.211 HD
ENDBRANCH  19  20
ENDBRANCH  14  19
ENDBRANCH   3  13
BRANCH   7  22
ATOM     22  C   UNL     1       2.671  -0.573   0.050  0.00  0.00    -0.058 C 
ATOM     23  C   UNL     1       3.743  -0.040   0.136  0.00  0.00    -0.086 C 
BRANCH  23  24
ATOM     24  C   UNL     1       5.057   0.609   0.241  0.00  0.00    +0.076 C 
BRANCH  24  25
ATOM     25  C   UNL     1       5.007   2.086  -0.151  0.00  0.00    +0.014 C 
ATOM     26  C   UNL     1       4.056   2.900   0.716  0.00  0.00    +0.001 C 
ENDBRANCH  24  25
ENDBRANCH  23  24
ENDBRANCH   7  22
TORSDOF 8
