REMARK  Name = 115067
REMARK  9 active torsions:
REMARK  status: ('A' for Active; 'I' for Inactive)
REMARK    1  A    between atoms: C_2  and  O_7
REMARK    2  A    between atoms: C_3  and  O_9
REMARK    3  A    between atoms: C_4  and  O_11
REMARK    4  A    between atoms: C_5  and  C_23
REMARK    5  A    between atoms: C_6  and  O_13
REMARK    6  A    between atoms: O_13  and  C_14
REMARK    7  A    between atoms: C_17  and  C_20
REMARK    8  A    between atoms: C_20  and  O_21
REMARK    9  A    between atoms: C_23  and  O_24
REMARK                            x       y       z     vdW  Elec       q    Type
REMARK                         _______ _______ _______ _____ _____    ______ ____
ROOT
ATOM      1  O   UNL     1       1.044   0.574  -0.360  0.00  0.00    -0.316 OA
ATOM      2  C   UNL     1       3.483  -0.797   0.292  0.00  0.00    +0.173 C 
ATOM      3  C   UNL     1       3.456   0.672  -0.132  0.00  0.00    +0.169 C 
ATOM      4  C   UNL     1       2.236  -1.536  -0.193  0.00  0.00    +0.210 C 
ATOM      5  C   UNL     1       2.115   1.316   0.227  0.00  0.00    +0.177 C 
ATOM      6  C   UNL     1       0.963  -0.758   0.142  0.00  0.00    +0.318 C 
ENDROOT
BRANCH   2   7
ATOM      7  O   UNL     1       4.645  -1.400  -0.278  0.00  0.00    -0.379 OA
ATOM      8  H   UNL     1       5.437  -0.931   0.029  0.00  0.00    +0.211 HD
ENDBRANCH   2   7
BRANCH   3   9
ATOM      9  O   UNL     1       4.507   1.372   0.529  0.00  0.00    -0.379 OA
ATOM     10  H   UNL     1       5.358   0.966   0.303  0.00  0.00    +0.211 HD
ENDBRANCH   3   9
BRANCH   4  11
ATOM     11  O   UNL     1       2.162  -2.810   0.446  0.00  0.00    -0.377 OA
ATOM     12  H   UNL     1       2.962  -3.320   0.244  0.00  0.00    +0.211 HD
ENDBRANCH   4  11
BRANCH   6  13
ATOM     13  O   UNL     1      -0.138  -1.435  -0.465  0.00  0.00    -0.451 OA
BRANCH  13  14
ATOM     14  C   UNL     1      -1.375  -0.880  -0.280  0.00  0.00    +0.141 C 
ATOM     15  C   UNL     1      -2.119  -0.472  -1.383  0.00  0.00    +0.037 C 
ATOM     16  C   UNL     1      -1.879  -0.728   1.008  0.00  0.00    +0.037 C 
ATOM     17  C   UNL     1      -3.891   0.249   0.093  0.00  0.00    +0.007 C 
ATOM     18  C   UNL     1      -3.380   0.094  -1.195  0.00  0.00    +0.001 C 
ATOM     19  C   UNL     1      -3.140  -0.162   1.195  0.00  0.00    +0.001 C 
BRANCH  17  20
ATOM     20  C   UNL     1      -5.239   0.853   0.294  0.00  0.00    +0.164 C 
BRANCH  20  21
ATOM     21  O   UNL     1      -6.223  -0.173   0.283  0.00  0.00    -0.377 OA
ATOM     22  H   UNL     1      -7.101   0.219   0.413  0.00  0.00    +0.211 HD
ENDBRANCH  20  21
ENDBRANCH  17  20
ENDBRANCH  13  14
ENDBRANCH   6  13
BRANCH   5  23
ATOM     23  C   UNL     1       2.019   2.748  -0.290  0.00  0.00    +0.169 C 
BRANCH  23  24
ATOM     24  O   UNL     1       0.754   3.274   0.068  0.00  0.00    -0.379 OA
ATOM     25  H   UNL     1       0.680   4.185  -0.255  0.00  0.00    +0.211 HD
ENDBRANCH  23  24
ENDBRANCH   5  23
TORSDOF 9
