REMARK  Name = 115005
REMARK  5 active torsions:
REMARK  status: ('A' for Active; 'I' for Inactive)
REMARK    1  A    between atoms: C_8  and  O_15
REMARK    2  A    between atoms: C_10  and  C_20
REMARK    3  A    between atoms: O_15  and  S_16
REMARK    4  A    between atoms: C_20  and  C_25
REMARK    5  A    between atoms: C_20  and  O_31
REMARK                            x       y       z     vdW  Elec       q    Type
REMARK                         _______ _______ _______ _____ _____    ______ ____
ROOT
ATOM      1  N   UNL     1       1.706  -1.388  -0.045  0.00  0.00    -0.283 N 
ATOM      2  N   UNL     1      -0.248  -2.631  -0.390  0.00  0.00    -0.305 N 
ATOM      3  N   UNL     1       1.954  -3.600  -0.495  0.00  0.00    -0.242 NA
ATOM      4  C   UNL     1       1.035  -0.121   0.145  0.00  0.00    +0.080 C 
ATOM      5  C   UNL     1       3.127  -1.467  -0.261  0.00  0.00    +0.102 C 
ATOM      6  C   UNL     1       3.869  -0.709   0.845  0.00  0.00    +0.050 C 
ATOM      7  C   UNL     1       1.790   0.696   1.209  0.00  0.00    +0.052 C 
ATOM      8  C   UNL     1       3.307   0.728   0.959  0.00  0.00    +0.151 C 
ATOM      9  C   UNL     1      -0.416  -0.390   0.577  0.00  0.00    +0.042 C 
ATOM     10  C   UNL     1      -1.074  -1.429  -0.346  0.00  0.00    +0.105 C 
ATOM     11  C   UNL     1       1.124  -2.597  -0.316  0.00  0.00    +0.181 C 
ATOM     12  C   UNL     1       3.310  -2.996  -0.269  0.00  0.00    +0.148 C 
ATOM     13  C   UNL     1       5.378  -0.721   0.596  0.00  0.00    +0.004 C 
ATOM     14  H   UNL     1      -0.693  -3.505  -0.476  0.00  0.00    +0.149 HD
ENDROOT
BRANCH   8  15
ATOM     15  O   UNL     1       3.546   1.474  -0.232  0.00  0.00    -0.203 OA
BRANCH  15  16
ATOM     16  S   UNL     1       3.071   3.033  -0.318  0.00  0.00    +0.239 S 
ATOM     17  O   UNL     1       3.367   3.440  -1.869  0.00  0.00    -0.116 OA
ATOM     18  O   UNL     1       1.632   3.060  -0.126  0.00  0.00    -0.116 OA
ATOM     19  O   UNL     1       3.933   3.838   0.527  0.00  0.00    -0.022 OA
ENDBRANCH  15  16
ENDBRANCH   8  15
BRANCH  10  20
ATOM     20  C   UNL     1      -2.474  -1.786   0.138  0.00  0.00    +0.164 C 
BRANCH  20  25
ATOM     21  O   UNL     1      -4.473   1.765  -2.266  0.00  0.00    -0.252 OA
ATOM     22  O   UNL     1      -5.423   1.429   2.241  0.00  0.00    -0.270 OA
ATOM     23  N   UNL     1      -3.538   0.065  -1.032  0.00  0.00    -0.269 N 
ATOM     24  N   UNL     1      -4.963   1.619  -0.018  0.00  0.00    -0.236 N 
ATOM     25  C   UNL     1      -3.368  -0.592   0.165  0.00  0.00    +0.062 C 
ATOM     26  C   UNL     1      -3.979  -0.169   1.279  0.00  0.00    +0.071 C 
ATOM     27  C   UNL     1      -4.333   1.190  -1.186  0.00  0.00    +0.310 C 
ATOM     28  C   UNL     1      -4.855   1.026   1.231  0.00  0.00    +0.254 C 
ATOM     29  H   UNL     1      -3.068  -0.284  -1.824  0.00  0.00    +0.156 HD
ATOM     30  H   UNL     1      -5.537   2.416  -0.086  0.00  0.00    +0.159 HD
ENDBRANCH  20  25
BRANCH  20  31
ATOM     31  O   UNL     1      -3.007  -2.765  -0.746  0.00  0.00    -0.377 OA
ATOM     32  H   UNL     1      -2.424  -3.540  -0.760  0.00  0.00    +0.211 HD
ENDBRANCH  20  31
ENDBRANCH  10  20
TORSDOF 5
