REMARK  Name = 115085
REMARK  13 active torsions:
REMARK  status: ('A' for Active; 'I' for Inactive)
REMARK    1  A    between atoms: C_3  and  C_10
REMARK    2  A    between atoms: C_7  and  C_27
REMARK    3  A    between atoms: N_9  and  C_12
REMARK    4  A    between atoms: C_12  and  C_15
REMARK    5  A    between atoms: C_12  and  C_23
REMARK    6  A    between atoms: N_14  and  C_17
REMARK    7  A    between atoms: C_17  and  C_20
REMARK    8  A    between atoms: C_23  and  C_24
REMARK    9  A    between atoms: C_24  and  C_25
REMARK   10  A    between atoms: C_27  and  N_28
REMARK   11  A    between atoms: C_27  and  C_32
REMARK   12  A    between atoms: C_32  and  C_33
REMARK   13  A    between atoms: C_38  and  O_39
REMARK                            x       y       z     vdW  Elec       q    Type
REMARK                         _______ _______ _______ _____ _____    ______ ____
ROOT
ATOM      1  O   UNL     1      -1.499  -2.006   1.342  0.00  0.00    -0.277 OA
ATOM      2  N   UNL     1      -1.908  -1.681  -0.912  0.00  0.00    -0.275 N 
ATOM      3  C   UNL     1      -0.519  -1.751  -1.345  0.00  0.00    +0.152 C 
ATOM      4  C   UNL     1      -0.593  -1.929  -2.858  0.00  0.00    +0.031 C 
ATOM      5  C   UNL     1      -1.899  -1.232  -3.233  0.00  0.00    +0.024 C 
ATOM      6  C   UNL     1      -2.809  -1.536  -2.053  0.00  0.00    +0.094 C 
ATOM      7  C   UNL     1      -2.289  -1.889   0.404  0.00  0.00    +0.206 C 
ENDROOT
BRANCH   3  10
ATOM      8  O   UNL     1      -0.509   0.597  -0.916  0.00  0.00    -0.273 OA
ATOM      9  N   UNL     1       1.486  -0.588  -0.724  0.00  0.00    -0.297 N 
ATOM     10  C   UNL     1       0.127  -0.452  -0.969  0.00  0.00    +0.241 C 
ATOM     11  H   UNL     1       1.886  -1.484  -0.798  0.00  0.00    +0.150 HD
BRANCH   9  12
ATOM     12  C   UNL     1       2.340   0.515  -0.366  0.00  0.00    +0.149 C 
BRANCH  12  15
ATOM     13  O   UNL     1       4.029  -0.750  -1.561  0.00  0.00    -0.273 OA
ATOM     14  N   UNL     1       4.558   1.378  -0.800  0.00  0.00    -0.295 N 
ATOM     15  C   UNL     1       3.722   0.284  -0.970  0.00  0.00    +0.241 C 
ATOM     16  H   UNL     1       4.218   2.161  -0.310  0.00  0.00    +0.150 HD
BRANCH  14  17
ATOM     17  C   UNL     1       5.908   1.412  -1.313  0.00  0.00    +0.175 C 
BRANCH  17  20
ATOM     18  O   UNL     1       6.706   1.003   0.936  0.00  0.00    -0.273 OA
ATOM     19  N   UNL     1       7.956   0.251  -0.841  0.00  0.00    -0.327 N 
ATOM     20  C   UNL     1       6.862   0.869  -0.274  0.00  0.00    +0.239 C 
ATOM     21  H   UNL     1       8.651  -0.144  -0.266  0.00  0.00    +0.145 HD
ATOM     22  H   UNL     1       8.043   0.204  -1.820  0.00  0.00    +0.145 HD
ENDBRANCH  17  20
ENDBRANCH  14  17
ENDBRANCH  12  15
BRANCH  12  23
ATOM     23  C   UNL     1       2.382   0.740   1.150  0.00  0.00    +0.029 C 
BRANCH  23  24
ATOM     24  C   UNL     1       3.024  -0.411   1.936  0.00  0.00    +0.002 C 
BRANCH  24  25
ATOM     25  C   UNL     1       3.087  -0.091   3.430  0.00  0.00    +0.000 C 
ATOM     26  C   UNL     1       3.687  -1.242   4.222  0.00  0.00    +0.000 C 
ENDBRANCH  24  25
ENDBRANCH  23  24
ENDBRANCH  12  23
ENDBRANCH   9  12
ENDBRANCH   3  10
BRANCH   7  27
ATOM     27  C   UNL     1      -3.776  -1.956   0.648  0.00  0.00    +0.018 C 
BRANCH  27  28
ATOM     28  N   UNL     1      -4.026  -3.302   1.147  0.00  0.00    +0.388 N 
ATOM     29  H   UNL     1      -3.723  -3.984   0.452  0.00  0.00    -0.089 HD
ATOM     30  H   UNL     1      -5.023  -3.419   1.325  0.00  0.00    -0.089 HD
ATOM     31  H   UNL     1      -3.506  -3.445   2.013  0.00  0.00    -0.089 HD
ENDBRANCH  27  28
BRANCH  27  32
ATOM     32  C   UNL     1      -4.217  -0.902   1.663  0.00  0.00    +0.013 C 
BRANCH  32  33
ATOM     33  C   UNL     1      -4.368   0.471   1.049  0.00  0.00    -0.024 C 
ATOM     34  C   UNL     1      -5.594   0.864   0.513  0.00  0.00    -0.001 C 
ATOM     35  C   UNL     1      -3.281   1.345   1.019  0.00  0.00    -0.001 C 
ATOM     36  C   UNL     1      -5.734   2.130  -0.054  0.00  0.00    +0.036 C 
ATOM     37  C   UNL     1      -3.421   2.612   0.452  0.00  0.00    +0.036 C 
ATOM     38  C   UNL     1      -4.648   3.005  -0.084  0.00  0.00    +0.134 C 
BRANCH  38  39
ATOM     39  O   UNL     1      -4.784   4.241  -0.637  0.00  0.00    -0.506 OA
ATOM     40  H   UNL     1      -5.608   4.505  -0.997  0.00  0.00    +0.292 HD
ENDBRANCH  38  39
ENDBRANCH  32  33
ENDBRANCH  27  32
ENDBRANCH   7  27
TORSDOF 13
