115029
  -OEChem-03292013323D

 45 48  0     1  0  0  0  0  0999 V2000
    5.8288   -1.1554    0.6948 P   0  0  2  0  0  0  0  0  0  0  0  0
    2.5265    0.4244   -1.6059 O   0  0  0  0  0  0  0  0  0  0  0  0
    4.7071   -0.0799    1.1789 O   0  0  0  0  0  0  0  0  0  0  0  0
    5.8141   -1.1077   -0.9298 O   0  0  0  0  0  0  0  0  0  0  0  0
    3.2236    2.2698    0.9246 O   0  0  0  0  0  0  0  0  0  0  0  0
    5.1827   -2.5971    1.0490 O   0  0  0  0  0  0  0  0  0  0  0  0
    7.1864   -0.9427    1.3011 O   0  0  0  0  0  0  0  0  0  0  0  0
   -5.9895    0.8499    0.4502 O   0  0  0  0  0  0  0  0  0  0  0  0
    0.4120    0.4952   -0.5115 N   0  0  0  0  0  0  0  0  0  0  0  0
   -1.1636   -1.0819   -0.5665 N   0  0  0  0  0  0  0  0  0  0  0  0
   -0.9559    2.4314    0.0191 N   0  0  0  0  0  0  0  0  0  0  0  0
   -3.3082    1.8210    0.2430 N   0  0  0  0  0  0  0  0  0  0  0  0
   -4.0736   -0.4225   -0.0432 N   0  0  0  0  0  0  0  0  0  0  0  0
    3.5075   -0.0713    0.4387 C   0  0  2  0  0  0  0  0  0  0  0  0
    3.8054    0.1786   -1.0248 C   0  0  1  0  0  0  0  0  0  0  0  0
    2.5276    1.0423    0.7293 C   0  0  2  0  0  0  0  0  0  0  0  0
    1.7388    1.1068   -0.5926 C   0  0  1  0  0  0  0  0  0  0  0  0
    4.5664   -0.9910   -1.6156 C   0  0  0  0  0  0  0  0  0  0  0  0
   -0.7671    1.1278   -0.2352 C   0  0  0  0  0  0  0  0  0  0  0  0
    0.1214   -0.8300   -0.7034 C   0  0  0  0  0  0  0  0  0  0  0  0
   -1.7310    0.1329   -0.2737 C   0  0  0  0  0  0  0  0  0  0  0  0
   -3.0437    0.5188   -0.0215 C   0  0  0  0  0  0  0  0  0  0  0  0
   -2.2633    2.6836    0.2468 C   0  0  0  0  0  0  0  0  0  0  0  0
   -5.4436   -0.2160    0.1855 C   0  0  0  0  0  0  0  0  0  0  0  0
   -6.2209   -1.5235    0.0943 C   0  0  0  0  0  0  0  0  0  0  0  0
   -7.7214   -1.3699    0.3334 C   0  0  0  0  0  0  0  0  0  0  0  0
   -8.4667   -2.6937    0.2348 C   0  0  0  0  0  0  0  0  0  0  0  0
    2.9913   -1.0299    0.5743 H   0  0  0  0  0  0  0  0  0  0  0  0
    4.4226    1.0809   -1.1416 H   0  0  0  0  0  0  0  0  0  0  0  0
    1.9190    0.8563    1.6194 H   0  0  0  0  0  0  0  0  0  0  0  0
    1.5955    2.1371   -0.9384 H   0  0  0  0  0  0  0  0  0  0  0  0
    4.0092   -1.9301   -1.5334 H   0  0  0  0  0  0  0  0  0  0  0  0
    4.7647   -0.8249   -2.6791 H   0  0  0  0  0  0  0  0  0  0  0  0
    2.5549    2.9659    1.0428 H   0  0  0  0  0  0  0  0  0  0  0  0
    0.8785   -1.5666   -0.9358 H   0  0  0  0  0  0  0  0  0  0  0  0
    4.3081   -2.8422    0.6798 H   0  0  0  0  0  0  0  0  0  0  0  0
   -2.5117    3.7173    0.4623 H   0  0  0  0  0  0  0  0  0  0  0  0
   -3.7815   -1.3755   -0.2499 H   0  0  0  0  0  0  0  0  0  0  0  0
   -6.0486   -1.9495   -0.9017 H   0  0  0  0  0  0  0  0  0  0  0  0
   -5.7998   -2.2184    0.8311 H   0  0  0  0  0  0  0  0  0  0  0  0
   -7.8943   -0.9339    1.3247 H   0  0  0  0  0  0  0  0  0  0  0  0
   -8.1409   -0.6664   -0.3957 H   0  0  0  0  0  0  0  0  0  0  0  0
   -8.3454   -3.1371   -0.7585 H   0  0  0  0  0  0  0  0  0  0  0  0
   -9.5358   -2.5413    0.4120 H   0  0  0  0  0  0  0  0  0  0  0  0
   -8.0961   -3.4068    0.9779 H   0  0  0  0  0  0  0  0  0  0  0  0
  1  3  1  0  0  0  0
  1  4  1  0  0  0  0
  1  6  1  0  0  0  0
  1  7  2  0  0  0  0
  2 15  1  0  0  0  0
  2 17  1  0  0  0  0
  3 14  1  0  0  0  0
  4 18  1  0  0  0  0
  5 16  1  0  0  0  0
  5 34  1  0  0  0  0
  6 36  1  0  0  0  0
  8 24  2  0  0  0  0
  9 17  1  0  0  0  0
  9 19  1  0  0  0  0
  9 20  1  0  0  0  0
 10 20  2  0  0  0  0
 10 21  1  0  0  0  0
 11 19  2  0  0  0  0
 11 23  1  0  0  0  0
 12 22  1  0  0  0  0
 12 23  2  0  0  0  0
 13 22  1  0  0  0  0
 13 24  1  0  0  0  0
 13 38  1  0  0  0  0
 14 15  1  0  0  0  0
 14 16  1  0  0  0  0
 14 28  1  0  0  0  0
 15 18  1  0  0  0  0
 15 29  1  0  0  0  0
 16 17  1  0  0  0  0
 16 30  1  0  0  0  0
 17 31  1  0  0  0  0
 18 32  1  0  0  0  0
 18 33  1  0  0  0  0
 19 21  1  0  0  0  0
 20 35  1  0  0  0  0
 21 22  2  0  0  0  0
 23 37  1  0  0  0  0
 24 25  1  0  0  0  0
 25 26  1  0  0  0  0
 25 39  1  0  0  0  0
 25 40  1  0  0  0  0
 26 27  1  0  0  0  0
 26 41  1  0  0  0  0
 26 42  1  0  0  0  0
 27 43  1  0  0  0  0
 27 44  1  0  0  0  0
 27 45  1  0  0  0  0
M  END
> <PUBCHEM_COMPOUND_CID>
115029

> <PUBCHEM_CONFORMER_RMSD>
0.8

> <PUBCHEM_CONFORMER_DIVERSEORDER>
1
36
33
10
44
49
42
40
34
18
12
27
9
32
31
23
21
24
35
26
29
46
52
14
30
48
45
11
16
28
50
22
17
13
37
47
25
8
3
39
38
19
51
15
41
20
5
7
2
4
6
43

> <PUBCHEM_MMFF94_PARTIAL_CHARGES>
30
1 1.51
10 -0.57
11 -0.57
12 -0.62
13 -0.55
14 0.28
15 0.28
16 0.28
17 0.54
18 0.28
19 0.11
2 -0.56
20 0.04
21 0.23
22 0.43
23 0.47
24 0.57
25 0.06
3 -0.55
34 0.4
35 0.15
36 0.5
37 0.15
38 0.37
4 -0.55
5 -0.68
6 -0.77
7 -0.7
8 -0.57
9 0.05

> <PUBCHEM_EFFECTIVE_ROTOR_COUNT>
6.2

> <PUBCHEM_PHARMACOPHORE_FEATURES>
15
1 13 donor
1 2 acceptor
1 27 hydrophobe
1 5 acceptor
1 5 donor
1 6 acceptor
1 7 acceptor
1 8 acceptor
3 11 12 23 cation
3 9 10 20 cation
3 9 11 19 cation
5 2 14 15 16 17 rings
5 9 10 19 20 21 rings
6 1 3 4 14 15 18 rings
6 11 12 19 21 22 23 rings

> <PUBCHEM_HEAVY_ATOM_COUNT>
27

> <PUBCHEM_ATOM_DEF_STEREO_COUNT>
4

> <PUBCHEM_ATOM_UDEF_STEREO_COUNT>
0

> <PUBCHEM_BOND_DEF_STEREO_COUNT>
0

> <PUBCHEM_BOND_UDEF_STEREO_COUNT>
0

> <PUBCHEM_ISOTOPIC_ATOM_COUNT>
0

> <PUBCHEM_COMPONENT_COUNT>
1

> <PUBCHEM_CACTVS_TAUTO_COUNT>
4

> <PUBCHEM_CONFORMER_ID>
0001C15500000001

> <PUBCHEM_MMFF94_ENERGY>
41.2249

> <PUBCHEM_FEATURE_SELFOVERLAP>
76.826

> <PUBCHEM_SHAPE_FINGERPRINT>
10 15 17632573876805623922
106641 1 18342452669412767498
11607047 141 13540535686235708759
11646440 116 16989124244951226954
12011746 2 13045946793722390484
12035758 1 17418368099503322426
12166972 35 17894917347315209885
12236239 1 17967536748597208116
12616971 3 17560794455231457093
13533116 47 18261110781424545322
13668630 136 16805323314648374955
13782708 43 18271810090361790055
13862211 1 18410014364615420271
14211702 104 18334583399567450643
14251764 18 18343581858810968908
14347332 77 18187645765132044237
15048467 5 10952051152222044203
15183329 4 15068613895197050415
15188451 53 18334010592505127715
15475509 35 18335691716463421642
17349148 13 18114189631237774749
18222031 100 17749110010612013333
20028762 73 18342742935739984743
20715895 44 9727631717611839874
21033648 29 16485829317524503104
21130935 74 18129667387497317786
21150785 3 17458350761921375702
21267235 1 18341619217295927655
21637258 2 17458620082662877688
21792934 111 18202561783594467553
2215653 11 13767927918435818751
22224240 67 15841555180808894231
23522609 53 18047507527931802285
23559900 14 16950856906519596373
23569914 152 13410400740339543131
29717793 49 16805325474589397054
3004659 81 18041001773574511445
3383291 50 18410012174151399707
3411729 13 18201151179112162296
3472631 163 10159690309383439002
3633792 109 16949999231736318477
4340502 62 15195294131353940469
465052 167 18411422825376632863
5104073 3 18202846547819977049
5718773 13 18408884075310354819
57724786 102 15266191779606441802
59682541 52 14345785041953448354
59755656 215 18411139091548136383

> <PUBCHEM_SHAPE_MULTIPOLES>
493.51
20.23
2.44
1.12
21.72
0.37
0.14
-17.37
-4.7
1.74
-0.5
-2.02
-0.21
-0.23

> <PUBCHEM_SHAPE_SELFOVERLAP>
1049.303

> <PUBCHEM_SHAPE_VOLUME>
276.1

> <PUBCHEM_COORDINATE_TYPE>
2
5
10

$$$$
