REMARK  Name = 11503806
REMARK  13 active torsions:
REMARK  status: ('A' for Active; 'I' for Inactive)
REMARK    1  A    between atoms: C_2  and  O_7
REMARK    2  A    between atoms: C_3  and  O_9
REMARK    3  A    between atoms: C_4  and  C_25
REMARK    4  A    between atoms: C_5  and  O_11
REMARK    5  A    between atoms: C_6  and  O_13
REMARK    6  A    between atoms: O_13  and  C_14
REMARK    7  A    between atoms: C_15  and  O_23
REMARK    8  A    between atoms: C_19  and  C_21
REMARK    9  A    between atoms: C_25  and  O_26
REMARK   10  A    between atoms: O_26  and  C_28
REMARK   11  A    between atoms: C_28  and  C_29
REMARK   12  A    between atoms: C_30  and  C_31
REMARK   13  A    between atoms: C_36  and  O_37
REMARK                            x       y       z     vdW  Elec       q    Type
REMARK                         _______ _______ _______ _____ _____    ______ ____
ROOT
ATOM      1  O   UNL     1       2.679   0.510  -0.261  0.00  0.00    -0.315 OA
ATOM      2  C   UNL     1       4.457   2.154  -0.160  0.00  0.00    +0.171 C 
ATOM      3  C   UNL     1       5.238   1.261   0.805  0.00  0.00    +0.173 C 
ATOM      4  C   UNL     1       2.953   1.895  -0.043  0.00  0.00    +0.192 C 
ATOM      5  C   UNL     1       4.800  -0.199   0.685  0.00  0.00    +0.210 C 
ATOM      6  C   UNL     1       3.277  -0.328   0.725  0.00  0.00    +0.318 C 
ENDROOT
BRANCH   2   7
ATOM      7  O   UNL     1       4.725   3.521   0.142  0.00  0.00    -0.379 OA
ATOM      8  H   UNL     1       5.678   3.688   0.069  0.00  0.00    +0.211 HD
ENDBRANCH   2   7
BRANCH   3   9
ATOM      9  O   UNL     1       6.625   1.370   0.483  0.00  0.00    -0.379 OA
ATOM     10  H   UNL     1       6.903   2.296   0.559  0.00  0.00    +0.211 HD
ENDBRANCH   3   9
BRANCH   5  11
ATOM     11  O   UNL     1       5.341  -0.946   1.774  0.00  0.00    -0.377 OA
ATOM     12  H   UNL     1       6.308  -0.877   1.766  0.00  0.00    +0.211 HD
ENDBRANCH   5  11
BRANCH   6  13
ATOM     13  O   UNL     1       2.945  -1.691   0.465  0.00  0.00    -0.447 OA
BRANCH  13  14
ATOM     14  C   UNL     1       1.614  -2.007   0.463  0.00  0.00    +0.175 C 
ATOM     15  C   UNL     1       1.013  -2.538  -0.679  0.00  0.00    +0.173 C 
ATOM     16  C   UNL     1       0.856  -1.794   1.615  0.00  0.00    +0.040 C 
ATOM     17  C   UNL     1      -0.345  -2.856  -0.668  0.00  0.00    +0.043 C 
ATOM     18  C   UNL     1      -0.502  -2.113   1.625  0.00  0.00    +0.006 C 
ATOM     19  C   UNL     1      -1.102  -2.644   0.483  0.00  0.00    +0.038 C 
BRANCH  19  21
ATOM     20  O   UNL     1      -3.095  -3.333   1.542  0.00  0.00    -0.291 OA
ATOM     21  C   UNL     1      -2.518  -2.976   0.495  0.00  0.00    +0.174 C 
ATOM     22  C   UNL     1      -3.337  -2.894  -0.789  0.00  0.00    +0.077 C 
ENDBRANCH  19  21
BRANCH  15  23
ATOM     23  O   UNL     1       1.742  -2.750  -1.810  0.00  0.00    -0.468 OA
ATOM     24  C   UNL     1       1.053  -3.296  -2.933  0.00  0.00    +0.253 C 
ENDBRANCH  15  23
ENDBRANCH  13  14
ENDBRANCH   6  13
BRANCH   4  25
ATOM     25  C   UNL     1       2.162   2.689  -1.078  0.00  0.00    +0.241 C 
BRANCH  25  26
ATOM     26  O   UNL     1       0.815   2.772  -0.648  0.00  0.00    -0.443 OA
BRANCH  26  28
ATOM     27  O   UNL     1       0.301   0.819  -1.771  0.00  0.00    -0.245 OA
ATOM     28  C   UNL     1      -0.011   1.768  -1.069  0.00  0.00    +0.341 C 
BRANCH  28  29
ATOM     29  C   UNL     1      -1.365   2.026  -0.527  0.00  0.00    +0.082 C 
ATOM     30  C   UNL     1      -2.361   1.173  -0.804  0.00  0.00    +0.007 C 
BRANCH  30  31
ATOM     31  C   UNL     1      -3.744   1.314  -0.316  0.00  0.00    +0.000 C 
ATOM     32  C   UNL     1      -4.013   2.113   0.796  0.00  0.00    +0.003 C 
ATOM     33  C   UNL     1      -4.785   0.649  -0.965  0.00  0.00    +0.003 C 
ATOM     34  C   UNL     1      -5.322   2.248   1.258  0.00  0.00    +0.037 C 
ATOM     35  C   UNL     1      -6.094   0.783  -0.503  0.00  0.00    +0.037 C 
ATOM     36  C   UNL     1      -6.363   1.583   0.609  0.00  0.00    +0.134 C 
BRANCH  36  37
ATOM     37  O   UNL     1      -7.640   1.713   1.060  0.00  0.00    -0.506 OA
ATOM     38  H   UNL     1      -7.821   2.250   1.806  0.00  0.00    +0.292 HD
ENDBRANCH  36  37
ENDBRANCH  30  31
ENDBRANCH  28  29
ENDBRANCH  26  28
ENDBRANCH  25  26
ENDBRANCH   4  25
TORSDOF 13
