11503806
  -OEChem-03292013303D

 60 62  0     1  0  0  0  0  0999 V2000
    2.6787    0.5104   -0.2612 O   0  0  0  0  0  0  0  0  0  0  0  0
    4.7250    3.5210    0.1420 O   0  0  0  0  0  0  0  0  0  0  0  0
    6.6252    1.3696    0.4832 O   0  0  0  0  0  0  0  0  0  0  0  0
    2.9447   -1.6910    0.4651 O   0  0  0  0  0  0  0  0  0  0  0  0
    5.3406   -0.9464    1.7741 O   0  0  0  0  0  0  0  0  0  0  0  0
    0.8151    2.7725   -0.6484 O   0  0  0  0  0  0  0  0  0  0  0  0
    1.7423   -2.7501   -1.8099 O   0  0  0  0  0  0  0  0  0  0  0  0
    0.3015    0.8193   -1.7707 O   0  0  0  0  0  0  0  0  0  0  0  0
   -3.0947   -3.3325    1.5415 O   0  0  0  0  0  0  0  0  0  0  0  0
   -7.6402    1.7133    1.0595 O   0  0  0  0  0  0  0  0  0  0  0  0
    4.4573    2.1541   -0.1598 C   0  0  1  0  0  0  0  0  0  0  0  0
    5.2378    1.2612    0.8050 C   0  0  1  0  0  0  0  0  0  0  0  0
    2.9534    1.8953   -0.0433 C   0  0  1  0  0  0  0  0  0  0  0  0
    4.8000   -0.1985    0.6851 C   0  0  2  0  0  0  0  0  0  0  0  0
    3.2773   -0.3275    0.7249 C   0  0  1  0  0  0  0  0  0  0  0  0
    2.1619    2.6894   -1.0777 C   0  0  0  0  0  0  0  0  0  0  0  0
    1.6137   -2.0068    0.4625 C   0  0  0  0  0  0  0  0  0  0  0  0
    1.0131   -2.5378   -0.6790 C   0  0  0  0  0  0  0  0  0  0  0  0
    0.8564   -1.7943    1.6145 C   0  0  0  0  0  0  0  0  0  0  0  0
   -0.0115    1.7679   -1.0689 C   0  0  0  0  0  0  0  0  0  0  0  0
   -0.3448   -2.8563   -0.6685 C   0  0  0  0  0  0  0  0  0  0  0  0
   -0.5016   -2.1127    1.6249 C   0  0  0  0  0  0  0  0  0  0  0  0
   -1.1022   -2.6436    0.4834 C   0  0  0  0  0  0  0  0  0  0  0  0
   -1.3648    2.0257   -0.5266 C   0  0  0  0  0  0  0  0  0  0  0  0
   -2.5181   -2.9756    0.4947 C   0  0  0  0  0  0  0  0  0  0  0  0
   -2.3612    1.1725   -0.8036 C   0  0  0  0  0  0  0  0  0  0  0  0
    1.0528   -3.2958   -2.9328 C   0  0  0  0  0  0  0  0  0  0  0  0
   -3.3371   -2.8938   -0.7891 C   0  0  0  0  0  0  0  0  0  0  0  0
   -3.7442    1.3142   -0.3156 C   0  0  0  0  0  0  0  0  0  0  0  0
   -4.0133    2.1134    0.7956 C   0  0  0  0  0  0  0  0  0  0  0  0
   -4.7845    0.6493   -0.9647 C   0  0  0  0  0  0  0  0  0  0  0  0
   -5.3224    2.2476    1.2577 C   0  0  0  0  0  0  0  0  0  0  0  0
   -6.0937    0.7834   -0.5027 C   0  0  0  0  0  0  0  0  0  0  0  0
   -6.3627    1.5825    0.6086 C   0  0  0  0  0  0  0  0  0  0  0  0
    4.7965    1.9733   -1.1871 H   0  0  0  0  0  0  0  0  0  0  0  0
    5.1353    1.6175    1.8368 H   0  0  0  0  0  0  0  0  0  0  0  0
    2.5942    2.1725    0.9577 H   0  0  0  0  0  0  0  0  0  0  0  0
    5.1985   -0.6449   -0.2337 H   0  0  0  0  0  0  0  0  0  0  0  0
    2.9123   -0.0480    1.7219 H   0  0  0  0  0  0  0  0  0  0  0  0
    2.2408    2.2543   -2.0815 H   0  0  0  0  0  0  0  0  0  0  0  0
    2.5237    3.7205   -1.1422 H   0  0  0  0  0  0  0  0  0  0  0  0
    4.4152    3.6951    1.0473 H   0  0  0  0  0  0  0  0  0  0  0  0
    6.7517    1.0437   -0.4243 H   0  0  0  0  0  0  0  0  0  0  0  0
    4.9984   -0.5658    2.6009 H   0  0  0  0  0  0  0  0  0  0  0  0
    1.3084   -1.3988    2.5197 H   0  0  0  0  0  0  0  0  0  0  0  0
   -0.8475   -3.2879   -1.5262 H   0  0  0  0  0  0  0  0  0  0  0  0
   -1.0759   -1.9396    2.5312 H   0  0  0  0  0  0  0  0  0  0  0  0
   -1.4927    2.9181    0.0748 H   0  0  0  0  0  0  0  0  0  0  0  0
   -2.1780    0.3058   -1.4342 H   0  0  0  0  0  0  0  0  0  0  0  0
    0.6756   -4.3030   -2.7251 H   0  0  0  0  0  0  0  0  0  0  0  0
    0.2691   -2.6206   -3.2932 H   0  0  0  0  0  0  0  0  0  0  0  0
    1.7837   -3.3926   -3.7425 H   0  0  0  0  0  0  0  0  0  0  0  0
   -3.3327   -3.8669   -1.2862 H   0  0  0  0  0  0  0  0  0  0  0  0
   -2.9431   -2.1261   -1.4593 H   0  0  0  0  0  0  0  0  0  0  0  0
   -4.3650   -2.6158   -0.5378 H   0  0  0  0  0  0  0  0  0  0  0  0
   -3.2334    2.6331    1.3443 H   0  0  0  0  0  0  0  0  0  0  0  0
   -4.5938    0.0244   -1.8338 H   0  0  0  0  0  0  0  0  0  0  0  0
   -5.5258    2.8678    2.1265 H   0  0  0  0  0  0  0  0  0  0  0  0
   -6.8952    0.2603   -1.0173 H   0  0  0  0  0  0  0  0  0  0  0  0
   -8.2296    1.1858    0.4935 H   0  0  0  0  0  0  0  0  0  0  0  0
  1 13  1  0  0  0  0
  1 15  1  0  0  0  0
  2 11  1  0  0  0  0
  2 42  1  0  0  0  0
  3 12  1  0  0  0  0
  3 43  1  0  0  0  0
  4 15  1  0  0  0  0
  4 17  1  0  0  0  0
  5 14  1  0  0  0  0
  5 44  1  0  0  0  0
  6 16  1  0  0  0  0
  6 20  1  0  0  0  0
  7 18  1  0  0  0  0
  7 27  1  0  0  0  0
  8 20  2  0  0  0  0
  9 25  2  0  0  0  0
 10 34  1  0  0  0  0
 10 60  1  0  0  0  0
 11 12  1  0  0  0  0
 11 13  1  0  0  0  0
 11 35  1  0  0  0  0
 12 14  1  0  0  0  0
 12 36  1  0  0  0  0
 13 16  1  0  0  0  0
 13 37  1  0  0  0  0
 14 15  1  0  0  0  0
 14 38  1  0  0  0  0
 15 39  1  0  0  0  0
 16 40  1  0  0  0  0
 16 41  1  0  0  0  0
 17 18  2  0  0  0  0
 17 19  1  0  0  0  0
 18 21  1  0  0  0  0
 19 22  2  0  0  0  0
 19 45  1  0  0  0  0
 20 24  1  0  0  0  0
 21 23  2  0  0  0  0
 21 46  1  0  0  0  0
 22 23  1  0  0  0  0
 22 47  1  0  0  0  0
 23 25  1  0  0  0  0
 24 26  2  0  0  0  0
 24 48  1  0  0  0  0
 25 28  1  0  0  0  0
 26 29  1  0  0  0  0
 26 49  1  0  0  0  0
 27 50  1  0  0  0  0
 27 51  1  0  0  0  0
 27 52  1  0  0  0  0
 28 53  1  0  0  0  0
 28 54  1  0  0  0  0
 28 55  1  0  0  0  0
 29 30  2  0  0  0  0
 29 31  1  0  0  0  0
 30 32  1  0  0  0  0
 30 56  1  0  0  0  0
 31 33  2  0  0  0  0
 31 57  1  0  0  0  0
 32 34  2  0  0  0  0
 32 58  1  0  0  0  0
 33 34  1  0  0  0  0
 33 59  1  0  0  0  0
M  END
> <PUBCHEM_COMPOUND_CID>
11503806

> <PUBCHEM_CONFORMER_RMSD>
1

> <PUBCHEM_CONFORMER_DIVERSEORDER>
1
24
137
128
31
127
129
86
83
61
51
116
82
113
62
32
59
54
142
87
121
97
30
80
136
48
65
49
50
90
76
44
88
45
41
56
42
34
103
134
117
109
98
72
118
108
143
23
125
46
114
91
36
124
21
81
138
8
93
57
64
26
77
102
126
73
10
15
12
14
120
104
35
115
139
55
16
5
75
105
29
100
107
79
22
130
28
40
69
66
94
60
141
68
85
11
131
123
99
18
135
96
38
111
43
119
17
132
20
78
37
122
92
133
6
112
101
9
84
2
110
33
4
25
140
74
52
47
13
63
7
70
89
27
95
3
58
106
71
19
67
39
53

> <PUBCHEM_MMFF94_PARTIAL_CHARGES>
47
1 -0.56
10 -0.53
11 0.28
12 0.28
13 0.28
14 0.28
15 0.56
16 0.28
17 0.08
18 0.08
19 -0.15
2 -0.68
20 0.71
21 -0.15
22 -0.15
23 0.09
24 -0.14
25 0.42
26 -0.18
27 0.28
28 0.06
29 0.03
3 -0.68
30 -0.15
31 -0.15
32 -0.15
33 -0.15
34 0.08
4 -0.36
42 0.4
43 0.4
44 0.4
45 0.15
46 0.15
47 0.15
48 0.15
49 0.15
5 -0.68
56 0.15
57 0.15
58 0.15
59 0.15
6 -0.43
60 0.45
7 -0.36
8 -0.57
9 -0.57

> <PUBCHEM_EFFECTIVE_ROTOR_COUNT>
10.2

> <PUBCHEM_PHARMACOPHORE_FEATURES>
15
1 1 acceptor
1 10 donor
1 2 acceptor
1 2 donor
1 3 acceptor
1 3 donor
1 4 acceptor
1 5 acceptor
1 5 donor
1 7 acceptor
1 8 acceptor
1 9 acceptor
6 1 11 12 13 14 15 rings
6 17 18 19 21 22 23 rings
6 29 30 31 32 33 34 rings

> <PUBCHEM_HEAVY_ATOM_COUNT>
34

> <PUBCHEM_ATOM_DEF_STEREO_COUNT>
5

> <PUBCHEM_ATOM_UDEF_STEREO_COUNT>
0

> <PUBCHEM_BOND_DEF_STEREO_COUNT>
1

> <PUBCHEM_BOND_UDEF_STEREO_COUNT>
0

> <PUBCHEM_ISOTOPIC_ATOM_COUNT>
0

> <PUBCHEM_COMPONENT_COUNT>
1

> <PUBCHEM_CACTVS_TAUTO_COUNT>
4

> <PUBCHEM_CONFORMER_ID>
00AF88BE00000001

> <PUBCHEM_MMFF94_ENERGY>
112.7856

> <PUBCHEM_FEATURE_SELFOVERLAP>
76.19

> <PUBCHEM_SHAPE_FINGERPRINT>
10675989 125 15450544286932694484
10816530 23 18058445590153444352
10864689 126 17974011648488445863
1100329 8 18334009510205238513
11421498 54 17774156786481903192
11479125 193 15765239349397453368
11513181 2 18272653488732176118
11578080 2 17917723383049402879
12422481 6 18334302001825746451
12633257 1 18260536806216306354
12788726 201 17543366293840460253
13140716 1 18334285496820243952
13165054 235 18269531941456689879
13692114 37 18271795887311357839
14294032 229 17916587682338524455
14394314 77 18411982443375338777
14840074 17 18040996228698236581
15297060 5 18202565089954147955
15968369 153 18268440212351863779
16112460 7 18409167688405241161
21033648 29 17916006015027722042
21133410 90 17704064123508518456
21197605 99 18336270140967634611
21623969 137 18113903728192428073
21716022 299 15696322755148017078
22122407 14 18190179164408134506
338550 245 18041563662354765893
3388396 114 16973914992857370965
3633792 109 18263911182608594021
3680242 22 18187075122865672666
392239 28 18188760661200695043
394071 54 18267871575919966305
4144715 1 18187936135018459866
4340502 62 18410857642130304013
463206 1 18335419097371781381
469060 322 16154253031366963166
5081480 168 17556335832385702391
513532 50 18058741195055328406
5171179 24 17484510484636029289
6036956 94 17324931842231528605
6287921 2 17913489043738008807
653340 110 18051126200870577000

> <PUBCHEM_SHAPE_MULTIPOLES>
641.01
13.92
4.97
1.71
8.83
2.36
-0.54
-12.38
5.14
0.03
-0.8
-0.21
1.3
-0.34

> <PUBCHEM_SHAPE_SELFOVERLAP>
1362.722

> <PUBCHEM_SHAPE_VOLUME>
354.2

> <PUBCHEM_COORDINATE_TYPE>
2
5
10

$$$$
