REMARK  Name = 115023
REMARK  11 active torsions:
REMARK  status: ('A' for Active; 'I' for Inactive)
REMARK    1  A    between atoms: C_2  and  N_22
REMARK    2  A    between atoms: C_11  and  O_18
REMARK    3  A    between atoms: C_12  and  O_20
REMARK    4  A    between atoms: C_13  and  N_17
REMARK    5  A    between atoms: N_22  and  C_24
REMARK    6  A    between atoms: C_24  and  C_25
REMARK    7  A    between atoms: C_25  and  O_26
REMARK    8  A    between atoms: C_25  and  C_28
REMARK    9  A    between atoms: C_28  and  N_29
REMARK   10  A    between atoms: N_29  and  C_31
REMARK   11  A    between atoms: N_29  and  C_33
REMARK                            x       y       z     vdW  Elec       q    Type
REMARK                         _______ _______ _______ _____ _____    ______ ____
ROOT
ATOM      1  N   UNL     1      -2.307   1.883   0.156  0.00  0.00    -0.406 NA
ATOM      2  C   UNL     1      -0.634  -0.293  -0.218  0.00  0.00    +0.049 C 
ATOM      3  C   UNL     1      -0.088   0.991  -0.115  0.00  0.00    +0.042 C 
ATOM      4  C   UNL     1      -2.016  -0.487  -0.135  0.00  0.00    +0.043 C 
ATOM      5  C   UNL     1      -0.974   2.065   0.075  0.00  0.00    +0.118 C 
ATOM      6  C   UNL     1      -2.826   0.645   0.056  0.00  0.00    +0.134 C 
ATOM      7  C   UNL     1       1.297   1.216  -0.195  0.00  0.00    +0.043 C 
ATOM      8  C   UNL     1      -2.591  -1.766  -0.235  0.00  0.00    +0.005 C 
ATOM      9  C   UNL     1      -0.438   3.346   0.179  0.00  0.00    +0.126 C 
ATOM     10  C   UNL     1      -4.203   0.458   0.140  0.00  0.00    +0.056 C 
ATOM     11  C   UNL     1       1.808   2.506  -0.088  0.00  0.00    +0.169 C 
ATOM     12  C   UNL     1       0.939   3.573   0.099  0.00  0.00    +0.157 C 
ATOM     13  C   UNL     1      -4.778  -0.812   0.041  0.00  0.00    +0.145 C 
ATOM     14  C   UNL     1      -3.971  -1.926  -0.147  0.00  0.00    +0.024 C 
ENDROOT
BRANCH  13  17
ATOM     15  O   UNL     1      -6.683  -2.112   0.045  0.00  0.00    -0.126 OA
ATOM     16  O   UNL     1      -6.898   0.057   0.305  0.00  0.00    -0.126 OA
ATOM     17  N   UNL     1      -6.187  -0.963   0.135  0.00  0.00    +0.058 N 
ENDBRANCH  13  17
BRANCH  11  18
ATOM     18  O   UNL     1       3.152   2.708  -0.168  0.00  0.00    -0.469 OA
ATOM     19  C   UNL     1       3.889   2.661   1.052  0.00  0.00    +0.253 C 
ENDBRANCH  11  18
BRANCH  12  20
ATOM     20  O   UNL     1       1.415   4.845   0.207  0.00  0.00    -0.472 OA
ATOM     21  C   UNL     1       1.545   5.593  -1.000  0.00  0.00    +0.252 C 
ENDBRANCH  12  20
BRANCH   2  22
ATOM     22  N   UNL     1       0.224  -1.409  -0.410  0.00  0.00    -0.331 N 
ATOM     23  H   UNL     1       0.445  -1.685  -1.329  0.00  0.00    +0.147 HD
BRANCH  22  24
ATOM     24  C   UNL     1       0.778  -2.145   0.677  0.00  0.00    +0.114 C 
BRANCH  24  25
ATOM     25  C   UNL     1       1.673  -3.284   0.180  0.00  0.00    +0.109 C 
BRANCH  25  26
ATOM     26  O   UNL     1       0.870  -4.183  -0.588  0.00  0.00    -0.385 OA
ATOM     27  H   UNL     1       1.421  -4.912  -0.912  0.00  0.00    +0.210 HD
ENDBRANCH  25  26
BRANCH  25  28
ATOM     28  C   UNL     1       2.876  -2.845  -0.663  0.00  0.00    -0.046 C 
BRANCH  28  29
ATOM     29  N   UNL     1       3.799  -2.010   0.094  0.00  0.00    +0.389 N 
ATOM     30  H   UNL     1       3.252  -1.327   0.618  0.00  0.00    -0.080 HD
BRANCH  29  31
ATOM     31  C   UNL     1       4.568  -2.818   1.043  0.00  0.00    -0.077 C 
ATOM     32  C   UNL     1       5.487  -1.949   1.885  0.00  0.00    -0.025 C 
ENDBRANCH  29  31
BRANCH  29  33
ATOM     33  C   UNL     1       4.703  -1.291  -0.807  0.00  0.00    -0.077 C 
ATOM     34  C   UNL     1       5.571  -2.255  -1.598  0.00  0.00    -0.025 C 
ENDBRANCH  29  33
ENDBRANCH  28  29
ENDBRANCH  25  28
ENDBRANCH  24  25
ENDBRANCH  22  24
ENDBRANCH   2  22
TORSDOF 11
