REMARK  Name = 11508879
REMARK  10 active torsions:
REMARK  status: ('A' for Active; 'I' for Inactive)
REMARK    1  A    between atoms: O_1  and  C_3
REMARK    2  A    between atoms: O_1  and  C_22
REMARK    3  A    between atoms: C_4  and  C_11
REMARK    4  A    between atoms: C_12  and  C_14
REMARK    5  A    between atoms: C_14  and  O_15
REMARK    6  A    between atoms: C_18  and  O_23
REMARK    7  A    between atoms: C_19  and  O_25
REMARK    8  A    between atoms: C_20  and  O_27
REMARK    9  A    between atoms: C_21  and  C_29
REMARK   10  A    between atoms: C_29  and  O_30
REMARK                            x       y       z     vdW  Elec       q    Type
REMARK                         _______ _______ _______ _____ _____    ______ ____
ROOT
ATOM      1  O   UNL     1       0.188  -0.265  -1.324  0.00  0.00    -0.450 OA
ENDROOT
BRANCH   1   3
ATOM      2  O   UNL     1      -3.095   2.856   0.310  0.00  0.00    -0.450 OA
ATOM      3  C   UNL     1      -1.074   0.043  -0.895  0.00  0.00    +0.144 C 
ATOM      4  C   UNL     1      -2.062  -0.941  -0.826  0.00  0.00    +0.034 C 
ATOM      5  C   UNL     1      -1.338   1.365  -0.527  0.00  0.00    +0.074 C 
ATOM      6  C   UNL     1      -2.633   1.639  -0.092  0.00  0.00    +0.148 C 
ATOM      7  C   UNL     1      -3.646   0.688  -0.008  0.00  0.00    +0.038 C 
ATOM      8  C   UNL     1      -3.357  -0.635  -0.384  0.00  0.00    +0.006 C 
ATOM      9  C   UNL     1      -4.787   1.381   0.475  0.00  0.00    +0.044 C 
ATOM     10  C   UNL     1      -4.400   2.689   0.651  0.00  0.00    +0.180 C 
BRANCH   4  11
ATOM     11  C   UNL     1      -1.771  -2.317  -1.213  0.00  0.00    +0.010 C 
ATOM     12  C   UNL     1      -1.337  -3.284  -0.378  0.00  0.00    +0.082 C 
BRANCH  12  14
ATOM     13  O   UNL     1      -1.310  -1.911   1.602  0.00  0.00    -0.245 OA
ATOM     14  C   UNL     1      -1.123  -2.983   1.052  0.00  0.00    +0.338 C 
BRANCH  14  15
ATOM     15  O   UNL     1      -0.680  -4.103   1.669  0.00  0.00    -0.477 OA
ATOM     16  H   UNL     1      -0.560  -4.892   1.179  0.00  0.00    +0.295 HD
ENDBRANCH  14  15
ENDBRANCH  12  14
ENDBRANCH   4  11
ENDBRANCH   1   3
BRANCH   1  22
ATOM     17  O   UNL     1       1.739   1.300  -0.557  0.00  0.00    -0.316 OA
ATOM     18  C   UNL     1       3.602  -0.768   0.152  0.00  0.00    +0.173 C 
ATOM     19  C   UNL     1       4.000   0.707   0.086  0.00  0.00    +0.169 C 
ATOM     20  C   UNL     1       2.358  -1.044  -0.693  0.00  0.00    +0.210 C 
ATOM     21  C   UNL     1       2.793   1.607   0.358  0.00  0.00    +0.177 C 
ATOM     22  C   UNL     1       1.252  -0.031  -0.402  0.00  0.00    +0.318 C 
BRANCH  18  23
ATOM     23  O   UNL     1       4.695  -1.543  -0.342  0.00  0.00    -0.379 OA
ATOM     24  H   UNL     1       5.484  -1.368   0.194  0.00  0.00    +0.211 HD
ENDBRANCH  18  23
BRANCH  19  25
ATOM     25  O   UNL     1       5.010   0.966   1.057  0.00  0.00    -0.379 OA
ATOM     26  H   UNL     1       5.776   0.396   0.887  0.00  0.00    +0.211 HD
ENDBRANCH  19  25
BRANCH  20  27
ATOM     27  O   UNL     1       1.861  -2.348  -0.392  0.00  0.00    -0.377 OA
ATOM     28  H   UNL     1       2.551  -3.006  -0.571  0.00  0.00    +0.211 HD
ENDBRANCH  20  27
BRANCH  21  29
ATOM     29  C   UNL     1       3.138   3.083   0.182  0.00  0.00    +0.169 C 
BRANCH  29  30
ATOM     30  O   UNL     1       1.977   3.852   0.437  0.00  0.00    -0.379 OA
ATOM     31  H   UNL     1       2.182   4.793   0.329  0.00  0.00    +0.211 HD
ENDBRANCH  29  30
ENDBRANCH  21  29
ENDBRANCH   1  22
TORSDOF 10
