REMARK  Name = 115029
REMARK  5 active torsions:
REMARK  status: ('A' for Active; 'I' for Inactive)
REMARK    1  A    between atoms: N_1  and  C_18
REMARK    2  A    between atoms: P_10  and  O_22
REMARK    3  A    between atoms: C_17  and  O_20
REMARK    4  A    between atoms: C_26  and  C_28
REMARK    5  A    between atoms: C_28  and  C_29
REMARK                            x       y       z     vdW  Elec       q    Type
REMARK                         _______ _______ _______ _____ _____    ______ ____
ROOT
ATOM      1  N   UNL     1       0.412   0.495  -0.511  0.00  0.00    -0.247 N 
ATOM      2  N   UNL     1      -1.164  -1.082  -0.567  0.00  0.00    -0.242 NA
ATOM      3  N   UNL     1      -0.956   2.431   0.019  0.00  0.00    -0.228 NA
ATOM      4  N   UNL     1      -3.308   1.821   0.243  0.00  0.00    -0.228 NA
ATOM      5  C   UNL     1      -0.767   1.128  -0.235  0.00  0.00    +0.152 C 
ATOM      6  C   UNL     1       0.121  -0.830  -0.703  0.00  0.00    +0.223 C 
ATOM      7  C   UNL     1      -1.731   0.133  -0.274  0.00  0.00    +0.140 C 
ATOM      8  C   UNL     1      -3.044   0.519  -0.021  0.00  0.00    +0.152 C 
ATOM      9  C   UNL     1      -2.263   2.684   0.247  0.00  0.00    +0.253 C 
ATOM     10  O   UNL     1      -5.989   0.850   0.450  0.00  0.00    -0.275 OA
ATOM     11  N   UNL     1      -4.074  -0.422  -0.043  0.00  0.00    -0.268 N 
ATOM     12  C   UNL     1      -5.444  -0.216   0.185  0.00  0.00    +0.227 C 
ATOM     13  H   UNL     1      -3.806  -1.348  -0.244  0.00  0.00    +0.156 HD
ENDROOT
BRANCH   1  22
ATOM     14  P   UNL     1       5.829  -1.155   0.695  0.00  0.00    +0.476 P 
ATOM     15  O   UNL     1       2.526   0.424  -1.606  0.00  0.00    -0.333 OA
ATOM     16  O   UNL     1       4.707  -0.080   1.179  0.00  0.00    -0.271 OA
ATOM     17  O   UNL     1       5.814  -1.108  -0.930  0.00  0.00    -0.271 OA
ATOM     18  O   UNL     1       7.186  -0.943   1.301  0.00  0.00    -0.227 OA
ATOM     19  C   UNL     1       3.507  -0.071   0.439  0.00  0.00    +0.186 C 
ATOM     20  C   UNL     1       3.805   0.179  -1.025  0.00  0.00    +0.177 C 
ATOM     21  C   UNL     1       2.528   1.042   0.729  0.00  0.00    +0.188 C 
ATOM     22  C   UNL     1       1.739   1.107  -0.593  0.00  0.00    +0.225 C 
ATOM     23  C   UNL     1       4.566  -0.991  -1.616  0.00  0.00    +0.186 C 
BRANCH  21  24
ATOM     24  O   UNL     1       3.224   2.270   0.925  0.00  0.00    -0.378 OA
ATOM     25  H   UNL     1       3.721   2.231   1.757  0.00  0.00    +0.211 HD
ENDBRANCH  21  24
BRANCH  14  26
ATOM     26  O   UNL     1       5.183  -2.597   1.049  0.00  0.00    -0.302 OA
ATOM     27  H   UNL     1       4.311  -2.672   0.630  0.00  0.00    +0.222 HD
ENDBRANCH  14  26
ENDBRANCH   1  22
BRANCH  12  28
ATOM     28  C   UNL     1      -6.221  -1.524   0.094  0.00  0.00    +0.085 C 
BRANCH  28  29
ATOM     29  C   UNL     1      -7.721  -1.370   0.333  0.00  0.00    +0.010 C 
ATOM     30  C   UNL     1      -8.467  -2.694   0.235  0.00  0.00    +0.001 C 
ENDBRANCH  28  29
ENDBRANCH  12  28
TORSDOF 5
