REMARK  Name = 11509607
REMARK  14 active torsions:
REMARK  status: ('A' for Active; 'I' for Inactive)
REMARK    1  A    between atoms: C_2  and  C_24
REMARK    2  A    between atoms: C_3  and  O_10
REMARK    3  A    between atoms: C_5  and  O_12
REMARK    4  A    between atoms: O_12  and  C_14
REMARK    5  A    between atoms: C_14  and  C_15
REMARK    6  A    between atoms: C_16  and  C_17
REMARK    7  A    between atoms: C_17  and  O_18
REMARK    8  A    between atoms: C_17  and  C_20
REMARK    9  A    between atoms: C_20  and  C_21
REMARK   10  A    between atoms: C_21  and  C_22
REMARK   11  A    between atoms: C_24  and  O_25
REMARK   12  A    between atoms: C_24  and  C_27
REMARK   13  A    between atoms: C_27  and  C_30
REMARK   14  A    between atoms: C_30  and  O_31
REMARK                            x       y       z     vdW  Elec       q    Type
REMARK                         _______ _______ _______ _____ _____    ______ ____
ROOT
ATOM      1  O   UNL     1      -2.841  -0.491   0.147  0.00  0.00    -0.353 OA
ATOM      2  C   UNL     1      -3.389   0.801   0.451  0.00  0.00    +0.142 C 
ATOM      3  C   UNL     1      -2.483   1.907  -0.138  0.00  0.00    +0.141 C 
ATOM      4  C   UNL     1      -1.013   1.740   0.281  0.00  0.00    +0.072 C 
ATOM      5  C   UNL     1      -0.543   0.307  -0.008  0.00  0.00    +0.198 C 
ATOM      6  C   UNL     1      -1.506  -0.718   0.600  0.00  0.00    +0.155 C 
ATOM      7  C   UNL     1      -3.620   0.950   1.964  0.00  0.00    +0.035 C 
ATOM      8  C   UNL     1      -0.113   2.768  -0.419  0.00  0.00    +0.006 C 
ATOM      9  C   UNL     1      -1.131  -2.143   0.199  0.00  0.00    +0.036 C 
ENDROOT
BRANCH   3  10
ATOM     10  O   UNL     1      -2.933   3.201   0.255  0.00  0.00    -0.382 OA
ATOM     11  H   UNL     1      -3.860   3.314  -0.007  0.00  0.00    +0.210 HD
ENDBRANCH   3  10
BRANCH   5  12
ATOM     12  O   UNL     1       0.769   0.107   0.510  0.00  0.00    -0.447 OA
BRANCH  12  14
ATOM     13  O   UNL     1       1.572  -0.318  -1.614  0.00  0.00    -0.245 OA
ATOM     14  C   UNL     1       1.728  -0.200  -0.409  0.00  0.00    +0.341 C 
BRANCH  14  15
ATOM     15  C   UNL     1       3.009  -0.370   0.310  0.00  0.00    +0.080 C 
ATOM     16  C   UNL     1       4.121  -0.680  -0.370  0.00  0.00    +0.009 C 
BRANCH  16  17
ATOM     17  C   UNL     1       5.461  -0.868   0.287  0.00  0.00    +0.133 C 
BRANCH  17  18
ATOM     18  O   UNL     1       5.879  -2.217   0.083  0.00  0.00    -0.380 OA
ATOM     19  H   UNL     1       5.214  -2.820   0.452  0.00  0.00    +0.211 HD
ENDBRANCH  17  18
BRANCH  17  20
ATOM     20  C   UNL     1       6.504   0.098  -0.292  0.00  0.00    +0.034 C 
BRANCH  20  21
ATOM     21  C   UNL     1       7.888  -0.106   0.335  0.00  0.00    +0.003 C 
BRANCH  21  22
ATOM     22  C   UNL     1       8.921   0.833  -0.286  0.00  0.00    +0.000 C 
ATOM     23  C   UNL     1      10.303   0.615   0.310  0.00  0.00    +0.000 C 
ENDBRANCH  21  22
ENDBRANCH  20  21
ENDBRANCH  17  20
ENDBRANCH  16  17
ENDBRANCH  14  15
ENDBRANCH  12  14
ENDBRANCH   5  12
BRANCH   2  24
ATOM     24  C   UNL     1      -4.765   0.826  -0.236  0.00  0.00    +0.148 C 
BRANCH  24  25
ATOM     25  O   UNL     1      -4.509   0.703  -1.634  0.00  0.00    -0.381 OA
ATOM     26  H   UNL     1      -3.927   1.423  -1.921  0.00  0.00    +0.210 HD
ENDBRANCH  24  25
BRANCH  24  27
ATOM     27  C   UNL     1      -5.688  -0.314   0.224  0.00  0.00    +0.128 C 
ATOM     28  C   UNL     1      -7.048  -0.313  -0.472  0.00  0.00    +0.014 C 
BRANCH  27  30
ATOM     29  O   UNL     1      -4.729  -2.094  -1.145  0.00  0.00    -0.250 OA
ATOM     30  C   UNL     1      -5.028  -1.662  -0.039  0.00  0.00    +0.316 C 
BRANCH  30  31
ATOM     31  O   UNL     1      -4.813  -2.362   1.106  0.00  0.00    -0.480 OA
ATOM     32  H   UNL     1      -5.057  -1.994   1.933  0.00  0.00    +0.295 HD
ENDBRANCH  30  31
ENDBRANCH  27  30
ENDBRANCH  24  27
ENDBRANCH   2  24
TORSDOF 14
