REMARK  Name = 11515637
REMARK  4 active torsions:
REMARK  status: ('A' for Active; 'I' for Inactive)
REMARK    1  A    between atoms: C_5  and  C_11
REMARK    2  A    between atoms: C_6  and  C_21
REMARK    3  A    between atoms: C_11  and  N_12
REMARK    4  A    between atoms: N_12  and  C_15
REMARK                            x       y       z     vdW  Elec       q    Type
REMARK                         _______ _______ _______ _____ _____    ______ ____
ROOT
ATOM      1  S   UNL     1       0.077  -2.300   0.006  0.00  0.00    -0.082 S 
ATOM      2  C   UNL     1       1.290  -0.018   0.093  0.00  0.00    +0.016 C 
ATOM      3  C   UNL     1       1.533  -1.382  -0.099  0.00  0.00    +0.030 C 
ATOM      4  C   UNL     1      -0.104   0.234   0.324  0.00  0.00    +0.012 C 
ATOM      5  C   UNL     1      -0.865  -0.910   0.302  0.00  0.00    +0.085 C 
ATOM      6  C   UNL     1       2.390   0.872   0.036  0.00  0.00    +0.069 C 
ATOM      7  C   UNL     1       2.831  -1.872  -0.344  0.00  0.00    +0.007 C 
ATOM      8  C   UNL     1       3.679   0.389  -0.206  0.00  0.00    +0.010 C 
ATOM      9  C   UNL     1       3.894  -0.969  -0.394  0.00  0.00    +0.001 C 
ENDROOT
BRANCH   5  11
ATOM     10  O   UNL     1      -2.894  -2.137   0.489  0.00  0.00    -0.267 OA
ATOM     11  C   UNL     1      -2.273  -1.050   0.491  0.00  0.00    +0.277 C 
BRANCH  11  12
ATOM     12  N   UNL     1      -2.934   0.156   0.726  0.00  0.00    -0.143 NA
BRANCH  12  15
ATOM     13  N   UNL     1      -4.080   2.056  -0.209  0.00  0.00    -0.372 N 
ATOM     14  N   UNL     1      -3.276   0.405  -1.564  0.00  0.00    -0.372 N 
ATOM     15  C   UNL     1      -3.408   0.856  -0.272  0.00  0.00    +0.185 C 
ATOM     16  H   UNL     1      -4.240   2.485   0.662  0.00  0.00    +0.159 HD
ATOM     17  H   UNL     1      -4.400   2.484  -1.036  0.00  0.00    +0.159 HD
ATOM     18  H   UNL     1      -2.813  -0.445  -1.744  0.00  0.00    +0.159 HD
ATOM     19  H   UNL     1      -3.644   0.933  -2.309  0.00  0.00    +0.159 HD
ENDBRANCH  12  15
ENDBRANCH  11  12
ENDBRANCH   5  11
BRANCH   6  21
ATOM     20  N   UNL     1       1.976   3.405   0.389  0.00  0.00    -0.191 NA
ATOM     21  C   UNL     1       2.162   2.267   0.230  0.00  0.00    +0.100 C 
ENDBRANCH   6  21
TORSDOF 4
