11517444
  -OEChem-03292013303D

 60 63  0     0  0  0  0  0  0999 V2000
    3.1565    0.4655    0.9582 O   0  0  0  0  0  0  0  0  0  0  0  0
    6.2071    0.6841   -0.0270 N   0  0  0  0  0  0  0  0  0  0  0  0
    8.4774    0.9804   -1.8042 N   0  0  0  0  0  0  0  0  0  0  0  0
    3.9276   -1.6229    0.7385 N   0  0  0  0  0  0  0  0  0  0  0  0
    2.5563   -1.6537    0.5667 N   0  0  0  0  0  0  0  0  0  0  0  0
   -0.1748   -1.9941    0.1813 N   0  0  0  0  0  0  0  0  0  0  0  0
   -2.8905    1.8491    0.4261 N   0  0  0  0  0  0  0  0  0  0  0  0
   -1.5441   -0.0684    0.3009 N   0  0  0  0  0  0  0  0  0  0  0  0
   -0.5787    2.0942    0.7460 N   0  0  0  0  0  0  0  0  0  0  0  0
   -8.9300   -0.1189   -0.8282 N   0  0  0  0  0  0  0  0  0  0  0  0
    6.7685   -0.4687   -0.7427 C   0  0  0  0  0  0  0  0  0  0  0  0
    7.2461    1.6905    0.2270 C   0  0  0  0  0  0  0  0  0  0  0  0
    7.4390   -0.0241   -2.0451 C   0  0  0  0  0  0  0  0  0  0  0  0
    7.9134    2.1224   -1.0811 C   0  0  0  0  0  0  0  0  0  0  0  0
    5.5754    0.2630    1.2218 C   0  0  0  0  0  0  0  0  0  0  0  0
    4.2335   -0.3666    0.9643 C   0  0  0  0  0  0  0  0  0  0  0  0
    2.1490   -0.4135    0.7036 C   0  0  0  0  0  0  0  0  0  0  0  0
    0.8312    0.1469    0.6259 C   0  0  0  0  0  0  0  0  0  0  0  0
   -0.3043   -0.5957    0.3741 C   0  0  0  0  0  0  0  0  0  0  0  0
   -1.2914   -2.8411   -0.0837 C   0  0  0  0  0  0  0  0  0  0  0  0
   -4.0753    1.0931    0.1664 C   0  0  0  0  0  0  0  0  0  0  0  0
    0.6314    1.5005    0.8055 C   0  0  0  0  0  0  0  0  0  0  0  0
   -5.2981    2.0055    0.0806 C   0  0  0  0  0  0  0  0  0  0  0  0
   -1.6076    1.2628    0.4940 C   0  0  0  0  0  0  0  0  0  0  0  0
   -0.8522   -4.2982   -0.1832 C   0  0  0  0  0  0  0  0  0  0  0  0
   -6.5715    1.2607   -0.2381 C   0  0  0  0  0  0  0  0  0  0  0  0
   -2.0159   -5.2506   -0.4212 C   0  0  0  0  0  0  0  0  0  0  0  0
   -6.9593    1.0749   -1.5604 C   0  0  0  0  0  0  0  0  0  0  0  0
   -7.3615    0.7574    0.7896 C   0  0  0  0  0  0  0  0  0  0  0  0
   -8.1364    0.3844   -1.8002 C   0  0  0  0  0  0  0  0  0  0  0  0
   -8.5207    0.0812    0.4446 C   0  0  0  0  0  0  0  0  0  0  0  0
    7.5002   -0.9997   -0.1186 H   0  0  0  0  0  0  0  0  0  0  0  0
    5.9814   -1.1850   -1.0039 H   0  0  0  0  0  0  0  0  0  0  0  0
    8.0049    1.3010    0.9192 H   0  0  0  0  0  0  0  0  0  0  0  0
    6.8008    2.5776    0.6934 H   0  0  0  0  0  0  0  0  0  0  0  0
    6.6895    0.3724   -2.7419 H   0  0  0  0  0  0  0  0  0  0  0  0
    7.8966   -0.8939   -2.5292 H   0  0  0  0  0  0  0  0  0  0  0  0
    8.7192    2.8300   -0.8569 H   0  0  0  0  0  0  0  0  0  0  0  0
    7.1927    2.6498   -1.7189 H   0  0  0  0  0  0  0  0  0  0  0  0
    8.8594    1.2960   -2.6951 H   0  0  0  0  0  0  0  0  0  0  0  0
    5.3981    1.1314    1.8702 H   0  0  0  0  0  0  0  0  0  0  0  0
    6.2088   -0.4271    1.7930 H   0  0  0  0  0  0  0  0  0  0  0  0
   -1.7773   -2.5442   -1.0211 H   0  0  0  0  0  0  0  0  0  0  0  0
   -2.0336   -2.7471    0.7184 H   0  0  0  0  0  0  0  0  0  0  0  0
    0.7350   -2.3189   -0.1287 H   0  0  0  0  0  0  0  0  0  0  0  0
   -4.2286    0.3500    0.9591 H   0  0  0  0  0  0  0  0  0  0  0  0
   -3.9701    0.5433   -0.7777 H   0  0  0  0  0  0  0  0  0  0  0  0
    1.4424    2.1930    1.0097 H   0  0  0  0  0  0  0  0  0  0  0  0
   -5.1341    2.7808   -0.6802 H   0  0  0  0  0  0  0  0  0  0  0  0
   -5.4234    2.5528    1.0247 H   0  0  0  0  0  0  0  0  0  0  0  0
   -0.1261   -4.4110   -0.9978 H   0  0  0  0  0  0  0  0  0  0  0  0
   -0.3347   -4.5920    0.7385 H   0  0  0  0  0  0  0  0  0  0  0  0
   -2.9397    2.8499    0.5782 H   0  0  0  0  0  0  0  0  0  0  0  0
   -2.5329   -5.0094   -1.3554 H   0  0  0  0  0  0  0  0  0  0  0  0
   -1.6551   -6.2817   -0.4874 H   0  0  0  0  0  0  0  0  0  0  0  0
   -2.7402   -5.1946    0.3975 H   0  0  0  0  0  0  0  0  0  0  0  0
   -6.3657    1.4526   -2.3859 H   0  0  0  0  0  0  0  0  0  0  0  0
   -7.0876    0.8827    1.8315 H   0  0  0  0  0  0  0  0  0  0  0  0
   -8.4826    0.2122   -2.8140 H   0  0  0  0  0  0  0  0  0  0  0  0
   -9.1712   -0.3312    1.2088 H   0  0  0  0  0  0  0  0  0  0  0  0
  1 16  1  0  0  0  0
  1 17  1  0  0  0  0
  2 11  1  0  0  0  0
  2 12  1  0  0  0  0
  2 15  1  0  0  0  0
  3 13  1  0  0  0  0
  3 14  1  0  0  0  0
  3 40  1  0  0  0  0
  4  5  1  0  0  0  0
  4 16  2  0  0  0  0
  5 17  2  0  0  0  0
  6 19  1  0  0  0  0
  6 20  1  0  0  0  0
  6 45  1  0  0  0  0
  7 21  1  0  0  0  0
  7 24  1  0  0  0  0
  7 53  1  0  0  0  0
  8 19  2  0  0  0  0
  8 24  1  0  0  0  0
  9 22  1  0  0  0  0
  9 24  2  0  0  0  0
 10 30  2  0  0  0  0
 10 31  1  0  0  0  0
 11 13  1  0  0  0  0
 11 32  1  0  0  0  0
 11 33  1  0  0  0  0
 12 14  1  0  0  0  0
 12 34  1  0  0  0  0
 12 35  1  0  0  0  0
 13 36  1  0  0  0  0
 13 37  1  0  0  0  0
 14 38  1  0  0  0  0
 14 39  1  0  0  0  0
 15 16  1  0  0  0  0
 15 41  1  0  0  0  0
 15 42  1  0  0  0  0
 17 18  1  0  0  0  0
 18 19  1  0  0  0  0
 18 22  2  0  0  0  0
 20 25  1  0  0  0  0
 20 43  1  0  0  0  0
 20 44  1  0  0  0  0
 21 23  1  0  0  0  0
 21 46  1  0  0  0  0
 21 47  1  0  0  0  0
 22 48  1  0  0  0  0
 23 26  1  0  0  0  0
 23 49  1  0  0  0  0
 23 50  1  0  0  0  0
 25 27  1  0  0  0  0
 25 51  1  0  0  0  0
 25 52  1  0  0  0  0
 26 28  2  0  0  0  0
 26 29  1  0  0  0  0
 27 54  1  0  0  0  0
 27 55  1  0  0  0  0
 27 56  1  0  0  0  0
 28 30  1  0  0  0  0
 28 57  1  0  0  0  0
 29 31  2  0  0  0  0
 29 58  1  0  0  0  0
 30 59  1  0  0  0  0
 31 60  1  0  0  0  0
M  END
> <PUBCHEM_COMPOUND_CID>
11517444

> <PUBCHEM_CONFORMER_RMSD>
1.2

> <PUBCHEM_CONFORMER_DIVERSEORDER>
1
73
14
17
50
48
84
41
60
92
95
70
76
89
63
83
12
100
43
62
56
15
69
27
85
98
97
44
93
39
33
42
5
53
7
64
82
34
25
3
35
16
19
31
68
80
78
22
58
55
46
74
65
52
94
59
91
18
67
40
77
99
20
57
28
86
81
24
45
88
4
8
66
23
51
79
26
54
21
87
2
49
36
10
6
75
32
29
71
9
37
47
38
61
72
13
11
90
30
96

> <PUBCHEM_MMFF94_PARTIAL_CHARGES>
37
1 -0.28
10 -0.62
11 0.27
12 0.27
13 0.27
14 0.27
15 0.45
16 0.3
17 0.43
18 0.05
19 0.41
2 -0.81
20 0.37
21 0.37
22 0.16
23 0.14
24 0.72
26 -0.14
28 -0.15
29 -0.15
3 -0.9
30 0.16
31 0.16
4 -0.34
40 0.36
45 0.4
48 0.15
5 -0.34
53 0.4
57 0.15
58 0.15
59 0.15
6 -0.87
60 0.15
7 -0.87
8 -0.62
9 -0.62

> <PUBCHEM_EFFECTIVE_ROTOR_COUNT>
11.2

> <PUBCHEM_PHARMACOPHORE_FEATURES>
12
1 10 acceptor
1 2 cation
1 27 hydrophobe
1 3 cation
1 3 donor
1 6 donor
1 7 donor
4 7 8 9 24 cation
5 1 4 5 16 17 rings
6 10 26 28 29 30 31 rings
6 2 3 11 12 13 14 rings
6 8 9 18 19 22 24 rings

> <PUBCHEM_HEAVY_ATOM_COUNT>
31

> <PUBCHEM_ATOM_DEF_STEREO_COUNT>
0

> <PUBCHEM_ATOM_UDEF_STEREO_COUNT>
0

> <PUBCHEM_BOND_DEF_STEREO_COUNT>
0

> <PUBCHEM_BOND_UDEF_STEREO_COUNT>
0

> <PUBCHEM_ISOTOPIC_ATOM_COUNT>
0

> <PUBCHEM_COMPONENT_COUNT>
1

> <PUBCHEM_CACTVS_TAUTO_COUNT>
9

> <PUBCHEM_CONFORMER_ID>
00AFBE0400000001

> <PUBCHEM_MMFF94_ENERGY>
70.1408

> <PUBCHEM_FEATURE_SELFOVERLAP>
60.898

> <PUBCHEM_SHAPE_FINGERPRINT>
10429389 143 16877938318264008813
10533779 1 17897172532513606548
11315181 36 17749108869227086497
11456790 92 9655573041706215047
11578821 258 16588026809865432581
11991303 11 18261108612566943599
13540713 4 17772743017177419216
1454969 45 18408884014716614929
14937079 2 18412259575238247856
15131766 46 16154854499367304238
15444296 7 17676209095297191700
15849732 13 18113337509399363165
16090146 7 18270699609234527176
1818759 1 17632296792024253917
18365409 1 18338237175295658663
19301679 30 9655313527071985088
20028762 73 18131058317573405231
20105231 36 16988842787592267981
21049683 271 18409728469775555777
21150785 3 18342175557332136153
21360443 126 18410575102334019934
21521721 280 18272644650142459745
21781051 124 15626219135138105396
21792934 111 8430314619246386519
21792938 703 17775286110506023743
23576562 1 18189620616785791573
249057 3 18336265729487881212
3103668 31 18195525024851466791
4258327 124 18187937213276205412
437795 160 13695881350281326569
45377200 153 16988553663337261119
54583773 228 18041849527020038069
5486654 2 18413387626832988841
563151 97 18198347256487831457
5758199 1 18272931597086742889

> <PUBCHEM_SHAPE_MULTIPOLES>
587.27
28.11
3.72
1.36
6.15
7.47
-0.65
-16.95
-13.65
1.95
-0.38
-1.03
-0.33
-0.84

> <PUBCHEM_SHAPE_SELFOVERLAP>
1237.33

> <PUBCHEM_SHAPE_VOLUME>
326.6

> <PUBCHEM_COORDINATE_TYPE>
2
5
10

$$$$
