REMARK  Name = 115185
REMARK  13 active torsions:
REMARK  status: ('A' for Active; 'I' for Inactive)
REMARK    1  A    between atoms: N_2  and  C_24
REMARK    2  A    between atoms: C_3  and  C_5
REMARK    3  A    between atoms: C_5  and  N_7
REMARK    4  A    between atoms: C_5  and  C_17
REMARK    5  A    between atoms: C_8  and  C_11
REMARK    6  A    between atoms: C_17  and  C_18
REMARK    7  A    between atoms: C_24  and  C_26
REMARK    8  A    between atoms: C_24  and  C_29
REMARK    9  A    between atoms: C_26  and  C_28
REMARK   10  A    between atoms: C_29  and  C_30
REMARK   11  A    between atoms: C_30  and  C_31
REMARK   12  A    between atoms: C_31  and  N_32
REMARK   13  A    between atoms: N_32  and  C_35
REMARK                            x       y       z     vdW  Elec       q    Type
REMARK                         _______ _______ _______ _____ _____    ______ ____
ROOT
ATOM      1  O   UNL     1       0.410   0.161   2.287  0.00  0.00    -0.273 OA
ATOM      2  N   UNL     1      -0.835  -0.755   0.552  0.00  0.00    -0.298 N 
ATOM      3  C   UNL     1       0.341  -0.331   1.162  0.00  0.00    +0.241 C 
ATOM      4  H   UNL     1      -0.778  -1.136  -0.354  0.00  0.00    +0.150 HD
ENDROOT
BRANCH   3   5
ATOM      5  C   UNL     1       1.553  -0.493   0.252  0.00  0.00    +0.153 C 
BRANCH   5   7
ATOM      6  O   UNL     1       1.435   2.109  -1.030  0.00  0.00    -0.277 OA
ATOM      7  N   UNL     1       2.416   0.638   0.485  0.00  0.00    -0.300 N 
ATOM      8  C   UNL     1       2.282   1.847  -0.180  0.00  0.00    +0.203 C 
ATOM      9  H   UNL     1       3.137   0.547   1.149  0.00  0.00    +0.150 HD
BRANCH   8  11
ATOM     10  N   UNL     1       3.036   4.084  -0.488  0.00  0.00    +0.391 N 
ATOM     11  C   UNL     1       3.287   2.857   0.268  0.00  0.00    +0.017 C 
ATOM     12  C   UNL     1       3.136   3.229   1.740  0.00  0.00    -0.015 C 
ATOM     13  C   UNL     1       2.815   4.716   1.733  0.00  0.00    -0.025 C 
ATOM     14  C   UNL     1       3.367   5.190   0.405  0.00  0.00    -0.081 C 
ATOM     15  H   UNL     1       2.056   4.134  -0.764  0.00  0.00    -0.084 HD
ATOM     16  H   UNL     1       3.596   4.116  -1.340  0.00  0.00    -0.084 HD
ENDBRANCH   8  11
ENDBRANCH   5   7
BRANCH   5  17
ATOM     17  C   UNL     1       2.257  -1.825   0.533  0.00  0.00    +0.055 C 
BRANCH  17  18
ATOM     18  C   UNL     1       3.161  -2.258  -0.595  0.00  0.00    -0.020 C 
ATOM     19  C   UNL     1       2.659  -3.051  -1.627  0.00  0.00    -0.004 C 
ATOM     20  C   UNL     1       4.499  -1.864  -0.607  0.00  0.00    -0.004 C 
ATOM     21  C   UNL     1       3.494  -3.450  -2.670  0.00  0.00    -0.000 C 
ATOM     22  C   UNL     1       5.335  -2.264  -1.650  0.00  0.00    -0.000 C 
ATOM     23  C   UNL     1       4.832  -3.057  -2.681  0.00  0.00    -0.000 C 
ENDBRANCH  17  18
ENDBRANCH   5  17
ENDBRANCH   3   5
BRANCH   2  24
ATOM     24  C   UNL     1      -2.130  -0.666   1.174  0.00  0.00    +0.131 C 
BRANCH  24  26
ATOM     25  O   UNL     1      -1.818  -3.005   1.650  0.00  0.00    -0.293 OA
ATOM     26  C   UNL     1      -2.306  -1.932   2.005  0.00  0.00    +0.185 C 
BRANCH  26  28
ATOM     27 CL   UNL     1      -3.219  -3.308   4.149  0.00  0.00    -0.105 Cl
ATOM     28  C   UNL     1      -3.072  -1.762   3.299  0.00  0.00    +0.161 C 
ENDBRANCH  26  28
ENDBRANCH  24  26
BRANCH  24  29
ATOM     29  C   UNL     1      -3.265  -0.539   0.157  0.00  0.00    +0.029 C 
BRANCH  29  30
ATOM     30  C   UNL     1      -3.100   0.689  -0.746  0.00  0.00    +0.029 C 
BRANCH  30  31
ATOM     31  C   UNL     1      -4.197   0.787  -1.801  0.00  0.00    +0.129 C 
BRANCH  31  32
ATOM     32  N   UNL     1      -5.502   0.917  -1.150  0.00  0.00    -0.240 NA
BRANCH  32  35
ATOM     33  N   UNL     1      -6.551   1.096  -3.304  0.00  0.00    -0.370 N 
ATOM     34  N   UNL     1      -7.791   1.184  -1.394  0.00  0.00    -0.370 N 
ATOM     35  C   UNL     1      -6.530   1.055  -1.928  0.00  0.00    +0.189 C 
ATOM     36  H   UNL     1      -5.711   1.014  -3.811  0.00  0.00    +0.159 HD
ATOM     37  H   UNL     1      -7.405   1.206  -3.781  0.00  0.00    +0.159 HD
ATOM     38  H   UNL     1      -7.916   1.171  -0.418  0.00  0.00    +0.159 HD
ATOM     39  H   UNL     1      -8.569   1.288  -1.989  0.00  0.00    +0.159 HD
ENDBRANCH  32  35
ENDBRANCH  31  32
ENDBRANCH  30  31
ENDBRANCH  29  30
ENDBRANCH  24  29
ENDBRANCH   2  24
TORSDOF 13
