115158
  -OEChem-03292013323D

 54 56  0     1  0  0  0  0  0999 V2000
    1.4894   -0.5964   -0.5788 O   0  0  0  0  0  0  0  0  0  0  0  0
    2.1695    0.7045    1.2349 O   0  0  0  0  0  0  0  0  0  0  0  0
    2.1495   -4.0747    1.5025 O   0  0  0  0  0  0  0  0  0  0  0  0
    1.8945   -4.1480   -1.3759 O   0  0  0  0  0  0  0  0  0  0  0  0
    3.4309   -1.5645    2.3612 O   0  0  0  0  0  0  0  0  0  0  0  0
    0.9142   -0.4904   -3.2647 O   0  0  0  0  0  0  0  0  0  0  0  0
   -1.0075    1.5197    0.2902 O   0  0  0  0  0  0  0  0  0  0  0  0
   -2.4969    0.7687   -1.5283 O   0  0  0  0  0  0  0  0  0  0  0  0
   -5.0749    1.2471   -0.8301 O   0  0  0  0  0  0  0  0  0  0  0  0
   -2.6335    1.2644    1.9113 O   0  0  0  0  0  0  0  0  0  0  0  0
    2.5042   -2.9875    0.6467 C   0  0  1  0  0  0  0  0  0  0  0  0
    1.5753   -3.0188   -0.5671 C   0  0  1  0  0  0  0  0  0  0  0  0
    2.3693   -1.6716    1.4130 C   0  0  2  0  0  0  0  0  0  0  0  0
    1.7250   -1.7425   -1.3986 C   0  0  1  0  0  0  0  0  0  0  0  0
    2.4451   -0.4696    0.4716 C   0  0  1  0  0  0  0  0  0  0  0  0
    0.7251   -1.6979   -2.5497 C   0  0  0  0  0  0  0  0  0  0  0  0
    2.1853    1.8928    0.5576 C   0  0  0  0  0  0  0  0  0  0  0  0
    1.0484    2.6950    0.5083 C   0  0  0  0  0  0  0  0  0  0  0  0
   -2.9266    0.2891   -0.2706 C   0  0  1  0  0  0  0  0  0  0  0  0
    3.3558    2.2904   -0.0831 C   0  0  0  0  0  0  0  0  0  0  0  0
   -5.1349   -0.4780    0.8303 C   0  0  0  0  0  0  0  0  0  0  0  0
   -0.2132    2.2807    1.1908 C   0  0  0  0  0  0  0  0  0  0  0  0
   -4.4448    0.4173   -0.1753 C   0  0  0  0  0  0  0  0  0  0  0  0
   -4.7615   -1.9358    0.5858 C   0  0  0  0  0  0  0  0  0  0  0  0
   -2.4980   -1.1392   -0.1241 C   0  0  0  0  0  0  0  0  0  0  0  0
    1.0825    3.9039   -0.1867 C   0  0  0  0  0  0  0  0  0  0  0  0
   -2.2013    1.0703    0.7833 C   0  0  0  0  0  0  0  0  0  0  0  0
   -3.3138   -2.1344    0.2534 C   0  0  0  0  0  0  0  0  0  0  0  0
    3.3897    3.4993   -0.7780 C   0  0  0  0  0  0  0  0  0  0  0  0
    2.2532    4.3060   -0.8298 C   0  0  0  0  0  0  0  0  0  0  0  0
    3.5445   -3.1602    0.3468 H   0  0  0  0  0  0  0  0  0  0  0  0
    0.5394   -3.1366   -0.2235 H   0  0  0  0  0  0  0  0  0  0  0  0
    1.4301   -1.6583    1.9800 H   0  0  0  0  0  0  0  0  0  0  0  0
    2.7352   -1.6672   -1.8236 H   0  0  0  0  0  0  0  0  0  0  0  0
    3.4574   -0.4019    0.0520 H   0  0  0  0  0  0  0  0  0  0  0  0
   -0.3094   -1.7214   -2.2010 H   0  0  0  0  0  0  0  0  0  0  0  0
    0.8747   -2.5251   -3.2488 H   0  0  0  0  0  0  0  0  0  0  0  0
    1.2339   -3.9392    1.8005 H   0  0  0  0  0  0  0  0  0  0  0  0
    1.1575   -4.2899   -1.9932 H   0  0  0  0  0  0  0  0  0  0  0  0
    3.3274   -0.7127    2.8191 H   0  0  0  0  0  0  0  0  0  0  0  0
    0.7808    0.2441   -2.6411 H   0  0  0  0  0  0  0  0  0  0  0  0
   -6.2195   -0.3505    0.7476 H   0  0  0  0  0  0  0  0  0  0  0  0
   -4.8430   -0.1616    1.8372 H   0  0  0  0  0  0  0  0  0  0  0  0
    4.2576    1.6870   -0.0383 H   0  0  0  0  0  0  0  0  0  0  0  0
   -0.7729    3.1677    1.5145 H   0  0  0  0  0  0  0  0  0  0  0  0
    0.0044    1.6910    2.0899 H   0  0  0  0  0  0  0  0  0  0  0  0
   -5.3591   -2.3380   -0.2413 H   0  0  0  0  0  0  0  0  0  0  0  0
   -5.0140   -2.5215    1.4769 H   0  0  0  0  0  0  0  0  0  0  0  0
   -1.4578   -1.3799   -0.3209 H   0  0  0  0  0  0  0  0  0  0  0  0
    0.2035    4.5412   -0.2373 H   0  0  0  0  0  0  0  0  0  0  0  0
   -2.9184   -3.1438    0.3211 H   0  0  0  0  0  0  0  0  0  0  0  0
    4.3024    3.8147   -1.2752 H   0  0  0  0  0  0  0  0  0  0  0  0
    2.2799    5.2475   -1.3706 H   0  0  0  0  0  0  0  0  0  0  0  0
   -2.7515    1.7049   -1.5986 H   0  0  0  0  0  0  0  0  0  0  0  0
  1 14  1  0  0  0  0
  1 15  1  0  0  0  0
  2 15  1  0  0  0  0
  2 17  1  0  0  0  0
  3 11  1  0  0  0  0
  3 38  1  0  0  0  0
  4 12  1  0  0  0  0
  4 39  1  0  0  0  0
  5 13  1  0  0  0  0
  5 40  1  0  0  0  0
  6 16  1  0  0  0  0
  6 41  1  0  0  0  0
  7 22  1  0  0  0  0
  7 27  1  0  0  0  0
  8 19  1  0  0  0  0
  8 54  1  0  0  0  0
  9 23  2  0  0  0  0
 10 27  2  0  0  0  0
 11 12  1  0  0  0  0
 11 13  1  0  0  0  0
 11 31  1  0  0  0  0
 12 14  1  0  0  0  0
 12 32  1  0  0  0  0
 13 15  1  0  0  0  0
 13 33  1  0  0  0  0
 14 16  1  0  0  0  0
 14 34  1  0  0  0  0
 15 35  1  0  0  0  0
 16 36  1  0  0  0  0
 16 37  1  0  0  0  0
 17 18  1  0  0  0  0
 17 20  2  0  0  0  0
 18 22  1  0  0  0  0
 18 26  2  0  0  0  0
 19 23  1  0  0  0  0
 19 25  1  0  0  0  0
 19 27  1  0  0  0  0
 20 29  1  0  0  0  0
 20 44  1  0  0  0  0
 21 23  1  0  0  0  0
 21 24  1  0  0  0  0
 21 42  1  0  0  0  0
 21 43  1  0  0  0  0
 22 45  1  0  0  0  0
 22 46  1  0  0  0  0
 24 28  1  0  0  0  0
 24 47  1  0  0  0  0
 24 48  1  0  0  0  0
 25 28  2  0  0  0  0
 25 49  1  0  0  0  0
 26 30  1  0  0  0  0
 26 50  1  0  0  0  0
 28 51  1  0  0  0  0
 29 30  2  0  0  0  0
 29 52  1  0  0  0  0
 30 53  1  0  0  0  0
M  END
> <PUBCHEM_COMPOUND_CID>
115158

> <PUBCHEM_CONFORMER_RMSD>
1.4

> <PUBCHEM_CONFORMER_DIVERSEORDER>
1
246
177
63
21
512
14
420
60
498
135
27
450
341
217
20
345
70
154
66
81
46
295
463
294
206
493
459
457
499
136
470
397
370
33
4
12
267
260
489
36
54
446
285
10
376
143
11
453
385
329
138
32
497
235
101
127
338
332
73
55
249
80
115
95
37
184
218
233
6
168
23
405
3
28
426
251
388
406
2
145
34
58
123
500
68
15
195
84
199
133
62
304
181
7
114
265
164
87
313
100
517
39
121
228
141
69
245
401
153
49
343
156
308
383
130
468
253
13
174
318
223
413
194
234
72
16
64
513
113
31
161
204
71
202
179
461
250
38
98
475
155

> <PUBCHEM_MMFF94_PARTIAL_CHARGES>
41
1 -0.56
10 -0.57
11 0.28
12 0.28
13 0.28
14 0.28
15 0.56
16 0.28
17 0.08
18 -0.14
19 0.54
2 -0.36
20 -0.15
21 0.06
22 0.42
23 0.45
24 0.14
25 -0.29
26 -0.15
27 0.66
28 -0.29
29 -0.15
3 -0.68
30 -0.15
38 0.4
39 0.4
4 -0.68
40 0.4
41 0.4
44 0.15
49 0.15
5 -0.68
50 0.15
51 0.15
52 0.15
53 0.15
54 0.4
6 -0.68
7 -0.43
8 -0.68
9 -0.57

> <PUBCHEM_EFFECTIVE_ROTOR_COUNT>
8.8

> <PUBCHEM_PHARMACOPHORE_FEATURES>
17
1 1 acceptor
1 10 acceptor
1 2 acceptor
1 3 acceptor
1 3 donor
1 4 acceptor
1 4 donor
1 5 acceptor
1 5 donor
1 6 acceptor
1 6 donor
1 8 acceptor
1 8 donor
1 9 acceptor
6 1 11 12 13 14 15 rings
6 17 18 20 26 29 30 rings
6 19 21 23 24 25 28 rings

> <PUBCHEM_HEAVY_ATOM_COUNT>
30

> <PUBCHEM_ATOM_DEF_STEREO_COUNT>
5

> <PUBCHEM_ATOM_UDEF_STEREO_COUNT>
1

> <PUBCHEM_BOND_DEF_STEREO_COUNT>
0

> <PUBCHEM_BOND_UDEF_STEREO_COUNT>
0

> <PUBCHEM_ISOTOPIC_ATOM_COUNT>
0

> <PUBCHEM_COMPONENT_COUNT>
1

> <PUBCHEM_CACTVS_TAUTO_COUNT>
2

> <PUBCHEM_CONFORMER_ID>
0001C1D600000001

> <PUBCHEM_MMFF94_ENERGY>
71.176

> <PUBCHEM_FEATURE_SELFOVERLAP>
86.348

> <PUBCHEM_SHAPE_FINGERPRINT>
10006869 2 17544746189460619162
11488393 25 17913804779563578766
11578080 2 17822281371543127157
12553582 1 18123764062064061931
12633257 1 18336251371670439691
133893 2 18269576999341555625
138480 1 18336825290811845746
17138139 8 17195992087977214079
18681886 176 18120930865940934040
20600515 1 18051684443481631376
21133410 32 16303509497413516514
21344244 181 17769123420424575444
21421861 104 18340220638922381697
21860390 5 18340476798934691942
23559900 14 18341895160660800391
238 59 18265912413032925592
3298306 158 18198625630265889549
3493558 16 10959940457009324248
35225 105 17548140381928383868
4280585 95 18195534692784861286
460360 51 18337685109664824617
6669772 16 18196666296698664092
6823239 73 18059312997026049703
81228 2 17552928321286414969

> <PUBCHEM_SHAPE_MULTIPOLES>
558.69
8.25
5.56
1.96
11.73
1.81
-0.89
-2.69
1.09
-6.57
-0.2
-0.95
1.22
-0.8

> <PUBCHEM_SHAPE_SELFOVERLAP>
1186.467

> <PUBCHEM_SHAPE_VOLUME>
306.6

> <PUBCHEM_COORDINATE_TYPE>
2
5
10

$$$$
