REMARK  Name = 11517444
REMARK  8 active torsions:
REMARK  status: ('A' for Active; 'I' for Inactive)
REMARK    1  A    between atoms: N_1  and  C_26
REMARK    2  A    between atoms: N_2  and  C_29
REMARK    3  A    between atoms: C_5  and  C_15
REMARK    4  A    between atoms: C_14  and  C_16
REMARK    5  A    between atoms: C_16  and  N_17
REMARK    6  A    between atoms: C_26  and  C_27
REMARK    7  A    between atoms: C_29  and  C_30
REMARK    8  A    between atoms: C_30  and  C_32
REMARK                            x       y       z     vdW  Elec       q    Type
REMARK                         _______ _______ _______ _____ _____    ______ ____
ROOT
ATOM      1  N   UNL     1      -0.175  -1.994   0.181  0.00  0.00    -0.308 N 
ATOM      2  N   UNL     1      -2.890   1.849   0.426  0.00  0.00    -0.268 N 
ATOM      3  N   UNL     1      -1.544  -0.068   0.301  0.00  0.00    -0.322 NA
ATOM      4  N   UNL     1      -0.579   2.094   0.746  0.00  0.00    -0.170 NA
ATOM      5  C   UNL     1       0.831   0.147   0.626  0.00  0.00    +0.120 C 
ATOM      6  C   UNL     1      -0.304  -0.596   0.374  0.00  0.00    +0.199 C 
ATOM      7  C   UNL     1       0.631   1.500   0.805  0.00  0.00    +0.120 C 
ATOM      8  C   UNL     1      -1.608   1.263   0.494  0.00  0.00    +0.146 C 
ATOM      9  H   UNL     1       0.722  -2.397   0.232  0.00  0.00    +0.149 HD
ATOM     10  H   UNL     1      -2.972   2.821   0.564  0.00  0.00    +0.159 HD
ENDROOT
BRANCH   5  15
ATOM     11  O   UNL     1       3.156   0.466   0.958  0.00  0.00    -0.421 OA
ATOM     12  N   UNL     1       3.928  -1.623   0.739  0.00  0.00    -0.114 NA
ATOM     13  N   UNL     1       2.556  -1.654   0.567  0.00  0.00    -0.107 NA
ATOM     14  C   UNL     1       4.234  -0.367   0.964  0.00  0.00    +0.206 A 
ATOM     15  C   UNL     1       2.149  -0.413   0.704  0.00  0.00    +0.255 A 
BRANCH  14  16
ATOM     16  C   UNL     1       5.575   0.263   1.222  0.00  0.00    +0.012 C 
BRANCH  16  17
ATOM     17  N   UNL     1       6.207   0.684  -0.027  0.00  0.00    +0.390 N 
ATOM     18  N   UNL     1       8.477   0.980  -1.804  0.00  0.00    +0.381 N 
ATOM     19  C   UNL     1       6.769  -0.469  -0.743  0.00  0.00    -0.101 C 
ATOM     20  C   UNL     1       7.246   1.690   0.227  0.00  0.00    -0.101 C 
ATOM     21  C   UNL     1       7.439  -0.024  -2.045  0.00  0.00    -0.105 C 
ATOM     22  C   UNL     1       7.913   2.122  -1.081  0.00  0.00    -0.105 C 
ATOM     23  H   UNL     1       5.490   1.107  -0.616  0.00  0.00    -0.079 HD
ATOM     24  H   UNL     1       8.853   1.299  -2.698  0.00  0.00    -0.085 HD
ATOM     25  H   UNL     1       9.221   0.564  -1.244  0.00  0.00    -0.085 HD
ENDBRANCH  16  17
ENDBRANCH  14  16
ENDBRANCH   5  15
BRANCH   1  26
ATOM     26  C   UNL     1      -1.291  -2.841  -0.084  0.00  0.00    +0.089 C 
BRANCH  26  27
ATOM     27  C   UNL     1      -0.852  -4.298  -0.183  0.00  0.00    +0.021 C 
ATOM     28  C   UNL     1      -2.016  -5.251  -0.421  0.00  0.00    +0.002 C 
ENDBRANCH  26  27
ENDBRANCH   1  26
BRANCH   2  29
ATOM     29  C   UNL     1      -4.075   1.093   0.166  0.00  0.00    +0.102 C 
BRANCH  29  30
ATOM     30  C   UNL     1      -5.298   2.006   0.081  0.00  0.00    +0.048 C 
BRANCH  30  32
ATOM     31  N   UNL     1      -8.930  -0.119  -0.828  0.00  0.00    -0.242 NA
ATOM     32  C   UNL     1      -6.572   1.261  -0.238  0.00  0.00    -0.017 C 
ATOM     33  C   UNL     1      -6.959   1.075  -1.560  0.00  0.00    +0.016 C 
ATOM     34  C   UNL     1      -7.362   0.757   0.790  0.00  0.00    +0.016 C 
ATOM     35  C   UNL     1      -8.136   0.384  -1.800  0.00  0.00    +0.099 C 
ATOM     36  C   UNL     1      -8.521   0.081   0.445  0.00  0.00    +0.099 C 
ENDBRANCH  30  32
ENDBRANCH  29  30
ENDBRANCH   2  29
TORSDOF 8
