11517980
  -OEChem-03292013303D

 58 61  0     0  0  0  0  0  0999 V2000
   -2.2491    0.9006   -1.0601 O   0  0  0  0  0  0  0  0  0  0  0  0
    3.6768    0.0916    1.4788 O   0  0  0  0  0  0  0  0  0  0  0  0
   -7.1401    1.4983    0.2058 O   0  0  0  0  0  0  0  0  0  0  0  0
   -8.0065   -1.0587    0.8693 O   0  0  0  0  0  0  0  0  0  0  0  0
    7.5359   -0.7626   -0.2585 N   0  0  0  0  0  0  0  0  0  0  0  0
    8.0889    0.2300   -0.9762 N   0  0  0  0  0  0  0  0  0  0  0  0
    4.9377    1.5767    0.1662 N   0  0  0  0  0  0  0  0  0  0  0  0
   -3.6718   -2.8015   -0.0525 N   0  0  0  0  0  0  0  0  0  0  0  0
   -1.8905   -1.3545   -0.7874 N   0  0  0  0  0  0  0  0  0  0  0  0
    8.2350   -2.0167   -0.1117 C   0  0  0  0  0  0  0  0  0  0  0  0
    6.3183   -0.4485    0.2698 C   0  0  0  0  0  0  0  0  0  0  0  0
    8.5956   -2.3036    1.3471 C   0  0  0  0  0  0  0  0  0  0  0  0
    7.4640   -3.1788   -0.7409 C   0  0  0  0  0  0  0  0  0  0  0  0
    6.0793    0.8241   -0.1362 C   0  0  0  0  0  0  0  0  0  0  0  0
    2.8069    2.2914    1.0215 C   0  0  0  0  0  0  0  0  0  0  0  0
    7.1806    1.2060   -0.8940 C   0  0  0  0  0  0  0  0  0  0  0  0
    1.4708    1.9235    0.4712 C   0  0  0  0  0  0  0  0  0  0  0  0
    3.8445    1.1753    0.9290 C   0  0  0  0  0  0  0  0  0  0  0  0
   -4.0858   -0.4548   -0.3243 C   0  0  0  0  0  0  0  0  0  0  0  0
    0.5091    1.3480    1.3018 C   0  0  0  0  0  0  0  0  0  0  0  0
    1.1822    2.1554   -0.8736 C   0  0  0  0  0  0  0  0  0  0  0  0
   -1.0126    1.2412   -0.5501 C   0  0  0  0  0  0  0  0  0  0  0  0
   -4.5101   -1.7518    0.0078 C   0  0  0  0  0  0  0  0  0  0  0  0
   -2.7561   -0.3257   -0.7159 C   0  0  0  0  0  0  0  0  0  0  0  0
   -0.7411    1.0044    0.7875 C   0  0  0  0  0  0  0  0  0  0  0  0
   -0.0683    1.8119   -1.3878 C   0  0  0  0  0  0  0  0  0  0  0  0
   -4.9711    0.6352   -0.2573 C   0  0  0  0  0  0  0  0  0  0  0  0
   -6.2891    0.4375    0.1424 C   0  0  0  0  0  0  0  0  0  0  0  0
   -5.8345   -1.9208    0.4046 C   0  0  0  0  0  0  0  0  0  0  0  0
   -6.7210   -0.8419    0.4736 C   0  0  0  0  0  0  0  0  0  0  0  0
   -2.4080   -2.5460   -0.4471 C   0  0  0  0  0  0  0  0  0  0  0  0
   -6.6134    2.7751   -0.1516 C   0  0  0  0  0  0  0  0  0  0  0  0
   -8.9564   -1.3604   -0.1509 C   0  0  0  0  0  0  0  0  0  0  0  0
    9.1782   -1.9148   -0.6655 H   0  0  0  0  0  0  0  0  0  0  0  0
    5.7635   -1.1571    0.8684 H   0  0  0  0  0  0  0  0  0  0  0  0
    9.1619   -1.4718    1.7806 H   0  0  0  0  0  0  0  0  0  0  0  0
    7.7017   -2.4542    1.9622 H   0  0  0  0  0  0  0  0  0  0  0  0
    9.2108   -3.2064    1.4225 H   0  0  0  0  0  0  0  0  0  0  0  0
    6.5202   -3.3678   -0.2177 H   0  0  0  0  0  0  0  0  0  0  0  0
    8.0568   -4.0990   -0.7067 H   0  0  0  0  0  0  0  0  0  0  0  0
    7.2270   -2.9683   -1.7896 H   0  0  0  0  0  0  0  0  0  0  0  0
    3.1618    3.2080    0.5344 H   0  0  0  0  0  0  0  0  0  0  0  0
    2.7183    2.5559    2.0837 H   0  0  0  0  0  0  0  0  0  0  0  0
    7.3770    2.1432   -1.3949 H   0  0  0  0  0  0  0  0  0  0  0  0
    4.9412    2.5121   -0.2330 H   0  0  0  0  0  0  0  0  0  0  0  0
    0.7205    1.1647    2.3520 H   0  0  0  0  0  0  0  0  0  0  0  0
    1.9238    2.6013   -1.5312 H   0  0  0  0  0  0  0  0  0  0  0  0
   -4.5814    1.6111   -0.5263 H   0  0  0  0  0  0  0  0  0  0  0  0
   -1.4798    0.5760    1.4587 H   0  0  0  0  0  0  0  0  0  0  0  0
   -0.2907    1.9925   -2.4353 H   0  0  0  0  0  0  0  0  0  0  0  0
   -6.1900   -2.9155    0.6690 H   0  0  0  0  0  0  0  0  0  0  0  0
   -1.7375   -3.3955   -0.4932 H   0  0  0  0  0  0  0  0  0  0  0  0
   -6.3002    2.8034   -1.2009 H   0  0  0  0  0  0  0  0  0  0  0  0
   -7.4270    3.5002   -0.0440 H   0  0  0  0  0  0  0  0  0  0  0  0
   -5.8166    3.0889    0.5314 H   0  0  0  0  0  0  0  0  0  0  0  0
   -8.6825   -2.2854   -0.6681 H   0  0  0  0  0  0  0  0  0  0  0  0
   -9.9331   -1.4993    0.3206 H   0  0  0  0  0  0  0  0  0  0  0  0
   -9.0277   -0.5360   -0.8674 H   0  0  0  0  0  0  0  0  0  0  0  0
  1 22  1  0  0  0  0
  1 24  1  0  0  0  0
  2 18  2  0  0  0  0
  3 28  1  0  0  0  0
  3 32  1  0  0  0  0
  4 30  1  0  0  0  0
  4 33  1  0  0  0  0
  5  6  1  0  0  0  0
  5 10  1  0  0  0  0
  5 11  1  0  0  0  0
  6 16  2  0  0  0  0
  7 14  1  0  0  0  0
  7 18  1  0  0  0  0
  7 45  1  0  0  0  0
  8 23  1  0  0  0  0
  8 31  2  0  0  0  0
  9 24  2  0  0  0  0
  9 31  1  0  0  0  0
 10 12  1  0  0  0  0
 10 13  1  0  0  0  0
 10 34  1  0  0  0  0
 11 14  2  0  0  0  0
 11 35  1  0  0  0  0
 12 36  1  0  0  0  0
 12 37  1  0  0  0  0
 12 38  1  0  0  0  0
 13 39  1  0  0  0  0
 13 40  1  0  0  0  0
 13 41  1  0  0  0  0
 14 16  1  0  0  0  0
 15 17  1  0  0  0  0
 15 18  1  0  0  0  0
 15 42  1  0  0  0  0
 15 43  1  0  0  0  0
 16 44  1  0  0  0  0
 17 20  2  0  0  0  0
 17 21  1  0  0  0  0
 19 23  1  0  0  0  0
 19 24  1  0  0  0  0
 19 27  2  0  0  0  0
 20 25  1  0  0  0  0
 20 46  1  0  0  0  0
 21 26  2  0  0  0  0
 21 47  1  0  0  0  0
 22 25  2  0  0  0  0
 22 26  1  0  0  0  0
 23 29  2  0  0  0  0
 25 49  1  0  0  0  0
 26 50  1  0  0  0  0
 27 28  1  0  0  0  0
 27 48  1  0  0  0  0
 28 30  2  0  0  0  0
 29 30  1  0  0  0  0
 29 51  1  0  0  0  0
 31 52  1  0  0  0  0
 32 53  1  0  0  0  0
 32 54  1  0  0  0  0
 32 55  1  0  0  0  0
 33 56  1  0  0  0  0
 33 57  1  0  0  0  0
 33 58  1  0  0  0  0
M  END
> <PUBCHEM_COMPOUND_CID>
11517980

> <PUBCHEM_CONFORMER_RMSD>
1

> <PUBCHEM_CONFORMER_DIVERSEORDER>
10
113
98
215
248
65
101
122
155
32
204
56
2
104
145
231
120
76
208
25
200
71
242
11
156
150
246
8
102
233
170
209
151
159
121
179
72
176
61
148
243
135
207
219
80
92
227
99
202
212
228
198
160
220
6
224
187
157
149
14
162
77
89
218
90
139
52
67
28
237
64
12
51
19
143
119
197
13
247
103
189
126
78
108
251
36
230
105
130
57
234
20
30
199
138
232
173
183
214
192
33
249
193
194
88
91
153
132
114
203
245
152
131
50
58
205
178
136
226
239
95
55
244
66
182
142
146
195
116
213
100
18
123
96
133
35
124
190
86
144
43
5
69
75
129
87
221
68
21
206
46
137
147
70
112
125
94
49
107
235
109
38
45
44
250
1
236
73
229
154
188
128
164
84
9
223
166
127
74
115
37
4
39
167
238
110
169
172
175
163
217
184
216
34
97
118
181
27
191
31
29
222
180
3
79
111
83
93
63
41
23
201
117
7
165
161
211
24
82
210
59
85
53
54
240
168
196
48
174
42
225
141
241
140
171
60
185
62
177
26
17
22
186
134
106
81
16
158
15
40
47

> <PUBCHEM_MMFF94_PARTIAL_CHARGES>
40
1 -0.17
10 0.26
11 -0.3
14 0.06
15 0.2
16 0.14
17 -0.14
18 0.57
2 -0.57
20 -0.15
21 -0.15
22 0.08
23 0.31
24 0.39
25 -0.15
26 -0.15
27 -0.15
28 0.08
29 -0.15
3 -0.36
30 0.08
31 0.47
32 0.28
33 0.28
35 0.15
4 -0.36
44 0.15
45 0.37
46 0.15
47 0.15
48 0.15
49 0.15
5 0.31
50 0.15
51 0.15
52 0.15
6 -0.71
7 -0.49
8 -0.62
9 -0.62

> <PUBCHEM_EFFECTIVE_ROTOR_COUNT>
9

> <PUBCHEM_PHARMACOPHORE_FEATURES>
11
1 2 acceptor
1 3 acceptor
1 4 acceptor
1 6 acceptor
1 7 donor
3 10 12 13 hydrophobe
3 8 9 31 cation
5 5 6 11 14 16 rings
6 17 20 21 22 25 26 rings
6 19 23 27 28 29 30 rings
6 8 9 19 23 24 31 rings

> <PUBCHEM_HEAVY_ATOM_COUNT>
33

> <PUBCHEM_ATOM_DEF_STEREO_COUNT>
0

> <PUBCHEM_ATOM_UDEF_STEREO_COUNT>
0

> <PUBCHEM_BOND_DEF_STEREO_COUNT>
0

> <PUBCHEM_BOND_UDEF_STEREO_COUNT>
0

> <PUBCHEM_ISOTOPIC_ATOM_COUNT>
0

> <PUBCHEM_COMPONENT_COUNT>
1

> <PUBCHEM_CACTVS_TAUTO_COUNT>
2

> <PUBCHEM_CONFORMER_ID>
00AFC01C0000000A

> <PUBCHEM_MMFF94_ENERGY>
109.1827

> <PUBCHEM_FEATURE_SELFOVERLAP>
55.858

> <PUBCHEM_SHAPE_FINGERPRINT>
10 15 9871746901925348264
10299344 5 18259985985229624752
10577160 103 9367333839349126583
10580692 12 18412546547872498649
10674148 151 18408320008449035864
11273773 46 18342176614294660542
11387372 6 18188208809833910139
11456790 92 17703242814556441323
11524674 6 17417811776832347167
117089 54 17754183290296542131
12592606 108 18341611572745140807
12758862 56 18342167848224484736
13911987 19 13839978911114761673
13914758 101 14836136454759383161
14118638 360 14707194505535180764
14216079 64 18341896299017180886
14347424 109 17560798892196535216
14400156 162 18411145719019881699
14420673 8 18410011065632403875
14428016 204 11671772802716895290
14444916 359 18334014982289473179
14856354 85 16732706082277069603
15064986 96 17846508036150653655
15230672 131 18336822005156985666
15352257 5 18411418423641945742
15510800 12 17917438567400078038
15779827 34 16628287490629648726
18603816 31 17702930522287340679
19301679 30 17703239404120519636
19315958 150 18270397338459244480
19841028 212 18409448056419878802
20105231 36 17676489475738106827
20511986 3 12391254685844911169
21130935 74 18127127704836924787
21344244 181 18259705610445219666
21403212 168 14117526432575689332
21585482 57 8574423197652358826
23559900 14 18199741612808831584
23569917 315 18265053725546019119
3504750 166 17984701375818643879
4107672 100 17967808302220908781
4258327 124 11242263939444016904
437795 160 14045733859905899797
439807 62 18408887339559209798
44880168 125 18272076232215856262
5265222 85 18267307719010864996
5381727 24 17418094343928132007
5470011 282 18186805795016577620
5719381 82 18260543399846051330
6371009 1 11527952287176855986
6394761 36 17917993879899404333
9831232 110 18410576142132506062
999808 66 18113626719870578563

> <PUBCHEM_SHAPE_MULTIPOLES>
630.74
29.68
3.25
1.12
20.17
1.13
-0.09
16.49
-1.02
1.22
0.12
1.06
-0.2
0.16

> <PUBCHEM_SHAPE_SELFOVERLAP>
1371.453

> <PUBCHEM_SHAPE_VOLUME>
343.3

> <PUBCHEM_COORDINATE_TYPE>
2
5
10

$$$$
