REMARK  Name = 115184
REMARK  7 active torsions:
REMARK  status: ('A' for Active; 'I' for Inactive)
REMARK    1  A    between atoms: C_1  and  C_2
REMARK    2  A    between atoms: C_1  and  C_15
REMARK    3  A    between atoms: C_3  and  S_8
REMARK    4  A    between atoms: C_7  and  N_13
REMARK    5  A    between atoms: C_15  and  C_16
REMARK    6  A    between atoms: C_17  and  S_22
REMARK    7  A    between atoms: C_21  and  N_27
REMARK                            x       y       z     vdW  Elec       q    Type
REMARK                         _______ _______ _______ _____ _____    ______ ____
ROOT
ATOM      1  C   UNL     1      -0.343  -0.208  -0.286  0.00  0.00    +0.032 C 
ENDROOT
BRANCH   1   2
ATOM      2  C   UNL     1      -1.814   0.052  -0.308  0.00  0.00    -0.004 C 
ATOM      3  C   UNL     1      -2.732  -0.985  -0.476  0.00  0.00    +0.110 C 
ATOM      4  C   UNL     1      -2.264   1.363  -0.155  0.00  0.00    -0.001 C 
ATOM      5  C   UNL     1      -4.099  -0.711  -0.491  0.00  0.00    +0.038 C 
ATOM      6  C   UNL     1      -3.631   1.638  -0.171  0.00  0.00    +0.020 C 
ATOM      7  C   UNL     1      -4.549   0.601  -0.339  0.00  0.00    +0.092 C 
BRANCH   3   8
ATOM      8  S   UNL     1      -2.202  -2.642  -0.668  0.00  0.00    +0.042 S 
ATOM      9  O   UNL     1      -1.614  -3.073   0.794  0.00  0.00    -0.065 OA
ATOM     10  O   UNL     1      -3.379  -3.461  -0.913  0.00  0.00    -0.065 OA
ATOM     11  O   UNL     1      -1.098  -2.623  -1.614  0.00  0.00    -0.065 OA
ENDBRANCH   3   8
BRANCH   7  13
ATOM     12  S   UNL     1      -7.115   0.774   2.147  0.00  0.00    +0.021 S 
ATOM     13  N   UNL     1      -5.920   0.877  -0.354  0.00  0.00    -0.196 NA
ATOM     14  C   UNL     1      -6.418   0.831   0.715  0.00  0.00    +0.041 C 
ENDBRANCH   7  13
ENDBRANCH   1   2
BRANCH   1  15
ATOM     15  C   UNL     1       0.406   0.528   0.842  0.00  0.00    +0.032 C 
BRANCH  15  16
ATOM     16  C   UNL     1       1.893   0.270   0.835  0.00  0.00    -0.004 C 
ATOM     17  C   UNL     1       2.752   1.086   0.115  0.00  0.00    +0.110 C 
ATOM     18  C   UNL     1       2.372  -0.805   1.570  0.00  0.00    -0.001 C 
ATOM     19  C   UNL     1       4.122   0.822   0.129  0.00  0.00    +0.038 C 
ATOM     20  C   UNL     1       3.742  -1.069   1.584  0.00  0.00    +0.020 C 
ATOM     21  C   UNL     1       4.617  -0.255   0.864  0.00  0.00    +0.092 C 
BRANCH  17  22
ATOM     22  S   UNL     1       2.164   2.447  -0.816  0.00  0.00    +0.042 S 
ATOM     23  O   UNL     1       1.673   3.541   0.294  0.00  0.00    -0.065 OA
ATOM     24  O   UNL     1       3.298   3.030  -1.517  0.00  0.00    -0.065 OA
ATOM     25  O   UNL     1       0.996   1.984  -1.545  0.00  0.00    -0.065 OA
ENDBRANCH  17  22
BRANCH  21  27
ATOM     26  S   UNL     1       6.823  -2.239  -1.134  0.00  0.00    +0.021 S 
ATOM     27  N   UNL     1       5.990  -0.521   0.879  0.00  0.00    -0.196 NA
ATOM     28  C   UNL     1       6.333  -1.252   0.018  0.00  0.00    +0.041 C 
ENDBRANCH  21  27
ENDBRANCH  15  16
ENDBRANCH   1  15
TORSDOF 7
