REMARK  Name = 11517980
REMARK  8 active torsions:
REMARK  status: ('A' for Active; 'I' for Inactive)
REMARK    1  A    between atoms: C_1  and  C_22
REMARK    2  A    between atoms: C_4  and  O_7
REMARK    3  A    between atoms: O_7  and  C_12
REMARK    4  A    between atoms: C_14  and  O_18
REMARK    5  A    between atoms: C_16  and  O_20
REMARK    6  A    between atoms: C_22  and  C_25
REMARK    7  A    between atoms: N_24  and  C_30
REMARK    8  A    between atoms: N_27  and  C_32
REMARK                            x       y       z     vdW  Elec       q    Type
REMARK                         _______ _______ _______ _____ _____    ______ ____
ROOT
ATOM      1  C   UNL     1       1.471   1.923   0.471  0.00  0.00    -0.013 C 
ATOM      2  C   UNL     1       0.509   1.348   1.302  0.00  0.00    -0.001 C 
ATOM      3  C   UNL     1       1.182   2.155  -0.874  0.00  0.00    -0.001 C 
ATOM      4  C   UNL     1      -1.013   1.241  -0.550  0.00  0.00    +0.147 C 
ATOM      5  C   UNL     1      -0.741   1.004   0.787  0.00  0.00    +0.037 C 
ATOM      6  C   UNL     1      -0.068   1.812  -1.388  0.00  0.00    +0.037 C 
ENDROOT
BRANCH   4   7
ATOM      7  O   UNL     1      -2.249   0.901  -1.060  0.00  0.00    -0.436 OA
BRANCH   7  12
ATOM      8  N   UNL     1      -3.672  -2.801  -0.052  0.00  0.00    -0.248 NA
ATOM      9  N   UNL     1      -1.891  -1.355  -0.787  0.00  0.00    -0.210 NA
ATOM     10  C   UNL     1      -4.086  -0.455  -0.324  0.00  0.00    +0.070 C 
ATOM     11  C   UNL     1      -4.510  -1.752   0.008  0.00  0.00    +0.068 C 
ATOM     12  C   UNL     1      -2.756  -0.326  -0.716  0.00  0.00    +0.228 C 
ATOM     13  C   UNL     1      -4.971   0.635  -0.257  0.00  0.00    +0.046 C 
ATOM     14  C   UNL     1      -6.289   0.438   0.142  0.00  0.00    +0.169 C 
ATOM     15  C   UNL     1      -5.835  -1.921   0.405  0.00  0.00    +0.113 C 
ATOM     16  C   UNL     1      -6.721  -0.842   0.474  0.00  0.00    +0.156 C 
ATOM     17  C   UNL     1      -2.408  -2.546  -0.447  0.00  0.00    +0.253 C 
BRANCH  14  18
ATOM     18  O   UNL     1      -7.140   1.498   0.206  0.00  0.00    -0.469 OA
ATOM     19  C   UNL     1      -6.613   2.775  -0.152  0.00  0.00    +0.253 C 
ENDBRANCH  14  18
BRANCH  16  20
ATOM     20  O   UNL     1      -8.007  -1.059   0.869  0.00  0.00    -0.472 OA
ATOM     21  C   UNL     1      -8.956  -1.360  -0.151  0.00  0.00    +0.252 C 
ENDBRANCH  16  20
ENDBRANCH   7  12
ENDBRANCH   4   7
BRANCH   1  22
ATOM     22  C   UNL     1       2.807   2.291   1.022  0.00  0.00    +0.112 C 
BRANCH  22  25
ATOM     23  O   UNL     1       3.677   0.092   1.479  0.00  0.00    -0.274 OA
ATOM     24  N   UNL     1       4.938   1.577   0.166  0.00  0.00    -0.281 N 
ATOM     25  C   UNL     1       3.845   1.175   0.929  0.00  0.00    +0.231 C 
ATOM     26  H   UNL     1       4.905   2.490  -0.201  0.00  0.00    +0.155 HD
BRANCH  24  30
ATOM     27  N   UNL     1       7.536  -0.763  -0.259  0.00  0.00    -0.211 N 
ATOM     28  N   UNL     1       8.089   0.230  -0.976  0.00  0.00    -0.175 NA
ATOM     29  C   UNL     1       6.318  -0.449   0.270  0.00  0.00    +0.100 C 
ATOM     30  C   UNL     1       6.079   0.824  -0.136  0.00  0.00    +0.088 C 
ATOM     31  C   UNL     1       7.181   1.206  -0.894  0.00  0.00    +0.134 C 
BRANCH  27  32
ATOM     32  C   UNL     1       8.235  -2.017  -0.112  0.00  0.00    +0.096 C 
ATOM     33  C   UNL     1       8.596  -2.304   1.347  0.00  0.00    +0.024 C 
ATOM     34  C   UNL     1       7.464  -3.179  -0.741  0.00  0.00    +0.024 C 
ENDBRANCH  27  32
ENDBRANCH  24  30
ENDBRANCH  22  25
ENDBRANCH   1  22
TORSDOF 8
