REMARK  Name = 115199
REMARK  6 active torsions:
REMARK  status: ('A' for Active; 'I' for Inactive)
REMARK    1  A    between atoms: C_1  and  C_8
REMARK    2  A    between atoms: C_1  and  N_15
REMARK    3  A    between atoms: C_1  and  C_24
REMARK    4  A    between atoms: C_4  and  C_11
REMARK    5  A    between atoms: C_16  and  C_20
REMARK    6  A    between atoms: C_24  and  C_27
REMARK                            x       y       z     vdW  Elec       q    Type
REMARK                         _______ _______ _______ _____ _____    ______ ____
ROOT
ATOM      1  C   UNL     1       0.312   0.742   0.208  0.00  0.00    +0.155 C 
ENDROOT
BRANCH   1   8
ATOM      2  O   UNL     1       0.332  -1.291   1.446  0.00  0.00    -0.273 OA
ATOM      3  N   UNL     1       1.772  -1.139  -0.360  0.00  0.00    -0.272 N 
ATOM      4  C   UNL     1       2.231  -2.522  -0.323  0.00  0.00    +0.152 C 
ATOM      5  C   UNL     1       2.917  -2.737  -1.668  0.00  0.00    +0.031 C 
ATOM      6  C   UNL     1       2.347  -0.423  -1.495  0.00  0.00    +0.094 C 
ATOM      7  C   UNL     1       3.430  -1.346  -2.032  0.00  0.00    +0.024 C 
ATOM      8  C   UNL     1       0.795  -0.656   0.497  0.00  0.00    +0.244 C 
BRANCH   4  11
ATOM      9  O   UNL     1       3.490  -1.675   1.524  0.00  0.00    -0.274 OA
ATOM     10  N   UNL     1       3.720  -3.898   0.976  0.00  0.00    -0.327 N 
ATOM     11  C   UNL     1       3.196  -2.637   0.818  0.00  0.00    +0.237 C 
ATOM     12  H   UNL     1       4.364  -4.076   1.699  0.00  0.00    +0.145 HD
ATOM     13  H   UNL     1       3.451  -4.623   0.367  0.00  0.00    +0.145 HD
ENDBRANCH   4  11
ENDBRANCH   1   8
BRANCH   1  15
ATOM     14  O   UNL     1      -1.891  -0.150  -1.459  0.00  0.00    -0.271 OA
ATOM     15  N   UNL     1      -1.080   0.694   0.555  0.00  0.00    -0.295 N 
ATOM     16  C   UNL     1      -2.072   0.250  -0.311  0.00  0.00    +0.263 C 
ATOM     17  H   UNL     1      -1.346   0.992   1.455  0.00  0.00    +0.150 HD
BRANCH  16  20
ATOM     18  O   UNL     1      -4.369  -0.200  -0.653  0.00  0.00    -0.443 OA
ATOM     19  O   UNL     1      -5.483  -2.166  -1.037  0.00  0.00    -0.250 OA
ATOM     20  C   UNL     1      -3.433   0.279   0.309  0.00  0.00    +0.244 C 
ATOM     21  C   UNL     1      -3.546  -0.656   1.489  0.00  0.00    +0.065 C 
ATOM     22  C   UNL     1      -4.001  -1.954   0.864  0.00  0.00    +0.114 C 
ATOM     23  C   UNL     1      -4.722  -1.489  -0.364  0.00  0.00    +0.317 C 
ENDBRANCH  16  20
ENDBRANCH   1  15
BRANCH   1  24
ATOM     24  C   UNL     1       1.104   1.754   1.027  0.00  0.00    +0.071 C 
BRANCH  24  27
ATOM     25  N   UNL     1       2.084   3.871   0.059  0.00  0.00    -0.319 N 
ATOM     26  N   UNL     1       0.321   5.164  -0.329  0.00  0.00    -0.315 N 
ATOM     27  C   UNL     1       0.995   3.147   0.455  0.00  0.00    +0.040 C 
ATOM     28  C   UNL     1      -0.081   3.966   0.206  0.00  0.00    +0.069 C 
ATOM     29  C   UNL     1       1.631   5.074  -0.404  0.00  0.00    +0.182 C 
ATOM     30  H   UNL     1       3.024   3.579   0.100  0.00  0.00    +0.148 HD
ATOM     31  H   UNL     1      -0.246   5.923  -0.598  0.00  0.00    +0.148 HD
ENDBRANCH  24  27
ENDBRANCH   1  24
TORSDOF 6
