REMARK  Name = 115127
REMARK  10 active torsions:
REMARK  status: ('A' for Active; 'I' for Inactive)
REMARK    1  A    between atoms: C_3  and  O_21
REMARK    2  A    between atoms: C_4  and  C_27
REMARK    3  A    between atoms: C_19  and  O_23
REMARK    4  A    between atoms: C_20  and  O_25
REMARK    5  A    between atoms: C_27  and  O_29
REMARK    6  A    between atoms: C_27  and  C_31
REMARK    7  A    between atoms: C_31  and  O_32
REMARK    8  A    between atoms: C_31  and  C_34
REMARK    9  A    between atoms: C_34  and  C_35
REMARK   10  A    between atoms: C_35  and  C_36
REMARK                            x       y       z     vdW  Elec       q    Type
REMARK                         _______ _______ _______ _____ _____    ______ ____
ROOT
ATOM      1  O   UNL     1       4.367  -2.306   2.122  0.00  0.00    -0.291 OA
ATOM      2  C   UNL     1      -0.711  -0.709  -0.503  0.00  0.00    +0.028 C 
ATOM      3  C   UNL     1       0.050  -0.536   0.838  0.00  0.00    +0.103 C 
ATOM      4  C   UNL     1      -2.174  -0.505  -0.032  0.00  0.00    +0.030 C 
ATOM      5  C   UNL     1       2.166   0.161  -0.436  0.00  0.00    +0.021 C 
ATOM      6  C   UNL     1       3.671  -0.206  -0.746  0.00  0.00    +0.013 C 
ATOM      7  C   UNL     1      -0.218   0.363  -1.489  0.00  0.00    +0.003 C 
ATOM      8  C   UNL     1       1.542  -0.718   0.660  0.00  0.00    -0.018 C 
ATOM      9  C   UNL     1      -0.768  -1.418   1.793  0.00  0.00    +0.031 C 
ATOM     10  C   UNL     1      -2.229  -1.240   1.327  0.00  0.00    +0.005 C 
ATOM     11  C   UNL     1       1.295   0.239  -1.728  0.00  0.00    +0.004 C 
ATOM     12  C   UNL     1       4.441  -0.465   0.579  0.00  0.00    +0.065 C 
ATOM     13  C   UNL     1      -0.523  -2.119  -1.127  0.00  0.00    +0.003 C 
ATOM     14  C   UNL     1       4.391   0.937  -1.519  0.00  0.00    +0.032 C 
ATOM     15  C   UNL     1       2.259  -1.511   1.470  0.00  0.00    +0.031 C 
ATOM     16  C   UNL     1       4.666   0.806   1.418  0.00  0.00    +0.039 C 
ATOM     17  C   UNL     1       3.779  -1.484  -1.623  0.00  0.00    +0.001 C 
ATOM     18  C   UNL     1       3.739  -1.511   1.425  0.00  0.00    +0.172 C 
ATOM     19  C   UNL     1       4.617   2.199  -0.680  0.00  0.00    +0.137 C 
ATOM     20  C   UNL     1       5.374   1.895   0.613  0.00  0.00    +0.138 C 
ENDROOT
BRANCH   3  21
ATOM     21  O   UNL     1      -0.123   0.818   1.316  0.00  0.00    -0.383 OA
ATOM     22  H   UNL     1       0.374   1.427   0.748  0.00  0.00    +0.211 HD
ENDBRANCH   3  21
BRANCH  19  23
ATOM     23  O   UNL     1       5.357   3.151  -1.440  0.00  0.00    -0.382 OA
ATOM     24  H   UNL     1       4.882   3.349  -2.262  0.00  0.00    +0.210 HD
ENDBRANCH  19  23
BRANCH  20  25
ATOM     25  O   UNL     1       6.696   1.458   0.292  0.00  0.00    -0.382 OA
ATOM     26  H   UNL     1       7.180   1.264   1.111  0.00  0.00    +0.210 HD
ENDBRANCH  20  25
BRANCH   4  27
ATOM     27  C   UNL     1      -3.267  -0.957  -0.992  0.00  0.00    +0.113 C 
ATOM     28  C   UNL     1      -3.158  -0.193  -2.318  0.00  0.00    +0.032 C 
BRANCH  27  29
ATOM     29  O   UNL     1      -3.020  -2.338  -1.307  0.00  0.00    -0.384 OA
ATOM     30  H   UNL     1      -3.077  -2.870  -0.498  0.00  0.00    +0.210 HD
ENDBRANCH  27  29
BRANCH  27  31
ATOM     31  C   UNL     1      -4.685  -0.875  -0.366  0.00  0.00    +0.135 C 
BRANCH  31  32
ATOM     32  O   UNL     1      -5.642  -1.405  -1.289  0.00  0.00    -0.382 OA
ATOM     33  H   UNL     1      -5.378  -2.301  -1.550  0.00  0.00    +0.210 HD
ENDBRANCH  31  32
BRANCH  31  34
ATOM     34  C   UNL     1      -5.135   0.542   0.025  0.00  0.00    +0.032 C 
BRANCH  34  35
ATOM     35  C   UNL     1      -6.569   0.558   0.576  0.00  0.00    +0.003 C 
BRANCH  35  36
ATOM     36  C   UNL     1      -7.036   1.956   1.024  0.00  0.00    +0.000 C 
ATOM     37  C   UNL     1      -6.950   2.989  -0.101  0.00  0.00    +0.000 C 
ATOM     38  C   UNL     1      -6.203   2.424   2.219  0.00  0.00    +0.000 C 
ENDBRANCH  35  36
ENDBRANCH  34  35
ENDBRANCH  31  34
ENDBRANCH  27  31
ENDBRANCH   4  27
TORSDOF 10
