REMARK  Name = 11510122
REMARK  2 active torsions:
REMARK  status: ('A' for Active; 'I' for Inactive)
REMARK    1  A    between atoms: N_9  and  O_23
REMARK    2  A    between atoms: C_21  and  O_25
REMARK                            x       y       z     vdW  Elec       q    Type
REMARK                         _______ _______ _______ _____ _____    ______ ____
ROOT
ATOM      1 CL   UNL     1      -5.174   1.787   0.878  0.00  0.00    -0.079 Cl
ATOM      2  S   UNL     1       0.433   2.339  -0.647  0.00  0.00    -0.061 S 
ATOM      3  S   UNL     1       4.070   1.521  -0.299  0.00  0.00    -0.042 S 
ATOM      4  S   UNL     1       1.548   3.404   0.699  0.00  0.00    -0.012 S 
ATOM      5  S   UNL     1       3.044   2.169   1.352  0.00  0.00    -0.010 S 
ATOM      6  O   UNL     1      -0.533  -1.434  -0.611  0.00  0.00    -0.454 OA
ATOM      7  O   UNL     1       0.508  -0.305  -2.795  0.00  0.00    -0.269 OA
ATOM      8  O   UNL     1       3.604  -1.165   1.522  0.00  0.00    -0.270 OA
ATOM      9  N   UNL     1       1.552  -1.168   0.468  0.00  0.00    -0.124 N 
ATOM     10  N   UNL     1       2.561  -0.211  -1.799  0.00  0.00    -0.285 N 
ATOM     11  C   UNL     1       0.563  -0.500  -0.379  0.00  0.00    +0.300 C 
ATOM     12  C   UNL     1      -0.008   0.812   0.254  0.00  0.00    +0.150 C 
ATOM     13  C   UNL     1      -1.468   0.524   0.177  0.00  0.00    +0.029 C 
ATOM     14  C   UNL     1       1.191  -0.364  -1.770  0.00  0.00    +0.282 C 
ATOM     15  C   UNL     1      -1.679  -0.754  -0.306  0.00  0.00    +0.141 C 
ATOM     16  C   UNL     1       3.438  -0.151  -0.646  0.00  0.00    +0.211 C 
ATOM     17  C   UNL     1       2.890  -0.881   0.560  0.00  0.00    +0.280 C 
ATOM     18  C   UNL     1      -2.543   1.313   0.562  0.00  0.00    +0.014 C 
ATOM     19  C   UNL     1      -2.948  -1.287  -0.447  0.00  0.00    +0.074 C 
ATOM     20  C   UNL     1      -3.834   0.798   0.424  0.00  0.00    +0.091 C 
ATOM     21  C   UNL     1      -4.036  -0.495  -0.080  0.00  0.00    +0.147 C 
ATOM     22  H   UNL     1       2.983  -0.136  -2.685  0.00  0.00    +0.151 HD
ENDROOT
BRANCH   9  23
ATOM     23  O   UNL     1       0.999  -1.767   1.613  0.00  0.00    -0.257 OA
ATOM     24  C   UNL     1       1.116  -3.180   1.486  0.00  0.00    +0.206 C 
ENDBRANCH   9  23
BRANCH  21  25
ATOM     25  O   UNL     1      -5.292  -1.007  -0.218  0.00  0.00    -0.505 OA
ATOM     26  H   UNL     1      -5.411  -1.873  -0.556  0.00  0.00    +0.292 HD
ENDBRANCH  21  25
TORSDOF 2
