REMARK  Name = 115100
REMARK  9 active torsions:
REMARK  status: ('A' for Active; 'I' for Inactive)
REMARK    1  A    between atoms: N_2  and  C_9
REMARK    2  A    between atoms: C_3  and  C_23
REMARK    3  A    between atoms: C_14  and  C_20
REMARK    4  A    between atoms: C_22  and  O_28
REMARK    5  A    between atoms: O_28  and  C_29
REMARK    6  A    between atoms: C_29  and  C_30
REMARK    7  A    between atoms: C_30  and  C_31
REMARK    8  A    between atoms: C_31  and  C_32
REMARK    9  A    between atoms: C_32  and  C_33
REMARK                            x       y       z     vdW  Elec       q    Type
REMARK                         _______ _______ _______ _____ _____    ______ ____
ROOT
ATOM      1  O   UNL     1       1.169  -3.544  -0.624  0.00  0.00    -0.270 OA
ATOM      2  N   UNL     1       1.748  -1.402   0.153  0.00  0.00    -0.280 N 
ATOM      3  C   UNL     1       0.885  -2.480  -0.086  0.00  0.00    +0.249 C 
ATOM      4  H   UNL     1       1.349  -0.620   0.599  0.00  0.00    +0.155 HD
ENDROOT
BRANCH   2   9
ATOM      5  O   UNL     1       5.800   1.127   0.173  0.00  0.00    -0.443 OA
ATOM      6  O   UNL     1       7.866  -1.856  -1.673  0.00  0.00    -0.286 OA
ATOM      7  C   UNL     1       5.807  -1.099  -0.797  0.00  0.00    +0.074 C 
ATOM      8  C   UNL     1       5.162  -0.039  -0.164  0.00  0.00    +0.151 C 
ATOM      9  C   UNL     1       3.103  -1.300  -0.164  0.00  0.00    +0.054 C 
ATOM     10  C   UNL     1       3.807  -0.138   0.154  0.00  0.00    +0.052 C 
ATOM     11  C   UNL     1       5.107  -2.264  -1.117  0.00  0.00    +0.008 C 
ATOM     12  C   UNL     1       3.752  -2.361  -0.798  0.00  0.00    +0.015 C 
ATOM     13  C   UNL     1       7.235  -0.967  -1.119  0.00  0.00    +0.202 C 
ATOM     14  C   UNL     1       7.150   1.264  -0.129  0.00  0.00    +0.213 C 
ATOM     15  C   UNL     1       7.874   0.308  -0.736  0.00  0.00    +0.090 C 
BRANCH  14  20
ATOM     16  N   UNL     1       8.951   2.955   0.124  0.00  0.00    -0.107 NA
ATOM     17  N   UNL     1       6.877   3.447   0.890  0.00  0.00    -0.084 NA
ATOM     18  N   UNL     1       8.848   4.171   0.678  0.00  0.00    -0.140 N 
ATOM     19  N   UNL     1       7.637   4.505   1.146  0.00  0.00    -0.022 NA
ATOM     20  C   UNL     1       7.691   2.539   0.280  0.00  0.00    +0.109 C 
ATOM     21  H   UNL     1       9.617   4.783   0.739  0.00  0.00    +0.197 HD
ENDBRANCH  14  20
ENDBRANCH   2   9
BRANCH   3  23
ATOM     22  C   UNL     1      -3.165  -1.895   1.156  0.00  0.00    +0.139 C 
ATOM     23  C   UNL     1      -0.523  -2.276   0.345  0.00  0.00    +0.054 C 
ATOM     24  C   UNL     1      -2.632  -3.183   1.096  0.00  0.00    +0.037 C 
ATOM     25  C   UNL     1      -2.376  -0.798   0.811  0.00  0.00    +0.037 C 
ATOM     26  C   UNL     1      -1.312  -3.374   0.691  0.00  0.00    +0.008 C 
ATOM     27  C   UNL     1      -1.055  -0.988   0.406  0.00  0.00    +0.008 C 
BRANCH  22  28
ATOM     28  O   UNL     1      -4.453  -1.708   1.554  0.00  0.00    -0.475 OA
BRANCH  28  29
ATOM     29  C   UNL     1      -5.144  -0.585   1.010  0.00  0.00    +0.205 C 
BRANCH  29  30
ATOM     30  C   UNL     1      -6.631  -0.907   0.944  0.00  0.00    +0.048 C 
BRANCH  30  31
ATOM     31  C   UNL     1      -7.432   0.251   0.354  0.00  0.00    +0.009 C 
BRANCH  31  32
ATOM     32  C   UNL     1      -8.919  -0.098   0.254  0.00  0.00    +0.026 C 
BRANCH  32  33
ATOM     33  C   UNL     1      -9.725   1.052  -0.295  0.00  0.00    -0.022 C 
ATOM     34  C   UNL     1     -10.272   1.997   0.574  0.00  0.00    -0.004 C 
ATOM     35  C   UNL     1      -9.925   1.171  -1.670  0.00  0.00    -0.004 C 
ATOM     36  C   UNL     1     -11.018   3.061   0.066  0.00  0.00    -0.000 C 
ATOM     37  C   UNL     1     -10.671   2.234  -2.177  0.00  0.00    -0.000 C 
ATOM     38  C   UNL     1     -11.218   3.179  -1.309  0.00  0.00    -0.000 C 
ENDBRANCH  32  33
ENDBRANCH  31  32
ENDBRANCH  30  31
ENDBRANCH  29  30
ENDBRANCH  28  29
ENDBRANCH  22  28
ENDBRANCH   3  23
TORSDOF 9
