REMARK  Name = 115196
REMARK  9 active torsions:
REMARK  status: ('A' for Active; 'I' for Inactive)
REMARK    1  A    between atoms: C_7  and  C_26
REMARK    2  A    between atoms: C_19  and  O_22
REMARK    3  A    between atoms: C_20  and  O_24
REMARK    4  A    between atoms: C_26  and  C_28
REMARK    5  A    between atoms: C_28  and  O_29
REMARK    6  A    between atoms: C_28  and  C_31
REMARK    7  A    between atoms: C_31  and  O_32
REMARK    8  A    between atoms: C_31  and  C_34
REMARK    9  A    between atoms: C_34  and  C_36
REMARK                            x       y       z     vdW  Elec       q    Type
REMARK                         _______ _______ _______ _____ _____    ______ ____
ROOT
ATOM      1  O   UNL     1       3.591  -2.714  -0.292  0.00  0.00    -0.449 OA
ATOM      2  O   UNL     1       5.348  -2.338  -1.616  0.00  0.00    -0.250 OA
ATOM      3  C   UNL     1      -0.653  -0.154   0.034  0.00  0.00    +0.000 C 
ATOM      4  C   UNL     1       0.313  -1.200   0.623  0.00  0.00    +0.004 C 
ATOM      5  C   UNL     1       1.718  -1.171  -0.014  0.00  0.00    +0.044 C 
ATOM      6  C   UNL     1       2.341   0.260   0.178  0.00  0.00    +0.004 C 
ATOM      7  C   UNL     1      -1.937  -0.512   0.821  0.00  0.00    +0.002 C 
ATOM      8  C   UNL     1       3.783   0.493  -0.473  0.00  0.00    +0.013 C 
ATOM      9  C   UNL     1      -0.081   1.225   0.361  0.00  0.00    +0.000 C 
ATOM     10  C   UNL     1      -0.500  -2.496   0.562  0.00  0.00    +0.000 C 
ATOM     11  C   UNL     1       1.333   1.391  -0.208  0.00  0.00    +0.000 C 
ATOM     12  C   UNL     1      -1.955  -2.055   0.799  0.00  0.00    +0.000 C 
ATOM     13  C   UNL     1       4.809  -0.601  -0.010  0.00  0.00    +0.102 C 
ATOM     14  C   UNL     1      -0.876  -0.289  -1.493  0.00  0.00    +0.000 C 
ATOM     15  C   UNL     1       2.592  -2.255   0.629  0.00  0.00    +0.208 C 
ATOM     16  C   UNL     1       4.279   1.903   0.003  0.00  0.00    +0.032 C 
ATOM     17  C   UNL     1       3.695   0.515  -2.019  0.00  0.00    +0.001 C 
ATOM     18  C   UNL     1       6.299  -0.209  -0.220  0.00  0.00    +0.043 C 
ATOM     19  C   UNL     1       5.750   2.207  -0.265  0.00  0.00    +0.137 C 
ATOM     20  C   UNL     1       6.652   1.152   0.354  0.00  0.00    +0.138 C 
ATOM     21  C   UNL     1       4.615  -1.944  -0.713  0.00  0.00    +0.317 C 
ENDROOT
BRANCH  19  22
ATOM     22  O   UNL     1       6.055   3.487   0.283  0.00  0.00    -0.382 OA
ATOM     23  H   UNL     1       5.477   4.156  -0.115  0.00  0.00    +0.210 HD
ENDBRANCH  19  22
BRANCH  20  24
ATOM     24  O   UNL     1       6.488   1.113   1.770  0.00  0.00    -0.382 OA
ATOM     25  H   UNL     1       7.071   0.435   2.145  0.00  0.00    +0.210 HD
ENDBRANCH  20  24
BRANCH   7  26
ATOM     26  C   UNL     1      -3.237   0.102   0.322  0.00  0.00    +0.029 C 
ATOM     27  C   UNL     1      -3.095   1.632   0.274  0.00  0.00    +0.003 C 
BRANCH  26  28
ATOM     28  C   UNL     1      -4.479  -0.297   1.160  0.00  0.00    +0.137 C 
BRANCH  28  29
ATOM     29  O   UNL     1      -4.245   0.015   2.540  0.00  0.00    -0.382 OA
ATOM     30  H   UNL     1      -3.410  -0.388   2.826  0.00  0.00    +0.210 HD
ENDBRANCH  28  29
BRANCH  28  31
ATOM     31  C   UNL     1      -5.817   0.366   0.754  0.00  0.00    +0.137 C 
BRANCH  31  32
ATOM     32  O   UNL     1      -6.784  -0.013   1.738  0.00  0.00    -0.382 OA
ATOM     33  H   UNL     1      -6.447   0.202   2.622  0.00  0.00    +0.210 HD
ENDBRANCH  31  32
BRANCH  31  34
ATOM     34  C   UNL     1      -6.331   0.033  -0.675  0.00  0.00    +0.029 C 
ATOM     35  C   UNL     1      -6.506  -1.475  -0.903  0.00  0.00    +0.003 C 
BRANCH  34  36
ATOM     36  C   UNL     1      -7.612   0.857  -1.026  0.00  0.00    +0.002 C 
ATOM     37  C   UNL     1      -8.050   0.603  -2.476  0.00  0.00    +0.000 C 
ATOM     38  C   UNL     1      -7.503   2.368  -0.801  0.00  0.00    +0.000 C 
ENDBRANCH  34  36
ENDBRANCH  31  34
ENDBRANCH  28  31
ENDBRANCH  26  28
ENDBRANCH   7  26
TORSDOF 9
