REMARK  Name = 115121
REMARK  4 active torsions:
REMARK  status: ('A' for Active; 'I' for Inactive)
REMARK    1  A    between atoms: C_6  and  O_20
REMARK    2  A    between atoms: C_9  and  O_22
REMARK    3  A    between atoms: C_11  and  O_24
REMARK    4  A    between atoms: C_14  and  O_26
REMARK                            x       y       z     vdW  Elec       q    Type
REMARK                         _______ _______ _______ _____ _____    ______ ____
ROOT
ATOM      1  O   UNL     1      -0.151   2.658  -0.245  0.00  0.00    -0.448 OA
ATOM      2  O   UNL     1       2.458  -0.665   1.793  0.00  0.00    -0.448 OA
ATOM      3  O   UNL     1       3.102  -1.842  -0.086  0.00  0.00    -0.250 OA
ATOM      4  O   UNL     1      -0.840   2.800   1.894  0.00  0.00    -0.247 OA
ATOM      5  C   UNL     1      -1.310   0.021  -0.538  0.00  0.00    +0.064 C 
ATOM      6  C   UNL     1      -0.094  -0.915  -0.239  0.00  0.00    +0.131 C 
ATOM      7  C   UNL     1       1.165  -0.116   0.160  0.00  0.00    +0.180 C 
ATOM      8  C   UNL     1      -2.393  -1.065  -0.825  0.00  0.00    +0.008 C 
ATOM      9  C   UNL     1       1.493   0.968  -0.929  0.00  0.00    +0.140 C 
ATOM     10  C   UNL     1      -0.966   0.898  -1.744  0.00  0.00    +0.051 C 
ATOM     11  C   UNL     1      -0.672  -1.951   0.727  0.00  0.00    +0.136 C 
ATOM     12  C   UNL     1       0.220   1.772  -1.322  0.00  0.00    +0.194 C 
ATOM     13  C   UNL     1      -2.106  -2.187   0.205  0.00  0.00    +0.032 C 
ATOM     14  C   UNL     1      -1.767   1.019   0.564  0.00  0.00    +0.212 C 
ATOM     15  C   UNL     1       1.349   0.259   1.665  0.00  0.00    +0.224 C 
ATOM     16  C   UNL     1       2.396  -1.047   0.494  0.00  0.00    +0.324 C 
ATOM     17  C   UNL     1      -3.852  -0.626  -0.821  0.00  0.00    +0.000 C 
ATOM     18  C   UNL     1       2.631   1.913  -0.521  0.00  0.00    +0.034 C 
ATOM     19  C   UNL     1      -0.861   2.208   0.818  0.00  0.00    +0.344 C 
ENDROOT
BRANCH   6  20
ATOM     20  O   UNL     1       0.229  -1.641  -1.449  0.00  0.00    -0.384 OA
ATOM     21  H   UNL     1       0.603  -1.030  -2.103  0.00  0.00    +0.210 HD
ENDBRANCH   6  20
BRANCH   9  22
ATOM     22  O   UNL     1       1.937   0.303  -2.124  0.00  0.00    -0.382 OA
ATOM     23  H   UNL     1       1.250  -0.311  -2.427  0.00  0.00    +0.210 HD
ENDBRANCH   9  22
BRANCH  11  24
ATOM     24  O   UNL     1       0.075  -3.158   0.720  0.00  0.00    -0.382 OA
ATOM     25  H   UNL     1       0.970  -2.987   1.050  0.00  0.00    +0.210 HD
ENDBRANCH  11  24
BRANCH  14  26
ATOM     26  O   UNL     1      -2.044   0.397   1.804  0.00  0.00    -0.374 OA
ATOM     27  H   UNL     1      -2.623  -0.368   1.660  0.00  0.00    +0.211 HD
ENDBRANCH  14  26
TORSDOF 4
