115142
  -OEChem-03292013323D

 21 21  0     0  0  0  0  0  0999 V2000
    2.4477   -0.0035   -0.0009 S   0  0  0  0  0  0  0  0  0  0  0  0
    2.7827   -0.7180   -1.2381 O   0  5  0  0  0  0  0  0  0  0  0  0
    2.8380    1.4120   -0.0022 O   0  0  0  0  0  0  0  0  0  0  0  0
    2.7865   -0.7144    1.2375 O   0  0  0  0  0  0  0  0  0  0  0  0
    0.9534   -2.9922   -1.0966 O   0  5  0  0  0  0  0  0  0  0  0  0
    0.9622    2.9893    1.0981 O   0  5  0  0  0  0  0  0  0  0  0  0
    0.9518   -2.9915    1.0986 O   0  0  0  0  0  0  0  0  0  0  0  0
    0.9620    2.9901   -1.0971 O   0  0  0  0  0  0  0  0  0  0  0  0
   -4.1314   -1.0907   -0.0014 O   0  5  0  0  0  0  0  0  0  0  0  0
   -4.1281    1.1046    0.0004 O   0  0  0  0  0  0  0  0  0  0  0  0
    0.6649   -2.4596    0.0007 N   0  3  0  0  0  0  0  0  0  0  0  0
    0.6728    2.4583    0.0003 N   0  3  0  0  0  0  0  0  0  0  0  0
   -3.5216    0.0060   -0.0003 N   0  3  0  0  0  0  0  0  0  0  0  0
    0.6880   -0.0006   -0.0002 C   0  0  0  0  0  0  0  0  0  0  0  0
   -0.0113   -1.2075   -0.0001 C   0  0  0  0  0  0  0  0  0  0  0  0
   -0.0074    1.2084    0.0000 C   0  0  0  0  0  0  0  0  0  0  0  0
   -2.1017    0.0038    0.0006 C   0  0  0  0  0  0  0  0  0  0  0  0
   -1.4062   -1.2053    0.0002 C   0  0  0  0  0  0  0  0  0  0  0  0
   -1.4022    1.2107    0.0003 C   0  0  0  0  0  0  0  0  0  0  0  0
   -1.9329   -2.1576    0.0003 H   0  0  0  0  0  0  0  0  0  0  0  0
   -1.9259    2.1647    0.0004 H   0  0  0  0  0  0  0  0  0  0  0  0
  1  2  1  0  0  0  0
  1  3  2  0  0  0  0
  1  4  2  0  0  0  0
  1 14  1  0  0  0  0
  5 11  1  0  0  0  0
  6 12  1  0  0  0  0
  7 11  2  0  0  0  0
  8 12  2  0  0  0  0
  9 13  1  0  0  0  0
 10 13  2  0  0  0  0
 11 15  1  0  0  0  0
 12 16  1  0  0  0  0
 13 17  1  0  0  0  0
 14 15  2  0  0  0  0
 14 16  1  0  0  0  0
 15 18  1  0  0  0  0
 16 19  2  0  0  0  0
 17 18  2  0  0  0  0
 17 19  1  0  0  0  0
 18 20  1  0  0  0  0
 19 21  1  0  0  0  0
M  CHG  7   2  -1   5  -1   6  -1   9  -1  11   1  12   1  13   1
M  END
> <PUBCHEM_COMPOUND_CID>
115142

> <PUBCHEM_CONFORMER_RMSD>
0.6

> <PUBCHEM_CONFORMER_DIVERSEORDER>
1

> <PUBCHEM_MMFF94_PARTIAL_CHARGES>
21
1 1.46
10 -0.52
11 0.91
12 0.91
13 0.91
14 -0.01
15 0.13
16 0.13
17 0.13
18 -0.15
19 -0.15
2 -0.82
20 0.15
21 0.15
3 -0.82
4 -0.82
5 -0.52
6 -0.52
7 -0.52
8 -0.52
9 -0.52

> <PUBCHEM_EFFECTIVE_ROTOR_COUNT>
4

> <PUBCHEM_PHARMACOPHORE_FEATURES>
14
1 10 acceptor
1 2 acceptor
1 3 acceptor
1 4 acceptor
1 5 acceptor
1 5 anion
1 6 acceptor
1 6 anion
1 7 acceptor
1 8 acceptor
1 9 acceptor
1 9 anion
4 1 2 3 4 anion
6 14 15 16 17 18 19 rings

> <PUBCHEM_HEAVY_ATOM_COUNT>
19

> <PUBCHEM_ATOM_DEF_STEREO_COUNT>
0

> <PUBCHEM_ATOM_UDEF_STEREO_COUNT>
0

> <PUBCHEM_BOND_DEF_STEREO_COUNT>
0

> <PUBCHEM_BOND_UDEF_STEREO_COUNT>
0

> <PUBCHEM_ISOTOPIC_ATOM_COUNT>
0

> <PUBCHEM_COMPONENT_COUNT>
1

> <PUBCHEM_CACTVS_TAUTO_COUNT>
1

> <PUBCHEM_CONFORMER_ID>
0001C1C600000001

> <PUBCHEM_MMFF94_ENERGY>
70.3666

> <PUBCHEM_FEATURE_SELFOVERLAP>
71.388

> <PUBCHEM_SHAPE_FINGERPRINT>
10967382 1 18410574019542864007
10980938 120 18412262796747561951
11471102 20 18410569591943408365
11680986 33 18121502616007030976
116883 192 17621597216329382493
13140716 1 18266740367026883555
13380535 76 17980758560488633492
13380536 305 18337397157022421245
14251717 144 18411978100587467031
16945 1 18410855447591432519
193761 8 17762336912034292644
20511035 2 18044944720676149071
20645476 183 17750530652791825798
20645477 70 18339075008320889807
20905425 154 18052257293571962262
21501502 16 17834111227219723780
21524375 3 18194965373104835031
2255824 54 18335142050353183797
2334 1 17978229688361235511
23402539 116 18343012307693397342
23419403 2 15757312909832060912
23463225 33 18335132055774135170
2748010 2 18120377820033344791
3060560 45 18412260661900909431
34934 24 18268139873525166431
589210 1 17690559006372019384
5939293 188 18411696599419258129
7364860 26 18341896281689436703
7832392 63 18199754644140007729
81228 2 17403171496309452427

> <PUBCHEM_SHAPE_MULTIPOLES>
327.09
4.95
3.35
0.91
4.95
0.09
0
0.03
0
-1.63
0
-0.6
-0.1
0

> <PUBCHEM_SHAPE_SELFOVERLAP>
691.924

> <PUBCHEM_SHAPE_VOLUME>
184.4

> <PUBCHEM_COORDINATE_TYPE>
2
5
10

$$$$
