115163
  -OEChem-03292013323D

 63 65  0     1  0  0  0  0  0999 V2000
    1.1389    1.1139    0.4864 S   0  0  0  0  0  0  0  0  0  0  0  0
    0.8700   -3.1158   -0.7175 O   0  0  0  0  0  0  0  0  0  0  0  0
   -2.9223   -1.0411   -1.2184 O   0  0  0  0  0  0  0  0  0  0  0  0
   -2.5729   -1.4925    1.0205 O   0  0  0  0  0  0  0  0  0  0  0  0
   -5.0927   -0.8052   -0.2139 O   0  0  0  0  0  0  0  0  0  0  0  0
   -5.3573    0.8841   -1.7537 O   0  0  0  0  0  0  0  0  0  0  0  0
    0.0954   -1.2606    0.5188 N   0  0  0  0  0  0  0  0  0  0  0  0
    3.1652   -1.0619   -0.0066 N   0  0  0  0  0  0  0  0  0  0  0  0
    5.4665   -0.4520    0.0165 N   0  0  0  0  0  0  0  0  0  0  0  0
    1.0803   -0.5185    1.3113 C   0  0  1  0  0  0  0  0  0  0  0  0
   -0.6531    0.9743   -0.0022 C   0  0  0  0  0  0  0  0  0  0  0  0
   -0.8280   -0.5259   -0.3221 C   0  0  2  0  0  0  0  0  0  0  0  0
    2.1219   -1.5550    0.8679 C   0  0  1  0  0  0  0  0  0  0  0  0
    0.9702   -2.2128    0.0820 C   0  0  0  0  0  0  0  0  0  0  0  0
   -0.9006    1.8407   -1.2385 C   0  0  0  0  0  0  0  0  0  0  0  0
   -1.5032    1.4785    1.1720 C   0  0  0  0  0  0  0  0  0  0  0  0
   -2.1936   -1.0792   -0.0669 C   0  0  0  0  0  0  0  0  0  0  0  0
    4.3128   -0.8974    0.5753 C   0  0  0  0  0  0  0  0  0  0  0  0
    5.5231   -0.1414   -1.4106 C   0  0  0  0  0  0  0  0  0  0  0  0
    6.6798   -0.3234    0.8186 C   0  0  0  0  0  0  0  0  0  0  0  0
    6.5103    0.9622   -1.7865 C   0  0  0  0  0  0  0  0  0  0  0  0
    6.7913    1.0925    1.3777 C   0  0  0  0  0  0  0  0  0  0  0  0
    6.4133    2.2150   -0.9158 C   0  0  0  0  0  0  0  0  0  0  0  0
    7.2579    2.1284    0.3561 C   0  0  0  0  0  0  0  0  0  0  0  0
   -4.2682   -1.5382   -1.1346 C   0  0  0  0  0  0  0  0  0  0  0  0
   -6.4204    1.0610    0.4392 C   0  0  0  0  0  0  0  0  0  0  0  0
   -5.5746    0.3962   -0.6512 C   0  0  0  0  0  0  0  0  0  0  0  0
   -6.9375    2.4169   -0.0676 C   0  0  0  0  0  0  0  0  0  0  0  0
   -5.5531    1.2912    1.6843 C   0  0  0  0  0  0  0  0  0  0  0  0
   -7.6195    0.1660    0.7795 C   0  0  0  0  0  0  0  0  0  0  0  0
    0.8426   -0.5044    2.3788 H   0  0  0  0  0  0  0  0  0  0  0  0
   -0.5466   -0.7469   -1.3611 H   0  0  0  0  0  0  0  0  0  0  0  0
    2.4700   -2.2128    1.6755 H   0  0  0  0  0  0  0  0  0  0  0  0
   -0.7078    2.9004   -1.0347 H   0  0  0  0  0  0  0  0  0  0  0  0
   -0.2674    1.5403   -2.0814 H   0  0  0  0  0  0  0  0  0  0  0  0
   -1.9428    1.7555   -1.5672 H   0  0  0  0  0  0  0  0  0  0  0  0
   -1.2628    2.5179    1.4250 H   0  0  0  0  0  0  0  0  0  0  0  0
   -2.5656    1.4530    0.9130 H   0  0  0  0  0  0  0  0  0  0  0  0
   -1.3695    0.8741    2.0759 H   0  0  0  0  0  0  0  0  0  0  0  0
    4.4213   -1.1145    1.6533 H   0  0  0  0  0  0  0  0  0  0  0  0
    4.5328    0.1746   -1.7623 H   0  0  0  0  0  0  0  0  0  0  0  0
    5.7742   -1.0541   -1.9640 H   0  0  0  0  0  0  0  0  0  0  0  0
    6.6473   -1.0333    1.6547 H   0  0  0  0  0  0  0  0  0  0  0  0
    7.5697   -0.5941    0.2386 H   0  0  0  0  0  0  0  0  0  0  0  0
    7.5364    0.5752   -1.7794 H   0  0  0  0  0  0  0  0  0  0  0  0
    6.3072    1.2440   -2.8277 H   0  0  0  0  0  0  0  0  0  0  0  0
    5.8312    1.4089    1.8042 H   0  0  0  0  0  0  0  0  0  0  0  0
    7.5136    1.0863    2.2033 H   0  0  0  0  0  0  0  0  0  0  0  0
    6.7887    3.0640   -1.5009 H   0  0  0  0  0  0  0  0  0  0  0  0
    5.3688    2.4412   -0.6712 H   0  0  0  0  0  0  0  0  0  0  0  0
    7.2578    3.1123    0.8416 H   0  0  0  0  0  0  0  0  0  0  0  0
    8.3009    1.9221    0.0848 H   0  0  0  0  0  0  0  0  0  0  0  0
   -4.7068   -1.5211   -2.1387 H   0  0  0  0  0  0  0  0  0  0  0  0
   -4.2454   -2.5855   -0.8128 H   0  0  0  0  0  0  0  0  0  0  0  0
   -7.5413    2.9221    0.6945 H   0  0  0  0  0  0  0  0  0  0  0  0
   -7.5601    2.2954   -0.9617 H   0  0  0  0  0  0  0  0  0  0  0  0
   -6.1095    3.0840   -0.3346 H   0  0  0  0  0  0  0  0  0  0  0  0
   -4.7134    1.9562    1.4588 H   0  0  0  0  0  0  0  0  0  0  0  0
   -5.1380    0.3552    2.0740 H   0  0  0  0  0  0  0  0  0  0  0  0
   -6.1353    1.7544    2.4889 H   0  0  0  0  0  0  0  0  0  0  0  0
   -7.2991   -0.7939    1.2001 H   0  0  0  0  0  0  0  0  0  0  0  0
   -8.2129   -0.0538   -0.1154 H   0  0  0  0  0  0  0  0  0  0  0  0
   -8.2774    0.6450    1.5130 H   0  0  0  0  0  0  0  0  0  0  0  0
  1 10  1  0  0  0  0
  1 11  1  0  0  0  0
  2 14  2  0  0  0  0
  3 17  1  0  0  0  0
  3 25  1  0  0  0  0
  4 17  2  0  0  0  0
  5 25  1  0  0  0  0
  5 27  1  0  0  0  0
  6 27  2  0  0  0  0
  7 10  1  0  0  0  0
  7 12  1  0  0  0  0
  7 14  1  0  0  0  0
  8 13  1  0  0  0  0
  8 18  2  0  0  0  0
  9 18  1  0  0  0  0
  9 19  1  0  0  0  0
  9 20  1  0  0  0  0
 10 13  1  0  0  0  0
 10 31  1  0  0  0  0
 11 12  1  0  0  0  0
 11 15  1  0  0  0  0
 11 16  1  0  0  0  0
 12 17  1  0  0  0  0
 12 32  1  0  0  0  0
 13 14  1  0  0  0  0
 13 33  1  0  0  0  0
 15 34  1  0  0  0  0
 15 35  1  0  0  0  0
 15 36  1  0  0  0  0
 16 37  1  0  0  0  0
 16 38  1  0  0  0  0
 16 39  1  0  0  0  0
 18 40  1  0  0  0  0
 19 21  1  0  0  0  0
 19 41  1  0  0  0  0
 19 42  1  0  0  0  0
 20 22  1  0  0  0  0
 20 43  1  0  0  0  0
 20 44  1  0  0  0  0
 21 23  1  0  0  0  0
 21 45  1  0  0  0  0
 21 46  1  0  0  0  0
 22 24  1  0  0  0  0
 22 47  1  0  0  0  0
 22 48  1  0  0  0  0
 23 24  1  0  0  0  0
 23 49  1  0  0  0  0
 23 50  1  0  0  0  0
 24 51  1  0  0  0  0
 24 52  1  0  0  0  0
 25 53  1  0  0  0  0
 25 54  1  0  0  0  0
 26 27  1  0  0  0  0
 26 28  1  0  0  0  0
 26 29  1  0  0  0  0
 26 30  1  0  0  0  0
 28 55  1  0  0  0  0
 28 56  1  0  0  0  0
 28 57  1  0  0  0  0
 29 58  1  0  0  0  0
 29 59  1  0  0  0  0
 29 60  1  0  0  0  0
 30 61  1  0  0  0  0
 30 62  1  0  0  0  0
 30 63  1  0  0  0  0
M  END
> <PUBCHEM_COMPOUND_CID>
115163

> <PUBCHEM_CONFORMER_RMSD>
1

> <PUBCHEM_CONFORMER_DIVERSEORDER>
1
85
77
15
27
65
44
33
57
23
61
64
22
95
83
62
16
52
17
42
53
63
70
76
37
19
34
45
28
86
20
43
5
91
99
8
35
24
26
3
69
58
46
72
54
51
97
18
96
78
79
7
60
73
13
71
98
59
75
21
67
10
36
93
25
100
66
55
41
31
84
29
68
50
47
4
82
88
92
30
90
94
89
11
56
48
39
87
74
80
9
49
40
81
38
32
2
12
14
6

> <PUBCHEM_MMFF94_PARTIAL_CHARGES>
22
1 -0.45
10 0.44
11 0.23
12 0.36
13 0.34
14 0.58
17 0.66
18 0.44
19 0.37
2 -0.57
20 0.37
25 0.56
26 0.06
27 0.66
3 -0.43
4 -0.57
40 0.06
5 -0.43
6 -0.57
7 -0.59
8 -0.74
9 -0.79

> <PUBCHEM_EFFECTIVE_ROTOR_COUNT>
10.2

> <PUBCHEM_PHARMACOPHORE_FEATURES>
9
1 2 acceptor
1 4 acceptor
1 6 acceptor
3 11 15 16 hydrophobe
3 8 9 18 cation
4 26 28 29 30 hydrophobe
4 7 10 13 14 rings
7 1 7 10 11 12 13 14 rings
7 9 19 20 21 22 23 24 rings

> <PUBCHEM_HEAVY_ATOM_COUNT>
30

> <PUBCHEM_ATOM_DEF_STEREO_COUNT>
3

> <PUBCHEM_ATOM_UDEF_STEREO_COUNT>
0

> <PUBCHEM_BOND_DEF_STEREO_COUNT>
0

> <PUBCHEM_BOND_UDEF_STEREO_COUNT>
0

> <PUBCHEM_ISOTOPIC_ATOM_COUNT>
0

> <PUBCHEM_COMPONENT_COUNT>
1

> <PUBCHEM_CACTVS_TAUTO_COUNT>
1

> <PUBCHEM_CONFORMER_ID>
0001C1DB00000001

> <PUBCHEM_MMFF94_ENERGY>
72.795

> <PUBCHEM_FEATURE_SELFOVERLAP>
49.404

> <PUBCHEM_SHAPE_FINGERPRINT>
10 15 16877948243168037996
10066227 112 18130783460545036313
10692045 39 13623521347394723918
10906281 52 18410018710547733315
11135609 187 18343020030081388938
11456790 92 17603574224166042896
12166972 35 8070022281360259510
13533116 47 15719659971626181250
13782708 43 10952047848996697642
13914758 101 12463577261958201971
14251764 18 18410292532330065559
14790565 3 18412544318583661057
14840074 17 18334858316012406349
14849402 71 18335986466888956133
14856354 85 17530687632567295219
15064981 194 18045801223998485358
15183329 4 18342460347965473365
1601671 61 18341889658971445479
16994733 274 18260828189461426057
20567600 75 15338841945275112949
21298829 104 18261958556962665436
21304303 64 17821731654125403773
21521721 280 18411136948427696040
23559900 14 17846205700617343961
23569943 247 9078304135451291044
24771293 8 18339633568733734612
3383291 50 9079113354191456852
350125 39 18411976975190445744
397830 11 15357988901112168992
4340502 62 16081367441049503658
437815 12 15267339626099801739
59682541 52 16415207758887335230
59755656 215 16702024145014489478
6328613 192 18343021082148241089

> <PUBCHEM_SHAPE_MULTIPOLES>
576.95
22.04
2.49
1.48
2.85
0.25
0.19
-12.93
0.25
0.36
0.23
0.35
-0.3
-0.97

> <PUBCHEM_SHAPE_SELFOVERLAP>
1172.094

> <PUBCHEM_SHAPE_VOLUME>
339.3

> <PUBCHEM_COORDINATE_TYPE>
2
5
10

$$$$
