REMARK  Name = 115145
REMARK  8 active torsions:
REMARK  status: ('A' for Active; 'I' for Inactive)
REMARK    1  A    between atoms: C_2  and  O_7
REMARK    2  A    between atoms: C_3  and  O_9
REMARK    3  A    between atoms: C_4  and  O_11
REMARK    4  A    between atoms: C_5  and  C_14
REMARK    5  A    between atoms: C_6  and  O_17
REMARK    6  A    between atoms: C_14  and  O_15
REMARK    7  A    between atoms: O_17  and  C_19
REMARK    8  A    between atoms: C_19  and  C_20
REMARK                            x       y       z     vdW  Elec       q    Type
REMARK                         _______ _______ _______ _____ _____    ______ ____
ROOT
ATOM      1  O   UNL     1       1.130  -0.647   0.010  0.00  0.00    -0.307 OA
ATOM      2  C   UNL     1       2.758   1.720  -0.059  0.00  0.00    +0.173 C 
ATOM      3  C   UNL     1       3.325   0.350   0.318  0.00  0.00    +0.178 C 
ATOM      4  C   UNL     1       1.244   1.772   0.148  0.00  0.00    +0.211 C 
ATOM      5  C   UNL     1       2.509  -0.766  -0.321  0.00  0.00    +0.246 C 
ATOM      6  C   UNL     1       0.556   0.561  -0.483  0.00  0.00    +0.321 C 
ENDROOT
BRANCH   2   7
ATOM      7  O   UNL     1       3.386   2.701   0.767  0.00  0.00    -0.379 OA
ATOM      8  H   UNL     1       4.347   2.667   0.636  0.00  0.00    +0.211 HD
ENDBRANCH   2   7
BRANCH   3   9
ATOM      9  O   UNL     1       4.670   0.259  -0.147  0.00  0.00    -0.379 OA
ATOM     10  H   UNL     1       5.200   0.966   0.253  0.00  0.00    +0.211 HD
ENDBRANCH   3   9
BRANCH   4  11
ATOM     11  O   UNL     1       0.723   2.952  -0.465  0.00  0.00    -0.377 OA
ATOM     12  H   UNL     1       1.148   3.733  -0.076  0.00  0.00    +0.211 HD
ENDBRANCH   4  11
BRANCH   5  14
ATOM     13  O   UNL     1       2.138  -2.824   0.885  0.00  0.00    -0.247 OA
ATOM     14  C   UNL     1       2.885  -2.096   0.247  0.00  0.00    +0.344 C 
BRANCH  14  15
ATOM     15  O   UNL     1       4.177  -2.391  -0.038  0.00  0.00    -0.478 OA
ATOM     16  H   UNL     1       4.696  -1.788  -0.533  0.00  0.00    +0.295 HD
ENDBRANCH  14  15
ENDBRANCH   5  14
BRANCH   6  17
ATOM     17  O   UNL     1      -0.828   0.613  -0.140  0.00  0.00    -0.419 OA
BRANCH  17  19
ATOM     18  O   UNL     1      -1.209  -1.339  -1.299  0.00  0.00    -0.245 OA
ATOM     19  C   UNL     1      -1.595  -0.404  -0.616  0.00  0.00    +0.343 C 
BRANCH  19  20
ATOM     20  C   UNL     1      -3.008  -0.234  -0.192  0.00  0.00    +0.076 C 
ATOM     21  C   UNL     1      -3.788  -1.356  -0.006  0.00  0.00    +0.006 C 
ATOM     22  C   UNL     1      -3.497   1.042   0.003  0.00  0.00    +0.006 C 
ATOM     23  C   UNL     1      -5.115  -1.197   0.392  0.00  0.00    +0.000 C 
ATOM     24  C   UNL     1      -4.824   1.202   0.401  0.00  0.00    +0.000 C 
ATOM     25  C   UNL     1      -5.633   0.082   0.596  0.00  0.00    +0.000 C 
ENDBRANCH  19  20
ENDBRANCH  17  19
ENDBRANCH   6  17
TORSDOF 8
