115185
  -OEChem-03292013323D

 62 63  0     1  0  0  0  0  0999 V2000
   -3.2186   -3.3079    4.1491 Cl  0  0  0  0  0  0  0  0  0  0  0  0
    1.4354    2.1089   -1.0304 O   0  0  0  0  0  0  0  0  0  0  0  0
    0.4098    0.1613    2.2865 O   0  0  0  0  0  0  0  0  0  0  0  0
   -1.8183   -3.0052    1.6501 O   0  0  0  0  0  0  0  0  0  0  0  0
    3.0362    4.0841   -0.4877 N   0  0  0  0  0  0  0  0  0  0  0  0
    2.4159    0.6380    0.4849 N   0  0  0  0  0  0  0  0  0  0  0  0
   -0.8348   -0.7548    0.5517 N   0  0  0  0  0  0  0  0  0  0  0  0
   -5.5018    0.9168   -1.1504 N   0  0  0  0  0  0  0  0  0  0  0  0
   -6.5506    1.0957   -3.3040 N   0  0  0  0  0  0  0  0  0  0  0  0
   -7.7913    1.1836   -1.3941 N   0  0  0  0  0  0  0  0  0  0  0  0
    3.2873    2.8568    0.2680 C   0  0  1  0  0  0  0  0  0  0  0  0
    3.1363    3.2292    1.7401 C   0  0  0  0  0  0  0  0  0  0  0  0
    2.8148    4.7163    1.7333 C   0  0  0  0  0  0  0  0  0  0  0  0
    3.3672    5.1901    0.4054 C   0  0  0  0  0  0  0  0  0  0  0  0
    2.2817    1.8473   -0.1797 C   0  0  0  0  0  0  0  0  0  0  0  0
    1.5533   -0.4929    0.2518 C   0  0  1  0  0  0  0  0  0  0  0  0
    2.2568   -1.8255    0.5334 C   0  0  0  0  0  0  0  0  0  0  0  0
   -2.1298   -0.6658    1.1738 C   0  0  1  0  0  0  0  0  0  0  0  0
    0.3412   -0.3308    1.1622 C   0  0  0  0  0  0  0  0  0  0  0  0
   -3.2648   -0.5392    0.1568 C   0  0  0  0  0  0  0  0  0  0  0  0
    3.1611   -2.2579   -0.5951 C   0  0  0  0  0  0  0  0  0  0  0  0
   -3.1000    0.6893   -0.7463 C   0  0  0  0  0  0  0  0  0  0  0  0
   -2.3059   -1.9318    2.0046 C   0  0  0  0  0  0  0  0  0  0  0  0
   -4.1971    0.7868   -1.8012 C   0  0  0  0  0  0  0  0  0  0  0  0
    2.6586   -3.0509   -1.6268 C   0  0  0  0  0  0  0  0  0  0  0  0
    4.4993   -1.8641   -0.6067 C   0  0  0  0  0  0  0  0  0  0  0  0
   -3.0725   -1.7621    3.2993 C   0  0  0  0  0  0  0  0  0  0  0  0
    3.4941   -3.4504   -2.6699 C   0  0  0  0  0  0  0  0  0  0  0  0
    5.3348   -2.2636   -1.6498 C   0  0  0  0  0  0  0  0  0  0  0  0
    4.8320   -3.0567   -2.6814 C   0  0  0  0  0  0  0  0  0  0  0  0
   -6.5305    1.0552   -1.9277 C   0  0  0  0  0  0  0  0  0  0  0  0
    4.2947    2.4796    0.0576 H   0  0  0  0  0  0  0  0  0  0  0  0
    2.3600    2.6728    2.2755 H   0  0  0  0  0  0  0  0  0  0  0  0
    4.0878    3.0650    2.2602 H   0  0  0  0  0  0  0  0  0  0  0  0
    3.2596    5.2404    2.5842 H   0  0  0  0  0  0  0  0  0  0  0  0
    1.7284    4.8636    1.7706 H   0  0  0  0  0  0  0  0  0  0  0  0
    2.9142    6.1301    0.0775 H   0  0  0  0  0  0  0  0  0  0  0  0
    4.4535    5.3269    0.4522 H   0  0  0  0  0  0  0  0  0  0  0  0
    2.0415    4.1527   -0.7091 H   0  0  0  0  0  0  0  0  0  0  0  0
    1.2164   -0.4495   -0.7920 H   0  0  0  0  0  0  0  0  0  0  0  0
    3.1222    0.5538    1.2108 H   0  0  0  0  0  0  0  0  0  0  0  0
    1.5124   -2.6161    0.7003 H   0  0  0  0  0  0  0  0  0  0  0  0
    2.8315   -1.7742    1.4681 H   0  0  0  0  0  0  0  0  0  0  0  0
   -2.1250    0.1970    1.8500 H   0  0  0  0  0  0  0  0  0  0  0  0
   -4.2220   -0.4908    0.6898 H   0  0  0  0  0  0  0  0  0  0  0  0
   -3.3037   -1.4411   -0.4684 H   0  0  0  0  0  0  0  0  0  0  0  0
   -0.7762   -1.2204   -0.3496 H   0  0  0  0  0  0  0  0  0  0  0  0
   -2.1332    0.6559   -1.2616 H   0  0  0  0  0  0  0  0  0  0  0  0
   -3.1047    1.5947   -0.1268 H   0  0  0  0  0  0  0  0  0  0  0  0
   -4.1712   -0.1080   -2.4349 H   0  0  0  0  0  0  0  0  0  0  0  0
   -3.9946    1.6638   -2.4278 H   0  0  0  0  0  0  0  0  0  0  0  0
    1.6172   -3.3617   -1.6302 H   0  0  0  0  0  0  0  0  0  0  0  0
    4.9031   -1.2464    0.1911 H   0  0  0  0  0  0  0  0  0  0  0  0
   -4.0783   -1.3923    3.0865 H   0  0  0  0  0  0  0  0  0  0  0  0
   -2.5410   -1.0633    3.9498 H   0  0  0  0  0  0  0  0  0  0  0  0
    3.1026   -4.0671   -3.4735 H   0  0  0  0  0  0  0  0  0  0  0  0
    6.3766   -1.9571   -1.6591 H   0  0  0  0  0  0  0  0  0  0  0  0
    5.4825   -3.3674   -3.4936 H   0  0  0  0  0  0  0  0  0  0  0  0
   -7.4220    1.2090   -3.8107 H   0  0  0  0  0  0  0  0  0  0  0  0
   -5.7071    1.0128   -3.8602 H   0  0  0  0  0  0  0  0  0  0  0  0
   -8.6085    1.2930   -1.9845 H   0  0  0  0  0  0  0  0  0  0  0  0
   -7.9388    1.1725   -0.3906 H   0  0  0  0  0  0  0  0  0  0  0  0
  1 27  1  0  0  0  0
  2 15  2  0  0  0  0
  3 19  2  0  0  0  0
  4 23  2  0  0  0  0
  5 11  1  0  0  0  0
  5 14  1  0  0  0  0
  5 39  1  0  0  0  0
  6 15  1  0  0  0  0
  6 16  1  0  0  0  0
  6 41  1  0  0  0  0
  7 18  1  0  0  0  0
  7 19  1  0  0  0  0
  7 47  1  0  0  0  0
  8 24  1  0  0  0  0
  8 31  2  0  0  0  0
  9 31  1  0  0  0  0
  9 59  1  0  0  0  0
  9 60  1  0  0  0  0
 10 31  1  0  0  0  0
 10 61  1  0  0  0  0
 10 62  1  0  0  0  0
 11 12  1  0  0  0  0
 11 15  1  0  0  0  0
 11 32  1  0  0  0  0
 12 13  1  0  0  0  0
 12 33  1  0  0  0  0
 12 34  1  0  0  0  0
 13 14  1  0  0  0  0
 13 35  1  0  0  0  0
 13 36  1  0  0  0  0
 14 37  1  0  0  0  0
 14 38  1  0  0  0  0
 16 17  1  0  0  0  0
 16 19  1  0  0  0  0
 16 40  1  0  0  0  0
 17 21  1  0  0  0  0
 17 42  1  0  0  0  0
 17 43  1  0  0  0  0
 18 20  1  0  0  0  0
 18 23  1  0  0  0  0
 18 44  1  0  0  0  0
 20 22  1  0  0  0  0
 20 45  1  0  0  0  0
 20 46  1  0  0  0  0
 21 25  2  0  0  0  0
 21 26  1  0  0  0  0
 22 24  1  0  0  0  0
 22 48  1  0  0  0  0
 22 49  1  0  0  0  0
 23 27  1  0  0  0  0
 24 50  1  0  0  0  0
 24 51  1  0  0  0  0
 25 28  1  0  0  0  0
 25 52  1  0  0  0  0
 26 29  2  0  0  0  0
 26 53  1  0  0  0  0
 27 54  1  0  0  0  0
 27 55  1  0  0  0  0
 28 30  2  0  0  0  0
 28 56  1  0  0  0  0
 29 30  1  0  0  0  0
 29 57  1  0  0  0  0
 30 58  1  0  0  0  0
M  END
> <PUBCHEM_COMPOUND_CID>
115185

> <PUBCHEM_CONFORMER_RMSD>
1.2

> <PUBCHEM_CONFORMER_DIVERSEORDER>
2
10
39
18
31
8
11
29
26
3
47
13
35
49
16
15
21
23
27
48
43
36
19
12
50
32
17
46
7
20
28
6
33
14
25
44
45
51
24
37
42
40
30
4
1
38
9
41
22
5
34

> <PUBCHEM_MMFF94_PARTIAL_CHARGES>
39
1 -0.29
10 -0.85
11 0.33
14 0.27
15 0.57
16 0.36
17 0.14
18 0.36
19 0.57
2 -0.57
21 -0.14
23 0.45
24 0.25
25 -0.15
26 -0.15
27 0.35
28 -0.15
29 -0.15
3 -0.57
30 -0.15
31 0.55
39 0.36
4 -0.57
41 0.37
47 0.37
5 -0.9
52 0.15
53 0.15
56 0.15
57 0.15
58 0.15
59 0.4
6 -0.73
60 0.4
61 0.4
62 0.4
7 -0.73
8 -0.7
9 -0.85

> <PUBCHEM_EFFECTIVE_ROTOR_COUNT>
15

> <PUBCHEM_PHARMACOPHORE_FEATURES>
12
1 10 donor
1 2 acceptor
1 3 acceptor
1 4 acceptor
1 5 cation
1 5 donor
1 6 donor
1 7 donor
1 9 donor
4 8 9 10 31 cation
5 5 11 12 13 14 rings
6 21 25 26 28 29 30 rings

> <PUBCHEM_HEAVY_ATOM_COUNT>
31

> <PUBCHEM_ATOM_DEF_STEREO_COUNT>
3

> <PUBCHEM_ATOM_UDEF_STEREO_COUNT>
0

> <PUBCHEM_BOND_DEF_STEREO_COUNT>
0

> <PUBCHEM_BOND_UDEF_STEREO_COUNT>
0

> <PUBCHEM_ISOTOPIC_ATOM_COUNT>
0

> <PUBCHEM_COMPONENT_COUNT>
1

> <PUBCHEM_CACTVS_TAUTO_COUNT>
24

> <PUBCHEM_CONFORMER_ID>
0001C1F100000002

> <PUBCHEM_MMFF94_ENERGY>
65.7452

> <PUBCHEM_FEATURE_SELFOVERLAP>
60.954

> <PUBCHEM_SHAPE_FINGERPRINT>
11115154 58 18056476150021950601
12160290 23 17191240630372491026
12166972 35 17489016055515946327
12342043 65 17900579870542141474
12788726 201 17617951227440322290
12988421 55 17625552559308667056
13540713 4 18188218718153936315
14068700 675 17488459668362197382
15324884 4 18188784966637232379
19311894 1 17550664418244872981
21304303 282 16980366850064741364
22182313 1 18042978742478291547
376196 1 18119797264914428424
4015057 19 18342464703246732803
46194498 28 18341601586555580309
5081480 168 18263100858637077741
508180 173 18193556662487024649
613672 6 18197513843964849470
9658208 31 17603866698337220523

> <PUBCHEM_SHAPE_MULTIPOLES>
592.34
13.88
6.38
3.66
23.12
6.89
-1.57
0.76
13.02
-11.95
-1.33
5.83
-3.14
9.67

> <PUBCHEM_SHAPE_SELFOVERLAP>
1199.498

> <PUBCHEM_SHAPE_VOLUME>
343.4

> <PUBCHEM_COORDINATE_TYPE>
2
5
10

$$$$
