115184
  -OEChem-03292013323D

 40 41  0     0  0  0  0  0  0999 V2000
   -2.2018   -2.6419   -0.6684 S   0  0  0  0  0  0  0  0  0  0  0  0
    2.1645    2.4468   -0.8157 S   0  0  0  0  0  0  0  0  0  0  0  0
   -7.1147    0.7742    2.1475 S   0  0  0  0  0  0  0  0  0  0  0  0
    6.8227   -2.2386   -1.1342 S   0  0  0  0  0  0  0  0  0  0  0  0
   -1.6136   -3.0728    0.7938 O   0  0  0  0  0  0  0  0  0  0  0  0
    1.6733    3.5407    0.2942 O   0  0  0  0  0  0  0  0  0  0  0  0
   -3.3786   -3.4609   -0.9133 O   0  0  0  0  0  0  0  0  0  0  0  0
   -1.0981   -2.6225   -1.6140 O   0  0  0  0  0  0  0  0  0  0  0  0
    3.2976    3.0295   -1.5170 O   0  0  0  0  0  0  0  0  0  0  0  0
    0.9956    1.9836   -1.5447 O   0  0  0  0  0  0  0  0  0  0  0  0
   -5.9201    0.8775   -0.3543 N   0  0  0  0  0  0  0  0  0  0  0  0
    5.9896   -0.5210    0.8789 N   0  0  0  0  0  0  0  0  0  0  0  0
   -0.3433   -0.2080   -0.2860 C   0  0  0  0  0  0  0  0  0  0  0  0
    0.4055    0.5276    0.8415 C   0  0  0  0  0  0  0  0  0  0  0  0
   -1.8143    0.0517   -0.3076 C   0  0  0  0  0  0  0  0  0  0  0  0
    1.8926    0.2700    0.8352 C   0  0  0  0  0  0  0  0  0  0  0  0
   -2.7321   -0.9852   -0.4759 C   0  0  0  0  0  0  0  0  0  0  0  0
    2.7520    1.0861    0.1149 C   0  0  0  0  0  0  0  0  0  0  0  0
   -2.2640    1.3632   -0.1550 C   0  0  0  0  0  0  0  0  0  0  0  0
    2.3723   -0.8050    1.5699 C   0  0  0  0  0  0  0  0  0  0  0  0
   -4.0995   -0.7105   -0.4913 C   0  0  0  0  0  0  0  0  0  0  0  0
    4.1216    0.8221    0.1294 C   0  0  0  0  0  0  0  0  0  0  0  0
   -3.6314    1.6380   -0.1706 C   0  0  0  0  0  0  0  0  0  0  0  0
    3.7419   -1.0690    1.5843 C   0  0  0  0  0  0  0  0  0  0  0  0
   -4.5492    0.6011   -0.3387 C   0  0  0  0  0  0  0  0  0  0  0  0
    4.6165   -0.2554    0.8640 C   0  0  0  0  0  0  0  0  0  0  0  0
   -6.4175    0.8310    0.7151 C   0  0  0  0  0  0  0  0  0  0  0  0
    6.3326   -1.2523    0.0182 C   0  0  0  0  0  0  0  0  0  0  0  0
   -0.1154   -1.2527   -0.0728 H   0  0  0  0  0  0  0  0  0  0  0  0
    0.0664   -0.0359   -1.2832 H   0  0  0  0  0  0  0  0  0  0  0  0
   -0.0005    0.1807    1.8042 H   0  0  0  0  0  0  0  0  0  0  0  0
    0.2090    1.6007    0.8706 H   0  0  0  0  0  0  0  0  0  0  0  0
   -1.5810    2.2003   -0.0543 H   0  0  0  0  0  0  0  0  0  0  0  0
    1.7014   -1.4478    2.1329 H   0  0  0  0  0  0  0  0  0  0  0  0
   -4.8319   -1.5028   -0.6211 H   0  0  0  0  0  0  0  0  0  0  0  0
    4.8215    1.4458   -0.4204 H   0  0  0  0  0  0  0  0  0  0  0  0
   -3.9701    2.6650   -0.0599 H   0  0  0  0  0  0  0  0  0  0  0  0
    4.1161   -1.9106    2.1616 H   0  0  0  0  0  0  0  0  0  0  0  0
   -2.2617   -3.0423    1.5364 H   0  0  0  0  0  0  0  0  0  0  0  0
    2.3754    3.8697    0.9034 H   0  0  0  0  0  0  0  0  0  0  0  0
  1  5  1  0  0  0  0
  1  7  2  0  0  0  0
  1  8  2  0  0  0  0
  1 17  1  0  0  0  0
  2  6  1  0  0  0  0
  2  9  2  0  0  0  0
  2 10  2  0  0  0  0
  2 18  1  0  0  0  0
  3 27  2  0  0  0  0
  4 28  2  0  0  0  0
  5 39  1  0  0  0  0
  6 40  1  0  0  0  0
 11 25  1  0  0  0  0
 11 27  2  0  0  0  0
 12 26  1  0  0  0  0
 12 28  2  0  0  0  0
 13 14  1  0  0  0  0
 13 15  1  0  0  0  0
 13 29  1  0  0  0  0
 13 30  1  0  0  0  0
 14 16  1  0  0  0  0
 14 31  1  0  0  0  0
 14 32  1  0  0  0  0
 15 17  2  0  0  0  0
 15 19  1  0  0  0  0
 16 18  2  0  0  0  0
 16 20  1  0  0  0  0
 17 21  1  0  0  0  0
 18 22  1  0  0  0  0
 19 23  2  0  0  0  0
 19 33  1  0  0  0  0
 20 24  2  0  0  0  0
 20 34  1  0  0  0  0
 21 25  2  0  0  0  0
 21 35  1  0  0  0  0
 22 26  2  0  0  0  0
 22 36  1  0  0  0  0
 23 25  1  0  0  0  0
 23 37  1  0  0  0  0
 24 26  1  0  0  0  0
 24 38  1  0  0  0  0
M  END
> <PUBCHEM_COMPOUND_CID>
115184

> <PUBCHEM_CONFORMER_RMSD>
0.8

> <PUBCHEM_CONFORMER_DIVERSEORDER>
1
19
54
16
69
18
2
67
12
32
26
43
78
42
23
58
72
17
65
36
50
61
60
49
45
30
51
75
59
64
29
40
34
63
13
44
56
71
46
10
6
47
15
31
62
14
77
41
53
37
24
21
9
79
39
66
52
33
3
48
57
27
70
7
5
20
25
8
76
55
73
68
4
28
22
11
74
35
38

> <PUBCHEM_MMFF94_PARTIAL_CHARGES>
36
1 1.49
10 -0.65
11 -0.48
12 -0.48
13 0.14
14 0.14
15 -0.14
16 -0.14
17 -0.01
18 -0.01
19 -0.15
2 1.49
20 -0.15
21 -0.15
22 -0.15
23 -0.15
24 -0.15
25 0.18
26 0.18
27 0.57
28 0.57
3 -0.27
33 0.15
34 0.15
35 0.15
36 0.15
37 0.15
38 0.15
39 0.5
4 -0.27
40 0.5
5 -0.68
6 -0.68
7 -0.65
8 -0.65
9 -0.65

> <PUBCHEM_EFFECTIVE_ROTOR_COUNT>
7

> <PUBCHEM_PHARMACOPHORE_FEATURES>
14
1 10 acceptor
1 11 acceptor
1 12 acceptor
1 3 acceptor
1 4 acceptor
1 5 acceptor
1 6 acceptor
1 7 acceptor
1 8 acceptor
1 9 acceptor
4 1 5 7 8 anion
4 2 6 9 10 anion
6 15 17 19 21 23 25 rings
6 16 18 20 22 24 26 rings

> <PUBCHEM_HEAVY_ATOM_COUNT>
28

> <PUBCHEM_ATOM_DEF_STEREO_COUNT>
0

> <PUBCHEM_ATOM_UDEF_STEREO_COUNT>
0

> <PUBCHEM_BOND_DEF_STEREO_COUNT>
0

> <PUBCHEM_BOND_UDEF_STEREO_COUNT>
0

> <PUBCHEM_ISOTOPIC_ATOM_COUNT>
0

> <PUBCHEM_COMPONENT_COUNT>
1

> <PUBCHEM_CACTVS_TAUTO_COUNT>
1

> <PUBCHEM_CONFORMER_ID>
0001C1F000000001

> <PUBCHEM_MMFF94_ENERGY>
68.4497

> <PUBCHEM_FEATURE_SELFOVERLAP>
71.181

> <PUBCHEM_SHAPE_FINGERPRINT>
10366900 7 8790883003713966805
11719270 70 12031783652636726476
11796584 16 17846498158369060830
12107183 9 18411981351534883657
12236239 1 18410289233183648777
12553582 1 18042101229494319570
12616971 3 18334573572977312653
12633257 1 18411414029589676269
12788726 201 17980480389033292383
13583140 156 17385990747089699335
13726171 33 17841454809769358121
13914758 101 15051735244353482675
14117953 113 18338509738969402933
14341114 176 18335137600556166000
14955137 171 18408890620355009424
15238133 3 17917716807586068865
15475509 8 18338240362772762790
15537594 2 17968367975230087162
15849732 13 18261110738179583597
17492 89 18193833975603430638
17818456 19 18341891900501392225
18603816 31 17417227863729402518
20105231 36 18187377492737608947
21033648 29 17488724771092887986
21267235 1 18259990335920842896
21774942 28 15051462539900152283
21781055 127 17630912446286044809
21792965 39 18268160932040137908
23559900 14 18271796960699507200
23569917 315 18343022212263464167
23598288 3 18196933499035034287
23622692 88 18335134276388193909
249057 3 18408601465675963036
312423 11 18190735534350111294
3178227 256 18114468877005113953
335352 9 18411414012320051989
340366 18 18409728478121747588
4073 2 18337666529662487706
44880168 125 18058154056316107454
469060 322 11959730507615406578
5081480 168 17095241445401259014
5104073 3 18265889331867952201
5385378 56 17916874500233146811
5912855 24 18046071729149044387
59755656 215 18200591393731661710
59755656 520 17989482996914778483
7226269 152 17560798814934362833
9981440 41 17252862166503467984

> <PUBCHEM_SHAPE_MULTIPOLES>
546.45
16.4
3.39
1.49
1.54
0.68
0.34
2.46
3.86
-0.66
-1.53
0.12
0.06
-1.27

> <PUBCHEM_SHAPE_SELFOVERLAP>
1127.977

> <PUBCHEM_SHAPE_VOLUME>
314.3

> <PUBCHEM_COORDINATE_TYPE>
2
5
10

$$$$
