REMARK  Name = 115160
REMARK  5 active torsions:
REMARK  status: ('A' for Active; 'I' for Inactive)
REMARK    1  A    between atoms: N_3  and  C1*_12
REMARK    2  A    between atoms: C_6  and  O_21
REMARK    3  A    between atoms: C3*_14  and  O3*_16
REMARK    4  A    between atoms: C4*_15  and  C5*_18
REMARK    5  A    between atoms: C5*_18  and  O5*_19
REMARK                            x       y       z     vdW  Elec       q    Type
REMARK                         _______ _______ _______ _____ _____    ______ ____
ROOT
ATOM      1  O   UNL     1      -0.928   2.892  -0.486  0.00  0.00    -0.252 OA
ATOM      2  O   UNL     1      -4.239  -0.117   0.584  0.00  0.00    -0.272 OA
ATOM      3  N   UNL     1      -0.299   0.682  -0.107  0.00  0.00    -0.239 N 
ATOM      4  N   UNL     1      -2.547   1.371   0.085  0.00  0.00    -0.237 N 
ATOM      5  C   UNL     1      -0.688  -0.611   0.441  0.00  0.00    +0.133 C 
ATOM      6  C   UNL     1      -2.080  -1.026  -0.017  0.00  0.00    +0.175 C 
ATOM      7  C   UNL     1      -1.221   1.731  -0.191  0.00  0.00    +0.311 C 
ATOM      8  C   UNL     1      -3.071   0.092   0.263  0.00  0.00    +0.255 C 
ATOM      9  C   UNL     1      -2.118  -1.374  -1.505  0.00  0.00    +0.041 C 
ATOM     10  H   UNL     1      -3.189   2.114   0.164  0.00  0.00    +0.159 HD
ENDROOT
BRANCH   3  12
ATOM     11  O4* UNL     1       1.677  -0.255  -0.938  0.00  0.00    -0.335 OA
ATOM     12  C1* UNL     1       1.098   0.910  -0.334  0.00  0.00    +0.198 C 
ATOM     13  C2* UNL     1       1.867   1.184   0.949  0.00  0.00    +0.083 C 
ATOM     14  C3* UNL     1       3.222   0.584   0.653  0.00  0.00    +0.144 C 
ATOM     15  C4* UNL     1       2.885  -0.605  -0.235  0.00  0.00    +0.173 C 
BRANCH  14  16
ATOM     16  O3* UNL     1       4.014   1.522  -0.072  0.00  0.00    -0.382 OA
ATOM     17  H3* UNL     1       4.225   2.277   0.500  0.00  0.00    +0.210 HD
ENDBRANCH  14  16
BRANCH  15  18
ATOM     18  C5* UNL     1       2.615  -1.878   0.556  0.00  0.00    +0.169 C 
BRANCH  18  19
ATOM     19  O5* UNL     1       2.301  -2.924  -0.350  0.00  0.00    -0.379 OA
ATOM     20  H5* UNL     1       2.127  -3.739   0.145  0.00  0.00    +0.211 HD
ENDBRANCH  18  19
ENDBRANCH  15  18
ENDBRANCH   3  12
BRANCH   6  21
ATOM     21  O   UNL     1      -2.490  -2.180   0.704  0.00  0.00    -0.377 OA
ATOM     22  H   UNL     1      -2.477  -1.989   1.655  0.00  0.00    +0.211 HD
ENDBRANCH   6  21
TORSDOF 5
