REMARK  Name = 115142
REMARK  4 active torsions:
REMARK  status: ('A' for Active; 'I' for Inactive)
REMARK    1  A    between atoms: C_1  and  S_7
REMARK    2  A    between atoms: C_2  and  N_13
REMARK    3  A    between atoms: C_3  and  N_16
REMARK    4  A    between atoms: C_4  and  N_19
REMARK                            x       y       z     vdW  Elec       q    Type
REMARK                         _______ _______ _______ _____ _____    ______ ____
ROOT
ATOM      1  C   UNL     1       0.688  -0.001   0.000  0.00  0.00    +0.157 C 
ATOM      2  C   UNL     1      -0.011  -1.208   0.000  0.00  0.00    +0.164 C 
ATOM      3  C   UNL     1      -0.007   1.208   0.000  0.00  0.00    +0.164 C 
ATOM      4  C   UNL     1      -2.102   0.004   0.001  0.00  0.00    +0.146 C 
ATOM      5  C   UNL     1      -1.406  -1.205   0.000  0.00  0.00    +0.050 C 
ATOM      6  C   UNL     1      -1.402   1.211   0.000  0.00  0.00    +0.050 C 
ENDROOT
BRANCH   1   7
ATOM      7  S   UNL     1       2.448  -0.004  -0.001  0.00  0.00    +0.045 S 
ATOM      8  O   UNL     1       2.783  -0.718  -1.238  0.00  0.00    -0.065 OA
ATOM      9  O   UNL     1       2.838   1.412  -0.002  0.00  0.00    -0.065 OA
ATOM     10  O   UNL     1       2.787  -0.714   1.238  0.00  0.00    -0.065 OA
ENDBRANCH   1   7
BRANCH   2  13
ATOM     11  O   UNL     1       0.953  -2.992  -1.097  0.00  0.00    -0.126 OA
ATOM     12  O   UNL     1       0.952  -2.991   1.099  0.00  0.00    -0.126 OA
ATOM     13  N   UNL     1       0.665  -2.460   0.001  0.00  0.00    +0.059 N 
ENDBRANCH   2  13
BRANCH   3  16
ATOM     14  O   UNL     1       0.962   2.989   1.098  0.00  0.00    -0.126 OA
ATOM     15  O   UNL     1       0.962   2.990  -1.097  0.00  0.00    -0.126 OA
ATOM     16  N   UNL     1       0.673   2.458   0.000  0.00  0.00    +0.059 N 
ENDBRANCH   3  16
BRANCH   4  19
ATOM     17  O   UNL     1      -4.131  -1.091  -0.001  0.00  0.00    -0.126 OA
ATOM     18  O   UNL     1      -4.128   1.105   0.000  0.00  0.00    -0.126 OA
ATOM     19  N   UNL     1      -3.522   0.006   0.000  0.00  0.00    +0.058 N 
ENDBRANCH   4  19
TORSDOF 4
