REMARK  Name = 115180
REMARK  4 active torsions:
REMARK  status: ('A' for Active; 'I' for Inactive)
REMARK    1  A    between atoms: N_3  and  O_25
REMARK    2  A    between atoms: N_4  and  O_27
REMARK    3  A    between atoms: C_17  and  N_19
REMARK    4  A    between atoms: C_18  and  N_22
REMARK                            x       y       z     vdW  Elec       q    Type
REMARK                         _______ _______ _______ _____ _____    ______ ____
ROOT
ATOM      1  O   UNL     1       1.263  -3.582   0.051  0.00  0.00    -0.264 OA
ATOM      2  O   UNL     1      -1.263   3.582  -0.050  0.00  0.00    -0.264 OA
ATOM      3  N   UNL     1      -0.714  -2.390  -0.011  0.00  0.00    -0.145 N 
ATOM      4  N   UNL     1       0.714   2.390   0.011  0.00  0.00    -0.145 N 
ATOM      5  C   UNL     1      -0.729   0.014   0.001  0.00  0.00    +0.026 A 
ATOM      6  C   UNL     1       0.729  -0.014  -0.001  0.00  0.00    +0.026 A 
ATOM      7  C   UNL     1      -1.449  -1.191   0.004  0.00  0.00    +0.102 A 
ATOM      8  C   UNL     1       1.449   1.191  -0.004  0.00  0.00    +0.102 A 
ATOM      9  C   UNL     1       1.424  -1.234   0.002  0.00  0.00    +0.062 A 
ATOM     10  C   UNL     1      -1.424   1.234  -0.002  0.00  0.00    +0.062 A 
ATOM     11  C   UNL     1       0.660  -2.513   0.016  0.00  0.00    +0.292 A 
ATOM     12  C   UNL     1      -0.660   2.513  -0.017  0.00  0.00    +0.292 A 
ATOM     13  C   UNL     1      -2.848  -1.170   0.010  0.00  0.00    +0.035 C 
ATOM     14  C   UNL     1       2.848   1.170  -0.010  0.00  0.00    +0.035 C 
ATOM     15  C   UNL     1       2.822  -1.252  -0.004  0.00  0.00    +0.019 C 
ATOM     16  C   UNL     1      -2.822   1.252   0.004  0.00  0.00    +0.019 C 
ATOM     17  C   UNL     1      -3.528   0.049   0.011  0.00  0.00    +0.043 C 
ATOM     18  C   UNL     1       3.528  -0.049  -0.011  0.00  0.00    +0.043 C 
ENDROOT
BRANCH  17  19
ATOM     19  N   UNL     1      -4.939   0.064   0.017  0.00  0.00    -0.357 N 
ATOM     20  H   UNL     1      -5.441  -0.783   0.022  0.00  0.00    +0.142 HD
ATOM     21  H   UNL     1      -5.422   0.922   0.017  0.00  0.00    +0.142 HD
ENDBRANCH  17  19
BRANCH  18  22
ATOM     22  N   UNL     1       4.939  -0.064  -0.018  0.00  0.00    -0.357 N 
ATOM     23  H   UNL     1       5.441   0.783  -0.023  0.00  0.00    +0.142 HD
ATOM     24  H   UNL     1       5.422  -0.922  -0.017  0.00  0.00    +0.142 HD
ENDBRANCH  18  22
BRANCH   3  25
ATOM     25  O   UNL     1      -1.453  -3.583  -0.058  0.00  0.00    -0.423 OA
ATOM     26  H   UNL     1      -2.390  -3.554  -0.078  0.00  0.00    +0.326 HD
ENDBRANCH   3  25
BRANCH   4  27
ATOM     27  O   UNL     1       1.454   3.584   0.058  0.00  0.00    -0.423 OA
ATOM     28  H   UNL     1       2.390   3.554   0.079  0.00  0.00    +0.326 HD
ENDBRANCH   4  27
TORSDOF 4
