REMARK  Name = 115166
REMARK  8 active torsions:
REMARK  status: ('A' for Active; 'I' for Inactive)
REMARK    1  A    between atoms: C_2  and  O_7
REMARK    2  A    between atoms: C_3  and  O_9
REMARK    3  A    between atoms: C_4  and  O_11
REMARK    4  A    between atoms: C_5  and  C_14
REMARK    5  A    between atoms: C_6  and  O_17
REMARK    6  A    between atoms: C_14  and  O_15
REMARK    7  A    between atoms: O_17  and  C_18
REMARK    8  A    between atoms: C_23  and  O_24
REMARK                            x       y       z     vdW  Elec       q    Type
REMARK                         _______ _______ _______ _____ _____    ______ ____
ROOT
ATOM      1  O   UNL     1       0.591  -0.393   0.256  0.00  0.00    -0.307 OA
ATOM      2  C   UNL     1       2.922   1.208  -0.249  0.00  0.00    +0.173 C 
ATOM      3  C   UNL     1       3.009  -0.292   0.030  0.00  0.00    +0.178 C 
ATOM      4  C   UNL     1       1.622   1.803   0.294  0.00  0.00    +0.210 C 
ATOM      5  C   UNL     1       1.717  -0.992  -0.375  0.00  0.00    +0.246 C 
ATOM      6  C   UNL     1       0.413   0.968  -0.129  0.00  0.00    +0.318 C 
ENDROOT
BRANCH   2   7
ATOM      7  O   UNL     1       4.036   1.840   0.385  0.00  0.00    -0.379 OA
ATOM      8  H   UNL     1       4.861   1.463   0.040  0.00  0.00    +0.211 HD
ENDBRANCH   2   7
BRANCH   3   9
ATOM      9  O   UNL     1       4.085  -0.846  -0.725  0.00  0.00    -0.379 OA
ATOM     10  H   UNL     1       4.914  -0.408  -0.475  0.00  0.00    +0.211 HD
ENDBRANCH   3   9
BRANCH   4  11
ATOM     11  O   UNL     1       1.455   3.124  -0.219  0.00  0.00    -0.377 OA
ATOM     12  H   UNL     1       2.214   3.670   0.039  0.00  0.00    +0.211 HD
ENDBRANCH   4  11
BRANCH   5  14
ATOM     13  O   UNL     1       0.885  -2.834   0.944  0.00  0.00    -0.247 OA
ATOM     14  C   UNL     1       1.688  -2.397   0.133  0.00  0.00    +0.344 C 
BRANCH  14  15
ATOM     15  O   UNL     1       2.681  -3.130  -0.429  0.00  0.00    -0.478 OA
ATOM     16  H   UNL     1       3.265  -2.733  -1.046  0.00  0.00    +0.295 HD
ENDBRANCH  14  15
ENDBRANCH   5  14
BRANCH   6  17
ATOM     17  O   UNL     1      -0.740   1.505   0.517  0.00  0.00    -0.451 OA
BRANCH  17  18
ATOM     18  C   UNL     1      -1.930   0.879   0.266  0.00  0.00    +0.142 C 
ATOM     19  C   UNL     1      -2.410   0.804  -1.038  0.00  0.00    +0.040 C 
ATOM     20  C   UNL     1      -2.652   0.321   1.316  0.00  0.00    +0.040 C 
ATOM     21  C   UNL     1      -3.623   0.166  -1.295  0.00  0.00    +0.040 C 
ATOM     22  C   UNL     1      -3.866  -0.318   1.060  0.00  0.00    +0.040 C 
ATOM     23  C   UNL     1      -4.351  -0.396  -0.246  0.00  0.00    +0.134 C 
BRANCH  23  24
ATOM     24  O   UNL     1      -5.535  -1.019  -0.496  0.00  0.00    -0.506 OA
ATOM     25  H   UNL     1      -5.861  -1.071  -1.373  0.00  0.00    +0.292 HD
ENDBRANCH  23  24
ENDBRANCH  17  18
ENDBRANCH   6  17
TORSDOF 8
