115182
  -OEChem-03292013323D

 52 56  0     1  0  0  0  0  0999 V2000
   -0.8043   -2.5655   -1.6469 O   0  0  0  0  0  0  0  0  0  0  0  0
    0.6295   -1.7715    2.0878 O   0  0  0  0  0  0  0  0  0  0  0  0
    0.1453    1.7486   -1.1726 O   0  0  0  0  0  0  0  0  0  0  0  0
   -1.9663   -1.3897    1.5627 O   0  0  0  0  0  0  0  0  0  0  0  0
   -0.2123   -0.2937   -3.1284 O   0  0  0  0  0  0  0  0  0  0  0  0
    3.0721   -0.5509    1.2673 O   0  0  0  0  0  0  0  0  0  0  0  0
   -2.5971   -3.1229   -0.3741 O   0  0  0  0  0  0  0  0  0  0  0  0
   -1.4182    1.8176    1.1727 O   0  0  0  0  0  0  0  0  0  0  0  0
    4.8829    2.3878   -1.0411 O   0  0  0  0  0  0  0  0  0  0  0  0
    5.1196   -1.2062    2.0050 O   0  0  0  0  0  0  0  0  0  0  0  0
    0.3753   -1.3733    0.7539 C   0  0  2  0  0  0  0  0  0  0  0  0
    0.0530    0.3892   -0.7816 C   0  0  1  0  0  0  0  0  0  0  0  0
    0.8285    0.0899    0.5214 C   0  0  2  0  0  0  0  0  0  0  0  0
   -1.1533   -1.3303    0.4057 C   0  0  2  0  0  0  0  0  0  0  0  0
   -1.3794   -0.0019   -0.3669 C   0  0  1  0  0  0  0  0  0  0  0  0
    0.5590   -0.5104   -1.9483 C   0  0  1  0  0  0  0  0  0  0  0  0
    1.1020   -2.3098   -0.2277 C   0  0  0  0  0  0  0  0  0  0  0  0
    0.5413   -2.0214   -1.6143 C   0  0  1  0  0  0  0  0  0  0  0  0
   -1.5919   -2.4413   -0.5399 C   0  0  0  0  0  0  0  0  0  0  0  0
    2.3070    0.3256    0.4588 C   0  0  0  0  0  0  0  0  0  0  0  0
   -2.0650    1.0626    0.4504 C   0  0  0  0  0  0  0  0  0  0  0  0
    2.8874    1.2743   -0.2872 C   0  0  0  0  0  0  0  0  0  0  0  0
   -3.5476    1.1926    0.3734 C   0  0  0  0  0  0  0  0  0  0  0  0
    4.3180    1.4013   -0.2628 C   0  0  0  0  0  0  0  0  0  0  0  0
    4.4375   -0.4579    1.3129 C   0  0  0  0  0  0  0  0  0  0  0  0
   -4.2981    0.0665    0.1182 C   0  0  0  0  0  0  0  0  0  0  0  0
   -4.1130    2.4345    0.5601 C   0  0  0  0  0  0  0  0  0  0  0  0
    5.0697    0.5912    0.4880 C   0  0  0  0  0  0  0  0  0  0  0  0
   -5.6857    0.1883    0.0459 C   0  0  0  0  0  0  0  0  0  0  0  0
   -5.5007    2.5563    0.4879 C   0  0  0  0  0  0  0  0  0  0  0  0
   -6.2870    1.4332    0.2307 C   0  0  0  0  0  0  0  0  0  0  0  0
    6.2920    2.3871   -0.9112 C   0  0  0  0  0  0  0  0  0  0  0  0
    0.5046    0.7008    1.3700 H   0  0  0  0  0  0  0  0  0  0  0  0
   -1.9770   -0.1269   -1.2797 H   0  0  0  0  0  0  0  0  0  0  0  0
    1.5828   -0.2184   -2.2062 H   0  0  0  0  0  0  0  0  0  0  0  0
    0.9100   -3.3530    0.0578 H   0  0  0  0  0  0  0  0  0  0  0  0
    2.1889   -2.2040   -0.2163 H   0  0  0  0  0  0  0  0  0  0  0  0
    1.0995   -2.5775   -2.3751 H   0  0  0  0  0  0  0  0  0  0  0  0
    1.5921   -1.7790    2.2228 H   0  0  0  0  0  0  0  0  0  0  0  0
   -0.4178    1.8686   -1.9563 H   0  0  0  0  0  0  0  0  0  0  0  0
   -1.7081   -2.1822    2.0638 H   0  0  0  0  0  0  0  0  0  0  0  0
    0.1488   -0.8681   -3.8250 H   0  0  0  0  0  0  0  0  0  0  0  0
    2.3603    1.9836   -0.9063 H   0  0  0  0  0  0  0  0  0  0  0  0
   -3.8771   -0.9152   -0.0368 H   0  0  0  0  0  0  0  0  0  0  0  0
   -3.5122    3.3174    0.7558 H   0  0  0  0  0  0  0  0  0  0  0  0
    6.1482    0.6010    0.5785 H   0  0  0  0  0  0  0  0  0  0  0  0
   -6.2985   -0.6856   -0.1558 H   0  0  0  0  0  0  0  0  0  0  0  0
   -5.9690    3.5259    0.6304 H   0  0  0  0  0  0  0  0  0  0  0  0
   -7.3674    1.5283    0.1737 H   0  0  0  0  0  0  0  0  0  0  0  0
    6.6646    3.1927   -1.5549 H   0  0  0  0  0  0  0  0  0  0  0  0
    6.7523    1.4693   -1.2970 H   0  0  0  0  0  0  0  0  0  0  0  0
    6.6240    2.6463    0.1015 H   0  0  0  0  0  0  0  0  0  0  0  0
  1 18  1  0  0  0  0
  1 19  1  0  0  0  0
  2 11  1  0  0  0  0
  2 39  1  0  0  0  0
  3 12  1  0  0  0  0
  3 40  1  0  0  0  0
  4 14  1  0  0  0  0
  4 41  1  0  0  0  0
  5 16  1  0  0  0  0
  5 42  1  0  0  0  0
  6 20  1  0  0  0  0
  6 25  1  0  0  0  0
  7 19  2  0  0  0  0
  8 21  2  0  0  0  0
  9 24  1  0  0  0  0
  9 32  1  0  0  0  0
 10 25  2  0  0  0  0
 11 13  1  0  0  0  0
 11 14  1  0  0  0  0
 11 17  1  0  0  0  0
 12 13  1  0  0  0  0
 12 15  1  0  0  0  0
 12 16  1  0  0  0  0
 13 20  1  0  0  0  0
 13 33  1  0  0  0  0
 14 15  1  0  0  0  0
 14 19  1  0  0  0  0
 15 21  1  0  0  0  0
 15 34  1  0  0  0  0
 16 18  1  0  0  0  0
 16 35  1  0  0  0  0
 17 18  1  0  0  0  0
 17 36  1  0  0  0  0
 17 37  1  0  0  0  0
 18 38  1  0  0  0  0
 20 22  2  0  0  0  0
 21 23  1  0  0  0  0
 22 24  1  0  0  0  0
 22 43  1  0  0  0  0
 23 26  2  0  0  0  0
 23 27  1  0  0  0  0
 24 28  2  0  0  0  0
 25 28  1  0  0  0  0
 26 29  1  0  0  0  0
 26 44  1  0  0  0  0
 27 30  2  0  0  0  0
 27 45  1  0  0  0  0
 28 46  1  0  0  0  0
 29 31  2  0  0  0  0
 29 47  1  0  0  0  0
 30 31  1  0  0  0  0
 30 48  1  0  0  0  0
 31 49  1  0  0  0  0
 32 50  1  0  0  0  0
 32 51  1  0  0  0  0
 32 52  1  0  0  0  0
M  END
> <PUBCHEM_COMPOUND_CID>
115182

> <PUBCHEM_CONFORMER_RMSD>
0.8

> <PUBCHEM_CONFORMER_DIVERSEORDER>
1
9
16
12
15
4
13
11
14
5
10
8
7
3
6
2

> <PUBCHEM_MMFF94_PARTIAL_CHARGES>
42
1 -0.43
10 -0.57
11 0.28
12 0.28
13 0.14
14 0.34
15 0.06
16 0.28
18 0.28
19 0.66
2 -0.68
20 -0.06
21 0.42
22 -0.15
23 0.09
24 0.08
25 0.71
26 -0.15
27 -0.15
28 -0.14
29 -0.15
3 -0.68
30 -0.15
31 -0.15
32 0.28
39 0.4
4 -0.68
40 0.4
41 0.4
42 0.4
43 0.15
44 0.15
45 0.15
46 0.15
47 0.15
48 0.15
49 0.15
5 -0.68
6 -0.23
7 -0.57
8 -0.57
9 -0.36

> <PUBCHEM_EFFECTIVE_ROTOR_COUNT>
5

> <PUBCHEM_PHARMACOPHORE_FEATURES>
15
1 10 acceptor
1 2 acceptor
1 2 donor
1 3 acceptor
1 3 donor
1 4 acceptor
1 4 donor
1 5 acceptor
1 5 donor
1 7 acceptor
1 8 acceptor
1 9 acceptor
10 1 11 12 13 14 15 16 17 18 19 rings
6 23 26 27 29 30 31 rings
6 6 20 22 24 25 28 rings

> <PUBCHEM_HEAVY_ATOM_COUNT>
32

> <PUBCHEM_ATOM_DEF_STEREO_COUNT>
6

> <PUBCHEM_ATOM_UDEF_STEREO_COUNT>
1

> <PUBCHEM_BOND_DEF_STEREO_COUNT>
0

> <PUBCHEM_BOND_UDEF_STEREO_COUNT>
0

> <PUBCHEM_ISOTOPIC_ATOM_COUNT>
0

> <PUBCHEM_COMPONENT_COUNT>
1

> <PUBCHEM_CACTVS_TAUTO_COUNT>
2

> <PUBCHEM_CONFORMER_ID>
0001C1EE00000001

> <PUBCHEM_MMFF94_ENERGY>
136.7538

> <PUBCHEM_FEATURE_SELFOVERLAP>
76.161

> <PUBCHEM_SHAPE_FINGERPRINT>
10411042 1 17548698934221234343
10675989 125 17545320783908928937
10764073 3 17679857115948836110
10863032 1 18343021103227588006
10906281 52 18271823297729500073
10948715 1 18413109446296731975
11578080 2 17629237937210766731
12107183 9 18263636282625147490
12236239 1 18260827107414185425
12422481 6 18187639146407897791
12597179 24 17775571926929837823
12633257 1 18113609054759676346
12788726 201 18124311863953257794
12969540 114 15841552998021352766
13583140 156 17895486945561487505
13673619 4 16009869408578717850
13782708 43 15214130857376792386
14294032 229 18059303158158242603
14341114 328 18410573955461662001
14787075 74 18410008832470943401
14790565 3 18411421695880050249
15131766 46 17386853996582604316
15163728 17 18059030388135800609
15238133 3 18272644628620481624
15840311 113 17968096383231405389
16945 1 18202285839707367866
173720 79 18271233950342204626
17980427 23 18186809105956412357
1813 80 13840268087120425158
21756936 100 18201147836656557764
21781055 127 17631181797044553664
22182313 1 18058193720296777359
229495 10 17605811682186432533
22950370 63 9511454524846373697
23419403 2 17465932766468484223
23559900 14 17986684679260251230
25147074 1 18261381300309033434
2838139 119 18201430381001146745
3411729 13 18337112250466996497
3729539 64 15625678115271912332
4340502 62 18059852814480630771
44802255 64 17630339747331784276
469060 322 14129616761176667050
5104073 3 17895185671465946768
5171179 24 17414143935270965041
5486654 2 18273497871176429065

> <PUBCHEM_SHAPE_MULTIPOLES>
599.85
11.99
3.05
1.72
0.2
0.67
0.53
-10.78
-2.15
-0.75
0.51
1.29
0.7
-1.78

> <PUBCHEM_SHAPE_SELFOVERLAP>
1352.803

> <PUBCHEM_SHAPE_VOLUME>
308.9

> <PUBCHEM_COORDINATE_TYPE>
2
5
10

$$$$
