REMARK  Name = 115182
REMARK  8 active torsions:
REMARK  status: ('A' for Active; 'I' for Inactive)
REMARK    1  A    between atoms: C_3  and  O_21
REMARK    2  A    between atoms: C_4  and  O_23
REMARK    3  A    between atoms: C_5  and  C_14
REMARK    4  A    between atoms: C_6  and  O_25
REMARK    5  A    between atoms: C_7  and  C_30
REMARK    6  A    between atoms: C_8  and  O_27
REMARK    7  A    between atoms: C_16  and  O_19
REMARK    8  A    between atoms: C_30  and  C_31
REMARK                            x       y       z     vdW  Elec       q    Type
REMARK                         _______ _______ _______ _____ _____    ______ ____
ROOT
ATOM      1  O   UNL     1      -0.804  -2.566  -1.647  0.00  0.00    -0.448 OA
ATOM      2  O   UNL     1      -2.597  -3.123  -0.374  0.00  0.00    -0.247 OA
ATOM      3  C   UNL     1       0.375  -1.373   0.754  0.00  0.00    +0.133 C 
ATOM      4  C   UNL     1       0.053   0.389  -0.782  0.00  0.00    +0.135 C 
ATOM      5  C   UNL     1       0.829   0.090   0.521  0.00  0.00    +0.113 C 
ATOM      6  C   UNL     1      -1.153  -1.330   0.406  0.00  0.00    +0.209 C 
ATOM      7  C   UNL     1      -1.379  -0.002  -0.367  0.00  0.00    +0.127 C 
ATOM      8  C   UNL     1       0.559  -0.510  -1.948  0.00  0.00    +0.176 C 
ATOM      9  C   UNL     1       1.102  -2.310  -0.228  0.00  0.00    +0.077 C 
ATOM     10  C   UNL     1       0.541  -2.021  -1.614  0.00  0.00    +0.200 C 
ATOM     11  C   UNL     1      -1.592  -2.441  -0.540  0.00  0.00    +0.344 C 
ENDROOT
BRANCH   5  14
ATOM     12  O   UNL     1       3.072  -0.551   1.267  0.00  0.00    -0.425 OA
ATOM     13  O   UNL     1       5.120  -1.206   2.005  0.00  0.00    -0.244 OA
ATOM     14  C   UNL     1       2.307   0.326   0.459  0.00  0.00    +0.134 C 
ATOM     15  C   UNL     1       2.887   1.274  -0.287  0.00  0.00    +0.070 C 
ATOM     16  C   UNL     1       4.318   1.401  -0.263  0.00  0.00    +0.148 C 
ATOM     17  C   UNL     1       4.438  -0.458   1.313  0.00  0.00    +0.349 C 
ATOM     18  C   UNL     1       5.070   0.591   0.488  0.00  0.00    +0.119 C 
BRANCH  16  19
ATOM     19  O   UNL     1       4.883   2.388  -1.041  0.00  0.00    -0.471 OA
ATOM     20  C   UNL     1       6.292   2.387  -0.911  0.00  0.00    +0.252 C 
ENDBRANCH  16  19
ENDBRANCH   5  14
BRANCH   3  21
ATOM     21  O   UNL     1       0.629  -1.772   2.088  0.00  0.00    -0.383 OA
ATOM     22  H   UNL     1       0.167  -1.175   2.697  0.00  0.00    +0.210 HD
ENDBRANCH   3  21
BRANCH   4  23
ATOM     23  O   UNL     1       0.145   1.749  -1.173  0.00  0.00    -0.383 OA
ATOM     24  H   UNL     1      -0.168   2.315  -0.450  0.00  0.00    +0.210 HD
ENDBRANCH   4  23
BRANCH   6  25
ATOM     25  O   UNL     1      -1.966  -1.390   1.563  0.00  0.00    -0.374 OA
ATOM     26  H   UNL     1      -1.703  -0.689   2.179  0.00  0.00    +0.211 HD
ENDBRANCH   6  25
BRANCH   8  27
ATOM     27  O   UNL     1      -0.212  -0.294  -3.128  0.00  0.00    -0.379 OA
ATOM     28  H   UNL     1      -0.209   0.651  -3.348  0.00  0.00    +0.211 HD
ENDBRANCH   8  27
BRANCH   7  30
ATOM     29  O   UNL     1      -1.418   1.818   1.173  0.00  0.00    -0.291 OA
ATOM     30  C   UNL     1      -2.065   1.063   0.450  0.00  0.00    +0.178 C 
BRANCH  30  31
ATOM     31  C   UNL     1      -3.548   1.193   0.373  0.00  0.00    +0.035 C 
ATOM     32  C   UNL     1      -4.298   0.067   0.118  0.00  0.00    +0.003 C 
ATOM     33  C   UNL     1      -4.113   2.434   0.560  0.00  0.00    +0.003 C 
ATOM     34  C   UNL     1      -5.686   0.188   0.046  0.00  0.00    +0.000 C 
ATOM     35  C   UNL     1      -5.501   2.556   0.488  0.00  0.00    +0.000 C 
ATOM     36  C   UNL     1      -6.287   1.433   0.231  0.00  0.00    +0.000 C 
ENDBRANCH  30  31
ENDBRANCH   7  30
TORSDOF 8
