REMARK  Name = 115158
REMARK  12 active torsions:
REMARK  status: ('A' for Active; 'I' for Inactive)
REMARK    1  A    between atoms: C_1  and  O_7
REMARK    2  A    between atoms: C_2  and  C_23
REMARK    3  A    between atoms: O_7  and  C_13
REMARK    4  A    between atoms: C_9  and  O_14
REMARK    5  A    between atoms: C_10  and  O_16
REMARK    6  A    between atoms: C_11  and  O_18
REMARK    7  A    between atoms: C_12  and  C_20
REMARK    8  A    between atoms: C_20  and  O_21
REMARK    9  A    between atoms: C_23  and  O_24
REMARK   10  A    between atoms: O_24  and  C_26
REMARK   11  A    between atoms: C_26  and  C_28
REMARK   12  A    between atoms: C_28  and  O_34
REMARK                            x       y       z     vdW  Elec       q    Type
REMARK                         _______ _______ _______ _____ _____    ______ ____
ROOT
ATOM      1  C   UNL     1       2.185   1.893   0.558  0.00  0.00    +0.141 C 
ATOM      2  C   UNL     1       1.048   2.695   0.508  0.00  0.00    +0.055 C 
ATOM      3  C   UNL     1       3.356   2.290  -0.083  0.00  0.00    +0.037 C 
ATOM      4  C   UNL     1       1.083   3.904  -0.187  0.00  0.00    +0.002 C 
ATOM      5  C   UNL     1       3.390   3.499  -0.778  0.00  0.00    +0.003 C 
ATOM      6  C   UNL     1       2.253   4.306  -0.830  0.00  0.00    -0.000 C 
ENDROOT
BRANCH   1   7
ATOM      7  O   UNL     1       2.170   0.705   1.235  0.00  0.00    -0.451 OA
BRANCH   7  13
ATOM      8  O   UNL     1       1.489  -0.596  -0.579  0.00  0.00    -0.316 OA
ATOM      9  C   UNL     1       2.504  -2.987   0.647  0.00  0.00    +0.173 C 
ATOM     10  C   UNL     1       1.575  -3.019  -0.567  0.00  0.00    +0.169 C 
ATOM     11  C   UNL     1       2.369  -1.672   1.413  0.00  0.00    +0.210 C 
ATOM     12  C   UNL     1       1.725  -1.742  -1.399  0.00  0.00    +0.177 C 
ATOM     13  C   UNL     1       2.445  -0.470   0.472  0.00  0.00    +0.318 C 
BRANCH   9  14
ATOM     14  O   UNL     1       2.150  -4.075   1.502  0.00  0.00    -0.379 OA
ATOM     15  H   UNL     1       2.235  -4.910   1.017  0.00  0.00    +0.211 HD
ENDBRANCH   9  14
BRANCH  10  16
ATOM     16  O   UNL     1       1.895  -4.148  -1.376  0.00  0.00    -0.379 OA
ATOM     17  H   UNL     1       1.800  -4.958  -0.851  0.00  0.00    +0.211 HD
ENDBRANCH  10  16
BRANCH  11  18
ATOM     18  O   UNL     1       3.431  -1.565   2.361  0.00  0.00    -0.377 OA
ATOM     19  H   UNL     1       3.399  -2.320   2.969  0.00  0.00    +0.211 HD
ENDBRANCH  11  18
BRANCH  12  20
ATOM     20  C   UNL     1       0.725  -1.698  -2.550  0.00  0.00    +0.169 C 
BRANCH  20  21
ATOM     21  O   UNL     1       0.914  -0.490  -3.265  0.00  0.00    -0.379 OA
ATOM     22  H   UNL     1       0.284  -0.448  -4.001  0.00  0.00    +0.211 HD
ENDBRANCH  20  21
ENDBRANCH  12  20
ENDBRANCH   7  13
ENDBRANCH   1   7
BRANCH   2  23
ATOM     23  C   UNL     1      -0.213   2.281   1.191  0.00  0.00    +0.238 C 
BRANCH  23  24
ATOM     24  O   UNL     1      -1.008   1.520   0.290  0.00  0.00    -0.441 OA
BRANCH  24  26
ATOM     25  O   UNL     1      -2.634   1.264   1.911  0.00  0.00    -0.247 OA
ATOM     26  C   UNL     1      -2.201   1.070   0.783  0.00  0.00    +0.353 C 
BRANCH  26  28
ATOM     27  O   UNL     1      -5.075   1.247  -0.830  0.00  0.00    -0.293 OA
ATOM     28  C   UNL     1      -2.927   0.289  -0.271  0.00  0.00    +0.247 C 
ATOM     29  C   UNL     1      -5.135  -0.478   0.830  0.00  0.00    +0.073 C 
ATOM     30  C   UNL     1      -4.445   0.417  -0.175  0.00  0.00    +0.189 C 
ATOM     31  C   UNL     1      -4.761  -1.936   0.586  0.00  0.00    +0.034 C 
ATOM     32  C   UNL     1      -2.498  -1.139  -0.124  0.00  0.00    +0.013 C 
ATOM     33  C   UNL     1      -3.314  -2.134   0.253  0.00  0.00    -0.027 C 
BRANCH  28  34
ATOM     34  O   UNL     1      -2.497   0.769  -1.528  0.00  0.00    -0.368 OA
ATOM     35  H   UNL     1      -2.951   0.280  -2.233  0.00  0.00    +0.212 HD
ENDBRANCH  28  34
ENDBRANCH  26  28
ENDBRANCH  24  26
ENDBRANCH  23  24
ENDBRANCH   2  23
TORSDOF 12
