REMARK  Name = 11522049
REMARK  4 active torsions:
REMARK  status: ('A' for Active; 'I' for Inactive)
REMARK    1  A    between atoms: C_5  and  O_17
REMARK    2  A    between atoms: CA_7  and  C_14
REMARK    3  A    between atoms: C_14  and  O_15
REMARK    4  A    between atoms: O_17  and  S_18
REMARK                            x       y       z     vdW  Elec       q    Type
REMARK                         _______ _______ _______ _____ _____    ______ ____
ROOT
ATOM      1  O   UNL     1      -2.961   2.451  -0.561  0.00  0.00    -0.286 OA
ATOM      2  N   UNL     1      -0.584  -0.704   0.330  0.00  0.00    -0.305 N 
ATOM      3  C   UNL     1       0.006   0.566   0.290  0.00  0.00    +0.089 C 
ATOM      4  C   UNL     1      -0.779   1.694  -0.014  0.00  0.00    +0.055 C 
ATOM      5  C   UNL     1       1.369   0.739   0.550  0.00  0.00    +0.189 C 
ATOM      6  C   UNL     1      -2.230   1.507  -0.290  0.00  0.00    +0.198 C 
ATOM      7  CA  UNL     1      -1.919  -0.871   0.075  0.00  0.00    +0.128 C 
ATOM      8  C   UNL     1      -0.212   2.970  -0.058  0.00  0.00    +0.005 C 
ATOM      9  C   UNL     1       1.937   2.014   0.506  0.00  0.00    +0.041 C 
ATOM     10  C   UNL     1      -2.769   0.120  -0.227  0.00  0.00    +0.063 C 
ATOM     11  C   UNL     1       1.149   3.125   0.204  0.00  0.00    +0.003 C 
ATOM     12  H   UNL     1      -0.030  -1.488   0.544  0.00  0.00    +0.152 HD
ENDROOT
BRANCH   7  14
ATOM     13  OXT UNL     1      -3.634  -2.510  -0.070  0.00  0.00    -0.244 OA
ATOM     14  C   UNL     1      -2.467  -2.228   0.134  0.00  0.00    +0.352 C 
BRANCH  14  15
ATOM     15  O   UNL     1      -1.486  -3.099   0.448  0.00  0.00    -0.476 OA
ATOM     16  H   UNL     1      -0.613  -2.790   0.588  0.00  0.00    +0.295 HD
ENDBRANCH  14  15
ENDBRANCH   7  14
BRANCH   5  17
ATOM     17  O   UNL     1       2.161  -0.329   0.850  0.00  0.00    -0.321 OA
BRANCH  17  18
ATOM     18  S   UNL     1       2.913  -1.129  -0.374  0.00  0.00    +0.282 S 
ATOM     19  O   UNL     1       3.629  -2.395   0.367  0.00  0.00    -0.012 OA
ATOM     20  O   UNL     1       1.910  -1.653  -1.283  0.00  0.00    -0.105 OA
ATOM     21  O   UNL     1       3.968  -0.268  -0.877  0.00  0.00    -0.105 OA
ENDBRANCH  17  18
ENDBRANCH   5  17
TORSDOF 4
