REMARK  Name = 115262
REMARK  10 active torsions:
REMARK  status: ('A' for Active; 'I' for Inactive)
REMARK    1  A    between atoms: N_2  and  CA_15
REMARK    2  A    between atoms: C_3  and  C_5
REMARK    3  A    between atoms: C_6  and  C_12
REMARK    4  A    between atoms: C_12  and  O_13
REMARK    5  A    between atoms: CA_15  and  C_17
REMARK    6  A    between atoms: CA_15  and  CB_20
REMARK    7  A    between atoms: C_17  and  O_18
REMARK    8  A    between atoms: CB_20  and  CG_21
REMARK    9  A    between atoms: CG_21  and  CD_23
REMARK   10  A    between atoms: CD_23  and  OE1_24
REMARK                            x       y       z     vdW  Elec       q    Type
REMARK                         _______ _______ _______ _____ _____    ______ ____
ROOT
ATOM      1  O   UNK A   0      -0.748   0.843   2.142  0.00  0.00    -0.270 OA
ATOM      2  N   GLU A   1       0.212   1.120   0.049  0.00  0.00    -0.293 N 
ATOM      3  C   UNK A   0      -0.834   0.836   0.917  0.00  0.00    +0.246 C 
ATOM      4  H   GLU A   1       0.044   1.088  -0.921  0.00  0.00    +0.150 HD
ENDROOT
BRANCH   3   5
ATOM      5  C   UNK A   0      -2.128   0.478   0.281  0.00  0.00    +0.060 C 
ATOM      6  C   UNK A   0      -2.419  -0.839  -0.011  0.00  0.00    +0.080 C 
ATOM      7  C   UNK A   0      -3.011   1.503   0.003  0.00  0.00    +0.005 C 
ATOM      8  C   UNK A   0      -3.643  -1.145  -0.607  0.00  0.00    +0.007 C 
ATOM      9  C   UNK A   0      -4.234   1.198  -0.593  0.00  0.00    +0.000 C 
ATOM     10  C   UNK A   0      -4.550  -0.126  -0.898  0.00  0.00    +0.000 C 
BRANCH   6  12
ATOM     11  O   UNK A   0      -0.678  -1.938   1.208  0.00  0.00    -0.245 OA
ATOM     12  C   UNK A   0      -1.492  -1.925   0.281  0.00  0.00    +0.338 C 
BRANCH  12  13
ATOM     13  O   UNK A   0      -1.615  -2.959  -0.594  0.00  0.00    -0.477 OA
ATOM     14  H   UNK A   0      -2.244  -2.915  -1.287  0.00  0.00    +0.295 HD
ENDBRANCH  12  13
ENDBRANCH   6  12
ENDBRANCH   3   5
BRANCH   2  15
ATOM     15  CA  GLU A   1       1.534   1.459   0.512  0.00  0.00    +0.172 C 
BRANCH  15  17
ATOM     16  OXT GLU A   1       1.592   2.824  -1.504  0.00  0.00    -0.248 OA
ATOM     17  C   GLU A   1       2.110   2.477  -0.451  0.00  0.00    +0.332 C 
BRANCH  17  18
ATOM     18  O   GLU A   1       3.273   3.008   0.009  0.00  0.00    -0.479 OA
ATOM     19  H   GLU A   1       3.634   2.713   0.821  0.00  0.00    +0.295 HD
ENDBRANCH  17  18
ENDBRANCH  15  17
BRANCH  15  20
ATOM     20  CB  GLU A   1       2.424   0.228   0.716  0.00  0.00    +0.043 C 
BRANCH  20  21
ATOM     21  CG  GLU A   1       2.717  -0.601  -0.541  0.00  0.00    +0.112 C 
BRANCH  21  23
ATOM     22  OE2 GLU A   1       4.036  -2.147   0.803  0.00  0.00    -0.250 OA
ATOM     23  CD  GLU A   1       3.589  -1.811  -0.285  0.00  0.00    +0.314 C 
BRANCH  23  24
ATOM     24  OE1 GLU A   1       3.864  -2.482  -1.435  0.00  0.00    -0.480 OA
ATOM     25  HE1 GLU A   1       3.500  -2.189  -2.247  0.00  0.00    +0.295 HD
ENDBRANCH  23  24
ENDBRANCH  21  23
ENDBRANCH  20  21
ENDBRANCH  15  20
ENDBRANCH   2  15
TORSDOF 10
