REMARK  Name = 115255
REMARK  7 active torsions:
REMARK  status: ('A' for Active; 'I' for Inactive)
REMARK    1  A    between atoms: C_19  and  O_20
REMARK    2  A    between atoms: O_20  and  C_22
REMARK    3  A    between atoms: C_23  and  O_27
REMARK    4  A    between atoms: C_24  and  O_29
REMARK    5  A    between atoms: C_25  and  O_31
REMARK    6  A    between atoms: C_26  and  C_34
REMARK    7  A    between atoms: C_34  and  O_35
REMARK                            x       y       z     vdW  Elec       q    Type
REMARK                         _______ _______ _______ _____ _____    ______ ____
ROOT
ATOM      1  O   UNL     1       7.727  -1.951   0.812  0.00  0.00    -0.296 OA
ATOM      2  C   UNL     1       5.287   0.461   0.266  0.00  0.00    +0.007 C 
ATOM      3  C   UNL     1       5.640  -1.015  -0.016  0.00  0.00    +0.052 C 
ATOM      4  C   UNL     1       3.885   0.800  -0.239  0.00  0.00    +0.005 C 
ATOM      5  C   UNL     1       2.859  -0.073   0.547  0.00  0.00    +0.022 C 
ATOM      6  C   UNL     1       4.696  -1.887   0.804  0.00  0.00    +0.007 C 
ATOM      7  C   UNL     1       6.494   1.238  -0.244  0.00  0.00    +0.008 C 
ATOM      8  C   UNL     1       3.222  -1.581   0.472  0.00  0.00    +0.005 C 
ATOM      9  C   UNL     1       3.528   2.276  -0.054  0.00  0.00    +0.005 C 
ATOM     10  C   UNL     1       7.092  -0.979   0.425  0.00  0.00    +0.150 C 
ATOM     11  C   UNL     1       7.677   0.417   0.292  0.00  0.00    +0.064 C 
ATOM     12  C   UNL     1       5.642  -1.439  -1.497  0.00  0.00    +0.007 C 
ATOM     13  C   UNL     1       1.425   0.269   0.152  0.00  0.00    -0.026 C 
ATOM     14  C   UNL     1       2.175   2.565  -0.697  0.00  0.00    +0.026 C 
ATOM     15  C   UNL     1       1.115   1.534  -0.393  0.00  0.00    -0.023 C 
ATOM     16  C   UNL     1       0.368  -0.625   0.399  0.00  0.00    -0.001 C 
ATOM     17  C   UNL     1      -0.216   1.849  -0.720  0.00  0.00    +0.032 C 
ATOM     18  C   UNL     1      -0.950  -0.297   0.077  0.00  0.00    +0.037 C 
ATOM     19  C   UNL     1      -1.242   0.938  -0.486  0.00  0.00    +0.141 C 
ENDROOT
BRANCH  19  20
ATOM     20  O   UNL     1      -2.526   1.259  -0.803  0.00  0.00    -0.451 OA
BRANCH  20  22
ATOM     21  O   UNL     1      -3.948  -0.576  -0.566  0.00  0.00    -0.307 OA
ATOM     22  C   UNL     1      -3.557   0.676  -0.007  0.00  0.00    +0.318 C 
ATOM     23  C   UNL     1      -4.741   1.643   0.012  0.00  0.00    +0.210 C 
ATOM     24  C   UNL     1      -5.943   1.032   0.734  0.00  0.00    +0.173 C 
ATOM     25  C   UNL     1      -6.236  -0.382   0.231  0.00  0.00    +0.178 C 
ATOM     26  C   UNL     1      -4.962  -1.218   0.198  0.00  0.00    +0.246 C 
BRANCH  23  27
ATOM     27  O   UNL     1      -4.337   2.832   0.690  0.00  0.00    -0.377 OA
ATOM     28  H   UNL     1      -3.575   3.221   0.234  0.00  0.00    +0.211 HD
ENDBRANCH  23  27
BRANCH  24  29
ATOM     29  O   UNL     1      -7.101   1.834   0.495  0.00  0.00    -0.379 OA
ATOM     30  H   UNL     1      -6.938   2.738   0.806  0.00  0.00    +0.211 HD
ENDBRANCH  24  29
BRANCH  25  31
ATOM     31  O   UNL     1      -7.170  -1.006   1.111  0.00  0.00    -0.379 OA
ATOM     32  H   UNL     1      -7.986  -0.482   1.140  0.00  0.00    +0.211 HD
ENDBRANCH  25  31
BRANCH  26  34
ATOM     33  O   UNL     1      -4.624  -2.823  -1.572  0.00  0.00    -0.247 OA
ATOM     34  C   UNL     1      -5.183  -2.502  -0.534  0.00  0.00    +0.344 C 
BRANCH  34  35
ATOM     35  O   UNL     1      -6.096  -3.269   0.111  0.00  0.00    -0.478 OA
ATOM     36  H   UNL     1      -6.488  -2.963   0.905  0.00  0.00    +0.295 HD
ENDBRANCH  34  35
ENDBRANCH  26  34
ENDBRANCH  20  22
ENDBRANCH  19  20
TORSDOF 7
