115255
  -OEChem-03292013323D

 62 66  0     1  0  0  0  0  0999 V2000
    7.7272   -1.9510    0.8123 O   0  0  0  0  0  0  0  0  0  0  0  0
   -2.5259    1.2587   -0.8029 O   0  0  0  0  0  0  0  0  0  0  0  0
   -3.9477   -0.5756   -0.5663 O   0  0  0  0  0  0  0  0  0  0  0  0
   -4.3371    2.8322    0.6899 O   0  0  0  0  0  0  0  0  0  0  0  0
   -7.1008    1.8337    0.4946 O   0  0  0  0  0  0  0  0  0  0  0  0
   -7.1697   -1.0060    1.1105 O   0  0  0  0  0  0  0  0  0  0  0  0
   -6.0955   -3.2692    0.1106 O   0  0  0  0  0  0  0  0  0  0  0  0
   -4.6239   -2.8232   -1.5721 O   0  0  0  0  0  0  0  0  0  0  0  0
    5.2865    0.4605    0.2664 C   0  0  2  0  0  0  0  0  0  0  0  0
    5.6402   -1.0146   -0.0162 C   0  0  2  0  0  0  0  0  0  0  0  0
    3.8855    0.8001   -0.2391 C   0  0  1  0  0  0  0  0  0  0  0  0
    2.8587   -0.0727    0.5474 C   0  0  2  0  0  0  0  0  0  0  0  0
    4.6958   -1.8867    0.8040 C   0  0  0  0  0  0  0  0  0  0  0  0
    6.4942    1.2380   -0.2445 C   0  0  0  0  0  0  0  0  0  0  0  0
    3.2219   -1.5815    0.4720 C   0  0  0  0  0  0  0  0  0  0  0  0
    3.5280    2.2755   -0.0537 C   0  0  0  0  0  0  0  0  0  0  0  0
    7.0922   -0.9792    0.4246 C   0  0  0  0  0  0  0  0  0  0  0  0
    7.6766    0.4172    0.2923 C   0  0  0  0  0  0  0  0  0  0  0  0
    5.6418   -1.4389   -1.4967 C   0  0  0  0  0  0  0  0  0  0  0  0
    1.4250    0.2691    0.1516 C   0  0  0  0  0  0  0  0  0  0  0  0
    2.1746    2.5653   -0.6966 C   0  0  0  0  0  0  0  0  0  0  0  0
    1.1147    1.5345   -0.3931 C   0  0  0  0  0  0  0  0  0  0  0  0
    0.3685   -0.6254    0.3992 C   0  0  0  0  0  0  0  0  0  0  0  0
   -0.2163    1.8492   -0.7196 C   0  0  0  0  0  0  0  0  0  0  0  0
   -0.9502   -0.2969    0.0775 C   0  0  0  0  0  0  0  0  0  0  0  0
   -1.2425    0.9384   -0.4859 C   0  0  0  0  0  0  0  0  0  0  0  0
   -3.5571    0.6759   -0.0070 C   0  0  2  0  0  0  0  0  0  0  0  0
   -4.7414    1.6427    0.0121 C   0  0  1  0  0  0  0  0  0  0  0  0
   -5.9432    1.0319    0.7335 C   0  0  2  0  0  0  0  0  0  0  0  0
   -6.2355   -0.3824    0.2310 C   0  0  1  0  0  0  0  0  0  0  0  0
   -4.9618   -1.2178    0.1980 C   0  0  1  0  0  0  0  0  0  0  0  0
   -5.1828   -2.5019   -0.5338 C   0  0  0  0  0  0  0  0  0  0  0  0
    5.2770    0.6186    1.3590 H   0  0  0  0  0  0  0  0  0  0  0  0
    3.8166    0.5757   -1.3114 H   0  0  0  0  0  0  0  0  0  0  0  0
    2.9324    0.2065    1.6101 H   0  0  0  0  0  0  0  0  0  0  0  0
    4.8646   -1.7203    1.8761 H   0  0  0  0  0  0  0  0  0  0  0  0
    4.8997   -2.9504    0.6304 H   0  0  0  0  0  0  0  0  0  0  0  0
    6.5263    2.2640    0.1350 H   0  0  0  0  0  0  0  0  0  0  0  0
    6.5118    1.2864   -1.3385 H   0  0  0  0  0  0  0  0  0  0  0  0
    2.9816   -1.9677   -0.5263 H   0  0  0  0  0  0  0  0  0  0  0  0
    2.6082   -2.1540    1.1772 H   0  0  0  0  0  0  0  0  0  0  0  0
    4.2813    2.9273   -0.5098 H   0  0  0  0  0  0  0  0  0  0  0  0
    3.4950    2.5236    1.0150 H   0  0  0  0  0  0  0  0  0  0  0  0
    7.9817    0.7676    1.2824 H   0  0  0  0  0  0  0  0  0  0  0  0
    8.5199    0.4257   -0.4014 H   0  0  0  0  0  0  0  0  0  0  0  0
    4.6575   -1.3533   -1.9644 H   0  0  0  0  0  0  0  0  0  0  0  0
    6.3443   -0.8531   -2.0990 H   0  0  0  0  0  0  0  0  0  0  0  0
    5.9554   -2.4860   -1.5896 H   0  0  0  0  0  0  0  0  0  0  0  0
    2.2994    2.6070   -1.7863 H   0  0  0  0  0  0  0  0  0  0  0  0
    1.8355    3.5548   -0.3667 H   0  0  0  0  0  0  0  0  0  0  0  0
    0.5490   -1.5964    0.8504 H   0  0  0  0  0  0  0  0  0  0  0  0
   -0.4513    2.8164   -1.1592 H   0  0  0  0  0  0  0  0  0  0  0  0
   -1.7032   -1.0520    0.2745 H   0  0  0  0  0  0  0  0  0  0  0  0
   -3.2085    0.5378    1.0277 H   0  0  0  0  0  0  0  0  0  0  0  0
   -5.0183    1.9363   -1.0073 H   0  0  0  0  0  0  0  0  0  0  0  0
   -5.7899    1.0261    1.8197 H   0  0  0  0  0  0  0  0  0  0  0  0
   -6.7022   -0.3275   -0.7611 H   0  0  0  0  0  0  0  0  0  0  0  0
   -4.5790   -1.4559    1.1982 H   0  0  0  0  0  0  0  0  0  0  0  0
   -4.0939    2.5931    1.6006 H   0  0  0  0  0  0  0  0  0  0  0  0
   -6.8952    2.7358    0.7940 H   0  0  0  0  0  0  0  0  0  0  0  0
   -7.4436   -1.8466    0.7067 H   0  0  0  0  0  0  0  0  0  0  0  0
   -6.2565   -4.1170   -0.3559 H   0  0  0  0  0  0  0  0  0  0  0  0
  1 17  2  0  0  0  0
  2 26  1  0  0  0  0
  2 27  1  0  0  0  0
  3 27  1  0  0  0  0
  3 31  1  0  0  0  0
  4 28  1  0  0  0  0
  4 59  1  0  0  0  0
  5 29  1  0  0  0  0
  5 60  1  0  0  0  0
  6 30  1  0  0  0  0
  6 61  1  0  0  0  0
  7 32  1  0  0  0  0
  7 62  1  0  0  0  0
  8 32  2  0  0  0  0
  9 10  1  0  0  0  0
  9 11  1  0  0  0  0
  9 14  1  0  0  0  0
  9 33  1  0  0  0  0
 10 13  1  0  0  0  0
 10 17  1  0  0  0  0
 10 19  1  0  0  0  0
 11 12  1  0  0  0  0
 11 16  1  0  0  0  0
 11 34  1  0  0  0  0
 12 15  1  0  0  0  0
 12 20  1  0  0  0  0
 12 35  1  0  0  0  0
 13 15  1  0  0  0  0
 13 36  1  0  0  0  0
 13 37  1  0  0  0  0
 14 18  1  0  0  0  0
 14 38  1  0  0  0  0
 14 39  1  0  0  0  0
 15 40  1  0  0  0  0
 15 41  1  0  0  0  0
 16 21  1  0  0  0  0
 16 42  1  0  0  0  0
 16 43  1  0  0  0  0
 17 18  1  0  0  0  0
 18 44  1  0  0  0  0
 18 45  1  0  0  0  0
 19 46  1  0  0  0  0
 19 47  1  0  0  0  0
 19 48  1  0  0  0  0
 20 22  2  0  0  0  0
 20 23  1  0  0  0  0
 21 22  1  0  0  0  0
 21 49  1  0  0  0  0
 21 50  1  0  0  0  0
 22 24  1  0  0  0  0
 23 25  2  0  0  0  0
 23 51  1  0  0  0  0
 24 26  2  0  0  0  0
 24 52  1  0  0  0  0
 25 26  1  0  0  0  0
 25 53  1  0  0  0  0
 27 28  1  0  0  0  0
 27 54  1  0  0  0  0
 28 29  1  0  0  0  0
 28 55  1  0  0  0  0
 29 30  1  0  0  0  0
 29 56  1  0  0  0  0
 30 31  1  0  0  0  0
 30 57  1  0  0  0  0
 31 32  1  0  0  0  0
 31 58  1  0  0  0  0
M  END
> <PUBCHEM_COMPOUND_CID>
115255

> <PUBCHEM_CONFORMER_RMSD>
0.8

> <PUBCHEM_CONFORMER_DIVERSEORDER>
2
4
12
26
27
58
54
39
52
6
19
35
40
31
5
16
59
23
29
7
14
50
33
45
32
57
44
53
47
56
20
28
10
42
51
21
49
41
3
1
9
13
25
46
30
48
37
38
22
55
24
11
15
43
34
36
18
8
17

> <PUBCHEM_MMFF94_PARTIAL_CHARGES>
32
1 -0.57
10 0.06
12 0.14
17 0.45
18 0.06
2 -0.36
20 -0.14
21 0.14
22 -0.14
23 -0.15
24 -0.15
25 -0.15
26 0.08
27 0.56
28 0.28
29 0.28
3 -0.56
30 0.28
31 0.34
32 0.66
4 -0.68
5 -0.68
51 0.15
52 0.15
53 0.15
59 0.4
6 -0.68
60 0.4
61 0.4
62 0.5
7 -0.65
8 -0.57

> <PUBCHEM_EFFECTIVE_ROTOR_COUNT>
5.4

> <PUBCHEM_PHARMACOPHORE_FEATURES>
17
1 1 acceptor
1 2 acceptor
1 3 acceptor
1 4 acceptor
1 4 donor
1 5 acceptor
1 5 donor
1 6 acceptor
1 6 donor
1 7 acceptor
1 8 acceptor
3 7 8 32 anion
5 9 10 14 17 18 rings
6 11 12 16 20 21 22 rings
6 20 22 23 24 25 26 rings
6 3 27 28 29 30 31 rings
6 9 10 11 12 13 15 rings

> <PUBCHEM_HEAVY_ATOM_COUNT>
32

> <PUBCHEM_ATOM_DEF_STEREO_COUNT>
9

> <PUBCHEM_ATOM_UDEF_STEREO_COUNT>
0

> <PUBCHEM_BOND_DEF_STEREO_COUNT>
0

> <PUBCHEM_BOND_UDEF_STEREO_COUNT>
0

> <PUBCHEM_ISOTOPIC_ATOM_COUNT>
0

> <PUBCHEM_COMPONENT_COUNT>
1

> <PUBCHEM_CACTVS_TAUTO_COUNT>
2

> <PUBCHEM_CONFORMER_ID>
0001C23700000002

> <PUBCHEM_MMFF94_ENERGY>
101.2395

> <PUBCHEM_FEATURE_SELFOVERLAP>
86.508

> <PUBCHEM_SHAPE_FINGERPRINT>
100830 39 18339079290024008281
10299344 5 18408042909484537666
10319926 262 18201992231811939481
10580692 12 18412826897530971361
11135926 11 18261101938087642719
11315181 36 18409730664972465265
11524674 6 17132112446878961327
117089 54 17900548088565294907
11963148 33 18262509313441090826
11991303 11 14779557823797874234
12107183 9 18338803304352891369
12166972 35 18411420648082123144
12236239 1 18342458149063478392
12422481 6 17846500348200826927
12516196 113 18409729552296445112
13685833 64 18334013878703969160
13690498 29 17822004268674396469
13782708 43 16950834800924050970
14251764 18 18411138039106932228
14849402 71 18337677528684115136
14856354 85 18273217504300988741
14933364 13 18411983541994792776
15021287 119 18114186345577601061
15183329 4 18260821605265907330
15352257 5 18408885144124085218
15361156 5 17967542276468102941
15728490 51 18412543241259065364
17780758 139 18342457037394734577
18608769 82 18409726257892842992
20028762 73 18411980273947121878
21130935 74 18412822470163325666
21236236 1 18410291428439366699
21267235 1 18335422306360632780
23516275 137 18196674920197293242
23522609 53 18117025254509991348
23559900 14 18187925152607131209
23569943 247 17751634352165989450
24771293 8 18336540629798290756
249057 3 18409729539643703845
335507 130 18410579517164371582
3383291 50 17968381259748888539
350125 39 18410011030919263577
397830 11 17345738828370725218
4073 2 18114187470642566730
4093350 32 17275106168040123364
504579 68 18335691759328451463
5104073 3 18272367598512883665
563151 97 9871477500054838101
68570916 9 18337955692055781356
9555976 147 18060151937752852417
9831232 110 18199194997417760734
99344 41 18413107234304451262
9996256 80 18409166618942475396
999808 66 17822021925859768483

> <PUBCHEM_SHAPE_MULTIPOLES>
611.59
23.03
2.95
0.95
2.31
0.56
-0.17
8.14
3.41
2.74
-0.36
0.04
0.27
-1.43

> <PUBCHEM_SHAPE_SELFOVERLAP>
1331.643

> <PUBCHEM_SHAPE_VOLUME>
329.4

> <PUBCHEM_COORDINATE_TYPE>
2
5
10

$$$$
