REMARK  Name = 11536283
REMARK  6 active torsions:
REMARK  status: ('A' for Active; 'I' for Inactive)
REMARK    1  A    between atoms: C_5  and  C_24
REMARK    2  A    between atoms: C_6  and  O_16
REMARK    3  A    between atoms: C_7  and  O_18
REMARK    4  A    between atoms: C_8  and  O_20
REMARK    5  A    between atoms: C_9  and  O_22
REMARK    6  A    between atoms: C_11  and  N_13
REMARK                            x       y       z     vdW  Elec       q    Type
REMARK                         _______ _______ _______ _____ _____    ______ ____
ROOT
ATOM      1  O   UNL     1      -1.112   2.768   0.233  0.00  0.00    -0.283 OA
ATOM      2  O   UNL     1      -3.525   1.813  -0.300  0.00  0.00    -0.282 OA
ATOM      3  C   UNL     1      -0.101   0.628   0.134  0.00  0.00    +0.082 A 
ATOM      4  C   UNL     1      -0.345  -0.753   0.066  0.00  0.00    +0.078 A 
ATOM      5  C   UNL     1       2.287   0.276   0.208  0.00  0.00    +0.048 A 
ATOM      6  C   UNL     1       1.199   1.143   0.213  0.00  0.00    +0.136 A 
ATOM      7  C   UNL     1       0.773  -1.604   0.044  0.00  0.00    +0.170 A 
ATOM      8  C   UNL     1       2.075  -1.095   0.118  0.00  0.00    +0.166 A 
ATOM      9  C   UNL     1      -1.735  -1.258   0.003  0.00  0.00    +0.153 C 
ATOM     10  C   UNL     1      -1.237   1.561   0.099  0.00  0.00    +0.239 C 
ATOM     11  C   UNL     1      -2.809  -0.457  -0.105  0.00  0.00    +0.118 C 
ATOM     12  C   UNL     1      -2.614   1.015  -0.125  0.00  0.00    +0.250 C 
ENDROOT
BRANCH  11  13
ATOM     13  N   UNL     1      -4.105  -0.882  -0.186  0.00  0.00    -0.352 N 
ATOM     14  H   UNL     1      -4.308  -1.845  -0.179  0.00  0.00    +0.143 HD
ATOM     15  H   UNL     1      -4.835  -0.225  -0.252  0.00  0.00    +0.143 HD
ENDBRANCH  11  13
BRANCH   6  16
ATOM     16  O   UNL     1       1.442   2.484   0.283  0.00  0.00    -0.506 OA
ATOM     17  H   UNL     1       0.727   3.090   0.287  0.00  0.00    +0.292 HD
ENDBRANCH   6  16
BRANCH   7  18
ATOM     18  O   UNL     1       0.648  -2.963  -0.052  0.00  0.00    -0.503 OA
ATOM     19  H   UNL     1      -0.203  -3.352  -0.105  0.00  0.00    +0.292 HD
ENDBRANCH   7  18
BRANCH   8  20
ATOM     20  O   UNL     1       3.139  -1.950   0.100  0.00  0.00    -0.503 OA
ATOM     21  H   UNL     1       4.012  -1.612   0.149  0.00  0.00    +0.292 HD
ENDBRANCH   8  20
BRANCH   9  22
ATOM     22  O   UNL     1      -1.931  -2.630   0.069  0.00  0.00    -0.504 OA
ATOM     23  H   UNL     1      -1.195  -3.205   0.144  0.00  0.00    +0.292 HD
ENDBRANCH   9  22
BRANCH   5  24
ATOM     24  C   UNL     1       3.680   0.813   0.289  0.00  0.00    +0.033 C 
ATOM     25  C   UNL     1       4.271   1.093  -1.089  0.00  0.00    +0.005 C 
ENDBRANCH   5  24
TORSDOF 6
