REMARK  Name = 115369
REMARK  6 active torsions:
REMARK  status: ('A' for Active; 'I' for Inactive)
REMARK    1  A    between atoms: C_15  and  C_19
REMARK    2  A    between atoms: C_16  and  C_35
REMARK    3  A    between atoms: C_23  and  O_28
REMARK    4  A    between atoms: C_25  and  O_30
REMARK    5  A    between atoms: C_26  and  O_32
REMARK    6  A    between atoms: C_35  and  O_36
REMARK                            x       y       z     vdW  Elec       q    Type
REMARK                         _______ _______ _______ _____ _____    ______ ____
ROOT
ATOM      1  O   UNL     1      -4.535   3.116   0.645  0.00  0.00    -0.285 OA
ATOM      2  O   UNL     1       0.364   2.788   0.371  0.00  0.00    -0.268 OA
ATOM      3  N   UNL     1      -0.445   0.614   0.145  0.00  0.00    -0.257 N 
ATOM      4  N   UNL     1      -5.935   0.556  -0.056  0.00  0.00    -0.305 N 
ATOM      5  C   UNL     1      -2.501  -0.481   0.516  0.00  0.00    +0.053 C 
ATOM      6  C   UNL     1      -1.505  -1.522   0.150  0.00  0.00    +0.030 C 
ATOM      7  C   UNL     1      -2.050  -1.490   1.549  0.00  0.00    +0.012 C 
ATOM      8  C   UNL     1      -0.204  -0.833  -0.138  0.00  0.00    +0.099 C 
ATOM      9  C   UNL     1      -1.806   0.831   0.408  0.00  0.00    +0.038 C 
ATOM     10  C   UNL     1      -3.983  -0.434   0.173  0.00  0.00    +0.000 C 
ATOM     11  C   UNL     1      -4.612   0.789   0.214  0.00  0.00    +0.084 C 
ATOM     12  C   UNL     1      -2.440   2.019   0.462  0.00  0.00    +0.054 C 
ATOM     13  C   UNL     1      -4.910  -1.433  -0.150  0.00  0.00    +0.019 C 
ATOM     14  C   UNL     1      -3.950   2.050   0.474  0.00  0.00    +0.210 C 
ATOM     15  C   UNL     1       0.561   1.596   0.140  0.00  0.00    +0.266 C 
ATOM     16  C   UNL     1      -6.123  -0.788  -0.291  0.00  0.00    +0.125 C 
ATOM     17  H   UNL     1      -6.641   1.242  -0.078  0.00  0.00    +0.152 HD
ENDROOT
BRANCH  15  19
ATOM     18  N   UNL     1       2.776   0.719   0.858  0.00  0.00    -0.307 N 
ATOM     19  C   UNL     1       1.917   1.122  -0.123  0.00  0.00    +0.103 C 
ATOM     20  C   UNL     1       2.550   0.998  -1.332  0.00  0.00    +0.021 C 
ATOM     21  C   UNL     1       3.973   0.329   0.301  0.00  0.00    +0.086 C 
ATOM     22  C   UNL     1       3.857   0.494  -1.080  0.00  0.00    +0.021 C 
ATOM     23  C   UNL     1       5.138  -0.154   0.909  0.00  0.00    +0.189 C 
ATOM     24  C   UNL     1       4.956   0.163  -1.898  0.00  0.00    +0.042 C 
ATOM     25  C   UNL     1       6.215  -0.476   0.078  0.00  0.00    +0.207 C 
ATOM     26  C   UNL     1       6.128  -0.321  -1.304  0.00  0.00    +0.176 C 
ATOM     27  H   UNL     1       2.570   0.709   1.821  0.00  0.00    +0.152 HD
BRANCH  23  28
ATOM     28  O   UNL     1       5.228  -0.306   2.264  0.00  0.00    -0.467 OA
ATOM     29  C   UNL     1       4.297  -1.193   2.876  0.00  0.00    +0.253 C 
ENDBRANCH  23  28
BRANCH  25  30
ATOM     30  O   UNL     1       7.370  -0.951   0.632  0.00  0.00    -0.465 OA
ATOM     31  C   UNL     1       7.476  -2.363   0.787  0.00  0.00    +0.253 C 
ENDBRANCH  25  30
BRANCH  26  32
ATOM     32  O   UNL     1       7.187  -0.640  -2.101  0.00  0.00    -0.468 OA
ATOM     33  C   UNL     1       8.127   0.397  -2.373  0.00  0.00    +0.253 C 
ENDBRANCH  26  32
ENDBRANCH  15  19
BRANCH  16  35
ATOM     34  O   UNL     1      -7.625  -2.565  -0.831  0.00  0.00    -0.243 OA
ATOM     35  C   UNL     1      -7.392  -1.359  -0.616  0.00  0.00    +0.355 C 
BRANCH  35  36
ATOM     36  O   UNL     1      -8.392  -0.409  -0.672  0.00  0.00    -0.440 OA
ATOM     37  C   UNL     1      -9.713  -0.864  -0.989  0.00  0.00    +0.256 C 
ENDBRANCH  35  36
ENDBRANCH  16  35
TORSDOF 6
