11536759
  -OEChem-03292013303D

 34 34  0     1  0  0  0  0  0999 V2000
    2.3460    1.9504   -0.0368 S   0  0  0  0  0  0  0  0  0  0  0  0
   -0.5581   -2.0977   -1.0422 O   0  0  0  0  0  0  0  0  0  0  0  0
    2.0851    0.3608   -0.2908 O   0  0  0  0  0  0  0  0  0  0  0  0
    0.4338   -0.2876    1.8676 O   0  0  0  0  0  0  0  0  0  0  0  0
   -1.2081   -2.7245    1.1597 O   0  0  0  0  0  0  0  0  0  0  0  0
    1.5159   -3.8265   -0.4872 O   0  0  0  0  0  0  0  0  0  0  0  0
    3.9723    2.0712    0.0061 O   0  0  0  0  0  0  0  0  0  0  0  0
   -3.2207    1.9081    0.9916 O   0  0  0  0  0  0  0  0  0  0  0  0
    1.8865    2.6570   -1.2180 O   0  0  0  0  0  0  0  0  0  0  0  0
    1.8370    2.3121    1.2730 O   0  0  0  0  0  0  0  0  0  0  0  0
   -2.2965    0.3699   -0.4909 N   0  0  0  0  0  0  0  0  0  0  0  0
   -0.1456    0.2184    0.6666 C   0  0  1  0  0  0  0  0  0  0  0  0
    0.7614   -0.1035   -0.5233 C   0  0  2  0  0  0  0  0  0  0  0  0
   -1.5352   -0.3963    0.4702 C   0  0  2  0  0  0  0  0  0  0  0  0
    0.7696   -1.5906   -0.8952 C   0  0  1  0  0  0  0  0  0  0  0  0
   -1.4593   -1.8724    0.0445 C   0  0  1  0  0  0  0  0  0  0  0  0
    1.6302   -2.4959   -0.0154 C   0  0  0  0  0  0  0  0  0  0  0  0
   -3.0750    1.4588   -0.1422 C   0  0  0  0  0  0  0  0  0  0  0  0
   -3.7393    2.0883   -1.3373 C   0  0  0  0  0  0  0  0  0  0  0  0
   -0.2573    1.2974    0.8005 H   0  0  0  0  0  0  0  0  0  0  0  0
    0.3629    0.4338   -1.3948 H   0  0  0  0  0  0  0  0  0  0  0  0
   -2.0705   -0.3488    1.4281 H   0  0  0  0  0  0  0  0  0  0  0  0
    1.2079   -1.6665   -1.8996 H   0  0  0  0  0  0  0  0  0  0  0  0
   -2.4491   -2.1649   -0.3277 H   0  0  0  0  0  0  0  0  0  0  0  0
    1.3161   -2.4960    1.0284 H   0  0  0  0  0  0  0  0  0  0  0  0
    2.6827   -2.1986   -0.0592 H   0  0  0  0  0  0  0  0  0  0  0  0
   -2.2003    0.1291   -1.4735 H   0  0  0  0  0  0  0  0  0  0  0  0
    0.0358   -1.1481    2.0773 H   0  0  0  0  0  0  0  0  0  0  0  0
   -1.6320   -3.5790    0.9719 H   0  0  0  0  0  0  0  0  0  0  0  0
    2.0809   -4.3812    0.0772 H   0  0  0  0  0  0  0  0  0  0  0  0
   -4.5162    2.7817   -1.0036 H   0  0  0  0  0  0  0  0  0  0  0  0
   -2.9942    2.6354   -1.9214 H   0  0  0  0  0  0  0  0  0  0  0  0
   -4.2023    1.3207   -1.9642 H   0  0  0  0  0  0  0  0  0  0  0  0
    4.4291    1.4083    0.5755 H   0  0  0  0  0  0  0  0  0  0  0  0
  1  3  1  0  0  0  0
  1  7  1  0  0  0  0
  1  9  2  0  0  0  0
  1 10  2  0  0  0  0
  2 15  1  0  0  0  0
  2 16  1  0  0  0  0
  3 13  1  0  0  0  0
  4 12  1  0  0  0  0
  4 28  1  0  0  0  0
  5 16  1  0  0  0  0
  5 29  1  0  0  0  0
  6 17  1  0  0  0  0
  6 30  1  0  0  0  0
  7 34  1  0  0  0  0
  8 18  2  0  0  0  0
 11 14  1  0  0  0  0
 11 18  1  0  0  0  0
 11 27  1  0  0  0  0
 12 13  1  0  0  0  0
 12 14  1  0  0  0  0
 12 20  1  0  0  0  0
 13 15  1  0  0  0  0
 13 21  1  0  0  0  0
 14 16  1  0  0  0  0
 14 22  1  0  0  0  0
 15 17  1  0  0  0  0
 15 23  1  0  0  0  0
 16 24  1  0  0  0  0
 17 25  1  0  0  0  0
 17 26  1  0  0  0  0
 18 19  1  0  0  0  0
 19 31  1  0  0  0  0
 19 32  1  0  0  0  0
 19 33  1  0  0  0  0
M  END
> <PUBCHEM_COMPOUND_CID>
11536759

> <PUBCHEM_CONFORMER_RMSD>
0.8

> <PUBCHEM_CONFORMER_DIVERSEORDER>
1
7
6
8
4
5
3
2

> <PUBCHEM_MMFF94_PARTIAL_CHARGES>
24
1 1.67
10 -0.65
11 -0.73
12 0.28
13 0.28
14 0.3
15 0.28
16 0.56
17 0.28
18 0.57
19 0.06
2 -0.56
27 0.37
28 0.4
29 0.4
3 -0.46
30 0.4
34 0.5
4 -0.68
5 -0.68
6 -0.68
7 -0.68
8 -0.57
9 -0.65

> <PUBCHEM_EFFECTIVE_ROTOR_COUNT>
6.2

> <PUBCHEM_PHARMACOPHORE_FEATURES>
14
1 10 acceptor
1 11 donor
1 2 acceptor
1 4 acceptor
1 4 donor
1 5 acceptor
1 5 donor
1 6 acceptor
1 6 donor
1 7 acceptor
1 8 acceptor
1 9 acceptor
4 1 7 9 10 anion
6 2 12 13 14 15 16 rings

> <PUBCHEM_HEAVY_ATOM_COUNT>
19

> <PUBCHEM_ATOM_DEF_STEREO_COUNT>
4

> <PUBCHEM_ATOM_UDEF_STEREO_COUNT>
1

> <PUBCHEM_BOND_DEF_STEREO_COUNT>
0

> <PUBCHEM_BOND_UDEF_STEREO_COUNT>
0

> <PUBCHEM_ISOTOPIC_ATOM_COUNT>
0

> <PUBCHEM_COMPONENT_COUNT>
1

> <PUBCHEM_CACTVS_TAUTO_COUNT>
2

> <PUBCHEM_CONFORMER_ID>
00B0097700000001

> <PUBCHEM_MMFF94_ENERGY>
39.2783

> <PUBCHEM_FEATURE_SELFOVERLAP>
71.154

> <PUBCHEM_SHAPE_FINGERPRINT>
12403814 3 17692538122833027832
13132413 78 17478050454026772337
13134695 92 17832418700909776335
13464514 151 18269001903241641924
14181834 199 17772458010951775886
14614273 12 18267313212442562211
14648413 74 18336551525333255003
16945 1 18268720423869795570
18785283 64 18264226728637236137
19868273 325 17042602592013569110
20473742 2 18191862327641650863
20510252 161 17909834567197090784
20511035 2 18130212779429215343
20600515 1 17555171346350312127
20671657 1 18341053995347076285
21041028 32 17622178862334056817
21296965 12 18199195172550797231
21524375 3 18410006667496072581
21947302 44 18341050714108164981
220403 375 18409442622273158831
22889148 1 17272845669809206517
23402539 116 17405982955910596879
23419403 2 17539176858111563240
23558518 356 18260545658376362859
25 1 18342183215311416549
2748010 2 18269008633523667886
305870 269 18410289237699993212
3250762 1 18336840735762720451
350125 39 18338811124744142342
7364860 26 18268708324851632933
81228 2 17191503928461944370
84936 182 18201433623717422569
90316 7 17473259259078294906

> <PUBCHEM_SHAPE_MULTIPOLES>
337.06
4.98
4.05
1.25
3.58
1.17
0.22
-4.29
-0.87
-3
-0.35
0.26
-0.16
0.59

> <PUBCHEM_SHAPE_SELFOVERLAP>
666.324

> <PUBCHEM_SHAPE_VOLUME>
200.4

> <PUBCHEM_COORDINATE_TYPE>
2
5
10

$$$$
