11537217
  -OEChem-03292013303D

 26 27  0     0  0  0  0  0  0999 V2000
   -4.9672    1.9186   -0.7347 Cl  0  0  0  0  0  0  0  0  0  0  0  0
    3.3326   -1.1582   -0.2156 S   0  0  0  0  0  0  0  0  0  0  0  0
    0.1703    2.1608    0.4873 O   0  0  0  0  0  0  0  0  0  0  0  0
   -5.4863   -2.2534    0.2347 O   0  5  0  0  0  0  0  0  0  0  0  0
   -6.2437   -0.2855   -0.3760 O   0  0  0  0  0  0  0  0  0  0  0  0
    7.0221    0.0241   -0.1077 O   0  5  0  0  0  0  0  0  0  0  0  0
    6.1322   -1.9540   -0.4457 O   0  0  0  0  0  0  0  0  0  0  0  0
    0.9989    0.0011    0.0672 N   0  0  0  0  0  0  0  0  0  0  0  0
    2.9805    1.3586    0.2578 N   0  0  0  0  0  0  0  0  0  0  0  0
   -5.3045   -1.0446   -0.0412 N   0  3  0  0  0  0  0  0  0  0  0  0
    6.0030   -0.7173   -0.2145 N   0  3  0  0  0  0  0  0  0  0  0  0
   -1.3725    0.4498    0.1878 C   0  0  0  0  0  0  0  0  0  0  0  0
   -2.4099    1.3038   -0.1864 C   0  0  0  0  0  0  0  0  0  0  0  0
   -1.6413   -0.8868    0.4825 C   0  0  0  0  0  0  0  0  0  0  0  0
   -0.0099    0.9517    0.2711 C   0  0  0  0  0  0  0  0  0  0  0  0
   -3.9851   -0.5152    0.0288 C   0  0  0  0  0  0  0  0  0  0  0  0
   -3.7161    0.8213   -0.2661 C   0  0  0  0  0  0  0  0  0  0  0  0
   -2.9477   -1.3692    0.4030 C   0  0  0  0  0  0  0  0  0  0  0  0
    2.3793    0.2250    0.0677 C   0  0  0  0  0  0  0  0  0  0  0  0
    4.7242   -0.1657   -0.0754 C   0  0  0  0  0  0  0  0  0  0  0  0
    4.3411    1.1352    0.1754 C   0  0  0  0  0  0  0  0  0  0  0  0
   -2.2049    2.3458   -0.4228 H   0  0  0  0  0  0  0  0  0  0  0  0
   -0.8750   -1.5800    0.8160 H   0  0  0  0  0  0  0  0  0  0  0  0
   -3.1150   -2.4148    0.6493 H   0  0  0  0  0  0  0  0  0  0  0  0
    0.7556   -0.9607   -0.1488 H   0  0  0  0  0  0  0  0  0  0  0  0
    5.0138    1.9726    0.3092 H   0  0  0  0  0  0  0  0  0  0  0  0
  1 17  1  0  0  0  0
  2 19  1  0  0  0  0
  2 20  1  0  0  0  0
  3 15  2  0  0  0  0
  4 10  1  0  0  0  0
  5 10  2  0  0  0  0
  6 11  1  0  0  0  0
  7 11  2  0  0  0  0
  8 15  1  0  0  0  0
  8 19  1  0  0  0  0
  8 25  1  0  0  0  0
  9 19  2  0  0  0  0
  9 21  1  0  0  0  0
 10 16  1  0  0  0  0
 11 20  1  0  0  0  0
 12 13  2  0  0  0  0
 12 14  1  0  0  0  0
 12 15  1  0  0  0  0
 13 17  1  0  0  0  0
 13 22  1  0  0  0  0
 14 18  2  0  0  0  0
 14 23  1  0  0  0  0
 16 17  2  0  0  0  0
 16 18  1  0  0  0  0
 18 24  1  0  0  0  0
 20 21  2  0  0  0  0
 21 26  1  0  0  0  0
M  CHG  4   4  -1   6  -1  10   1  11   1
M  END
> <PUBCHEM_COMPOUND_CID>
11537217

> <PUBCHEM_CONFORMER_RMSD>
0.8

> <PUBCHEM_CONFORMER_DIVERSEORDER>
1
4
6
3
5
2

> <PUBCHEM_MMFF94_PARTIAL_CHARGES>
26
1 -0.18
10 0.91
11 0.96
12 0.09
13 -0.15
14 -0.15
15 0.54
16 0.13
17 0.18
18 -0.15
19 0.44
2 -0.08
20 0.12
21 0.08
22 0.15
23 0.15
24 0.15
25 0.37
26 0.15
3 -0.57
4 -0.52
5 -0.52
6 -0.52
7 -0.52
8 -0.49
9 -0.57

> <PUBCHEM_EFFECTIVE_ROTOR_COUNT>
5

> <PUBCHEM_PHARMACOPHORE_FEATURES>
10
1 3 acceptor
1 4 acceptor
1 4 anion
1 5 acceptor
1 6 acceptor
1 6 anion
1 7 acceptor
1 8 donor
5 2 9 19 20 21 rings
6 12 13 14 16 17 18 rings

> <PUBCHEM_HEAVY_ATOM_COUNT>
21

> <PUBCHEM_ATOM_DEF_STEREO_COUNT>
0

> <PUBCHEM_ATOM_UDEF_STEREO_COUNT>
0

> <PUBCHEM_BOND_DEF_STEREO_COUNT>
0

> <PUBCHEM_BOND_UDEF_STEREO_COUNT>
0

> <PUBCHEM_ISOTOPIC_ATOM_COUNT>
0

> <PUBCHEM_COMPONENT_COUNT>
1

> <PUBCHEM_CACTVS_TAUTO_COUNT>
3

> <PUBCHEM_CONFORMER_ID>
00B00B4100000001

> <PUBCHEM_MMFF94_ENERGY>
62.4423

> <PUBCHEM_FEATURE_SELFOVERLAP>
50.911

> <PUBCHEM_SHAPE_FINGERPRINT>
10 15 18271514391450427568
10835480 77 18412536626640969872
10968037 39 18408605872243817502
11315181 36 18343867718575080457
11524674 6 16845576448237031159
11578080 2 16734932451605661583
12091667 2 17676491631310398793
12166972 35 18187369852143665964
12236239 1 17894630336209530306
12516196 113 18131349717850038024
12596602 18 11672060835528340230
12616971 3 15338834300238744049
13288520 33 18411138048187243349
13402501 40 18412546513507556950
13668630 136 17775290469090791630
13685833 64 18413674620927142130
13862211 1 18273213131808178823
1420 363 18273217499721087070
14251731 8 18335700511812436725
14251752 14 18187359892040107453
14790565 3 17618505377238583745
14848160 23 18343863316528656530
15042514 8 18118407474313079275
15183329 4 18260542295268822345
15196674 1 18410573989446431449
17844677 252 18410862074410095761
18681886 176 18409445912872261480
19489759 90 18113336410167004591
200 152 18060419097376192168
20374829 77 18409728443793676864
20645477 70 18272373053453470230
21150785 3 16298390188126398854
21236236 1 18412263913803192281
21267235 1 18410862074457087923
21623969 137 17775570831823908038
22224240 67 16272203098856432542
2297311 6 18410296903958257693
23198884 109 16443064993303057531
23402539 116 18408600344795214957
23522609 53 18124348048868506785
23559900 14 18411693292568909472
239999 70 18413671318862058954
2871803 45 18334012787750478298
29717793 49 18113903766988935068
3004659 81 18260265244419786256
335352 9 18408881842243521461
3545911 37 18335701628477488432
4073 2 17968100880183451402
4214541 1 18409166602010629933
465052 167 18131073744879271518
5104073 3 18343300357711280808
5283173 99 18335697191903405021
542803 24 15791732988395971540
559249 180 18335979783523672075
59755656 215 18408324354750561302
6138700 20 18410012104650661531
9709674 26 18263084481799989347

> <PUBCHEM_SHAPE_MULTIPOLES>
388.62
16.64
1.94
0.68
11.22
0.06
0.01
5.04
2.57
-1.39
0
-0.13
-0.05
1.01

> <PUBCHEM_SHAPE_SELFOVERLAP>
818.499

> <PUBCHEM_SHAPE_VOLUME>
221

> <PUBCHEM_COORDINATE_TYPE>
2
5
10

$$$$
