REMARK  Name = 11537217
REMARK  3 active torsions:
REMARK  status: ('A' for Active; 'I' for Inactive)
REMARK    1  A    between atoms: C_5  and  C_11
REMARK    2  A    between atoms: C_7  and  N_22
REMARK    3  A    between atoms: C_14  and  N_19
REMARK                            x       y       z     vdW  Elec       q    Type
REMARK                         _______ _______ _______ _____ _____    ______ ____
ROOT
ATOM      1  S   UNL     1       3.333  -1.158  -0.216  0.00  0.00    -0.027 S 
ATOM      2  O   UNL     1       0.170   2.161   0.487  0.00  0.00    -0.270 OA
ATOM      3  N   UNL     1       0.999   0.001   0.067  0.00  0.00    -0.261 N 
ATOM      4  N   UNL     1       2.981   1.359   0.258  0.00  0.00    -0.221 NA
ATOM      5  C   UNL     1      -0.010   0.952   0.271  0.00  0.00    +0.251 C 
ATOM      6  C   UNL     1       2.379   0.225   0.068  0.00  0.00    +0.167 C 
ATOM      7  C   UNL     1       4.724  -0.166  -0.075  0.00  0.00    +0.194 C 
ATOM      8  C   UNL     1       4.341   1.135   0.175  0.00  0.00    +0.132 C 
ATOM      9  H   UNL     1       0.704  -0.924  -0.094  0.00  0.00    +0.157 HD
ENDROOT
BRANCH   5  11
ATOM     10 CL   UNL     1      -4.967   1.919  -0.735  0.00  0.00    -0.081 Cl
ATOM     11  C   UNL     1      -1.373   0.450   0.188  0.00  0.00    +0.055 C 
ATOM     12  C   UNL     1      -2.410   1.304  -0.186  0.00  0.00    +0.018 C 
ATOM     13  C   UNL     1      -1.641  -0.887   0.482  0.00  0.00    +0.006 C 
ATOM     14  C   UNL     1      -3.985  -0.515   0.029  0.00  0.00    +0.153 C 
ATOM     15  C   UNL     1      -3.716   0.821  -0.266  0.00  0.00    +0.080 C 
ATOM     16  C   UNL     1      -2.948  -1.369   0.403  0.00  0.00    +0.025 C 
BRANCH  14  19
ATOM     17  O   UNL     1      -5.486  -2.253   0.235  0.00  0.00    -0.126 OA
ATOM     18  O   UNL     1      -6.244  -0.285  -0.376  0.00  0.00    -0.126 OA
ATOM     19  N   UNL     1      -5.304  -1.045  -0.041  0.00  0.00    +0.059 N 
ENDBRANCH  14  19
ENDBRANCH   5  11
BRANCH   7  22
ATOM     20  O   UNL     1       7.022   0.024  -0.108  0.00  0.00    -0.126 OA
ATOM     21  O   UNL     1       6.132  -1.954  -0.446  0.00  0.00    -0.126 OA
ATOM     22  N   UNL     1       6.003  -0.717  -0.214  0.00  0.00    +0.065 N 
ENDBRANCH   7  22
TORSDOF 3
