REMARK  Name = 11531563
REMARK  4 active torsions:
REMARK  status: ('A' for Active; 'I' for Inactive)
REMARK    1  A    between atoms: C_4  and  O_26
REMARK    2  A    between atoms: C_19  and  O_28
REMARK    3  A    between atoms: C_21  and  O_30
REMARK    4  A    between atoms: C_22  and  O_32
REMARK                            x       y       z     vdW  Elec       q    Type
REMARK                         _______ _______ _______ _____ _____    ______ ____
ROOT
ATOM      1  O   UNL     1       3.719   1.756   0.987  0.00  0.00    -0.291 OA
ATOM      2  O   UNL     1      -0.734  -3.460  -0.830  0.00  0.00    -0.286 OA
ATOM      3  O   UNL     1      -2.931   3.115   0.751  0.00  0.00    -0.287 OA
ATOM      4  C   UNL     1       0.019   0.487  -0.508  0.00  0.00    +0.146 C 
ATOM      5  C   UNL     1       1.766   2.408  -0.274  0.00  0.00    +0.073 C 
ATOM      6  C   UNL     1       0.315   1.924  -0.100  0.00  0.00    -0.003 C 
ATOM      7  C   UNL     1       1.109  -0.478  -0.083  0.00  0.00    +0.021 C 
ATOM      8  C   UNL     1      -1.342  -0.020  -0.063  0.00  0.00    +0.018 C 
ATOM      9  C   UNL     1       2.387  -0.053   0.297  0.00  0.00    +0.068 C 
ATOM     10  C   UNL     1       2.703   1.393   0.397  0.00  0.00    +0.178 C 
ATOM     11  C   UNL     1       0.856  -1.864  -0.124  0.00  0.00    +0.072 C 
ATOM     12  C   UNL     1      -2.362   0.850   0.328  0.00  0.00    +0.034 C 
ATOM     13  C   UNL     1      -1.627  -1.394  -0.127  0.00  0.00    +0.072 C 
ATOM     14  C   UNL     1      -0.665   2.725   0.360  0.00  0.00    +0.037 C 
ATOM     15  C   UNL     1       2.164   2.505  -1.761  0.00  0.00    +0.012 C 
ATOM     16  C   UNL     1       2.037   3.797   0.354  0.00  0.00    +0.012 C 
ATOM     17  C   UNL     1      -0.520  -2.337  -0.397  0.00  0.00    +0.201 C 
ATOM     18  C   UNL     1      -2.071   2.282   0.493  0.00  0.00    +0.195 C 
ATOM     19  C   UNL     1       3.387  -0.987   0.604  0.00  0.00    +0.139 C 
ATOM     20  C   UNL     1      -3.650   0.369   0.597  0.00  0.00    -0.016 C 
ATOM     21  C   UNL     1       1.855  -2.798   0.163  0.00  0.00    +0.139 C 
ATOM     22  C   UNL     1      -2.910  -1.883   0.133  0.00  0.00    +0.136 C 
ATOM     23  C   UNL     1       3.122  -2.354   0.524  0.00  0.00    +0.073 C 
ATOM     24  C   UNL     1      -3.922  -0.995   0.486  0.00  0.00    +0.033 C 
ATOM     25  C   UNL     1      -4.791   1.240   1.017  0.00  0.00    +0.031 C 
ENDROOT
BRANCH   4  26
ATOM     26  O   UNL     1       0.018   0.461  -1.949  0.00  0.00    -0.344 OA
ATOM     27  C   UNL     1      -1.005   1.289  -2.465  0.00  0.00    +0.175 C 
ENDBRANCH   4  26
BRANCH  19  28
ATOM     28  O   UNL     1       4.654  -0.626   0.959  0.00  0.00    -0.505 OA
ATOM     29  H   UNL     1       4.881   0.281   1.026  0.00  0.00    +0.292 HD
ENDBRANCH  19  28
BRANCH  21  30
ATOM     30  O   UNL     1       1.632  -4.142   0.142  0.00  0.00    -0.505 OA
ATOM     31  H   UNL     1       0.789  -4.473  -0.097  0.00  0.00    +0.292 HD
ENDBRANCH  21  30
BRANCH  22  32
ATOM     32  O   UNL     1      -3.212  -3.211   0.088  0.00  0.00    -0.505 OA
ATOM     33  H   UNL     1      -2.552  -3.833  -0.147  0.00  0.00    +0.292 HD
ENDBRANCH  22  32
TORSDOF 4
