REMARK  Name = 11536903
REMARK  4 active torsions:
REMARK  status: ('A' for Active; 'I' for Inactive)
REMARK    1  A    between atoms: C_4  and  C_14
REMARK    2  A    between atoms: C_5  and  N_19
REMARK    3  A    between atoms: C_11  and  O_22
REMARK    4  A    between atoms: N_13  and  C_16
REMARK                            x       y       z     vdW  Elec       q    Type
REMARK                         _______ _______ _______ _____ _____    ______ ____
ROOT
ATOM      1 CL   UNL     1       5.025   1.041   0.191  0.00  0.00    -0.077 Cl
ATOM      2  S   UNL     1      -0.667  -1.223  -0.174  0.00  0.00    -0.054 S 
ATOM      3  N   UNL     1       1.974  -1.532  -0.053  0.00  0.00    -0.364 NA
ATOM      4  C   UNL     1      -1.283   0.372  -0.149  0.00  0.00    +0.094 C 
ATOM      5  C   UNL     1      -0.280   1.312  -0.065  0.00  0.00    +0.040 C 
ATOM      6  C   UNL     1       1.024   0.723  -0.021  0.00  0.00    +0.114 C 
ATOM      7  C   UNL     1       0.941  -0.664  -0.074  0.00  0.00    +0.151 C 
ATOM      8  C   UNL     1       2.317   1.279   0.064  0.00  0.00    -0.016 C 
ATOM      9  C   UNL     1       3.414   0.424   0.089  0.00  0.00    +0.116 C 
ATOM     10  C   UNL     1       2.531   2.762   0.127  0.00  0.00    +0.028 C 
ATOM     11  C   UNL     1       3.184  -0.939   0.029  0.00  0.00    +0.288 C 
ENDROOT
BRANCH   4  14
ATOM     12  O   UNL     1      -3.260   1.678  -0.173  0.00  0.00    -0.270 OA
ATOM     13  N   UNL     1      -3.498  -0.603  -0.293  0.00  0.00    -0.302 N 
ATOM     14  C   UNL     1      -2.699   0.556  -0.212  0.00  0.00    +0.253 C 
ATOM     15  H   UNL     1      -3.047  -1.478  -0.324  0.00  0.00    +0.150 HD
BRANCH  13  16
ATOM     16  C   UNL     1      -4.942  -0.579  -0.335  0.00  0.00    +0.072 C 
ATOM     17  C   UNL     1      -5.731  -1.760   0.113  0.00  0.00    +0.021 C 
ATOM     18  C   UNL     1      -5.731  -0.499   0.926  0.00  0.00    +0.021 C 
ENDBRANCH  13  16
ENDBRANCH   4  14
BRANCH   5  19
ATOM     19  N   UNL     1      -0.520   2.647  -0.029  0.00  0.00    -0.359 N 
ATOM     20  H   UNL     1      -1.446   2.982  -0.064  0.00  0.00    +0.142 HD
ATOM     21  H   UNL     1       0.231   3.281   0.031  0.00  0.00    +0.142 HD
ENDBRANCH   5  19
BRANCH  11  22
ATOM     22  O   UNL     1       4.252  -1.804   0.051  0.00  0.00    -0.447 OA
ATOM     23  C   UNL     1       3.949  -3.191  -0.013  0.00  0.00    +0.255 C 
ENDBRANCH  11  22
TORSDOF 4
