11531563
  -OEChem-03292013303D

 48 52  0     1  0  0  0  0  0999 V2000
    0.0179    0.4606   -1.9488 O   0  0  0  0  0  0  0  0  0  0  0  0
    3.7187    1.7564    0.9870 O   0  0  0  0  0  0  0  0  0  0  0  0
   -0.7340   -3.4603   -0.8297 O   0  0  0  0  0  0  0  0  0  0  0  0
    4.6541   -0.6256    0.9588 O   0  0  0  0  0  0  0  0  0  0  0  0
   -2.9313    3.1155    0.7508 O   0  0  0  0  0  0  0  0  0  0  0  0
    1.6322   -4.1416    0.1416 O   0  0  0  0  0  0  0  0  0  0  0  0
   -3.2119   -3.2107    0.0879 O   0  0  0  0  0  0  0  0  0  0  0  0
    0.0193    0.4867   -0.5077 C   0  0  2  0  0  0  0  0  0  0  0  0
    1.7657    2.4075   -0.2741 C   0  0  0  0  0  0  0  0  0  0  0  0
    0.3150    1.9243   -0.0996 C   0  0  0  0  0  0  0  0  0  0  0  0
    1.1092   -0.4785   -0.0830 C   0  0  0  0  0  0  0  0  0  0  0  0
   -1.3424   -0.0198   -0.0626 C   0  0  0  0  0  0  0  0  0  0  0  0
    2.3868   -0.0530    0.2973 C   0  0  0  0  0  0  0  0  0  0  0  0
    2.7032    1.3928    0.3966 C   0  0  0  0  0  0  0  0  0  0  0  0
    0.8560   -1.8638   -0.1240 C   0  0  0  0  0  0  0  0  0  0  0  0
   -2.3624    0.8499    0.3275 C   0  0  0  0  0  0  0  0  0  0  0  0
   -1.6273   -1.3941   -0.1265 C   0  0  0  0  0  0  0  0  0  0  0  0
   -0.6649    2.7248    0.3601 C   0  0  0  0  0  0  0  0  0  0  0  0
    2.1641    2.5047   -1.7608 C   0  0  0  0  0  0  0  0  0  0  0  0
    2.0369    3.7975    0.3544 C   0  0  0  0  0  0  0  0  0  0  0  0
   -0.5204   -2.3367   -0.3973 C   0  0  0  0  0  0  0  0  0  0  0  0
   -2.0709    2.2821    0.4935 C   0  0  0  0  0  0  0  0  0  0  0  0
    3.3874   -0.9874    0.6035 C   0  0  0  0  0  0  0  0  0  0  0  0
   -3.6498    0.3689    0.5973 C   0  0  0  0  0  0  0  0  0  0  0  0
    1.8547   -2.7982    0.1629 C   0  0  0  0  0  0  0  0  0  0  0  0
   -2.9101   -1.8833    0.1328 C   0  0  0  0  0  0  0  0  0  0  0  0
    3.1224   -2.3539    0.5237 C   0  0  0  0  0  0  0  0  0  0  0  0
   -3.9221   -0.9945    0.4865 C   0  0  0  0  0  0  0  0  0  0  0  0
   -1.0054    1.2890   -2.4645 C   0  0  0  0  0  0  0  0  0  0  0  0
   -4.7907    1.2404    1.0167 C   0  0  0  0  0  0  0  0  0  0  0  0
   -0.4934    3.7607    0.6283 H   0  0  0  0  0  0  0  0  0  0  0  0
    1.4669    3.1369   -2.3214 H   0  0  0  0  0  0  0  0  0  0  0  0
    2.2167    1.5276   -2.2512 H   0  0  0  0  0  0  0  0  0  0  0  0
    3.1643    2.9430   -1.8677 H   0  0  0  0  0  0  0  0  0  0  0  0
    1.4514    4.5847   -0.1344 H   0  0  0  0  0  0  0  0  0  0  0  0
    3.0909    4.0854    0.2547 H   0  0  0  0  0  0  0  0  0  0  0  0
    1.8076    3.8048    1.4267 H   0  0  0  0  0  0  0  0  0  0  0  0
    3.9037   -3.0744    0.7551 H   0  0  0  0  0  0  0  0  0  0  0  0
   -4.9202   -1.3733    0.6958 H   0  0  0  0  0  0  0  0  0  0  0  0
   -2.0130    0.9033   -2.2912 H   0  0  0  0  0  0  0  0  0  0  0  0
   -0.8877    1.2601   -3.5547 H   0  0  0  0  0  0  0  0  0  0  0  0
   -0.9189    2.3471   -2.2099 H   0  0  0  0  0  0  0  0  0  0  0  0
   -5.7064    0.6616    1.1868 H   0  0  0  0  0  0  0  0  0  0  0  0
   -4.5698    1.7453    1.9627 H   0  0  0  0  0  0  0  0  0  0  0  0
   -5.0317    1.9698    0.2367 H   0  0  0  0  0  0  0  0  0  0  0  0
    5.1891   -1.4208    1.1229 H   0  0  0  0  0  0  0  0  0  0  0  0
    2.4510   -4.6104    0.3775 H   0  0  0  0  0  0  0  0  0  0  0  0
   -4.1510   -3.3376    0.3061 H   0  0  0  0  0  0  0  0  0  0  0  0
  1  8  1  0  0  0  0
  1 29  1  0  0  0  0
  2 14  2  0  0  0  0
  3 21  2  0  0  0  0
  4 23  1  0  0  0  0
  4 46  1  0  0  0  0
  5 22  2  0  0  0  0
  6 25  1  0  0  0  0
  6 47  1  0  0  0  0
  7 26  1  0  0  0  0
  7 48  1  0  0  0  0
  8 10  1  0  0  0  0
  8 11  1  0  0  0  0
  8 12  1  0  0  0  0
  9 10  1  0  0  0  0
  9 14  1  0  0  0  0
  9 19  1  0  0  0  0
  9 20  1  0  0  0  0
 10 18  2  0  0  0  0
 11 13  1  0  0  0  0
 11 15  2  0  0  0  0
 12 16  2  0  0  0  0
 12 17  1  0  0  0  0
 13 14  1  0  0  0  0
 13 23  2  0  0  0  0
 15 21  1  0  0  0  0
 15 25  1  0  0  0  0
 16 22  1  0  0  0  0
 16 24  1  0  0  0  0
 17 21  1  0  0  0  0
 17 26  2  0  0  0  0
 18 22  1  0  0  0  0
 18 31  1  0  0  0  0
 19 32  1  0  0  0  0
 19 33  1  0  0  0  0
 19 34  1  0  0  0  0
 20 35  1  0  0  0  0
 20 36  1  0  0  0  0
 20 37  1  0  0  0  0
 23 27  1  0  0  0  0
 24 28  2  0  0  0  0
 24 30  1  0  0  0  0
 25 27  2  0  0  0  0
 26 28  1  0  0  0  0
 27 38  1  0  0  0  0
 28 39  1  0  0  0  0
 29 40  1  0  0  0  0
 29 41  1  0  0  0  0
 29 42  1  0  0  0  0
 30 43  1  0  0  0  0
 30 44  1  0  0  0  0
 30 45  1  0  0  0  0
M  END
> <PUBCHEM_COMPOUND_CID>
11531563

> <PUBCHEM_CONFORMER_RMSD>
0.6

> <PUBCHEM_CONFORMER_DIVERSEORDER>
2
1

> <PUBCHEM_MMFF94_PARTIAL_CHARGES>
34
1 -0.56
10 -0.28
11 -0.14
12 -0.14
13 0.09
14 0.42
15 0.09
16 0.09
17 0.09
18 -0.14
2 -0.57
21 0.4
22 0.47
23 0.08
24 -0.14
25 0.08
26 0.08
27 -0.15
28 -0.15
29 0.28
3 -0.57
30 0.14
31 0.15
38 0.15
39 0.15
4 -0.53
46 0.45
47 0.45
48 0.45
5 -0.57
6 -0.53
7 -0.53
8 0.71
9 0.2

> <PUBCHEM_EFFECTIVE_ROTOR_COUNT>
1.2

> <PUBCHEM_PHARMACOPHORE_FEATURES>
13
1 1 acceptor
1 2 acceptor
1 3 acceptor
1 4 donor
1 5 acceptor
1 6 donor
1 7 donor
3 9 19 20 hydrophobe
6 11 13 15 23 25 27 rings
6 12 16 17 24 26 28 rings
6 8 10 12 16 18 22 rings
6 8 11 12 15 17 21 rings
6 8 9 10 11 13 14 rings

> <PUBCHEM_HEAVY_ATOM_COUNT>
30

> <PUBCHEM_ATOM_DEF_STEREO_COUNT>
0

> <PUBCHEM_ATOM_UDEF_STEREO_COUNT>
1

> <PUBCHEM_BOND_DEF_STEREO_COUNT>
0

> <PUBCHEM_BOND_UDEF_STEREO_COUNT>
0

> <PUBCHEM_ISOTOPIC_ATOM_COUNT>
0

> <PUBCHEM_COMPONENT_COUNT>
1

> <PUBCHEM_CACTVS_TAUTO_COUNT>
216

> <PUBCHEM_CONFORMER_ID>
00AFF52B00000002

> <PUBCHEM_MMFF94_ENERGY>
119.968

> <PUBCHEM_FEATURE_SELFOVERLAP>
66.13

> <PUBCHEM_SHAPE_FINGERPRINT>
10411042 1 17907019478481482731
10675989 125 17260164010717557543
10863032 1 18267588081802042489
10967382 1 18339361846835864786
1100329 8 18411421730101885122
11370993 70 18268424634109608753
11513181 2 18060142041578536230
11578080 2 17749100054672307845
12422481 6 18265872723788386632
12553582 1 18265608784762679122
12633257 1 18410572842769317603
12788726 201 16099397597730762188
13140716 1 18339081600441360035
138480 1 18338519625487660866
14178342 30 18340189895546307904
14223421 5 18410011000991304825
14790565 3 18120382209606842892
14955137 171 18337405854779718578
16945 1 18410579461472130503
1813 80 17241906293003248284
19591789 44 18123192565131002699
19930381 70 17474387976831784915
20642791 178 18260841431225173508
20691752 17 17604146033766102714
20739085 24 17968943131142693669
20905425 154 18270975659609591797
21421861 104 18264231212783553441
21756936 100 17916293013369635904
2334 1 18049722124463553270
23419403 2 17970053470757426629
23559900 14 18411695482748633065
2748010 2 18049711932780486094
335352 9 18411139091431643423
350125 39 18336827597689506648
392239 28 17693941099686076577
4409770 3 17033590445157015366
6287921 2 18336553806108569254
7097593 13 18410015390416375873

> <PUBCHEM_SHAPE_MULTIPOLES>
576.3
6.63
4.76
1.23
2.01
1.18
-0.78
0.1
2.84
-1.22
0.04
-0.06
-0.64
-0.78

> <PUBCHEM_SHAPE_SELFOVERLAP>
1332.641

> <PUBCHEM_SHAPE_VOLUME>
291.5

> <PUBCHEM_COORDINATE_TYPE>
2
5
10

$$$$
