REMARK  Name = 11537197
REMARK  4 active torsions:
REMARK  status: ('A' for Active; 'I' for Inactive)
REMARK    1  A    between atoms: C_8  and  O_21
REMARK    2  A    between atoms: C_12  and  O_23
REMARK    3  A    between atoms: C_16  and  O_25
REMARK    4  A    between atoms: C_19  and  O_27
REMARK                            x       y       z     vdW  Elec       q    Type
REMARK                         _______ _______ _______ _____ _____    ______ ____
ROOT
ATOM      1  O   UNL     1      -0.907   1.790   0.155  0.00  0.00    -0.451 OA
ATOM      2  O   UNL     1       2.708   1.962  -0.348  0.00  0.00    -0.447 OA
ATOM      3  O   UNL     1      -0.233  -2.184  -0.374  0.00  0.00    -0.286 OA
ATOM      4  C   UNL     1       0.702  -0.017   0.023  0.00  0.00    +0.079 A 
ATOM      5  C   UNL     1       0.382   1.287   0.125  0.00  0.00    +0.195 A 
ATOM      6  C   UNL     1       2.135  -0.359   0.079  0.00  0.00    +0.040 C 
ATOM      7  C   UNL     1      -1.778  -0.460  -0.044  0.00  0.00    +0.107 A 
ATOM      8  C   UNL     1       1.455   2.343   0.234  0.00  0.00    +0.345 C 
ATOM      9  C   UNL     1      -0.410  -0.995  -0.142  0.00  0.00    +0.204 A 
ATOM     10  C   UNL     1      -1.955   0.912   0.100  0.00  0.00    +0.154 A 
ATOM     11  C   UNL     1       3.075   0.662  -0.123  0.00  0.00    +0.145 C 
ATOM     12  C   UNL     1      -2.886  -1.309  -0.103  0.00  0.00    +0.139 C 
ATOM     13  C   UNL     1      -4.172  -0.774  -0.014  0.00  0.00    +0.046 C 
ATOM     14  C   UNL     1      -3.241   1.447   0.187  0.00  0.00    +0.074 C 
ATOM     15  C   UNL     1       2.616  -1.653   0.322  0.00  0.00    +0.006 C 
ATOM     16  C   UNL     1      -4.349   0.602   0.130  0.00  0.00    +0.136 C 
ATOM     17  C   UNL     1       4.447   0.394  -0.145  0.00  0.00    +0.074 C 
ATOM     18  C   UNL     1       3.989  -1.921   0.322  0.00  0.00    +0.037 C 
ATOM     19  C   UNL     1       4.904  -0.900   0.080  0.00  0.00    +0.137 C 
ATOM     20  C   UNL     1      -5.366  -1.673  -0.074  0.00  0.00    +0.037 C 
ENDROOT
BRANCH   8  21
ATOM     21  O   UNL     1       0.998   3.533  -0.413  0.00  0.00    -0.344 OA
ATOM     22  H   UNL     1       1.682   4.219  -0.348  0.00  0.00    +0.214 HD
ENDBRANCH   8  21
BRANCH  12  23
ATOM     23  O   UNL     1      -2.754  -2.658  -0.254  0.00  0.00    -0.506 OA
ATOM     24  H   UNL     1      -1.901  -3.041  -0.316  0.00  0.00    +0.292 HD
ENDBRANCH  12  23
BRANCH  16  25
ATOM     25  O   UNL     1      -5.598   1.140   0.220  0.00  0.00    -0.506 OA
ATOM     26  H   UNL     1      -6.351   0.583   0.183  0.00  0.00    +0.292 HD
ENDBRANCH  16  25
BRANCH  19  27
ATOM     27  O   UNL     1       6.237  -1.169   0.055  0.00  0.00    -0.505 OA
ATOM     28  H   UNL     1       6.851  -0.480  -0.108  0.00  0.00    +0.292 HD
ENDBRANCH  19  27
TORSDOF 4
