REMARK  Name = 11536759
REMARK  7 active torsions:
REMARK  status: ('A' for Active; 'I' for Inactive)
REMARK    1  A    between atoms: C_2  and  O_12
REMARK    2  A    between atoms: C_3  and  O_16
REMARK    3  A    between atoms: C_4  and  N_8
REMARK    4  A    between atoms: C_5  and  C_21
REMARK    5  A    between atoms: C_6  and  O_14
REMARK    6  A    between atoms: O_16  and  S_17
REMARK    7  A    between atoms: C_21  and  O_22
REMARK                            x       y       z     vdW  Elec       q    Type
REMARK                         _______ _______ _______ _____ _____    ______ ____
ROOT
ATOM      1  O   UNL     1      -0.558  -2.098  -1.042  0.00  0.00    -0.327 OA
ATOM      2  C   UNL     1      -0.146   0.218   0.667  0.00  0.00    +0.165 C 
ATOM      3  C   UNL     1       0.761  -0.103  -0.523  0.00  0.00    +0.205 C 
ATOM      4  C   UNL     1      -1.535  -0.396   0.470  0.00  0.00    +0.158 C 
ATOM      5  C   UNL     1       0.770  -1.591  -0.895  0.00  0.00    +0.179 C 
ATOM      6  C   UNL     1      -1.459  -1.872   0.044  0.00  0.00    +0.253 C 
ENDROOT
BRANCH   4   8
ATOM      7  O   UNL     1      -3.221   1.908   0.992  0.00  0.00    -0.275 OA
ATOM      8  N   UNL     1      -2.296   0.370  -0.491  0.00  0.00    -0.299 N 
ATOM      9  C   UNL     1      -3.075   1.459  -0.142  0.00  0.00    +0.223 C 
ATOM     10  C   UNL     1      -3.739   2.088  -1.337  0.00  0.00    +0.095 C 
ATOM     11  H   UNL     1      -2.259   0.104  -1.438  0.00  0.00    +0.150 HD
ENDBRANCH   4   8
BRANCH   2  12
ATOM     12  O   UNL     1       0.434  -0.288   1.868  0.00  0.00    -0.380 OA
ATOM     13  H   UNL     1       1.313   0.102   1.991  0.00  0.00    +0.211 HD
ENDBRANCH   2  12
BRANCH   6  14
ATOM     14  O   UNL     1      -1.208  -2.724   1.160  0.00  0.00    -0.359 OA
ATOM     15  H   UNL     1      -1.166  -3.646   0.860  0.00  0.00    +0.213 HD
ENDBRANCH   6  14
BRANCH   3  16
ATOM     16  O   UNL     1       2.085   0.361  -0.291  0.00  0.00    -0.198 OA
BRANCH  16  17
ATOM     17  S   UNL     1       2.346   1.950  -0.037  0.00  0.00    +0.239 S 
ATOM     18  O   UNL     1       3.972   2.071   0.006  0.00  0.00    -0.116 OA
ATOM     19  O   UNL     1       1.887   2.657  -1.218  0.00  0.00    -0.116 OA
ATOM     20  O   UNL     1       1.837   2.312   1.273  0.00  0.00    -0.022 OA
ENDBRANCH  16  17
ENDBRANCH   3  16
BRANCH   5  21
ATOM     21  C   UNL     1       1.630  -2.496  -0.015  0.00  0.00    +0.169 C 
BRANCH  21  22
ATOM     22  O   UNL     1       1.516  -3.826  -0.487  0.00  0.00    -0.379 OA
ATOM     23  H   UNL     1       2.058  -4.413   0.064  0.00  0.00    +0.211 HD
ENDBRANCH  21  22
ENDBRANCH   5  21
TORSDOF 7
