11538542
  -OEChem-03292013303D

 51 52  0     1  0  0  0  0  0999 V2000
   -1.5732    2.4266   -0.6837 O   0  0  0  0  0  0  0  0  0  0  0  0
    1.1494   -2.9794   -0.7955 O   0  0  0  0  0  0  0  0  0  0  0  0
   -0.3066    3.0225   -2.5276 O   0  0  0  0  0  0  0  0  0  0  0  0
    2.3502   -2.2556   -2.6377 O   0  0  0  0  0  0  0  0  0  0  0  0
   -3.5730   -2.0290    2.7245 O   0  5  0  0  0  0  0  0  0  0  0  0
   -1.6461   -1.0711    3.1586 O   0  0  0  0  0  0  0  0  0  0  0  0
    2.4026    1.0138    0.5249 N   0  0  0  0  0  0  0  0  0  0  0  0
   -2.5065   -1.4873    2.3454 N   0  3  0  0  0  0  0  0  0  0  0  0
    0.4276    0.0585   -1.3438 C   0  0  1  0  0  0  0  0  0  0  0  0
    0.5184    1.5101   -0.9000 C   0  0  0  0  0  0  0  0  0  0  0  0
    1.6548   -0.7472   -0.9471 C   0  0  0  0  0  0  0  0  0  0  0  0
    1.4606    1.9297   -0.0217 C   0  0  0  0  0  0  0  0  0  0  0  0
    2.5677   -0.2694   -0.0677 C   0  0  0  0  0  0  0  0  0  0  0  0
   -0.8610   -0.6003   -0.8556 C   0  0  0  0  0  0  0  0  0  0  0  0
    3.2293    1.4061    1.6792 C   0  0  0  0  0  0  0  0  0  0  0  0
    1.5985    3.3822    0.3859 C   0  0  0  0  0  0  0  0  0  0  0  0
    3.8230   -1.0365    0.2937 C   0  0  0  0  0  0  0  0  0  0  0  0
   -0.4853    2.4160   -1.4896 C   0  0  0  0  0  0  0  0  0  0  0  0
    1.7743   -2.0726   -1.5831 C   0  0  0  0  0  0  0  0  0  0  0  0
   -1.0880   -0.7408    0.5085 C   0  0  0  0  0  0  0  0  0  0  0  0
   -1.7950   -1.0517   -1.7808 C   0  0  0  0  0  0  0  0  0  0  0  0
   -2.2656   -1.3412    0.9537 C   0  0  0  0  0  0  0  0  0  0  0  0
   -2.9726   -1.6521   -1.3354 C   0  0  0  0  0  0  0  0  0  0  0  0
   -3.2079   -1.7970    0.0319 C   0  0  0  0  0  0  0  0  0  0  0  0
    2.5589    1.0630    2.9358 C   0  0  0  0  0  0  0  0  0  0  0  0
   -2.6442    3.2668   -1.1258 C   0  0  0  0  0  0  0  0  0  0  0  0
    1.1797   -4.3250   -1.2825 C   0  0  0  0  0  0  0  0  0  0  0  0
   -3.7832    3.1775   -0.1326 C   0  0  0  0  0  0  0  0  0  0  0  0
    2.0130    0.7832    3.9679 C   0  0  0  0  0  0  0  0  0  0  0  0
    0.4193    0.0773   -2.4444 H   0  0  0  0  0  0  0  0  0  0  0  0
    3.4676    2.4744    1.6741 H   0  0  0  0  0  0  0  0  0  0  0  0
    4.2203    0.9423    1.6596 H   0  0  0  0  0  0  0  0  0  0  0  0
    2.5918    3.7630    0.1252 H   0  0  0  0  0  0  0  0  0  0  0  0
    1.4281    3.5042    1.4604 H   0  0  0  0  0  0  0  0  0  0  0  0
    0.8790    4.0359   -0.1163 H   0  0  0  0  0  0  0  0  0  0  0  0
    4.7162   -0.4553    0.0410 H   0  0  0  0  0  0  0  0  0  0  0  0
    3.9129   -1.9846   -0.2450 H   0  0  0  0  0  0  0  0  0  0  0  0
    3.8349   -1.2852    1.3598 H   0  0  0  0  0  0  0  0  0  0  0  0
   -0.3453   -0.3806    1.2154 H   0  0  0  0  0  0  0  0  0  0  0  0
   -1.6249   -0.9450   -2.8483 H   0  0  0  0  0  0  0  0  0  0  0  0
   -3.7062   -2.0065   -2.0535 H   0  0  0  0  0  0  0  0  0  0  0  0
   -4.1366   -2.2692    0.3421 H   0  0  0  0  0  0  0  0  0  0  0  0
   -2.9864    2.9332   -2.1119 H   0  0  0  0  0  0  0  0  0  0  0  0
   -2.2923    4.3023   -1.1937 H   0  0  0  0  0  0  0  0  0  0  0  0
    2.2130   -4.6764   -1.3615 H   0  0  0  0  0  0  0  0  0  0  0  0
    0.6737   -4.3888   -2.2507 H   0  0  0  0  0  0  0  0  0  0  0  0
    0.6476   -4.9570   -0.5666 H   0  0  0  0  0  0  0  0  0  0  0  0
   -4.6219    3.8077   -0.4410 H   0  0  0  0  0  0  0  0  0  0  0  0
   -4.1322    2.1436   -0.0397 H   0  0  0  0  0  0  0  0  0  0  0  0
   -3.4516    3.4911    0.8628 H   0  0  0  0  0  0  0  0  0  0  0  0
    1.5273    0.5343    4.8823 H   0  0  0  0  0  0  0  0  0  0  0  0
  1 18  1  0  0  0  0
  1 26  1  0  0  0  0
  2 19  1  0  0  0  0
  2 27  1  0  0  0  0
  3 18  2  0  0  0  0
  4 19  2  0  0  0  0
  5  8  1  0  0  0  0
  6  8  2  0  0  0  0
  7 12  1  0  0  0  0
  7 13  1  0  0  0  0
  7 15  1  0  0  0  0
  8 22  1  0  0  0  0
  9 10  1  0  0  0  0
  9 11  1  0  0  0  0
  9 14  1  0  0  0  0
  9 30  1  0  0  0  0
 10 12  2  0  0  0  0
 10 18  1  0  0  0  0
 11 13  2  0  0  0  0
 11 19  1  0  0  0  0
 12 16  1  0  0  0  0
 13 17  1  0  0  0  0
 14 20  2  0  0  0  0
 14 21  1  0  0  0  0
 15 25  1  0  0  0  0
 15 31  1  0  0  0  0
 15 32  1  0  0  0  0
 16 33  1  0  0  0  0
 16 34  1  0  0  0  0
 16 35  1  0  0  0  0
 17 36  1  0  0  0  0
 17 37  1  0  0  0  0
 17 38  1  0  0  0  0
 20 22  1  0  0  0  0
 20 39  1  0  0  0  0
 21 23  2  0  0  0  0
 21 40  1  0  0  0  0
 22 24  2  0  0  0  0
 23 24  1  0  0  0  0
 23 41  1  0  0  0  0
 24 42  1  0  0  0  0
 25 29  3  0  0  0  0
 26 28  1  0  0  0  0
 26 43  1  0  0  0  0
 26 44  1  0  0  0  0
 27 45  1  0  0  0  0
 27 46  1  0  0  0  0
 27 47  1  0  0  0  0
 28 48  1  0  0  0  0
 28 49  1  0  0  0  0
 28 50  1  0  0  0  0
 29 51  1  0  0  0  0
M  CHG  2   5  -1   8   1
M  END
> <PUBCHEM_COMPOUND_CID>
11538542

> <PUBCHEM_CONFORMER_RMSD>
1

> <PUBCHEM_CONFORMER_DIVERSEORDER>
5
23
29
42
38
28
24
10
34
40
37
36
35
30
16
13
39
7
41
19
12
31
33
22
17
32
14
25
21
26
27
11
20
18
8
3
9
4
15
6
1
2

> <PUBCHEM_MMFF94_PARTIAL_CHARGES>
33
1 -0.43
10 -0.12
11 -0.12
12 -0.04
13 -0.04
14 -0.14
15 0.57
16 0.14
17 0.14
18 0.71
19 0.71
2 -0.43
20 -0.15
21 -0.15
22 0.13
23 -0.15
24 -0.15
25 -0.2
26 0.28
27 0.28
29 -0.18
3 -0.57
39 0.15
4 -0.57
40 0.15
41 0.15
42 0.15
5 -0.52
51 0.18
6 -0.52
7 -0.57
8 0.91
9 0.42

> <PUBCHEM_EFFECTIVE_ROTOR_COUNT>
8.4

> <PUBCHEM_PHARMACOPHORE_FEATURES>
9
1 29 hydrophobe
1 3 acceptor
1 4 acceptor
1 5 acceptor
1 5 anion
1 6 acceptor
1 7 cation
6 14 20 21 22 23 24 rings
6 7 9 10 11 12 13 rings

> <PUBCHEM_HEAVY_ATOM_COUNT>
29

> <PUBCHEM_ATOM_DEF_STEREO_COUNT>
0

> <PUBCHEM_ATOM_UDEF_STEREO_COUNT>
1

> <PUBCHEM_BOND_DEF_STEREO_COUNT>
0

> <PUBCHEM_BOND_UDEF_STEREO_COUNT>
0

> <PUBCHEM_ISOTOPIC_ATOM_COUNT>
0

> <PUBCHEM_COMPONENT_COUNT>
1

> <PUBCHEM_CACTVS_TAUTO_COUNT>
1

> <PUBCHEM_CONFORMER_ID>
00B0106E00000005

> <PUBCHEM_MMFF94_ENERGY>
82.4573

> <PUBCHEM_FEATURE_SELFOVERLAP>
45.753

> <PUBCHEM_SHAPE_FINGERPRINT>
10076449 9 17767149530258726534
11578080 2 17989205949706640961
12156800 1 17678470670472253648
12403259 327 17169813695267103587
12539773 59 15313122100537510649
12788726 201 18115567353578062481
13140716 1 17984671508235557100
13965767 371 17981908619781864305
14955137 171 17324654761027168092
16945 1 18051957406281372300
23419403 2 18057342594747710304
2748010 2 18055881417510655124
3380486 145 18057328292728544182
3383291 50 16899051964710911623
3493558 16 15549053033857082179
35225 105 17825939334711597057
392239 28 16410407518031850602
394222 165 15379053679889994226
484985 159 15873849919642545848
59444896 2 14447580972949740548
81228 2 18187926123623012517
9981440 41 17053244468732983104

> <PUBCHEM_SHAPE_MULTIPOLES>
551.63
5.56
4.68
3.26
0.86
0.15
3.48
-0.76
2.48
1
-2.36
-0.07
0.27
3.11

> <PUBCHEM_SHAPE_SELFOVERLAP>
1160.694

> <PUBCHEM_SHAPE_VOLUME>
309.7

> <PUBCHEM_COORDINATE_TYPE>
2
5
10

$$$$
