REMARK  Name = 115321
REMARK  8 active torsions:
REMARK  status: ('A' for Active; 'I' for Inactive)
REMARK    1  A    between atoms: N_4  and  C_12
REMARK    2  A    between atoms: C_6  and  C_26
REMARK    3  A    between atoms: C_6  and  C_32
REMARK    4  A    between atoms: C_13  and  O_17
REMARK    5  A    between atoms: C_14  and  O_19
REMARK    6  A    between atoms: C_15  and  O_21
REMARK    7  A    between atoms: C_16  and  C_23
REMARK    8  A    between atoms: C_23  and  O_24
REMARK                            x       y       z     vdW  Elec       q    Type
REMARK                         _______ _______ _______ _____ _____    ______ ____
ROOT
ATOM      1  O   UNL     1       0.170   0.286  -1.639  0.00  0.00    -0.274 OA
ATOM      2  O   UNL     1      -3.241   2.676   0.376  0.00  0.00    -0.274 OA
ATOM      3  O   UNL     1       0.210   1.132   2.933  0.00  0.00    -0.252 OA
ATOM      4  N   UNL     1       0.190   0.557   0.671  0.00  0.00    -0.187 N 
ATOM      5  N   UNL     1      -1.560   1.797   1.654  0.00  0.00    -0.238 N 
ATOM      6  C   UNL     1      -1.932   0.859  -0.580  0.00  0.00    +0.157 C 
ATOM      7  C   UNL     1      -0.424   0.560  -0.593  0.00  0.00    +0.246 C 
ATOM      8  C   UNL     1      -2.311   1.879   0.496  0.00  0.00    +0.241 C 
ATOM      9  C   UNL     1      -0.348   1.138   1.833  0.00  0.00    +0.317 C 
ATOM     10  H   UNL     1      -1.924   2.259   2.444  0.00  0.00    +0.159 HD
ENDROOT
BRANCH   4  12
ATOM     11  O   UNL     1       2.370   0.840  -0.043  0.00  0.00    -0.333 OA
ATOM     12  C   UNL     1       1.526   0.021   0.761  0.00  0.00    +0.231 C 
ATOM     13  C   UNL     1       1.570  -1.432   0.291  0.00  0.00    +0.187 C 
ATOM     14  C   UNL     1       3.010  -1.942   0.232  0.00  0.00    +0.171 C 
ATOM     15  C   UNL     1       3.923  -0.966  -0.511  0.00  0.00    +0.169 C 
ATOM     16  C   UNL     1       3.745   0.456   0.033  0.00  0.00    +0.175 C 
BRANCH  13  17
ATOM     17  O   UNL     1       0.829  -2.237   1.207  0.00  0.00    -0.378 OA
ATOM     18  H   UNL     1      -0.086  -1.920   1.250  0.00  0.00    +0.211 HD
ENDBRANCH  13  17
BRANCH  14  19
ATOM     19  O   UNL     1       3.033  -3.209  -0.429  0.00  0.00    -0.379 OA
ATOM     20  H   UNL     1       2.455  -3.830   0.042  0.00  0.00    +0.211 HD
ENDBRANCH  14  19
BRANCH  15  21
ATOM     21  O   UNL     1       5.269  -1.399  -0.340  0.00  0.00    -0.379 OA
ATOM     22  H   UNL     1       5.366  -2.299  -0.689  0.00  0.00    +0.211 HD
ENDBRANCH  15  21
BRANCH  16  23
ATOM     23  C   UNL     1       4.544   1.483  -0.763  0.00  0.00    +0.169 C 
BRANCH  23  24
ATOM     24  O   UNL     1       4.316   2.764  -0.204  0.00  0.00    -0.379 OA
ATOM     25  H   UNL     1       4.819   3.428  -0.701  0.00  0.00    +0.211 HD
ENDBRANCH  23  24
ENDBRANCH  16  23
ENDBRANCH   4  12
BRANCH   6  26
ATOM     26  C   UNL     1      -2.772  -0.423  -0.378  0.00  0.00    -0.006 C 
ATOM     27  C   UNL     1      -4.043  -0.331   0.174  0.00  0.00    -0.003 C 
ATOM     28  C   UNL     1      -2.245  -1.653  -0.752  0.00  0.00    -0.003 C 
ATOM     29  C   UNL     1      -4.800  -1.488   0.356  0.00  0.00    -0.000 C 
ATOM     30  C   UNL     1      -3.003  -2.810  -0.570  0.00  0.00    -0.000 C 
ATOM     31  C   UNL     1      -4.280  -2.727  -0.015  0.00  0.00    -0.000 C 
ENDBRANCH   6  26
BRANCH   6  32
ATOM     32  C   UNL     1      -2.282   1.462  -1.964  0.00  0.00    +0.022 C 
ATOM     33  C   UNL     1      -1.466   2.707  -2.236  0.00  0.00    +0.001 C 
ENDBRANCH   6  32
TORSDOF 8
