11536903
  -OEChem-03292013303D

 34 36  0     0  0  0  0  0  0999 V2000
    5.0247    1.0409    0.1908 Cl  0  0  0  0  0  0  0  0  0  0  0  0
   -0.6671   -1.2231   -0.1741 S   0  0  0  0  0  0  0  0  0  0  0  0
   -3.2595    1.6780   -0.1727 O   0  0  0  0  0  0  0  0  0  0  0  0
    4.2518   -1.8038    0.0515 O   0  0  0  0  0  0  0  0  0  0  0  0
   -3.4979   -0.6034   -0.2934 N   0  0  0  0  0  0  0  0  0  0  0  0
   -0.5203    2.6468   -0.0295 N   0  0  0  0  0  0  0  0  0  0  0  0
    1.9741   -1.5323   -0.0526 N   0  0  0  0  0  0  0  0  0  0  0  0
   -4.9425   -0.5787   -0.3348 C   0  0  0  0  0  0  0  0  0  0  0  0
   -5.7306   -1.7600    0.1130 C   0  0  0  0  0  0  0  0  0  0  0  0
   -5.7306   -0.4989    0.9262 C   0  0  0  0  0  0  0  0  0  0  0  0
   -2.6987    0.5565   -0.2120 C   0  0  0  0  0  0  0  0  0  0  0  0
   -1.2830    0.3717   -0.1487 C   0  0  0  0  0  0  0  0  0  0  0  0
   -0.2801    1.3124   -0.0652 C   0  0  0  0  0  0  0  0  0  0  0  0
    1.0241    0.7233   -0.0206 C   0  0  0  0  0  0  0  0  0  0  0  0
    0.9410   -0.6641   -0.0738 C   0  0  0  0  0  0  0  0  0  0  0  0
    2.3169    1.2792    0.0639 C   0  0  0  0  0  0  0  0  0  0  0  0
    3.4138    0.4239    0.0888 C   0  0  0  0  0  0  0  0  0  0  0  0
    2.5308    2.7618    0.1271 C   0  0  0  0  0  0  0  0  0  0  0  0
    3.1842   -0.9393    0.0290 C   0  0  0  0  0  0  0  0  0  0  0  0
    3.9490   -3.1907   -0.0127 C   0  0  0  0  0  0  0  0  0  0  0  0
   -5.3225   -0.0404   -1.1968 H   0  0  0  0  0  0  0  0  0  0  0  0
   -5.2029   -2.6165    0.5144 H   0  0  0  0  0  0  0  0  0  0  0  0
   -6.6316   -2.0061   -0.4355 H   0  0  0  0  0  0  0  0  0  0  0  0
   -6.6305    0.1038    0.9234 H   0  0  0  0  0  0  0  0  0  0  0  0
   -5.2020   -0.5104    1.8716 H   0  0  0  0  0  0  0  0  0  0  0  0
   -3.0468   -1.5142   -0.3232 H   0  0  0  0  0  0  0  0  0  0  0  0
    3.5695    3.0896    0.1902 H   0  0  0  0  0  0  0  0  0  0  0  0
    2.1267    3.2338   -0.7749 H   0  0  0  0  0  0  0  0  0  0  0  0
    2.0377    3.1703    1.0157 H   0  0  0  0  0  0  0  0  0  0  0  0
    0.1915    3.3625    0.0320 H   0  0  0  0  0  0  0  0  0  0  0  0
   -1.4643    3.0217   -0.0633 H   0  0  0  0  0  0  0  0  0  0  0  0
    4.8941   -3.7415    0.0149 H   0  0  0  0  0  0  0  0  0  0  0  0
    3.4436   -3.4424   -0.9513 H   0  0  0  0  0  0  0  0  0  0  0  0
    3.3537   -3.5063    0.8509 H   0  0  0  0  0  0  0  0  0  0  0  0
  1 17  1  0  0  0  0
  2 12  1  0  0  0  0
  2 15  1  0  0  0  0
  3 11  2  0  0  0  0
  4 19  1  0  0  0  0
  4 20  1  0  0  0  0
  5  8  1  0  0  0  0
  5 11  1  0  0  0  0
  5 26  1  0  0  0  0
  6 13  1  0  0  0  0
  6 30  1  0  0  0  0
  6 31  1  0  0  0  0
  7 15  2  0  0  0  0
  7 19  1  0  0  0  0
  8  9  1  0  0  0  0
  8 10  1  0  0  0  0
  8 21  1  0  0  0  0
  9 10  1  0  0  0  0
  9 22  1  0  0  0  0
  9 23  1  0  0  0  0
 10 24  1  0  0  0  0
 10 25  1  0  0  0  0
 11 12  1  0  0  0  0
 12 13  2  0  0  0  0
 13 14  1  0  0  0  0
 14 15  1  0  0  0  0
 14 16  2  0  0  0  0
 16 17  1  0  0  0  0
 16 18  1  0  0  0  0
 17 19  2  0  0  0  0
 18 27  1  0  0  0  0
 18 28  1  0  0  0  0
 18 29  1  0  0  0  0
 20 32  1  0  0  0  0
 20 33  1  0  0  0  0
 20 34  1  0  0  0  0
M  END
> <PUBCHEM_COMPOUND_CID>
11536903

> <PUBCHEM_CONFORMER_RMSD>
0.6

> <PUBCHEM_CONFORMER_DIVERSEORDER>
1
2
8
7
10
11
9
6
3
4
5
13
12

> <PUBCHEM_MMFF94_PARTIAL_CHARGES>
27
1 -0.18
10 -0.2
11 0.71
12 -0.05
13 0.08
15 0.3
16 -0.14
17 0.18
18 0.14
19 0.39
2 -0.08
20 0.28
21 0.1
22 0.1
23 0.1
24 0.1
25 0.1
26 0.37
3 -0.57
30 0.4
31 0.4
4 -0.36
5 -0.58
6 -0.88
7 -0.57
8 0.05
9 -0.2

> <PUBCHEM_EFFECTIVE_ROTOR_COUNT>
4.6

> <PUBCHEM_PHARMACOPHORE_FEATURES>
8
1 3 acceptor
1 4 acceptor
1 5 donor
1 6 cation
1 6 donor
1 7 acceptor
5 2 12 13 14 15 rings
6 7 14 15 16 17 19 rings

> <PUBCHEM_HEAVY_ATOM_COUNT>
20

> <PUBCHEM_ATOM_DEF_STEREO_COUNT>
0

> <PUBCHEM_ATOM_UDEF_STEREO_COUNT>
0

> <PUBCHEM_BOND_DEF_STEREO_COUNT>
0

> <PUBCHEM_BOND_UDEF_STEREO_COUNT>
0

> <PUBCHEM_ISOTOPIC_ATOM_COUNT>
0

> <PUBCHEM_COMPONENT_COUNT>
1

> <PUBCHEM_CACTVS_TAUTO_COUNT>
3

> <PUBCHEM_CONFORMER_ID>
00B00A0700000001

> <PUBCHEM_MMFF94_ENERGY>
55.2292

> <PUBCHEM_FEATURE_SELFOVERLAP>
40.725

> <PUBCHEM_SHAPE_FINGERPRINT>
10411042 1 18267022761327535902
10967382 1 18411415142239361276
11796584 16 17385438860866758867
11806522 49 18408040706076767445
11963148 33 18263074577864933026
12032990 46 18409448064070439485
12107183 9 17982461390868334329
12236239 1 17703795850923391657
12403259 226 18336260141814433492
12596602 18 17131556145202448555
12730499 353 18337115682462351130
12916754 54 18339644417250814474
13009979 54 17773885186214715402
13140716 1 18124586750824345256
13167823 11 18412261736059496851
13533116 47 18412545427007275883
13544653 18 18334582343342469097
13862211 1 18410006671516570819
13955234 65 18341329010846175720
14341114 176 18411705374464464923
14790565 3 17399806389180621349
14863182 85 18410860979868220790
15196674 1 18410854321993632829
15475509 84 17917439666215776585
16945 1 18411133663078531036
17492 89 18339078168763048934
17844677 252 18411706461201980033
1813 80 17603307041964274069
19591789 44 18409727327097288343
200 152 18272651264407743769
20028762 73 18272928323890244487
20261772 1 18131066069540871343
20645477 70 18335136492491435890
21065198 48 18273220785650715089
21267235 1 18340773659259651702
21279426 13 18262513689953593447
221490 88 18337671914886506812
22182313 1 18189313754199319949
23559900 14 18337943481130981504
2748010 2 17905608053817744004
2871803 45 18186514398106282387
312423 11 18339092513985115285
314194 84 18341893047795665455
3286 77 18335138665654846964
33824 294 18409445908234389698
3421961 26 18411698794152463986
350125 39 18411982472516469313
3545911 37 18411136969992099022
4073 2 18114749338617696235
4214541 1 18410573947203913069
42630746 31 18341612667829646620
465052 167 18343026587895615478
5104073 3 18342171107745661024
59755656 215 18336269028592080494
7364860 26 18413385454339204968
7970288 3 18048311146467429666
9709674 26 18335423469300101843

> <PUBCHEM_SHAPE_MULTIPOLES>
390.63
11.74
2.81
0.67
12.61
0.4
0.04
4.9
1.43
-3.05
0.01
0.29
0.02
0.23

> <PUBCHEM_SHAPE_SELFOVERLAP>
822.466

> <PUBCHEM_SHAPE_VOLUME>
224.9

> <PUBCHEM_COORDINATE_TYPE>
2
5
10

$$$$
