REMARK  Name = 11538542
REMARK  9 active torsions:
REMARK  status: ('A' for Active; 'I' for Inactive)
REMARK    1  A    between atoms: N_1  and  C_27
REMARK    2  A    between atoms: C_2  and  C_9
REMARK    3  A    between atoms: C_3  and  C_19
REMARK    4  A    between atoms: C_4  and  C_24
REMARK    5  A    between atoms: C_12  and  N_17
REMARK    6  A    between atoms: C_19  and  O_20
REMARK    7  A    between atoms: O_20  and  C_21
REMARK    8  A    between atoms: C_24  and  O_25
REMARK    9  A    between atoms: C_27  and  C_28
REMARK                            x       y       z     vdW  Elec       q    Type
REMARK                         _______ _______ _______ _____ _____    ______ ____
ROOT
ATOM      1  N   UNL     1       2.403   1.014   0.525  0.00  0.00    -0.297 N 
ATOM      2  C   UNL     1       0.428   0.059  -1.344  0.00  0.00    +0.011 C 
ATOM      3  C   UNL     1       0.518   1.510  -0.900  0.00  0.00    +0.071 C 
ATOM      4  C   UNL     1       1.655  -0.747  -0.947  0.00  0.00    +0.085 C 
ATOM      5  C   UNL     1       1.461   1.930  -0.022  0.00  0.00    +0.102 C 
ATOM      6  C   UNL     1       2.568  -0.269  -0.068  0.00  0.00    +0.032 C 
ATOM      7  C   UNL     1       1.599   3.382   0.386  0.00  0.00    +0.027 C 
ATOM      8  C   UNL     1       3.823  -1.036   0.294  0.00  0.00    +0.047 C 
ENDROOT
BRANCH   2   9
ATOM      9  C   UNL     1      -0.861  -0.600  -0.856  0.00  0.00    +0.002 C 
ATOM     10  C   UNL     1      -1.088  -0.741   0.508  0.00  0.00    +0.024 C 
ATOM     11  C   UNL     1      -1.795  -1.052  -1.781  0.00  0.00    +0.000 C 
ATOM     12  C   UNL     1      -2.266  -1.341   0.954  0.00  0.00    +0.143 C 
ATOM     13  C   UNL     1      -2.973  -1.652  -1.335  0.00  0.00    +0.002 C 
ATOM     14  C   UNL     1      -3.208  -1.797   0.032  0.00  0.00    +0.024 C 
BRANCH  12  17
ATOM     15  O   UNL     1      -3.573  -2.029   2.724  0.00  0.00    -0.126 OA
ATOM     16  O   UNL     1      -1.646  -1.071   3.159  0.00  0.00    -0.126 OA
ATOM     17  N   UNL     1      -2.506  -1.487   2.345  0.00  0.00    +0.058 N 
ENDBRANCH  12  17
ENDBRANCH   2   9
BRANCH   3  19
ATOM     18  O   UNL     1      -0.307   3.022  -2.528  0.00  0.00    -0.245 OA
ATOM     19  C   UNL     1      -0.485   2.416  -1.490  0.00  0.00    +0.339 C 
BRANCH  19  20
ATOM     20  O   UNL     1      -1.573   2.427  -0.684  0.00  0.00    -0.446 OA
BRANCH  20  21
ATOM     21  C   UNL     1      -2.644   3.267  -1.126  0.00  0.00    +0.209 C 
ATOM     22  C   UNL     1      -3.783   3.178  -0.133  0.00  0.00    +0.051 C 
ENDBRANCH  20  21
ENDBRANCH  19  20
ENDBRANCH   3  19
BRANCH   4  24
ATOM     23  O   UNL     1       2.350  -2.256  -2.638  0.00  0.00    -0.245 OA
ATOM     24  C   UNL     1       1.774  -2.073  -1.583  0.00  0.00    +0.342 C 
BRANCH  24  25
ATOM     25  O   UNL     1       1.149  -2.979  -0.795  0.00  0.00    -0.441 OA
ATOM     26  C   UNL     1       1.180  -4.325  -1.282  0.00  0.00    +0.256 C 
ENDBRANCH  24  25
ENDBRANCH   4  24
BRANCH   1  27
ATOM     27  C   UNL     1       3.229   1.406   1.679  0.00  0.00    +0.169 C 
BRANCH  27  28
ATOM     28  C   UNL     1       2.559   1.063   2.936  0.00  0.00    -0.056 C 
ATOM     29  C   UNL     1       2.013   0.783   3.968  0.00  0.00    -0.012 C 
ENDBRANCH  27  28
ENDBRANCH   1  27
TORSDOF 9
