REMARK  Name = 115343
REMARK  6 active torsions:
REMARK  status: ('A' for Active; 'I' for Inactive)
REMARK    1  A    between atoms: C_16  and  C_29
REMARK    2  A    between atoms: C_17  and  C_33
REMARK    3  A    between atoms: C_22  and  O_24
REMARK    4  A    between atoms: C_23  and  O_26
REMARK    5  A    between atoms: C_29  and  O_30
REMARK    6  A    between atoms: C_33  and  O_34
REMARK                            x       y       z     vdW  Elec       q    Type
REMARK                         _______ _______ _______ _____ _____    ______ ____
ROOT
ATOM      1  O   UNL     1       0.767  -0.020   2.244  0.00  0.00    -0.440 OA
ATOM      2  O   UNL     1       3.084  -0.012  -1.109  0.00  0.00    -0.454 OA
ATOM      3  O   UNL     1      -0.887  -0.017   3.864  0.00  0.00    -0.245 OA
ATOM      4  C   UNL     1       0.859  -0.006   0.784  0.00  0.00    +0.198 C 
ATOM      5  C   UNL     1      -0.583   0.015   0.392  0.00  0.00    +0.028 C 
ATOM      6  C   UNL     1       1.602   1.249   0.369  0.00  0.00    +0.056 C 
ATOM      7  C   UNL     1       1.573  -1.268   0.344  0.00  0.00    +0.056 C 
ATOM      8  C   UNL     1      -1.377   0.012   1.525  0.00  0.00    +0.076 C 
ATOM      9  C   UNL     1       2.648   1.168  -0.557  0.00  0.00    +0.148 C 
ATOM     10  C   UNL     1       2.621  -1.193  -0.581  0.00  0.00    +0.148 C 
ATOM     11  C   UNL     1      -0.525  -0.009   2.704  0.00  0.00    +0.342 C 
ATOM     12  C   UNL     1      -1.164   0.034  -0.866  0.00  0.00    +0.007 C 
ATOM     13  C   UNL     1       1.250   2.515   0.869  0.00  0.00    +0.006 C 
ATOM     14  C   UNL     1       1.193  -2.536   0.818  0.00  0.00    +0.006 C 
ATOM     15  C   UNL     1      -2.758   0.029   1.470  0.00  0.00    +0.013 C 
ATOM     16  C   UNL     1      -2.559   0.051  -0.953  0.00  0.00    +0.082 C 
ATOM     17  C   UNL     1      -3.351   0.049   0.208  0.00  0.00    +0.082 C 
ATOM     18  C   UNL     1       3.317   2.320  -0.983  0.00  0.00    +0.074 C 
ATOM     19  C   UNL     1       3.265  -2.351  -1.030  0.00  0.00    +0.074 C 
ATOM     20  C   UNL     1       1.923   3.664   0.450  0.00  0.00    +0.037 C 
ATOM     21  C   UNL     1       1.840  -3.691   0.376  0.00  0.00    +0.037 C 
ATOM     22  C   UNL     1       2.956   3.567  -0.478  0.00  0.00    +0.137 C 
ATOM     23  C   UNL     1       2.875  -3.599  -0.549  0.00  0.00    +0.137 C 
ENDROOT
BRANCH  22  24
ATOM     24  O   UNL     1       3.611   4.686  -0.889  0.00  0.00    -0.505 OA
ATOM     25  H   UNL     1       4.306   4.619  -1.514  0.00  0.00    +0.292 HD
ENDBRANCH  22  24
BRANCH  23  26
ATOM     26  O   UNL     1       3.505  -4.724  -0.984  0.00  0.00    -0.505 OA
ATOM     27  H   UNL     1       4.202  -4.660  -1.607  0.00  0.00    +0.292 HD
ENDBRANCH  23  26
BRANCH  16  29
ATOM     28  O   UNL     1      -3.456   1.090  -2.913  0.00  0.00    -0.245 OA
ATOM     29  C   UNL     1      -3.170   0.073  -2.277  0.00  0.00    +0.338 C 
BRANCH  29  30
ATOM     30  O   UNL     1      -3.399  -1.177  -2.761  0.00  0.00    -0.477 OA
ATOM     31  H   UNL     1      -3.168  -1.928  -2.249  0.00  0.00    +0.295 HD
ENDBRANCH  29  30
ENDBRANCH  16  29
BRANCH  17  33
ATOM     32  O   UNL     1      -5.461   0.586  -0.783  0.00  0.00    -0.245 OA
ATOM     33  C   UNL     1      -4.806   0.066   0.123  0.00  0.00    +0.338 C 
BRANCH  33  34
ATOM     34  O   UNL     1      -5.393  -0.568   1.173  0.00  0.00    -0.477 OA
ATOM     35  H   UNL     1      -4.863  -0.952   1.844  0.00  0.00    +0.295 HD
ENDBRANCH  33  34
ENDBRANCH  17  33
TORSDOF 6
