REMARK  Name = 11545888
REMARK  13 active torsions:
REMARK  status: ('A' for Active; 'I' for Inactive)
REMARK    1  A    between atoms: C_1  and  C_26
REMARK    2  A    between atoms: C_2  and  O_11
REMARK    3  A    between atoms: C_5  and  O_7
REMARK    4  A    between atoms: C_6  and  O_9
REMARK    5  A    between atoms: O_11  and  C_13
REMARK    6  A    between atoms: C_12  and  C_20
REMARK    7  A    between atoms: C_14  and  O_18
REMARK    8  A    between atoms: C_20  and  C_21
REMARK    9  A    between atoms: C_21  and  C_23
REMARK   10  A    between atoms: C_23  and  O_24
REMARK   11  A    between atoms: C_26  and  C_27
REMARK   12  A    between atoms: C_27  and  C_29
REMARK   13  A    between atoms: C_29  and  O_30
REMARK                            x       y       z     vdW  Elec       q    Type
REMARK                         _______ _______ _______ _____ _____    ______ ____
ROOT
ATOM      1  C   UNL     1       3.498   0.140   0.311  0.00  0.00    -0.015 C 
ATOM      2  C   UNL     1       1.133   1.581  -0.023  0.00  0.00    +0.213 C 
ATOM      3  C   UNL     1       2.454  -0.010   1.225  0.00  0.00    +0.036 C 
ATOM      4  C   UNL     1       3.359   1.010  -0.770  0.00  0.00    +0.036 C 
ATOM      5  C   UNL     1       1.272   0.710   1.057  0.00  0.00    +0.176 C 
ATOM      6  C   UNL     1       2.176   1.731  -0.937  0.00  0.00    +0.176 C 
ENDROOT
BRANCH   5   7
ATOM      7  O   UNL     1       0.261   0.555   1.957  0.00  0.00    -0.468 OA
ATOM      8  C   UNL     1       0.484  -0.354   3.033  0.00  0.00    +0.253 C 
ENDBRANCH   5   7
BRANCH   6   9
ATOM      9  O   UNL     1       2.053   2.578  -1.997  0.00  0.00    -0.468 OA
ATOM     10  C   UNL     1       3.166   2.673  -2.884  0.00  0.00    +0.253 C 
ENDBRANCH   6   9
BRANCH   2  11
ATOM     11  O   UNL     1      -0.041   2.296  -0.189  0.00  0.00    -0.444 OA
BRANCH  11  13
ATOM     12  C   UNL     1      -3.549   0.132  -0.681  0.00  0.00    -0.018 C 
ATOM     13  C   UNL     1      -1.195   1.590  -0.344  0.00  0.00    +0.179 C 
ATOM     14  C   UNL     1      -2.246   1.743   0.561  0.00  0.00    +0.173 C 
ATOM     15  C   UNL     1      -3.423   1.013   0.392  0.00  0.00    +0.036 C 
ATOM     16  C   UNL     1      -2.498  -0.021  -1.586  0.00  0.00    -0.001 C 
ATOM     17  C   UNL     1      -1.322   0.708  -1.417  0.00  0.00    +0.040 C 
BRANCH  14  18
ATOM     18  O   UNL     1      -2.135   2.601   1.613  0.00  0.00    -0.468 OA
ATOM     19  C   UNL     1      -3.254   2.698   2.491  0.00  0.00    +0.253 C 
ENDBRANCH  14  18
BRANCH  12  20
ATOM     20  C   UNL     1      -4.808  -0.648  -0.862  0.00  0.00    +0.038 C 
BRANCH  20  21
ATOM     21  C   UNL     1      -4.800  -2.006  -0.148  0.00  0.00    +0.114 C 
BRANCH  21  23
ATOM     22  O   UNL     1      -7.000  -2.355  -1.083  0.00  0.00    -0.250 OA
ATOM     23  C   UNL     1      -6.079  -2.770  -0.391  0.00  0.00    +0.314 C 
BRANCH  23  24
ATOM     24  O   UNL     1      -6.116  -3.957   0.263  0.00  0.00    -0.480 OA
ATOM     25  H   UNL     1      -5.385  -4.230   0.781  0.00  0.00    +0.295 HD
ENDBRANCH  23  24
ENDBRANCH  21  23
ENDBRANCH  20  21
ENDBRANCH  12  20
ENDBRANCH  11  13
ENDBRANCH   2  11
BRANCH   1  26
ATOM     26  C   UNL     1       4.762  -0.631   0.490  0.00  0.00    +0.038 C 
BRANCH  26  27
ATOM     27  C   UNL     1       4.757  -1.995  -0.211  0.00  0.00    +0.114 C 
BRANCH  27  29
ATOM     28  O   UNL     1       6.966  -2.322   0.712  0.00  0.00    -0.250 OA
ATOM     29  C   UNL     1       6.043  -2.749   0.030  0.00  0.00    +0.314 C 
BRANCH  29  30
ATOM     30  O   UNL     1       6.082  -3.942  -0.613  0.00  0.00    -0.480 OA
ATOM     31  H   UNL     1       5.349  -4.224  -1.124  0.00  0.00    +0.295 HD
ENDBRANCH  29  30
ENDBRANCH  27  29
ENDBRANCH  26  27
ENDBRANCH   1  26
TORSDOF 13
