11540179
  -OEChem-03292013303D

 55 59  0     1  0  0  0  0  0999 V2000
   -1.7200    1.2930   -0.7568 O   0  0  0  0  0  0  0  0  0  0  0  0
   -2.9450   -2.0526   -1.1108 O   0  0  0  0  0  0  0  0  0  0  0  0
    1.3005   -1.4070    0.0184 O   0  0  0  0  0  0  0  0  0  0  0  0
   -2.8555   -0.6305    2.0866 O   0  0  0  0  0  0  0  0  0  0  0  0
   -0.2885   -3.0278    0.2432 O   0  0  0  0  0  0  0  0  0  0  0  0
   -7.6538    1.2865   -1.0762 O   0  0  0  0  0  0  0  0  0  0  0  0
   -7.4465    2.9021    1.1757 O   0  0  0  0  0  0  0  0  0  0  0  0
    7.8150    2.0618   -0.9826 O   0  0  0  0  0  0  0  0  0  0  0  0
    9.4707    0.2928    0.3768 O   0  0  0  0  0  0  0  0  0  0  0  0
   -2.4876   -0.9627   -0.3064 C   0  0  2  0  0  0  0  0  0  0  0  0
   -2.8560    0.3986   -0.9462 C   0  0  1  0  0  0  0  0  0  0  0  0
   -1.0169   -0.8469   -0.2692 C   0  0  0  0  0  0  0  0  0  0  0  0
   -3.0514   -1.2617    1.0605 C   0  0  0  0  0  0  0  0  0  0  0  0
   -0.6805    0.4131   -0.5100 C   0  0  0  0  0  0  0  0  0  0  0  0
   -4.0705    1.0585   -0.3877 C   0  0  0  0  0  0  0  0  0  0  0  0
   -3.7615   -2.8187   -0.2813 C   0  0  0  0  0  0  0  0  0  0  0  0
   -3.8909   -2.4507    0.9927 C   0  0  0  0  0  0  0  0  0  0  0  0
    0.0006   -1.8593    0.0171 C   0  0  0  0  0  0  0  0  0  0  0  0
    0.6683    0.8698   -0.4945 C   0  0  0  0  0  0  0  0  0  0  0  0
   -5.3114    0.8646   -0.9952 C   0  0  0  0  0  0  0  0  0  0  0  0
   -3.9670    1.8703    0.7421 C   0  0  0  0  0  0  0  0  0  0  0  0
    1.6182   -0.0409   -0.2351 C   0  0  0  0  0  0  0  0  0  0  0  0
   -4.4070   -3.9995   -0.9141 C   0  0  0  0  0  0  0  0  0  0  0  0
   -6.4479    1.4820   -0.4731 C   0  0  0  0  0  0  0  0  0  0  0  0
   -5.1035    2.4878    1.2641 C   0  0  0  0  0  0  0  0  0  0  0  0
   -6.3440    2.2938    0.6565 C   0  0  0  0  0  0  0  0  0  0  0  0
    3.0210    0.2535   -0.1840 C   0  0  0  0  0  0  0  0  0  0  0  0
    3.9554   -0.6705    0.0910 C   0  0  0  0  0  0  0  0  0  0  0  0
    5.4045   -0.4149    0.1639 C   0  0  0  0  0  0  0  0  0  0  0  0
    5.9262    0.7127   -0.4494 C   0  0  0  0  0  0  0  0  0  0  0  0
    6.2172   -1.3065    0.8451 C   0  0  0  0  0  0  0  0  0  0  0  0
    7.2981    0.9552   -0.3795 C   0  0  0  0  0  0  0  0  0  0  0  0
    7.5891   -1.0640    0.9149 C   0  0  0  0  0  0  0  0  0  0  0  0
    8.1295    0.0668    0.3025 C   0  0  0  0  0  0  0  0  0  0  0  0
    7.8911    3.2511   -0.1991 C   0  0  0  0  0  0  0  0  0  0  0  0
   -2.9733    0.2896   -2.0347 H   0  0  0  0  0  0  0  0  0  0  0  0
   -4.4542   -2.8991    1.7896 H   0  0  0  0  0  0  0  0  0  0  0  0
    0.8861    1.9133   -0.6884 H   0  0  0  0  0  0  0  0  0  0  0  0
   -5.3994    0.2308   -1.8744 H   0  0  0  0  0  0  0  0  0  0  0  0
   -3.0152    2.0362    1.2393 H   0  0  0  0  0  0  0  0  0  0  0  0
   -5.0497   -3.6822   -1.7413 H   0  0  0  0  0  0  0  0  0  0  0  0
   -5.0236   -4.5557   -0.2006 H   0  0  0  0  0  0  0  0  0  0  0  0
   -3.6473   -4.6816   -1.3083 H   0  0  0  0  0  0  0  0  0  0  0  0
   -5.0087    3.1164    2.1455 H   0  0  0  0  0  0  0  0  0  0  0  0
    3.2862    1.2920   -0.3591 H   0  0  0  0  0  0  0  0  0  0  0  0
    3.6733   -1.7019    0.2913 H   0  0  0  0  0  0  0  0  0  0  0  0
   -8.3269    1.7876   -0.5836 H   0  0  0  0  0  0  0  0  0  0  0  0
   -7.1840    3.4225    1.9544 H   0  0  0  0  0  0  0  0  0  0  0  0
    5.3151    1.4144   -1.0089 H   0  0  0  0  0  0  0  0  0  0  0  0
    5.8113   -2.1910    1.3288 H   0  0  0  0  0  0  0  0  0  0  0  0
    8.2254   -1.7640    1.4497 H   0  0  0  0  0  0  0  0  0  0  0  0
    9.8848   -0.4241    0.8871 H   0  0  0  0  0  0  0  0  0  0  0  0
    8.3303    4.0402   -0.8157 H   0  0  0  0  0  0  0  0  0  0  0  0
    8.5286    3.0959    0.6771 H   0  0  0  0  0  0  0  0  0  0  0  0
    6.8914    3.5679    0.1147 H   0  0  0  0  0  0  0  0  0  0  0  0
  1 11  1  0  0  0  0
  1 14  1  0  0  0  0
  2 10  1  0  0  0  0
  2 16  1  0  0  0  0
  3 18  1  0  0  0  0
  3 22  1  0  0  0  0
  4 13  2  0  0  0  0
  5 18  2  0  0  0  0
  6 24  1  0  0  0  0
  6 47  1  0  0  0  0
  7 26  1  0  0  0  0
  7 48  1  0  0  0  0
  8 32  1  0  0  0  0
  8 35  1  0  0  0  0
  9 34  1  0  0  0  0
  9 52  1  0  0  0  0
 10 11  1  0  0  0  0
 10 12  1  0  0  0  0
 10 13  1  0  0  0  0
 11 15  1  0  0  0  0
 11 36  1  0  0  0  0
 12 14  2  0  0  0  0
 12 18  1  0  0  0  0
 13 17  1  0  0  0  0
 14 19  1  0  0  0  0
 15 20  2  0  0  0  0
 15 21  1  0  0  0  0
 16 17  2  0  0  0  0
 16 23  1  0  0  0  0
 17 37  1  0  0  0  0
 19 22  2  0  0  0  0
 19 38  1  0  0  0  0
 20 24  1  0  0  0  0
 20 39  1  0  0  0  0
 21 25  2  0  0  0  0
 21 40  1  0  0  0  0
 22 27  1  0  0  0  0
 23 41  1  0  0  0  0
 23 42  1  0  0  0  0
 23 43  1  0  0  0  0
 24 26  2  0  0  0  0
 25 26  1  0  0  0  0
 25 44  1  0  0  0  0
 27 28  2  0  0  0  0
 27 45  1  0  0  0  0
 28 29  1  0  0  0  0
 28 46  1  0  0  0  0
 29 30  2  0  0  0  0
 29 31  1  0  0  0  0
 30 32  1  0  0  0  0
 30 49  1  0  0  0  0
 31 33  2  0  0  0  0
 31 50  1  0  0  0  0
 32 34  2  0  0  0  0
 33 34  1  0  0  0  0
 33 51  1  0  0  0  0
 35 53  1  0  0  0  0
 35 54  1  0  0  0  0
 35 55  1  0  0  0  0
M  END
> <PUBCHEM_COMPOUND_CID>
11540179

> <PUBCHEM_CONFORMER_RMSD>
0.8

> <PUBCHEM_CONFORMER_DIVERSEORDER>
32
38
55
17
61
1
15
44
53
60
37
47
54
29
45
43
27
18
35
52
16
14
20
56
58
36
13
59
48
8
28
42
51
46
34
26
49
5
30
50
24
33
11
25
7
10
22
41
21
12
31
57
6
9
19
3
39
23
4
40
2

> <PUBCHEM_MMFF94_PARTIAL_CHARGES>
48
1 -0.36
10 0.48
11 0.42
12 -0.12
13 0.49
14 0.08
15 -0.14
16 -0.06
17 -0.14
18 0.71
19 -0.15
2 -0.36
20 -0.15
21 -0.15
22 0.08
23 0.14
24 0.08
25 -0.15
26 0.08
27 -0.15
28 -0.18
29 0.03
3 -0.23
30 -0.15
31 -0.15
32 0.08
33 -0.15
34 0.08
35 0.28
37 0.15
38 0.15
39 0.15
4 -0.57
40 0.15
44 0.15
45 0.15
46 0.15
47 0.45
48 0.45
49 0.15
5 -0.57
50 0.15
51 0.15
52 0.45
6 -0.53
7 -0.53
8 -0.36
9 -0.53

> <PUBCHEM_EFFECTIVE_ROTOR_COUNT>
4.6

> <PUBCHEM_PHARMACOPHORE_FEATURES>
13
1 1 acceptor
1 2 acceptor
1 4 acceptor
1 5 acceptor
1 6 donor
1 7 donor
1 8 acceptor
1 9 donor
5 1 10 11 12 14 rings
5 2 10 13 16 17 rings
6 15 20 21 24 25 26 rings
6 29 30 31 32 33 34 rings
6 3 12 14 18 19 22 rings

> <PUBCHEM_HEAVY_ATOM_COUNT>
35

> <PUBCHEM_ATOM_DEF_STEREO_COUNT>
0

> <PUBCHEM_ATOM_UDEF_STEREO_COUNT>
2

> <PUBCHEM_BOND_DEF_STEREO_COUNT>
1

> <PUBCHEM_BOND_UDEF_STEREO_COUNT>
0

> <PUBCHEM_ISOTOPIC_ATOM_COUNT>
0

> <PUBCHEM_COMPONENT_COUNT>
1

> <PUBCHEM_CACTVS_TAUTO_COUNT>
69

> <PUBCHEM_CONFORMER_ID>
00B016D300000020

> <PUBCHEM_MMFF94_ENERGY>
110.1107

> <PUBCHEM_FEATURE_SELFOVERLAP>
66.091

> <PUBCHEM_SHAPE_FINGERPRINT>
10 15 17822296755725590352
10050765 1 18196930182903575916
10076449 9 16056874750457601519
10411042 1 17980196715292191887
11135926 11 16153418446618227090
11315181 36 18410572898836091637
12089408 11 18114179766794888158
12539765 74 18059862718743755596
12616971 3 16515695450316641166
13540713 5 18043263524933118469
14040222 383 18412258463073086123
14394314 77 18333732429592280804
14849402 71 18411983571991739113
15021287 119 16877948251784529044
15064986 266 18187653552767828602
15183329 4 18342739616178209312
15276724 80 18334289830521978044
15400415 2 18261107518035987754
15461852 350 17704068516785171613
16114785 44 16806151174058425839
16126227 98 18412830157817006241
16989713 51 17488173996849791462
17093844 174 18411416228539046258
17980427 23 17894918455052781990
19315958 150 18338802199986750143
21033648 29 18059839702246228586
21130935 74 18409164438138650738
21236236 1 18335419092718046551
21756936 100 18272368638675281381
21927370 108 17604437426687671011
22311459 1 18410572842701291204
23081809 10 18187363264407177390
24771293 8 18340207389128121653
4073 2 18114465643290605994
44280117 145 18269834388442630006
44389302 135 18263630794765479642
44802255 64 16487249942340441205
4625314 4 18411703197570264758
5028188 123 18340215172188299076
5104073 3 18187363259811419696
5265222 85 18128817637461594006
54039377 194 10087626114651313385
5758199 1 18341332193480186609
58260988 114 16878522236463839499
6086070 43 18131343146391560112
6328613 192 18410575106824152976
6691757 9 18272374166256012795
9831232 110 18130519544418525654
99344 41 18410571778446226526

> <PUBCHEM_SHAPE_MULTIPOLES>
667.46
25.78
3.52
1.14
48.15
1.16
-0.25
-16.41
-1.59
-5.13
-0.09
-1.22
-0.05
-2.26

> <PUBCHEM_SHAPE_SELFOVERLAP>
1496.75

> <PUBCHEM_SHAPE_VOLUME>
353.2

> <PUBCHEM_COORDINATE_TYPE>
2
5
10

$$$$
