REMARK  Name = 11544617
REMARK  4 active torsions:
REMARK  status: ('A' for Active; 'I' for Inactive)
REMARK    1  A    between atoms: C_7  and  O_19
REMARK    2  A    between atoms: C_11  and  O_21
REMARK    3  A    between atoms: C_11  and  C_24
REMARK    4  A    between atoms: C_24  and  O_25
REMARK                            x       y       z     vdW  Elec       q    Type
REMARK                         _______ _______ _______ _____ _____    ______ ____
ROOT
ATOM      1  O   UNL     1      -0.306   1.680  -0.115  0.00  0.00    -0.326 OA
ATOM      2  O   UNL     1      -3.078   0.708  -1.443  0.00  0.00    -0.446 OA
ATOM      3  O   UNL     1       2.369  -3.492  -0.376  0.00  0.00    -0.291 OA
ATOM      4  O   UNL     1      -3.873   1.862   0.362  0.00  0.00    -0.247 OA
ATOM      5  C   UNL     1       0.753  -0.385   0.345  0.00  0.00    +0.082 C 
ATOM      6  C   UNL     1      -1.764  -0.947  -0.340  0.00  0.00    +0.091 C 
ATOM      7  C   UNL     1      -2.113   0.200   0.644  0.00  0.00    +0.209 C 
ATOM      8  C   UNL     1      -0.907   1.069   1.050  0.00  0.00    +0.154 C 
ATOM      9  C   UNL     1       0.177   0.166   1.641  0.00  0.00    +0.042 C 
ATOM     10  C   UNL     1      -0.290  -1.353  -0.243  0.00  0.00    -0.031 C 
ATOM     11  C   UNL     1       0.865   0.925  -0.462  0.00  0.00    +0.280 C 
ATOM     12  C   UNL     1       2.050  -1.217   0.408  0.00  0.00    +0.071 C 
ATOM     13  C   UNL     1      -2.101  -0.313  -1.695  0.00  0.00    +0.215 C 
ATOM     14  C   UNL     1       0.213  -2.550  -0.565  0.00  0.00    +0.029 C 
ATOM     15  C   UNL     1      -2.706  -2.161  -0.136  0.00  0.00    +0.011 C 
ATOM     16  C   UNL     1       1.632  -2.531  -0.202  0.00  0.00    +0.173 C 
ATOM     17  C   UNL     1      -3.123   1.026  -0.118  0.00  0.00    +0.344 C 
ATOM     18  C   UNL     1       2.627  -1.451   1.797  0.00  0.00    +0.009 C 
ENDROOT
BRANCH   7  19
ATOM     19  O   UNL     1      -2.782  -0.231   1.821  0.00  0.00    -0.374 OA
ATOM     20  H   UNL     1      -2.179  -0.771   2.356  0.00  0.00    +0.211 HD
ENDBRANCH   7  19
BRANCH  11  21
ATOM     21  O   UNL     1       1.033   0.690  -1.847  0.00  0.00    -0.355 OA
ATOM     22  H   UNL     1       0.321   0.114  -2.165  0.00  0.00    +0.213 HD
ENDBRANCH  11  21
BRANCH  11  24
ATOM     23  O   UNL     1       1.921   2.693   0.799  0.00  0.00    -0.245 OA
ATOM     24  C   UNL     1       2.006   1.821  -0.055  0.00  0.00    +0.369 C 
BRANCH  24  25
ATOM     25  O   UNL     1       3.116   1.504  -0.780  0.00  0.00    -0.441 OA
ATOM     26  C   UNL     1       4.282   2.284  -0.493  0.00  0.00    +0.256 C 
ENDBRANCH  24  25
ENDBRANCH  11  24
TORSDOF 4
