REMARK  Name = 11546423
REMARK  7 active torsions:
REMARK  status: ('A' for Active; 'I' for Inactive)
REMARK    1  A    between atoms: C_5  and  C_16
REMARK    2  A    between atoms: C_6  and  C_28
REMARK    3  A    between atoms: C_10  and  O_26
REMARK    4  A    between atoms: C_19  and  O_22
REMARK    5  A    between atoms: C_21  and  O_24
REMARK    6  A    between atoms: C_28  and  O_29
REMARK    7  A    between atoms: O_29  and  C_31
REMARK                            x       y       z     vdW  Elec       q    Type
REMARK                         _______ _______ _______ _____ _____    ______ ____
ROOT
ATOM      1  O   UNL     1       0.578  -0.836  -0.114  0.00  0.00    -0.465 OA
ATOM      2  O   UNL     1       0.706   1.983  -0.671  0.00  0.00    -0.465 OA
ATOM      3  O   UNL     1       2.862  -2.230   0.321  0.00  0.00    -0.418 OA
ATOM      4  O   UNL     1       3.930  -4.205   0.771  0.00  0.00    -0.244 OA
ATOM      5  C   UNL     1      -0.574   0.021  -0.029  0.00  0.00    +0.232 C 
ATOM      6  C   UNL     1      -0.436   1.184  -1.024  0.00  0.00    +0.253 C 
ATOM      7  C   UNL     1       1.754  -0.141  -0.149  0.00  0.00    +0.210 C 
ATOM      8  C   UNL     1       1.816   1.226  -0.409  0.00  0.00    +0.209 C 
ATOM      9  C   UNL     1       2.940  -0.841   0.077  0.00  0.00    +0.186 C 
ATOM     10  C   UNL     1       3.046   1.888  -0.399  0.00  0.00    +0.176 C 
ATOM     11  C   UNL     1       4.176  -0.199   0.076  0.00  0.00    +0.041 C 
ATOM     12  C   UNL     1       4.225   1.177  -0.159  0.00  0.00    +0.043 C 
ATOM     13  C   UNL     1       5.376  -0.981   0.325  0.00  0.00    +0.010 C 
ATOM     14  C   UNL     1       5.290  -2.294   0.552  0.00  0.00    +0.082 C 
ATOM     15  C   UNL     1       3.996  -2.999   0.560  0.00  0.00    +0.346 C 
ENDROOT
BRANCH   5  16
ATOM     16  C   UNL     1      -1.787  -0.851  -0.273  0.00  0.00    +0.024 C 
ATOM     17  C   UNL     1      -2.725  -1.040   0.741  0.00  0.00    +0.039 C 
ATOM     18  C   UNL     1      -1.965  -1.465  -1.512  0.00  0.00    +0.003 C 
ATOM     19  C   UNL     1      -3.843  -1.843   0.516  0.00  0.00    +0.172 C 
ATOM     20  C   UNL     1      -3.083  -2.269  -1.738  0.00  0.00    +0.040 C 
ATOM     21  C   UNL     1      -4.022  -2.458  -0.724  0.00  0.00    +0.168 C 
BRANCH  19  22
ATOM     22  O   UNL     1      -4.753  -2.020   1.514  0.00  0.00    -0.468 OA
ATOM     23  C   UNL     1      -5.833  -1.090   1.579  0.00  0.00    +0.253 C 
ENDBRANCH  19  22
BRANCH  21  24
ATOM     24  O   UNL     1      -5.109  -3.244  -0.957  0.00  0.00    -0.503 OA
ATOM     25  H   UNL     1      -5.745  -3.377  -0.281  0.00  0.00    +0.292 HD
ENDBRANCH  21  24
ENDBRANCH   5  16
BRANCH  10  26
ATOM     26  O   UNL     1       3.116   3.229  -0.633  0.00  0.00    -0.468 OA
ATOM     27  C   UNL     1       3.018   4.090   0.500  0.00  0.00    +0.253 C 
ENDBRANCH  10  26
BRANCH   6  28
ATOM     28  C   UNL     1      -1.638   2.124  -1.013  0.00  0.00    +0.256 C 
BRANCH  28  29
ATOM     29  O   UNL     1      -1.778   2.660   0.290  0.00  0.00    -0.444 OA
BRANCH  29  31
ATOM     30  O   UNL     1      -3.622   3.878  -0.383  0.00  0.00    -0.250 OA
ATOM     31  C   UNL     1      -2.819   3.532   0.473  0.00  0.00    +0.318 C 
ATOM     32  C   UNL     1      -2.843   4.015   1.891  0.00  0.00    +0.121 C 
ENDBRANCH  29  31
ENDBRANCH  28  29
ENDBRANCH   6  28
TORSDOF 7
