REMARK  Name = 11540179
REMARK  7 active torsions:
REMARK  status: ('A' for Active; 'I' for Inactive)
REMARK    1  A    between atoms: C_7  and  C_17
REMARK    2  A    between atoms: C_15  and  C_27
REMARK    3  A    between atoms: C_20  and  O_23
REMARK    4  A    between atoms: C_22  and  O_25
REMARK    5  A    between atoms: C_28  and  C_29
REMARK    6  A    between atoms: C_32  and  O_35
REMARK    7  A    between atoms: C_34  and  O_37
REMARK                            x       y       z     vdW  Elec       q    Type
REMARK                         _______ _______ _______ _____ _____    ______ ____
ROOT
ATOM      1  O   UNL     1      -1.720   1.293  -0.757  0.00  0.00    -0.470 OA
ATOM      2  O   UNL     1      -2.945  -2.053  -1.111  0.00  0.00    -0.471 OA
ATOM      3  O   UNL     1       1.300  -1.407   0.018  0.00  0.00    -0.421 OA
ATOM      4  O   UNL     1      -2.856  -0.630   2.087  0.00  0.00    -0.287 OA
ATOM      5  O   UNL     1      -0.288  -3.028   0.243  0.00  0.00    -0.245 OA
ATOM      6  C   UNL     1      -2.488  -0.963  -0.306  0.00  0.00    +0.254 C 
ATOM      7  C   UNL     1      -2.856   0.399  -0.946  0.00  0.00    +0.236 C 
ATOM      8  C   UNL     1      -1.017  -0.847  -0.269  0.00  0.00    +0.134 C 
ATOM      9  C   UNL     1      -3.051  -1.262   1.060  0.00  0.00    +0.220 C 
ATOM     10  C   UNL     1      -0.680   0.413  -0.510  0.00  0.00    +0.148 C 
ATOM     11  C   UNL     1      -3.761  -2.819  -0.281  0.00  0.00    +0.120 C 
ATOM     12  C   UNL     1      -3.891  -2.451   0.993  0.00  0.00    +0.074 C 
ATOM     13  C   UNL     1       0.001  -1.859   0.017  0.00  0.00    +0.349 C 
ATOM     14  C   UNL     1       0.668   0.870  -0.494  0.00  0.00    +0.074 C 
ATOM     15  C   UNL     1       1.618  -0.041  -0.235  0.00  0.00    +0.152 C 
ATOM     16  C   UNL     1      -4.407  -3.999  -0.914  0.00  0.00    +0.072 C 
ENDROOT
BRANCH   7  17
ATOM     17  C   UNL     1      -4.071   1.058  -0.388  0.00  0.00    +0.025 C 
ATOM     18  C   UNL     1      -5.311   0.865  -0.995  0.00  0.00    +0.039 C 
ATOM     19  C   UNL     1      -3.967   1.870   0.742  0.00  0.00    +0.003 C 
ATOM     20  C   UNL     1      -6.448   1.482  -0.473  0.00  0.00    +0.167 C 
ATOM     21  C   UNL     1      -5.104   2.488   1.264  0.00  0.00    +0.040 C 
ATOM     22  C   UNL     1      -6.344   2.294   0.656  0.00  0.00    +0.167 C 
BRANCH  20  23
ATOM     23  O   UNL     1      -7.654   1.286  -1.076  0.00  0.00    -0.503 OA
ATOM     24  H   UNL     1      -7.715   0.740  -1.835  0.00  0.00    +0.292 HD
ENDBRANCH  20  23
BRANCH  22  25
ATOM     25  O   UNL     1      -7.447   2.902   1.176  0.00  0.00    -0.503 OA
ATOM     26  H   UNL     1      -8.284   2.777   0.774  0.00  0.00    +0.292 HD
ENDBRANCH  22  25
ENDBRANCH   7  17
BRANCH  15  27
ATOM     27  C   UNL     1       3.021   0.254  -0.184  0.00  0.00    +0.038 C 
ATOM     28  C   UNL     1       3.955  -0.670   0.091  0.00  0.00    +0.003 C 
BRANCH  28  29
ATOM     29  C   UNL     1       5.404  -0.415   0.164  0.00  0.00    +0.003 C 
ATOM     30  C   UNL     1       5.926   0.713  -0.449  0.00  0.00    +0.040 C 
ATOM     31  C   UNL     1       6.217  -1.306   0.845  0.00  0.00    +0.003 C 
ATOM     32  C   UNL     1       7.298   0.955  -0.380  0.00  0.00    +0.172 C 
ATOM     33  C   UNL     1       7.589  -1.064   0.915  0.00  0.00    +0.040 C 
ATOM     34  C   UNL     1       8.130   0.067   0.302  0.00  0.00    +0.168 C 
BRANCH  32  35
ATOM     35  O   UNL     1       7.815   2.062  -0.983  0.00  0.00    -0.468 OA
ATOM     36  C   UNL     1       7.891   3.251  -0.199  0.00  0.00    +0.253 C 
ENDBRANCH  32  35
BRANCH  34  37
ATOM     37  O   UNL     1       9.471   0.293   0.377  0.00  0.00    -0.503 OA
ATOM     38  H   UNL     1       9.842   1.050  -0.032  0.00  0.00    +0.292 HD
ENDBRANCH  34  37
ENDBRANCH  28  29
ENDBRANCH  15  27
TORSDOF 7
