REMARK  Name = 11546620
REMARK  10 active torsions:
REMARK  status: ('A' for Active; 'I' for Inactive)
REMARK    1  A    between atoms: C_1  and  C_9
REMARK    2  A    between atoms: C_4  and  C_23
REMARK    3  A    between atoms: N_8  and  C_11
REMARK    4  A    between atoms: C_11  and  C_14
REMARK    5  A    between atoms: C_11  and  C_18
REMARK    6  A    between atoms: N_13  and  O_16
REMARK    7  A    between atoms: C_18  and  O_20
REMARK    8  A    between atoms: C_22  and  C_29
REMARK    9  A    between atoms: C_24  and  C_30
REMARK   10  A    between atoms: C_30  and  N_32
REMARK                            x       y       z     vdW  Elec       q    Type
REMARK                         _______ _______ _______ _____ _____    ______ ____
ROOT
ATOM      1  C   UNL     1       3.594  -0.777  -0.466  0.00  0.00    +0.053 C 
ATOM      2  C   UNL     1       2.915  -1.736  -1.188  0.00  0.00    +0.005 C 
ATOM      3  C   UNL     1       2.944   0.141   0.332  0.00  0.00    +0.005 C 
ATOM      4  C   UNL     1       0.842  -0.861  -0.310  0.00  0.00    +0.042 C 
ATOM      5  C   UNL     1       1.523  -1.779  -1.110  0.00  0.00    +0.008 C 
ATOM      6  C   UNL     1       1.552   0.099   0.411  0.00  0.00    +0.008 C 
ENDROOT
BRANCH   1   9
ATOM      7  O   UNL     1       5.693  -1.759  -0.826  0.00  0.00    -0.270 OA
ATOM      8  N   UNL     1       5.662   0.505  -0.321  0.00  0.00    -0.293 N 
ATOM      9  C   UNL     1       5.077  -0.733  -0.548  0.00  0.00    +0.246 C 
ATOM     10  H   UNL     1       5.082   1.270  -0.104  0.00  0.00    +0.150 HD
BRANCH   8  11
ATOM     11  C   UNL     1       7.086   0.714  -0.389  0.00  0.00    +0.178 C 
BRANCH  11  14
ATOM     12  O   UNL     1       7.443   1.028   1.989  0.00  0.00    -0.271 OA
ATOM     13  N   UNL     1       8.505  -0.722   0.923  0.00  0.00    -0.196 N 
ATOM     14  C   UNL     1       7.673   0.370   0.976  0.00  0.00    +0.265 C 
ATOM     15  H   UNL     1       8.661  -1.221   0.089  0.00  0.00    +0.182 HD
BRANCH  13  16
ATOM     16  O   UNL     1       9.117  -1.082   2.131  0.00  0.00    -0.295 OA
ATOM     17  H   UNL     1       9.680  -1.859   1.990  0.00  0.00    +0.241 HD
ENDBRANCH  13  16
ENDBRANCH  11  14
BRANCH  11  18
ATOM     18  C   UNL     1       7.457   2.141  -0.812  0.00  0.00    +0.137 C 
ATOM     19  C   UNL     1       6.857   2.525  -2.160  0.00  0.00    +0.034 C 
BRANCH  18  20
ATOM     20  O   UNL     1       7.004   3.065   0.177  0.00  0.00    -0.382 OA
ATOM     21  H   UNL     1       7.381   2.828   1.038  0.00  0.00    +0.210 HD
ENDBRANCH  18  20
ENDBRANCH  11  18
ENDBRANCH   8  11
ENDBRANCH   1   9
BRANCH   4  23
ATOM     22  C   UNL     1      -1.785  -0.939  -0.166  0.00  0.00    -0.060 C 
ATOM     23  C   UNL     1      -0.585  -0.903  -0.232  0.00  0.00    -0.060 C 
BRANCH  22  29
ATOM     24  C   UNL     1      -5.996  -1.060   0.068  0.00  0.00    -0.043 C 
ATOM     25  C   UNL     1      -5.375  -0.396  -0.990  0.00  0.00    -0.006 C 
ATOM     26  C   UNL     1      -5.224  -1.685   1.048  0.00  0.00    -0.006 C 
ATOM     27  C   UNL     1      -3.983  -0.357  -1.068  0.00  0.00    +0.008 C 
ATOM     28  C   UNL     1      -3.832  -1.645   0.970  0.00  0.00    +0.008 C 
ATOM     29  C   UNL     1      -3.213  -0.981  -0.087  0.00  0.00    +0.042 C 
BRANCH  24  30
ATOM     30  C   UNL     1      -7.484  -1.104   0.149  0.00  0.00    -0.050 C 
BRANCH  30  32
ATOM     31  O   UNL     1      -9.714   2.421   0.617  0.00  0.00    -0.358 OA
ATOM     32  N   UNL     1      -8.094   0.198  -0.115  0.00  0.00    +0.393 N 
ATOM     33  C   UNL     1      -9.560   0.102  -0.082  0.00  0.00    -0.044 C 
ATOM     34  C   UNL     1      -7.633   1.198   0.858  0.00  0.00    -0.044 C 
ATOM     35  C   UNL     1     -10.174   1.474  -0.349  0.00  0.00    +0.119 C 
ATOM     36  C   UNL     1      -8.292   2.543   0.570  0.00  0.00    +0.119 C 
ATOM     37  H   UNL     1      -7.807   0.494  -1.048  0.00  0.00    -0.079 HD
ENDBRANCH  30  32
ENDBRANCH  24  30
ENDBRANCH  22  29
ENDBRANCH   4  23
TORSDOF 10
