11546620
  -OEChem-03292013303D

 59 61  0     1  0  0  0  0  0999 V2000
   -9.7143    2.4206    0.6165 O   0  0  0  0  0  0  0  0  0  0  0  0
    7.0037    3.0650    0.1770 O   0  0  0  0  0  0  0  0  0  0  0  0
    7.4431    1.0278    1.9893 O   0  0  0  0  0  0  0  0  0  0  0  0
    5.6933   -1.7587   -0.8256 O   0  0  0  0  0  0  0  0  0  0  0  0
    9.1168   -1.0823    2.1315 O   0  0  0  0  0  0  0  0  0  0  0  0
   -8.0943    0.1975   -0.1150 N   0  0  0  0  0  0  0  0  0  0  0  0
    5.6620    0.5048   -0.3206 N   0  0  0  0  0  0  0  0  0  0  0  0
    8.5050   -0.7224    0.9234 N   0  0  0  0  0  0  0  0  0  0  0  0
   -9.5604    0.1025   -0.0824 C   0  0  0  0  0  0  0  0  0  0  0  0
   -7.6328    1.1975    0.8579 C   0  0  0  0  0  0  0  0  0  0  0  0
   -7.4841   -1.1039    0.1494 C   0  0  0  0  0  0  0  0  0  0  0  0
  -10.1738    1.4742   -0.3491 C   0  0  0  0  0  0  0  0  0  0  0  0
   -8.2922    2.5433    0.5701 C   0  0  0  0  0  0  0  0  0  0  0  0
   -5.9956   -1.0605    0.0676 C   0  0  0  0  0  0  0  0  0  0  0  0
    7.0862    0.7136   -0.3893 C   0  0  1  0  0  0  0  0  0  0  0  0
   -5.3748   -0.3964   -0.9901 C   0  0  0  0  0  0  0  0  0  0  0  0
   -5.2244   -1.6850    1.0478 C   0  0  0  0  0  0  0  0  0  0  0  0
    7.4571    2.1414   -0.8120 C   0  0  1  0  0  0  0  0  0  0  0  0
   -3.9827   -0.3568   -1.0678 C   0  0  0  0  0  0  0  0  0  0  0  0
   -3.8322   -1.6454    0.9703 C   0  0  0  0  0  0  0  0  0  0  0  0
   -3.2128   -0.9813   -0.0875 C   0  0  0  0  0  0  0  0  0  0  0  0
    6.8574    2.5246   -2.1601 C   0  0  0  0  0  0  0  0  0  0  0  0
    7.6732    0.3703    0.9762 C   0  0  0  0  0  0  0  0  0  0  0  0
    5.0768   -0.7333   -0.5481 C   0  0  0  0  0  0  0  0  0  0  0  0
    3.5941   -0.7775   -0.4658 C   0  0  0  0  0  0  0  0  0  0  0  0
   -1.7852   -0.9390   -0.1657 C   0  0  0  0  0  0  0  0  0  0  0  0
    2.9151   -1.7364   -1.1884 C   0  0  0  0  0  0  0  0  0  0  0  0
    2.9439    0.1409    0.3319 C   0  0  0  0  0  0  0  0  0  0  0  0
    0.8415   -0.8613   -0.3103 C   0  0  0  0  0  0  0  0  0  0  0  0
    1.5230   -1.7789   -1.1099 C   0  0  0  0  0  0  0  0  0  0  0  0
    1.5519    0.0985    0.4106 C   0  0  0  0  0  0  0  0  0  0  0  0
   -0.5846   -0.9035   -0.2318 C   0  0  0  0  0  0  0  0  0  0  0  0
   -9.8973   -0.2626    0.8966 H   0  0  0  0  0  0  0  0  0  0  0  0
   -9.9134   -0.5992   -0.8467 H   0  0  0  0  0  0  0  0  0  0  0  0
   -7.8912    0.8806    1.8772 H   0  0  0  0  0  0  0  0  0  0  0  0
   -6.5502    1.3531    0.8203 H   0  0  0  0  0  0  0  0  0  0  0  0
   -7.8311   -1.8340   -0.5936 H   0  0  0  0  0  0  0  0  0  0  0  0
   -7.8022   -1.4802    1.1313 H   0  0  0  0  0  0  0  0  0  0  0  0
  -11.2639    1.4173   -0.2666 H   0  0  0  0  0  0  0  0  0  0  0  0
   -9.9359    1.8348   -1.3573 H   0  0  0  0  0  0  0  0  0  0  0  0
   -7.9903    2.9415   -0.4063 H   0  0  0  0  0  0  0  0  0  0  0  0
   -7.9976    3.2733    1.3309 H   0  0  0  0  0  0  0  0  0  0  0  0
    7.4870    0.0235   -1.1426 H   0  0  0  0  0  0  0  0  0  0  0  0
   -5.9550    0.0857   -1.7726 H   0  0  0  0  0  0  0  0  0  0  0  0
   -5.6938   -2.2072    1.8773 H   0  0  0  0  0  0  0  0  0  0  0  0
    8.5478    2.2362   -0.8584 H   0  0  0  0  0  0  0  0  0  0  0  0
   -3.5130    0.1626   -1.8997 H   0  0  0  0  0  0  0  0  0  0  0  0
   -3.2444   -2.1367    1.7420 H   0  0  0  0  0  0  0  0  0  0  0  0
    5.0870    1.3147   -0.1206 H   0  0  0  0  0  0  0  0  0  0  0  0
    7.1768    3.5350   -2.4384 H   0  0  0  0  0  0  0  0  0  0  0  0
    5.7629    2.5471   -2.1282 H   0  0  0  0  0  0  0  0  0  0  0  0
    7.1741    1.8327   -2.9463 H   0  0  0  0  0  0  0  0  0  0  0  0
    6.0321    3.0692    0.1682 H   0  0  0  0  0  0  0  0  0  0  0  0
    3.4304   -2.4545   -1.8192 H   0  0  0  0  0  0  0  0  0  0  0  0
    3.4583    0.8786    0.9385 H   0  0  0  0  0  0  0  0  0  0  0  0
    8.7862   -1.2309    0.0927 H   0  0  0  0  0  0  0  0  0  0  0  0
    0.9832   -2.5320   -1.6790 H   0  0  0  0  0  0  0  0  0  0  0  0
    1.0348    0.8153    1.0443 H   0  0  0  0  0  0  0  0  0  0  0  0
    9.9906   -1.3603    1.8086 H   0  0  0  0  0  0  0  0  0  0  0  0
  1 12  1  0  0  0  0
  1 13  1  0  0  0  0
  2 18  1  0  0  0  0
  2 53  1  0  0  0  0
  3 23  2  0  0  0  0
  4 24  2  0  0  0  0
  5  8  1  0  0  0  0
  5 59  1  0  0  0  0
  6  9  1  0  0  0  0
  6 10  1  0  0  0  0
  6 11  1  0  0  0  0
  7 15  1  0  0  0  0
  7 24  1  0  0  0  0
  7 49  1  0  0  0  0
  8 23  1  0  0  0  0
  8 56  1  0  0  0  0
  9 12  1  0  0  0  0
  9 33  1  0  0  0  0
  9 34  1  0  0  0  0
 10 13  1  0  0  0  0
 10 35  1  0  0  0  0
 10 36  1  0  0  0  0
 11 14  1  0  0  0  0
 11 37  1  0  0  0  0
 11 38  1  0  0  0  0
 12 39  1  0  0  0  0
 12 40  1  0  0  0  0
 13 41  1  0  0  0  0
 13 42  1  0  0  0  0
 14 16  2  0  0  0  0
 14 17  1  0  0  0  0
 15 18  1  0  0  0  0
 15 23  1  0  0  0  0
 15 43  1  0  0  0  0
 16 19  1  0  0  0  0
 16 44  1  0  0  0  0
 17 20  2  0  0  0  0
 17 45  1  0  0  0  0
 18 22  1  0  0  0  0
 18 46  1  0  0  0  0
 19 21  2  0  0  0  0
 19 47  1  0  0  0  0
 20 21  1  0  0  0  0
 20 48  1  0  0  0  0
 21 26  1  0  0  0  0
 22 50  1  0  0  0  0
 22 51  1  0  0  0  0
 22 52  1  0  0  0  0
 24 25  1  0  0  0  0
 25 27  2  0  0  0  0
 25 28  1  0  0  0  0
 26 32  3  0  0  0  0
 27 30  1  0  0  0  0
 27 54  1  0  0  0  0
 28 31  2  0  0  0  0
 28 55  1  0  0  0  0
 29 30  2  0  0  0  0
 29 31  1  0  0  0  0
 29 32  1  0  0  0  0
 30 57  1  0  0  0  0
 31 58  1  0  0  0  0
M  END
> <PUBCHEM_COMPOUND_CID>
11546620

> <PUBCHEM_CONFORMER_RMSD>
1

> <PUBCHEM_CONFORMER_DIVERSEORDER>
1
20
24
12
17
22
13
11
4
10
14
26
15
23
3
2
28
8
9
16
18
5
6
7
27
25
21
19

> <PUBCHEM_MMFF94_PARTIAL_CHARGES>
43
1 -0.56
10 0.27
11 0.41
12 0.28
13 0.28
14 -0.14
15 0.36
16 -0.15
17 -0.15
18 0.28
19 -0.15
2 -0.68
20 -0.15
21 0.07
23 0.57
24 0.54
25 0.09
26 -0.07
27 -0.15
28 -0.15
29 0.07
3 -0.57
30 -0.15
31 -0.15
32 -0.07
4 -0.57
44 0.15
45 0.15
47 0.15
48 0.15
49 0.37
5 -0.44
53 0.4
54 0.15
55 0.15
56 0.37
57 0.15
58 0.15
59 0.4
6 -0.81
7 -0.73
8 -0.39
9 0.27

> <PUBCHEM_EFFECTIVE_ROTOR_COUNT>
9.2

> <PUBCHEM_PHARMACOPHORE_FEATURES>
11
1 1 acceptor
1 2 acceptor
1 2 donor
1 3 acceptor
1 4 acceptor
1 6 cation
1 7 donor
1 8 donor
6 1 6 9 10 12 13 rings
6 14 16 17 19 20 21 rings
6 25 27 28 29 30 31 rings

> <PUBCHEM_HEAVY_ATOM_COUNT>
32

> <PUBCHEM_ATOM_DEF_STEREO_COUNT>
2

> <PUBCHEM_ATOM_UDEF_STEREO_COUNT>
0

> <PUBCHEM_BOND_DEF_STEREO_COUNT>
0

> <PUBCHEM_BOND_UDEF_STEREO_COUNT>
0

> <PUBCHEM_ISOTOPIC_ATOM_COUNT>
0

> <PUBCHEM_COMPONENT_COUNT>
1

> <PUBCHEM_CACTVS_TAUTO_COUNT>
6

> <PUBCHEM_CONFORMER_ID>
00B02FFC00000001

> <PUBCHEM_MMFF94_ENERGY>
76.309

> <PUBCHEM_FEATURE_SELFOVERLAP>
55.828

> <PUBCHEM_SHAPE_FINGERPRINT>
10 15 18114743836912308806
10533779 47 16081083749558399336
10625338 86 18040429967942267469
11135926 11 14779538024600357315
11181472 205 17987812795586008707
11315181 36 16487257686630717939
11386260 185 14836115580844051978
11408170 108 16081640072999918562
11408170 132 18201169762691399148
11578821 258 18340772632415061869
11607047 141 17968372326390946834
11638347 137 17022897944043998458
12089408 11 17749107820310606263
125118 31 18410298025356100692
12522641 24 17822284692190812554
12539765 74 18411991273347850614
12592606 108 8502657004017696493
12728209 37 17313103055953665513
12758862 56 12468637261729698687
12838862 33 17275096224024742802
13553643 46 18113897152587371261
14118638 360 15195015903441570543
15461852 350 17274821372979073983
15554971 5 18334575771895112247
15604295 49 17989199365722554977
15840311 113 18409173199444082422
17324776 126 13989219057266429393
1754908 1 16515408499272413153
1754911 235 16415480458728797433
1818759 1 12468357938172744395
2026 5 9943263509866809637
21362267 313 18336262319336485523
21792934 111 18202560662671098906
21895431 317 11455626335283113948
23576562 1 16414903271375852737
249057 3 15554441920991978727
306946 40 16702008791229034938
3178227 256 14201403793607253927
3711267 37 17917721218364663673
4073 2 18408329904175699515
44280117 145 18267025136893337599
44802255 64 17346878932852494703
4760202 170 17561075912664548936
4874694 18 14117795834973908996
504579 68 15410892972661278213
5937810 71 17345762881253382009
636775 72 18410014304903194097
68570916 9 17823702069584309870
9953998 17 17531248383618611255

> <PUBCHEM_SHAPE_MULTIPOLES>
614.26
38.77
2.47
1.36
23.06
1.76
-0.15
22.92
-7.95
-0.37
0.24
-2.88
0.13
-1.57

> <PUBCHEM_SHAPE_SELFOVERLAP>
1297.94

> <PUBCHEM_SHAPE_VOLUME>
342.1

> <PUBCHEM_COORDINATE_TYPE>
2
5
10

$$$$
