REMARK  Name = 11559764
REMARK  6 active torsions:
REMARK  status: ('A' for Active; 'I' for Inactive)
REMARK    1  A    between atoms: C_5  and  C_16
REMARK    2  A    between atoms: C_6  and  C_28
REMARK    3  A    between atoms: C_19  and  O_22
REMARK    4  A    between atoms: C_20  and  O_24
REMARK    5  A    between atoms: C_21  and  O_26
REMARK    6  A    between atoms: C_28  and  O_29
REMARK                            x       y       z     vdW  Elec       q    Type
REMARK                         _______ _______ _______ _____ _____    ______ ____
ROOT
ATOM      1  O   UNL     1      -0.017   0.712   0.263  0.00  0.00    -0.468 OA
ATOM      2  O   UNL     1       0.851  -2.032   0.261  0.00  0.00    -0.469 OA
ATOM      3  O   UNL     1       5.365  -0.579  -0.070  0.00  0.00    -0.421 OA
ATOM      4  O   UNL     1       7.542   0.110  -0.249  0.00  0.00    -0.244 OA
ATOM      5  C   UNL     1      -0.859  -0.365   0.710  0.00  0.00    +0.231 C 
ATOM      6  C   UNL     1      -0.502  -1.656  -0.047  0.00  0.00    +0.239 C 
ATOM      7  C   UNL     1       1.300   0.351   0.167  0.00  0.00    +0.173 C 
ATOM      8  C   UNL     1       1.721  -0.980   0.176  0.00  0.00    +0.175 C 
ATOM      9  C   UNL     1       2.232   1.387   0.047  0.00  0.00    +0.043 C 
ATOM     10  C   UNL     1       3.080  -1.284   0.110  0.00  0.00    +0.078 C 
ATOM     11  C   UNL     1       3.594   1.091  -0.034  0.00  0.00    +0.038 C 
ATOM     12  C   UNL     1       3.998  -0.241   0.004  0.00  0.00    +0.152 C 
ATOM     13  C   UNL     1       4.607   2.127  -0.152  0.00  0.00    +0.010 C 
ATOM     14  C   UNL     1       5.899   1.798  -0.223  0.00  0.00    +0.082 C 
ATOM     15  C   UNL     1       6.351   0.395  -0.184  0.00  0.00    +0.346 C 
ENDROOT
BRANCH   5  16
ATOM     16  C   UNL     1      -2.289   0.084   0.509  0.00  0.00    +0.027 C 
ATOM     17  C   UNL     1      -2.772   0.320  -0.778  0.00  0.00    +0.040 C 
ATOM     18  C   UNL     1      -3.126   0.262   1.611  0.00  0.00    +0.039 C 
ATOM     19  C   UNL     1      -4.091   0.734  -0.963  0.00  0.00    +0.175 C 
ATOM     20  C   UNL     1      -4.445   0.675   1.426  0.00  0.00    +0.170 C 
ATOM     21  C   UNL     1      -4.928   0.912   0.139  0.00  0.00    +0.202 C 
BRANCH  19  22
ATOM     22  O   UNL     1      -4.549   0.964  -2.225  0.00  0.00    -0.468 OA
ATOM     23  C   UNL     1      -5.138  -0.139  -2.912  0.00  0.00    +0.253 C 
ENDBRANCH  19  22
BRANCH  20  24
ATOM     24  O   UNL     1      -5.251   0.847   2.511  0.00  0.00    -0.503 OA
ATOM     25  H   UNL     1      -4.918   0.686   3.372  0.00  0.00    +0.292 HD
ENDBRANCH  20  24
BRANCH  21  26
ATOM     26  O   UNL     1      -6.216   1.319  -0.042  0.00  0.00    -0.501 OA
ATOM     27  H   UNL     1      -6.541   1.478  -0.906  0.00  0.00    +0.292 HD
ENDBRANCH  21  26
ENDBRANCH   5  16
BRANCH   6  28
ATOM     28  C   UNL     1      -1.378  -2.841   0.352  0.00  0.00    +0.185 C 
BRANCH  28  29
ATOM     29  O   UNL     1      -0.979  -3.970  -0.405  0.00  0.00    -0.378 OA
ATOM     30  H   UNL     1      -1.527  -4.732  -0.162  0.00  0.00    +0.211 HD
ENDBRANCH  28  29
ENDBRANCH   6  28
TORSDOF 6
