REMARK  Name = 11559542
REMARK  8 active torsions:
REMARK  status: ('A' for Active; 'I' for Inactive)
REMARK    1  A    between atoms: C_3  and  C_24
REMARK    2  A    between atoms: C_6  and  O_16
REMARK    3  A    between atoms: C_7  and  O_18
REMARK    4  A    between atoms: C_12  and  O_20
REMARK    5  A    between atoms: C_14  and  O_22
REMARK    6  A    between atoms: C_24  and  C_25
REMARK    7  A    between atoms: C_25  and  C_26
REMARK    8  A    between atoms: C_26  and  O_29
REMARK                            x       y       z     vdW  Elec       q    Type
REMARK                         _______ _______ _______ _____ _____    ______ ____
ROOT
ATOM      1  O   UNL     1      -0.521  -0.519  -0.289  0.00  0.00    -0.450 OA
ATOM      2  O   UNL     1      -2.750   2.812   0.534  0.00  0.00    -0.286 OA
ATOM      3  C   UNL     1       1.473   0.734  -0.271  0.00  0.00    +0.047 C 
ATOM      4  C   UNL     1       0.084   0.704  -0.133  0.00  0.00    +0.150 A 
ATOM      5  C   UNL     1      -0.607   1.882   0.148  0.00  0.00    +0.107 A 
ATOM      6  C   UNL     1       2.163   1.938  -0.126  0.00  0.00    +0.141 C 
ATOM      7  C   UNL     1       0.079   3.090   0.293  0.00  0.00    +0.143 C 
ATOM      8  C   UNL     1      -2.070   1.826   0.290  0.00  0.00    +0.204 A 
ATOM      9  C   UNL     1       1.467   3.114   0.155  0.00  0.00    +0.073 C 
ATOM     10  C   UNL     1      -2.699   0.507   0.122  0.00  0.00    +0.077 A 
ATOM     11  C   UNL     1      -1.886  -0.591  -0.158  0.00  0.00    +0.185 A 
ATOM     12  C   UNL     1      -2.462  -1.853  -0.321  0.00  0.00    +0.203 C 
ATOM     13  C   UNL     1      -4.083   0.354   0.242  0.00  0.00    +0.010 C 
ATOM     14  C   UNL     1      -3.843  -2.010  -0.203  0.00  0.00    +0.171 C 
ATOM     15  C   UNL     1      -4.652  -0.908   0.078  0.00  0.00    +0.040 C 
ENDROOT
BRANCH   6  16
ATOM     16  O   UNL     1       3.519   1.984  -0.256  0.00  0.00    -0.472 OA
ATOM     17  C   UNL     1       4.037   2.228  -1.562  0.00  0.00    +0.252 C 
ENDBRANCH   6  16
BRANCH   7  18
ATOM     18  O   UNL     1      -0.552   4.266   0.568  0.00  0.00    -0.505 OA
ATOM     19  H   UNL     1      -1.484   4.285   0.667  0.00  0.00    +0.292 HD
ENDBRANCH   7  18
BRANCH  12  20
ATOM     20  O   UNL     1      -1.679  -2.936  -0.596  0.00  0.00    -0.501 OA
ATOM     21  H   UNL     1      -0.751  -2.835  -0.677  0.00  0.00    +0.292 HD
ENDBRANCH  12  20
BRANCH  14  22
ATOM     22  O   UNL     1      -4.417  -3.236  -0.361  0.00  0.00    -0.503 OA
ATOM     23  H   UNL     1      -3.883  -3.982  -0.549  0.00  0.00    +0.292 HD
ENDBRANCH  14  22
BRANCH   3  24
ATOM     24  C   UNL     1       2.231  -0.520  -0.574  0.00  0.00    +0.035 C 
BRANCH  24  25
ATOM     25  C   UNL     1       2.665  -1.254   0.708  0.00  0.00    +0.032 C 
BRANCH  25  26
ATOM     26  C   UNL     1       3.430  -2.572   0.473  0.00  0.00    +0.089 C 
ATOM     27  C   UNL     1       3.788  -3.206   1.822  0.00  0.00    +0.029 C 
ATOM     28  C   UNL     1       2.635  -3.566  -0.376  0.00  0.00    +0.029 C 
BRANCH  26  29
ATOM     29  O   UNL     1       4.650  -2.269  -0.207  0.00  0.00    -0.387 OA
ATOM     30  H   UNL     1       5.167  -1.639   0.319  0.00  0.00    +0.210 HD
ENDBRANCH  26  29
ENDBRANCH  25  26
ENDBRANCH  24  25
ENDBRANCH   3  24
TORSDOF 8
