11553515
  -OEChem-03292013303D

 64 64  0     1  0  0  0  0  0999 V2000
    3.6010    0.6967    0.0169 O   0  0  0  0  0  0  0  0  0  0  0  0
    6.6449    1.9104    0.6470 O   0  0  0  0  0  0  0  0  0  0  0  0
    4.6489   -2.9832   -0.3513 O   0  0  0  0  0  0  0  0  0  0  0  0
   -6.3930   -1.9109   -0.5564 O   0  0  0  0  0  0  0  0  0  0  0  0
   -6.6716    0.9173   -1.1273 O   0  0  0  0  0  0  0  0  0  0  0  0
    3.0306    2.0646   -1.7599 O   0  0  0  0  0  0  0  0  0  0  0  0
    4.7463    0.1519   -0.6688 C   0  0  1  0  0  0  0  0  0  0  0  0
    5.7367   -0.3056    0.3939 C   0  0  0  0  0  0  0  0  0  0  0  0
    4.3205   -0.9608   -1.6509 C   0  0  0  0  0  0  0  0  0  0  0  0
    6.0953    0.8144    1.3729 C   0  0  1  0  0  0  0  0  0  0  0  0
    3.6770   -2.2454   -1.0901 C   0  0  2  0  0  0  0  0  0  0  0  0
   -5.2383   -0.0727    0.5555 C   0  0  0  0  0  0  0  0  0  0  0  0
   -5.8475   -1.4767    0.6865 C   0  0  2  0  0  0  0  0  0  0  0  0
   -6.2509    1.0415    0.2284 C   0  0  1  0  0  0  0  0  0  0  0  0
   -4.8174   -2.5186    1.1605 C   0  0  0  0  0  0  0  0  0  0  0  0
   -5.6720    2.4500    0.4709 C   0  0  0  0  0  0  0  0  0  0  0  0
    7.1160    0.3432    2.3999 C   0  0  0  0  0  0  0  0  0  0  0  0
    2.4595   -2.0333   -0.2345 C   0  0  0  0  0  0  0  0  0  0  0  0
   -3.6029   -2.6380    0.2759 C   0  0  0  0  0  0  0  0  0  0  0  0
   -4.3649    2.6720   -0.2432 C   0  0  0  0  0  0  0  0  0  0  0  0
    2.8211    1.5811   -0.6596 C   0  0  0  0  0  0  0  0  0  0  0  0
    1.2094   -2.3127   -0.6360 C   0  0  0  0  0  0  0  0  0  0  0  0
   -2.3592   -2.3182    0.6673 C   0  0  0  0  0  0  0  0  0  0  0  0
    0.0461   -2.1428    0.2089 C   0  0  0  0  0  0  0  0  0  0  0  0
   -3.1780    2.6281    0.3806 C   0  0  0  0  0  0  0  0  0  0  0  0
   -1.1983   -2.4551   -0.1862 C   0  0  0  0  0  0  0  0  0  0  0  0
    1.6116    1.8018    0.1591 C   0  0  0  0  0  0  0  0  0  0  0  0
   -1.9155    2.6632   -0.3198 C   0  0  0  0  0  0  0  0  0  0  0  0
    0.4988    2.2630   -0.4259 C   0  0  0  0  0  0  0  0  0  0  0  0
   -0.7540    2.3749    0.2859 C   0  0  0  0  0  0  0  0  0  0  0  0
    5.2158    0.9520   -1.2564 H   0  0  0  0  0  0  0  0  0  0  0  0
    6.6396   -0.6856   -0.0993 H   0  0  0  0  0  0  0  0  0  0  0  0
    5.3091   -1.1154    0.9932 H   0  0  0  0  0  0  0  0  0  0  0  0
    5.2150   -1.2542   -2.2165 H   0  0  0  0  0  0  0  0  0  0  0  0
    3.6154   -0.5306   -2.3736 H   0  0  0  0  0  0  0  0  0  0  0  0
    5.2059    1.1770    1.8987 H   0  0  0  0  0  0  0  0  0  0  0  0
    3.4155   -2.8744   -1.9506 H   0  0  0  0  0  0  0  0  0  0  0  0
   -4.4879   -0.0966   -0.2444 H   0  0  0  0  0  0  0  0  0  0  0  0
   -4.7343    0.1685    1.4995 H   0  0  0  0  0  0  0  0  0  0  0  0
   -6.6713   -1.4440    1.4094 H   0  0  0  0  0  0  0  0  0  0  0  0
   -7.1422    0.9316    0.8575 H   0  0  0  0  0  0  0  0  0  0  0  0
   -5.2928   -3.5068    1.1970 H   0  0  0  0  0  0  0  0  0  0  0  0
   -4.5152   -2.2764    2.1871 H   0  0  0  0  0  0  0  0  0  0  0  0
   -5.5465    2.6060    1.5496 H   0  0  0  0  0  0  0  0  0  0  0  0
   -6.3822    3.2072    0.1174 H   0  0  0  0  0  0  0  0  0  0  0  0
    7.3864    1.1648    3.0720 H   0  0  0  0  0  0  0  0  0  0  0  0
    6.7241   -0.4838    2.9998 H   0  0  0  0  0  0  0  0  0  0  0  0
    8.0428    0.0168    1.9152 H   0  0  0  0  0  0  0  0  0  0  0  0
    2.6263   -1.6576    0.7728 H   0  0  0  0  0  0  0  0  0  0  0  0
   -3.7726   -3.0195   -0.7286 H   0  0  0  0  0  0  0  0  0  0  0  0
    7.4412    1.5954    0.1860 H   0  0  0  0  0  0  0  0  0  0  0  0
   -4.4119    2.7932   -1.3229 H   0  0  0  0  0  0  0  0  0  0  0  0
    4.2298   -3.8063   -0.0466 H   0  0  0  0  0  0  0  0  0  0  0  0
   -6.8029   -2.7805   -0.4109 H   0  0  0  0  0  0  0  0  0  0  0  0
   -7.0796    0.0411   -1.2307 H   0  0  0  0  0  0  0  0  0  0  0  0
    1.0438   -2.6986   -1.6388 H   0  0  0  0  0  0  0  0  0  0  0  0
   -2.1958   -1.9396    1.6731 H   0  0  0  0  0  0  0  0  0  0  0  0
    0.2166   -1.7562    1.2113 H   0  0  0  0  0  0  0  0  0  0  0  0
   -3.1470    2.4675    1.4557 H   0  0  0  0  0  0  0  0  0  0  0  0
   -1.3671   -2.8445   -1.1878 H   0  0  0  0  0  0  0  0  0  0  0  0
    1.6340    1.5077    1.2035 H   0  0  0  0  0  0  0  0  0  0  0  0
   -1.9424    2.8577   -1.3894 H   0  0  0  0  0  0  0  0  0  0  0  0
    0.4910    2.5113   -1.4841 H   0  0  0  0  0  0  0  0  0  0  0  0
   -0.7390    2.1448    1.3493 H   0  0  0  0  0  0  0  0  0  0  0  0
  1  7  1  0  0  0  0
  1 21  1  0  0  0  0
  2 10  1  0  0  0  0
  2 51  1  0  0  0  0
  3 11  1  0  0  0  0
  3 53  1  0  0  0  0
  4 13  1  0  0  0  0
  4 54  1  0  0  0  0
  5 14  1  0  0  0  0
  5 55  1  0  0  0  0
  6 21  2  0  0  0  0
  7  8  1  0  0  0  0
  7  9  1  0  0  0  0
  7 31  1  0  0  0  0
  8 10  1  0  0  0  0
  8 32  1  0  0  0  0
  8 33  1  0  0  0  0
  9 11  1  0  0  0  0
  9 34  1  0  0  0  0
  9 35  1  0  0  0  0
 10 17  1  0  0  0  0
 10 36  1  0  0  0  0
 11 18  1  0  0  0  0
 11 37  1  0  0  0  0
 12 13  1  0  0  0  0
 12 14  1  0  0  0  0
 12 38  1  0  0  0  0
 12 39  1  0  0  0  0
 13 15  1  0  0  0  0
 13 40  1  0  0  0  0
 14 16  1  0  0  0  0
 14 41  1  0  0  0  0
 15 19  1  0  0  0  0
 15 42  1  0  0  0  0
 15 43  1  0  0  0  0
 16 20  1  0  0  0  0
 16 44  1  0  0  0  0
 16 45  1  0  0  0  0
 17 46  1  0  0  0  0
 17 47  1  0  0  0  0
 17 48  1  0  0  0  0
 18 22  2  0  0  0  0
 18 49  1  0  0  0  0
 19 23  2  0  0  0  0
 19 50  1  0  0  0  0
 20 25  2  0  0  0  0
 20 52  1  0  0  0  0
 21 27  1  0  0  0  0
 22 24  1  0  0  0  0
 22 56  1  0  0  0  0
 23 26  1  0  0  0  0
 23 57  1  0  0  0  0
 24 26  2  0  0  0  0
 24 58  1  0  0  0  0
 25 28  1  0  0  0  0
 25 59  1  0  0  0  0
 26 60  1  0  0  0  0
 27 29  2  0  0  0  0
 27 61  1  0  0  0  0
 28 30  2  0  0  0  0
 28 62  1  0  0  0  0
 29 30  1  0  0  0  0
 29 63  1  0  0  0  0
 30 64  1  0  0  0  0
M  END
> <PUBCHEM_COMPOUND_CID>
11553515

> <PUBCHEM_CONFORMER_RMSD>
0.8

> <PUBCHEM_CONFORMER_DIVERSEORDER>
5
28
34
11
16
24
26
22
8
23
37
38
2
32
29
20
33
10
35
1
7
3
15
6
21
13
17
25
12
30
27
31
4
36
19
18
9
14

> <PUBCHEM_MMFF94_PARTIAL_CHARGES>
42
1 -0.43
10 0.28
11 0.42
13 0.28
14 0.28
15 0.14
16 0.14
18 -0.29
19 -0.29
2 -0.68
20 -0.29
21 0.71
22 -0.15
23 -0.15
24 -0.15
25 -0.15
26 -0.15
27 -0.14
28 -0.15
29 -0.15
3 -0.68
30 -0.15
4 -0.68
49 0.15
5 -0.68
50 0.15
51 0.4
52 0.15
53 0.4
54 0.4
55 0.4
56 0.15
57 0.15
58 0.15
59 0.15
6 -0.57
60 0.15
61 0.15
62 0.15
63 0.15
64 0.15
7 0.28

> <PUBCHEM_EFFECTIVE_ROTOR_COUNT>
3.8

> <PUBCHEM_PHARMACOPHORE_FEATURES>
9
1 2 acceptor
1 2 donor
1 3 acceptor
1 3 donor
1 4 acceptor
1 4 donor
1 5 acceptor
1 5 donor
1 6 acceptor

> <PUBCHEM_HEAVY_ATOM_COUNT>
30

> <PUBCHEM_ATOM_DEF_STEREO_COUNT>
0

> <PUBCHEM_ATOM_UDEF_STEREO_COUNT>
5

> <PUBCHEM_BOND_DEF_STEREO_COUNT>
6

> <PUBCHEM_BOND_UDEF_STEREO_COUNT>
0

> <PUBCHEM_ISOTOPIC_ATOM_COUNT>
0

> <PUBCHEM_COMPONENT_COUNT>
1

> <PUBCHEM_CACTVS_TAUTO_COUNT>
1

> <PUBCHEM_CONFORMER_ID>
00B04AEB00000005

> <PUBCHEM_MMFF94_ENERGY>
48.3361

> <PUBCHEM_FEATURE_SELFOVERLAP>
45.679

> <PUBCHEM_SHAPE_FINGERPRINT>
10838868 158 17536055572666681979
10864689 126 17616826435524188253
10939801 23 18192430999351898944
11513181 2 18129666292787105983
12596602 18 17274823489354186417
13402501 40 18411423891008453103
14394314 77 18342742875663411025
14461889 52 18272081687299017336
144659 178 18262252091938589565
15001296 14 18261114075738651889
15183329 4 18335710472131688003
15419008 145 18261663827431295634
15968369 153 18202565081242991285
16112460 7 18197796401341469041
20721686 56 18408328792137236275
21197605 99 18342739620003535534
21279426 13 18410018702221341647
23559900 14 18410853261970777777
338550 245 18334306369923654405
373842 8 18337389327302802683
4073 2 18341897359410529129
4144715 1 18335717039274769395
4340502 62 18272081648881915404
437795 51 17346306116547213664
44249763 50 17846207916847329046
5085150 59 18411695491512595467
508706 21 18334582339300715923
6437827 68 18410018710884934061
653340 110 18341337708355266920

> <PUBCHEM_SHAPE_MULTIPOLES>
582.17
19.23
4.42
1.32
0.07
0.46
0.25
-1.91
5.15
3.44
-0.23
-2.19
-0.03
1.77

> <PUBCHEM_SHAPE_SELFOVERLAP>
1151.402

> <PUBCHEM_SHAPE_VOLUME>
341.6

> <PUBCHEM_COORDINATE_TYPE>
2
5
10

$$$$
