REMARK  Name = 11552833
REMARK  9 active torsions:
REMARK  status: ('A' for Active; 'I' for Inactive)
REMARK    1  A    between atoms: N_2  and  C_5
REMARK    2  A    between atoms: C_3  and  C_17
REMARK    3  A    between atoms: C_7  and  C_14
REMARK    4  A    between atoms: C_9  and  C_16
REMARK    5  A    between atoms: C_17  and  O_19
REMARK    6  A    between atoms: C_17  and  C_21
REMARK    7  A    between atoms: C_21  and  O_22
REMARK    8  A    between atoms: O_22  and  C_23
REMARK    9  A    between atoms: C_28  and  C_30
REMARK                            x       y       z     vdW  Elec       q    Type
REMARK                         _______ _______ _______ _____ _____    ______ ____
ROOT
ATOM      1  O   UNL     1       0.031   3.074  -1.370  0.00  0.00    -0.272 OA
ATOM      2  N   UNL     1      -0.503   1.693   0.442  0.00  0.00    -0.282 N 
ATOM      3  C   UNL     1       0.241   2.652  -0.235  0.00  0.00    +0.254 C 
ATOM      4  H   UNL     1      -0.197   1.467   1.350  0.00  0.00    +0.155 HD
ENDROOT
BRANCH   2   5
ATOM      5  C   UNL     1      -1.650   1.002  -0.020  0.00  0.00    +0.050 C 
ATOM      6  C   UNL     1      -2.260   0.074   0.806  0.00  0.00    +0.019 C 
ATOM      7  C   UNL     1      -3.389  -0.606   0.350  0.00  0.00    +0.082 C 
ATOM      8  C   UNL     1      -2.135   1.270  -1.289  0.00  0.00    +0.015 C 
ATOM      9  C   UNL     1      -3.891  -0.348  -0.926  0.00  0.00    +0.072 C 
ATOM     10  C   UNL     1      -3.264   0.590  -1.745  0.00  0.00    +0.011 C 
BRANCH   7  14
ATOM     11  F   UNL     1      -3.410  -1.730   2.462  0.00  0.00    -0.166 F 
ATOM     12  F   UNL     1      -5.333  -1.312   1.551  0.00  0.00    -0.166 F 
ATOM     13  F   UNL     1      -4.053  -2.860   0.718  0.00  0.00    -0.166 F 
ATOM     14  C   UNL     1      -4.035  -1.607   1.255  0.00  0.00    +0.419 C 
ENDBRANCH   7  14
BRANCH   9  16
ATOM     15  N   UNL     1      -5.983  -1.591  -1.816  0.00  0.00    -0.191 NA
ATOM     16  C   UNL     1      -5.046  -1.035  -1.417  0.00  0.00    +0.100 C 
ENDBRANCH   9  16
ENDBRANCH   2   5
BRANCH   3  17
ATOM     17  C   UNL     1       1.427   3.182   0.594  0.00  0.00    +0.197 C 
ATOM     18  C   UNL     1       0.939   3.830   1.892  0.00  0.00    +0.043 C 
BRANCH  17  19
ATOM     19  O   UNL     1       2.073   4.193  -0.181  0.00  0.00    -0.375 OA
ATOM     20  H   UNL     1       2.393   3.809  -1.012  0.00  0.00    +0.211 HD
ENDBRANCH  17  19
BRANCH  17  21
ATOM     21  C   UNL     1       2.470   2.098   0.888  0.00  0.00    +0.241 C 
BRANCH  21  22
ATOM     22  O   UNL     1       3.033   1.591  -0.318  0.00  0.00    -0.472 OA
BRANCH  22  23
ATOM     23  C   UNL     1       3.530   0.316  -0.276  0.00  0.00    +0.139 C 
ATOM     24  C   UNL     1       4.048  -0.183   0.915  0.00  0.00    +0.038 C 
ATOM     25  C   UNL     1       3.512  -0.470  -1.423  0.00  0.00    +0.038 C 
ATOM     26  C   UNL     1       4.554  -1.482   0.959  0.00  0.00    +0.013 C 
ATOM     27  C   UNL     1       4.018  -1.770  -1.379  0.00  0.00    +0.013 C 
ATOM     28  C   UNL     1       4.539  -2.275  -0.188  0.00  0.00    +0.069 C 
BRANCH  28  30
ATOM     29  N   UNL     1       5.480  -4.688  -0.107  0.00  0.00    -0.191 NA
ATOM     30  C   UNL     1       5.058  -3.606  -0.143  0.00  0.00    +0.100 C 
ENDBRANCH  28  30
ENDBRANCH  22  23
ENDBRANCH  21  22
ENDBRANCH  17  21
ENDBRANCH   3  17
TORSDOF 9
