REMARK  Name = 11553515
REMARK  6 active torsions:
REMARK  status: ('A' for Active; 'I' for Inactive)
REMARK    1  A    between atoms: C_3  and  C_30
REMARK    2  A    between atoms: C_5  and  O_24
REMARK    3  A    between atoms: C_7  and  O_26
REMARK    4  A    between atoms: C_8  and  O_28
REMARK    5  A    between atoms: C_30  and  C_31
REMARK    6  A    between atoms: C_31  and  O_33
REMARK                            x       y       z     vdW  Elec       q    Type
REMARK                         _______ _______ _______ _____ _____    ______ ____
ROOT
ATOM      1  O   UNL     1       3.601   0.697   0.017  0.00  0.00    -0.449 OA
ATOM      2  O   UNL     1       3.031   2.065  -1.760  0.00  0.00    -0.245 OA
ATOM      3  C   UNL     1       4.746   0.152  -0.669  0.00  0.00    +0.174 C 
ATOM      4  C   UNL     1       4.321  -0.961  -1.651  0.00  0.00    +0.077 C 
ATOM      5  C   UNL     1       3.677  -2.245  -1.090  0.00  0.00    +0.136 C 
ATOM      6  C   UNL     1      -5.238  -0.073   0.555  0.00  0.00    +0.059 C 
ATOM      7  C   UNL     1      -5.848  -1.477   0.686  0.00  0.00    +0.117 C 
ATOM      8  C   UNL     1      -6.251   1.042   0.228  0.00  0.00    +0.117 C 
ATOM      9  C   UNL     1      -4.817  -2.519   1.161  0.00  0.00    +0.055 C 
ATOM     10  C   UNL     1      -5.672   2.450   0.471  0.00  0.00    +0.055 C 
ATOM     11  C   UNL     1       2.459  -2.033  -0.234  0.00  0.00    +0.003 C 
ATOM     12  C   UNL     1      -3.603  -2.638   0.276  0.00  0.00    -0.024 C 
ATOM     13  C   UNL     1      -4.365   2.672  -0.243  0.00  0.00    -0.024 C 
ATOM     14  C   UNL     1       2.821   1.581  -0.660  0.00  0.00    +0.341 C 
ATOM     15  C   UNL     1       1.209  -2.313  -0.636  0.00  0.00    -0.002 C 
ATOM     16  C   UNL     1      -2.359  -2.318   0.667  0.00  0.00    -0.004 C 
ATOM     17  C   UNL     1       0.046  -2.143   0.209  0.00  0.00    -0.000 C 
ATOM     18  C   UNL     1      -3.178   2.628   0.381  0.00  0.00    -0.004 C 
ATOM     19  C   UNL     1      -1.198  -2.455  -0.186  0.00  0.00    -0.000 C 
ATOM     20  C   UNL     1       1.612   1.802   0.159  0.00  0.00    +0.082 C 
ATOM     21  C   UNL     1      -1.915   2.663  -0.320  0.00  0.00    -0.000 C 
ATOM     22  C   UNL     1       0.499   2.263  -0.426  0.00  0.00    +0.007 C 
ATOM     23  C   UNL     1      -0.754   2.375   0.286  0.00  0.00    +0.000 C 
ENDROOT
BRANCH   5  24
ATOM     24  O   UNL     1       4.649  -2.983  -0.351  0.00  0.00    -0.380 OA
ATOM     25  H   UNL     1       5.436  -3.122  -0.901  0.00  0.00    +0.211 HD
ENDBRANCH   5  24
BRANCH   7  26
ATOM     26  O   UNL     1      -6.393  -1.911  -0.556  0.00  0.00    -0.384 OA
ATOM     27  H   UNL     1      -7.045  -1.263  -0.867  0.00  0.00    +0.210 HD
ENDBRANCH   7  26
BRANCH   8  28
ATOM     28  O   UNL     1      -6.672   0.917  -1.127  0.00  0.00    -0.384 OA
ATOM     29  H   UNL     1      -7.035   0.030  -1.273  0.00  0.00    +0.210 HD
ENDBRANCH   8  28
BRANCH   3  30
ATOM     30  C   UNL     1       5.737  -0.306   0.394  0.00  0.00    +0.073 C 
BRANCH  30  31
ATOM     31  C   UNL     1       6.095   0.814   1.373  0.00  0.00    +0.114 C 
ATOM     32  C   UNL     1       7.116   0.343   2.400  0.00  0.00    +0.032 C 
BRANCH  31  33
ATOM     33  O   UNL     1       6.645   1.910   0.647  0.00  0.00    -0.384 OA
ATOM     34  H   UNL     1       6.001   2.218  -0.010  0.00  0.00    +0.210 HD
ENDBRANCH  31  33
ENDBRANCH  30  31
ENDBRANCH   3  30
TORSDOF 6
