11556911
  -OEChem-03292013303D

 44 45  0     0  0  0  0  0  0999 V2000
   -0.0424    1.2234   -2.0100 Cl  0  0  0  0  0  0  0  0  0  0  0  0
    2.7938   -2.6565    0.5735 S   0  0  0  0  0  0  0  0  0  0  0  0
    3.6864    3.3454    0.5855 F   0  0  0  0  0  0  0  0  0  0  0  0
    5.7743    3.0061    0.0525 F   0  0  0  0  0  0  0  0  0  0  0  0
    4.8279    1.7894    1.6016 F   0  0  0  0  0  0  0  0  0  0  0  0
   -4.8225   -1.6386   -0.2473 O   0  0  0  0  0  0  0  0  0  0  0  0
   -3.0026    2.5317   -0.4764 O   0  0  0  0  0  0  0  0  0  0  0  0
   -2.8407   -0.1205   -2.0530 O   0  0  0  0  0  0  0  0  0  0  0  0
    2.9714    0.7943   -0.2211 O   0  0  0  0  0  0  0  0  0  0  0  0
    3.7085   -1.5990    0.9738 O   0  0  0  0  0  0  0  0  0  0  0  0
    2.5197   -3.7615    1.4795 O   0  0  0  0  0  0  0  0  0  0  0  0
   -3.3820    0.2475    0.2337 C   0  0  0  0  0  0  0  0  0  0  0  0
   -5.9895    1.4281    1.0160 C   0  0  0  0  0  0  0  0  0  0  0  0
   -5.7231   -0.0450    1.2864 C   0  0  0  0  0  0  0  0  0  0  0  0
   -4.7201    2.2539    1.1591 C   0  0  0  0  0  0  0  0  0  0  0  0
   -4.6684   -0.5648    0.3341 C   0  0  0  0  0  0  0  0  0  0  0  0
   -3.6599    1.7462    0.2062 C   0  0  0  0  0  0  0  0  0  0  0  0
   -2.4854   -0.2102   -0.8801 C   0  0  0  0  0  0  0  0  0  0  0  0
   -1.1486   -0.7785   -0.5470 C   0  0  0  0  0  0  0  0  0  0  0  0
    1.2355   -0.7665   -0.6760 C   0  0  0  0  0  0  0  0  0  0  0  0
    1.2759   -1.9081    0.1246 C   0  0  0  0  0  0  0  0  0  0  0  0
    0.0091   -0.1957   -1.0154 C   0  0  0  0  0  0  0  0  0  0  0  0
   -1.1370   -1.9078    0.2465 C   0  0  0  0  0  0  0  0  0  0  0  0
    0.0896   -2.4787    0.5859 C   0  0  0  0  0  0  0  0  0  0  0  0
    2.5165   -0.1641   -1.1652 C   0  0  0  0  0  0  0  0  0  0  0  0
    3.3979   -3.3620   -0.9419 C   0  0  0  0  0  0  0  0  0  0  0  0
    4.1887    1.4001   -0.6359 C   0  0  0  0  0  0  0  0  0  0  0  0
    4.6270    2.3915    0.4104 C   0  0  0  0  0  0  0  0  0  0  0  0
   -2.8578    0.0800    1.1849 H   0  0  0  0  0  0  0  0  0  0  0  0
   -6.7502    1.7986    1.7119 H   0  0  0  0  0  0  0  0  0  0  0  0
   -6.3891    1.5462    0.0007 H   0  0  0  0  0  0  0  0  0  0  0  0
   -6.6443   -0.6199    1.1444 H   0  0  0  0  0  0  0  0  0  0  0  0
   -5.3738   -0.2059    2.3118 H   0  0  0  0  0  0  0  0  0  0  0  0
   -4.3232    2.2024    2.1785 H   0  0  0  0  0  0  0  0  0  0  0  0
   -4.9330    3.3028    0.9273 H   0  0  0  0  0  0  0  0  0  0  0  0
   -2.0532   -2.3662    0.6065 H   0  0  0  0  0  0  0  0  0  0  0  0
    0.0860   -3.3691    1.2075 H   0  0  0  0  0  0  0  0  0  0  0  0
    3.3163   -0.8695   -1.3616 H   0  0  0  0  0  0  0  0  0  0  0  0
    2.3780    0.3207   -2.1386 H   0  0  0  0  0  0  0  0  0  0  0  0
    2.8478   -4.2909   -1.1172 H   0  0  0  0  0  0  0  0  0  0  0  0
    4.4561   -3.5961   -0.8033 H   0  0  0  0  0  0  0  0  0  0  0  0
    3.2727   -2.7246   -1.8106 H   0  0  0  0  0  0  0  0  0  0  0  0
    4.9624    0.6349   -0.7626 H   0  0  0  0  0  0  0  0  0  0  0  0
    4.0386    1.9142   -1.5916 H   0  0  0  0  0  0  0  0  0  0  0  0
  1 22  1  0  0  0  0
  2 10  2  0  0  0  0
  2 11  2  0  0  0  0
  2 21  1  0  0  0  0
  2 26  1  0  0  0  0
  3 28  1  0  0  0  0
  4 28  1  0  0  0  0
  5 28  1  0  0  0  0
  6 16  2  0  0  0  0
  7 17  2  0  0  0  0
  8 18  2  0  0  0  0
  9 25  1  0  0  0  0
  9 27  1  0  0  0  0
 12 16  1  0  0  0  0
 12 17  1  0  0  0  0
 12 18  1  0  0  0  0
 12 29  1  0  0  0  0
 13 14  1  0  0  0  0
 13 15  1  0  0  0  0
 13 30  1  0  0  0  0
 13 31  1  0  0  0  0
 14 16  1  0  0  0  0
 14 32  1  0  0  0  0
 14 33  1  0  0  0  0
 15 17  1  0  0  0  0
 15 34  1  0  0  0  0
 15 35  1  0  0  0  0
 18 19  1  0  0  0  0
 19 22  2  0  0  0  0
 19 23  1  0  0  0  0
 20 21  2  0  0  0  0
 20 22  1  0  0  0  0
 20 25  1  0  0  0  0
 21 24  1  0  0  0  0
 23 24  2  0  0  0  0
 23 36  1  0  0  0  0
 24 37  1  0  0  0  0
 25 38  1  0  0  0  0
 25 39  1  0  0  0  0
 26 40  1  0  0  0  0
 26 41  1  0  0  0  0
 26 42  1  0  0  0  0
 27 28  1  0  0  0  0
 27 43  1  0  0  0  0
 27 44  1  0  0  0  0
M  END
> <PUBCHEM_COMPOUND_CID>
11556911

> <PUBCHEM_CONFORMER_RMSD>
1

> <PUBCHEM_CONFORMER_DIVERSEORDER>
1
56
11
53
58
41
50
71
33
40
16
43
70
31
25
51
64
32
45
27
3
38
75
48
68
69
10
74
63
7
22
23
42
19
18
57
44
54
29
47
24
9
12
52
20
26
46
55
30
59
35
49
15
21
67
39
28
13
73
5
66
34
60
6
14
65
17
4
8
2
62
61
37
72
36

> <PUBCHEM_MMFF94_PARTIAL_CHARGES>
29
1 -0.18
10 -0.65
11 -0.65
12 0.18
14 0.06
15 0.06
16 0.45
17 0.45
18 0.42
19 0.09
2 1.2
20 -0.14
21 -0.01
22 0.18
23 -0.15
24 -0.15
25 0.42
26 0.11
27 0.28
28 1.02
3 -0.34
36 0.15
37 0.15
4 -0.34
5 -0.34
6 -0.57
7 -0.57
8 -0.57
9 -0.56

> <PUBCHEM_EFFECTIVE_ROTOR_COUNT>
7.8

> <PUBCHEM_PHARMACOPHORE_FEATURES>
9
1 10 acceptor
1 11 acceptor
1 12 anion
1 6 acceptor
1 7 acceptor
1 8 acceptor
1 9 acceptor
6 12 13 14 15 16 17 rings
6 19 20 21 22 23 24 rings

> <PUBCHEM_HEAVY_ATOM_COUNT>
28

> <PUBCHEM_ATOM_DEF_STEREO_COUNT>
0

> <PUBCHEM_ATOM_UDEF_STEREO_COUNT>
0

> <PUBCHEM_BOND_DEF_STEREO_COUNT>
0

> <PUBCHEM_BOND_UDEF_STEREO_COUNT>
0

> <PUBCHEM_ISOTOPIC_ATOM_COUNT>
0

> <PUBCHEM_COMPONENT_COUNT>
1

> <PUBCHEM_CACTVS_TAUTO_COUNT>
8

> <PUBCHEM_CONFORMER_ID>
00B0582F00000001

> <PUBCHEM_MMFF94_ENERGY>
62.8242

> <PUBCHEM_FEATURE_SELFOVERLAP>
45.698

> <PUBCHEM_SHAPE_FINGERPRINT>
10006869 2 18200314295516932269
10674148 151 18341337786646457572
11135609 201 18199461250370458408
11796584 16 13262977178042358593
12892183 10 18334863805386733909
12925494 130 18121213178457443857
13140716 1 18044652005970478773
13533116 47 18188217498731585059
13540713 4 17604979330620587879
13878862 14 18192132820767430693
14178342 30 18116157851330108902
14251764 75 18337675347030230120
14739800 52 18201715158733693017
14787075 74 18200032975031859025
14848178 5 11818987500211012505
14849402 71 18335145276416649608
14955137 171 17979077081077592966
15142526 21 18196087970240122504
15238133 3 17487340331423729641
15475509 84 17977386031946088728
1813 80 16299533577588737311
18785283 64 18333728001586097314
19377110 9 18342166804552614855
20511986 3 18260825974423598783
20739085 24 17968672509775251943
21756936 100 18129658733132383164
22122407 14 18125737686243672193
22182313 1 17531235115715652535
23559900 14 17915470397508083703
283562 15 17904755931816263334
2838139 119 17703785972525634280
3411729 13 18411985762851275486
34797466 226 17703522025631634095
350125 39 18262805060371443206
392239 28 18194133038897830515
5104073 3 18334868173663919043
58807428 26 18114455781934826698
5895379 119 17200245728897399104
5912855 24 18201432632176355871
79837 15 18044939223556367298

> <PUBCHEM_SHAPE_MULTIPOLES>
524.91
12.77
4.02
1.45
6.82
0.18
0.31
7.67
-4.93
-6.35
-1.25
-0.01
0.09
-0.13

> <PUBCHEM_SHAPE_SELFOVERLAP>
1091.566

> <PUBCHEM_SHAPE_VOLUME>
302.7

> <PUBCHEM_COORDINATE_TYPE>
2
5
10

$$$$
