REMARK  Name = 11556911
REMARK  7 active torsions:
REMARK  status: ('A' for Active; 'I' for Inactive)
REMARK    1  A    between atoms: C_2  and  C_13
REMARK    2  A    between atoms: C_3  and  C_22
REMARK    3  A    between atoms: C_4  and  S_8
REMARK    4  A    between atoms: C_13  and  C_16
REMARK    5  A    between atoms: C_22  and  O_23
REMARK    6  A    between atoms: O_23  and  C_24
REMARK    7  A    between atoms: C_24  and  C_28
REMARK                            x       y       z     vdW  Elec       q    Type
REMARK                         _______ _______ _______ _____ _____    ______ ____
ROOT
ATOM      1 CL   UNL     1      -0.042   1.223  -2.010  0.00  0.00    -0.082 Cl
ATOM      2  C   UNL     1      -1.149  -0.778  -0.547  0.00  0.00    +0.046 C 
ATOM      3  C   UNL     1       1.236  -0.766  -0.676  0.00  0.00    +0.035 C 
ATOM      4  C   UNL     1       1.276  -1.908   0.125  0.00  0.00    +0.105 C 
ATOM      5  C   UNL     1       0.009  -0.196  -1.015  0.00  0.00    +0.060 C 
ATOM      6  C   UNL     1      -1.137  -1.908   0.246  0.00  0.00    +0.005 C 
ATOM      7  C   UNL     1       0.090  -2.479   0.586  0.00  0.00    +0.018 C 
ENDROOT
BRANCH   4   8
ATOM      8  S   UNL     1       2.794  -2.656   0.574  0.00  0.00    +0.010 S 
ATOM      9  O   UNL     1       3.708  -1.599   0.974  0.00  0.00    -0.169 OA
ATOM     10  O   UNL     1       2.520  -3.761   1.480  0.00  0.00    -0.169 OA
ATOM     11  C   UNL     1       3.398  -3.362  -0.942  0.00  0.00    +0.182 C 
ENDBRANCH   4   8
BRANCH   2  13
ATOM     12  O   UNL     1      -2.841  -0.120  -2.053  0.00  0.00    -0.290 OA
ATOM     13  C   UNL     1      -2.485  -0.210  -0.880  0.00  0.00    +0.187 C 
BRANCH  13  16
ATOM     14  O   UNL     1      -4.822  -1.639  -0.247  0.00  0.00    -0.295 OA
ATOM     15  O   UNL     1      -3.003   2.532  -0.476  0.00  0.00    -0.295 OA
ATOM     16  C   UNL     1      -3.382   0.247   0.234  0.00  0.00    +0.176 C 
ATOM     17  C   UNL     1      -5.989   1.428   1.016  0.00  0.00    +0.016 C 
ATOM     18  C   UNL     1      -5.723  -0.045   1.286  0.00  0.00    +0.066 C 
ATOM     19  C   UNL     1      -4.720   2.254   1.159  0.00  0.00    +0.066 C 
ATOM     20  C   UNL     1      -4.668  -0.565   0.334  0.00  0.00    +0.165 C 
ATOM     21  C   UNL     1      -3.660   1.746   0.206  0.00  0.00    +0.165 C 
ENDBRANCH  13  16
ENDBRANCH   2  13
BRANCH   3  22
ATOM     22  C   UNL     1       2.517  -0.164  -1.165  0.00  0.00    +0.171 C 
BRANCH  22  23
ATOM     23  O   UNL     1       2.971   0.794  -0.221  0.00  0.00    -0.341 OA
BRANCH  23  24
ATOM     24  C   UNL     1       4.189   1.400  -0.636  0.00  0.00    +0.246 C 
BRANCH  24  28
ATOM     25  F   UNL     1       3.686   3.345   0.586  0.00  0.00    -0.167 F 
ATOM     26  F   UNL     1       5.774   3.006   0.052  0.00  0.00    -0.167 F 
ATOM     27  F   UNL     1       4.828   1.789   1.602  0.00  0.00    -0.167 F 
ATOM     28  C   UNL     1       4.627   2.392   0.410  0.00  0.00    +0.425 C 
ENDBRANCH  24  28
ENDBRANCH  23  24
ENDBRANCH  22  23
ENDBRANCH   3  22
TORSDOF 7
