REMARK  Name = 11551591
REMARK  8 active torsions:
REMARK  status: ('A' for Active; 'I' for Inactive)
REMARK    1  A    between atoms: C_1  and  C_3
REMARK    2  A    between atoms: C_1  and  C_12
REMARK    3  A    between atoms: C_3  and  O_4
REMARK    4  A    between atoms: O_4  and  N_7
REMARK    5  A    between atoms: C_12  and  C_13
REMARK    6  A    between atoms: C_13  and  S_14
REMARK    7  A    between atoms: S_14  and  S_15
REMARK    8  A    between atoms: S_15  and  C_17
REMARK                            x       y       z     vdW  Elec       q    Type
REMARK                         _______ _______ _______ _____ _____    ______ ____
ROOT
ATOM      1  C   UNL     1       1.706   2.998   0.113  0.00  0.00    +0.113 C 
ENDROOT
BRANCH   1   3
ATOM      2  O   UNL     1       2.332   1.229   1.661  0.00  0.00    -0.248 OA
ATOM      3  C   UNL     1       2.123   1.600   0.514  0.00  0.00    +0.340 C 
BRANCH   3   4
ATOM      4  O   UNL     1       2.194   0.821  -0.607  0.00  0.00    -0.336 OA
BRANCH   4   7
ATOM      5  O   UNL     1       4.862  -0.240  -0.662  0.00  0.00    -0.267 OA
ATOM      6  O   UNL     1       0.444  -1.372   0.007  0.00  0.00    -0.267 OA
ATOM      7  N   UNL     1       2.579  -0.504  -0.308  0.00  0.00    -0.054 N 
ATOM      8  C   UNL     1       3.903  -2.345   0.051  0.00  0.00    +0.066 C 
ATOM      9  C   UNL     1       2.437  -2.721   0.273  0.00  0.00    +0.066 C 
ATOM     10  C   UNL     1       3.878  -0.897  -0.360  0.00  0.00    +0.287 C 
ATOM     11  C   UNL     1       1.662  -1.466  -0.024  0.00  0.00    +0.287 C 
ENDBRANCH   4   7
ENDBRANCH   3   4
ENDBRANCH   1   3
BRANCH   1  12
ATOM     12  C   UNL     1       0.387   3.036  -0.662  0.00  0.00    +0.024 C 
BRANCH  12  13
ATOM     13  C   UNL     1      -0.786   2.534   0.178  0.00  0.00    +0.070 C 
BRANCH  13  14
ATOM     14  S   UNL     1      -2.330   2.596  -0.777  0.00  0.00    -0.076 S 
BRANCH  14  15
ATOM     15  S   UNL     1      -3.688   1.877   0.588  0.00  0.00    -0.036 S 
BRANCH  15  17
ATOM     16  N   UNL     1      -3.987  -0.267  -0.986  0.00  0.00    -0.237 NA
ATOM     17  C   UNL     1      -3.644   0.124   0.262  0.00  0.00    +0.116 C 
ATOM     18  C   UNL     1      -3.272  -0.748   1.273  0.00  0.00    +0.026 C 
ATOM     19  C   UNL     1      -3.250  -2.108   0.984  0.00  0.00    +0.004 C 
ATOM     20  C   UNL     1      -3.596  -2.549  -0.288  0.00  0.00    +0.021 C 
ATOM     21  C   UNL     1      -3.954  -1.597  -1.230  0.00  0.00    +0.099 C 
ENDBRANCH  15  17
ENDBRANCH  14  15
ENDBRANCH  13  14
ENDBRANCH  12  13
ENDBRANCH   1  12
TORSDOF 8
