11559542
  -OEChem-03292013303D

 46 48  0     0  0  0  0  0  0999 V2000
    4.6501   -2.2692   -0.2074 O   0  0  0  0  0  0  0  0  0  0  0  0
   -0.5212   -0.5190   -0.2893 O   0  0  0  0  0  0  0  0  0  0  0  0
    3.5190    1.9845   -0.2559 O   0  0  0  0  0  0  0  0  0  0  0  0
   -0.5520    4.2656    0.5680 O   0  0  0  0  0  0  0  0  0  0  0  0
   -2.7496    2.8124    0.5345 O   0  0  0  0  0  0  0  0  0  0  0  0
   -1.6794   -2.9357   -0.5962 O   0  0  0  0  0  0  0  0  0  0  0  0
   -4.4169   -3.2360   -0.3606 O   0  0  0  0  0  0  0  0  0  0  0  0
    3.4304   -2.5721    0.4733 C   0  0  0  0  0  0  0  0  0  0  0  0
    2.6653   -1.2538    0.7084 C   0  0  0  0  0  0  0  0  0  0  0  0
    2.2305   -0.5204   -0.5740 C   0  0  0  0  0  0  0  0  0  0  0  0
    1.4730    0.7337   -0.2705 C   0  0  0  0  0  0  0  0  0  0  0  0
    0.0838    0.7038   -0.1332 C   0  0  0  0  0  0  0  0  0  0  0  0
    3.7883   -3.2059    1.8216 C   0  0  0  0  0  0  0  0  0  0  0  0
    2.6348   -3.5657   -0.3760 C   0  0  0  0  0  0  0  0  0  0  0  0
   -0.6073    1.8820    0.1481 C   0  0  0  0  0  0  0  0  0  0  0  0
    2.1631    1.9378   -0.1262 C   0  0  0  0  0  0  0  0  0  0  0  0
    0.0793    3.0904    0.2929 C   0  0  0  0  0  0  0  0  0  0  0  0
   -2.0703    1.8264    0.2896 C   0  0  0  0  0  0  0  0  0  0  0  0
    1.4673    3.1137    0.1549 C   0  0  0  0  0  0  0  0  0  0  0  0
   -2.6987    0.5072    0.1222 C   0  0  0  0  0  0  0  0  0  0  0  0
   -1.8862   -0.5910   -0.1581 C   0  0  0  0  0  0  0  0  0  0  0  0
   -2.4619   -1.8528   -0.3212 C   0  0  0  0  0  0  0  0  0  0  0  0
   -4.0826    0.3545    0.2416 C   0  0  0  0  0  0  0  0  0  0  0  0
   -3.8434   -2.0102   -0.2027 C   0  0  0  0  0  0  0  0  0  0  0  0
   -4.6519   -0.9085    0.0782 C   0  0  0  0  0  0  0  0  0  0  0  0
    4.0366    2.2284   -1.5620 C   0  0  0  0  0  0  0  0  0  0  0  0
    3.3026   -0.5744    1.2910 H   0  0  0  0  0  0  0  0  0  0  0  0
    1.7790   -1.4569    1.3245 H   0  0  0  0  0  0  0  0  0  0  0  0
    1.6140   -1.1748   -1.2005 H   0  0  0  0  0  0  0  0  0  0  0  0
    3.1059   -0.3054   -1.1940 H   0  0  0  0  0  0  0  0  0  0  0  0
    2.8934   -3.4698    2.3945 H   0  0  0  0  0  0  0  0  0  0  0  0
    4.3987   -2.5230    2.4234 H   0  0  0  0  0  0  0  0  0  0  0  0
    4.3897   -4.1111    1.6790 H   0  0  0  0  0  0  0  0  0  0  0  0
    3.1760   -4.5153   -0.4637 H   0  0  0  0  0  0  0  0  0  0  0  0
    2.4969   -3.2096   -1.4021 H   0  0  0  0  0  0  0  0  0  0  0  0
    1.6521   -3.7709    0.0611 H   0  0  0  0  0  0  0  0  0  0  0  0
    2.0169    4.0457    0.2660 H   0  0  0  0  0  0  0  0  0  0  0  0
    4.4402   -2.0280   -1.1249 H   0  0  0  0  0  0  0  0  0  0  0  0
   -4.7287    1.1999    0.4598 H   0  0  0  0  0  0  0  0  0  0  0  0
   -5.7281   -1.0277    0.1708 H   0  0  0  0  0  0  0  0  0  0  0  0
    0.1049    4.9802    0.6277 H   0  0  0  0  0  0  0  0  0  0  0  0
    3.9978    3.3011   -1.7757 H   0  0  0  0  0  0  0  0  0  0  0  0
    3.4828    1.6819   -2.3322 H   0  0  0  0  0  0  0  0  0  0  0  0
    5.0807    1.9048   -1.5836 H   0  0  0  0  0  0  0  0  0  0  0  0
   -0.7529   -2.6413   -0.6395 H   0  0  0  0  0  0  0  0  0  0  0  0
   -3.7131   -3.8808   -0.5496 H   0  0  0  0  0  0  0  0  0  0  0  0
  1  8  1  0  0  0  0
  1 38  1  0  0  0  0
  2 12  1  0  0  0  0
  2 21  1  0  0  0  0
  3 16  1  0  0  0  0
  3 26  1  0  0  0  0
  4 17  1  0  0  0  0
  4 41  1  0  0  0  0
  5 18  2  0  0  0  0
  6 22  1  0  0  0  0
  6 45  1  0  0  0  0
  7 24  1  0  0  0  0
  7 46  1  0  0  0  0
  8  9  1  0  0  0  0
  8 13  1  0  0  0  0
  8 14  1  0  0  0  0
  9 10  1  0  0  0  0
  9 27  1  0  0  0  0
  9 28  1  0  0  0  0
 10 11  1  0  0  0  0
 10 29  1  0  0  0  0
 10 30  1  0  0  0  0
 11 12  1  0  0  0  0
 11 16  2  0  0  0  0
 12 15  2  0  0  0  0
 13 31  1  0  0  0  0
 13 32  1  0  0  0  0
 13 33  1  0  0  0  0
 14 34  1  0  0  0  0
 14 35  1  0  0  0  0
 14 36  1  0  0  0  0
 15 17  1  0  0  0  0
 15 18  1  0  0  0  0
 16 19  1  0  0  0  0
 17 19  2  0  0  0  0
 18 20  1  0  0  0  0
 19 37  1  0  0  0  0
 20 21  2  0  0  0  0
 20 23  1  0  0  0  0
 21 22  1  0  0  0  0
 22 24  2  0  0  0  0
 23 25  2  0  0  0  0
 23 39  1  0  0  0  0
 24 25  1  0  0  0  0
 25 40  1  0  0  0  0
 26 42  1  0  0  0  0
 26 43  1  0  0  0  0
 26 44  1  0  0  0  0
M  END
> <PUBCHEM_COMPOUND_CID>
11559542

> <PUBCHEM_CONFORMER_RMSD>
0.8

> <PUBCHEM_CONFORMER_DIVERSEORDER>
1
2
6
5
3
4

> <PUBCHEM_MMFF94_PARTIAL_CHARGES>
30
1 -0.68
10 0.14
11 -0.14
12 0.08
15 0.09
16 0.08
17 0.08
18 0.4
19 -0.15
2 -0.17
20 0.09
21 0.08
22 0.08
23 -0.15
24 0.08
25 -0.15
26 0.28
3 -0.36
37 0.15
38 0.4
39 0.15
4 -0.53
40 0.15
41 0.45
45 0.45
46 0.45
5 -0.57
6 -0.53
7 -0.53
8 0.28

> <PUBCHEM_EFFECTIVE_ROTOR_COUNT>
4

> <PUBCHEM_PHARMACOPHORE_FEATURES>
12
1 1 acceptor
1 1 donor
1 2 acceptor
1 3 acceptor
1 4 donor
1 5 acceptor
1 6 donor
1 7 donor
3 8 13 14 hydrophobe
6 11 12 15 16 17 19 rings
6 2 12 15 18 20 21 rings
6 20 21 22 23 24 25 rings

> <PUBCHEM_HEAVY_ATOM_COUNT>
26

> <PUBCHEM_ATOM_DEF_STEREO_COUNT>
0

> <PUBCHEM_ATOM_UDEF_STEREO_COUNT>
0

> <PUBCHEM_BOND_DEF_STEREO_COUNT>
0

> <PUBCHEM_BOND_UDEF_STEREO_COUNT>
0

> <PUBCHEM_ISOTOPIC_ATOM_COUNT>
0

> <PUBCHEM_COMPONENT_COUNT>
1

> <PUBCHEM_CACTVS_TAUTO_COUNT>
58

> <PUBCHEM_CONFORMER_ID>
00B0627600000001

> <PUBCHEM_MMFF94_ENERGY>
88.1894

> <PUBCHEM_FEATURE_SELFOVERLAP>
60.959

> <PUBCHEM_SHAPE_FINGERPRINT>
10411042 1 18411699863837308023
10616163 171 18196658616679901575
10967382 1 18268712899377152429
1100329 8 18194683666231824897
11578080 2 17677038062814410436
12107183 9 18269284482789469041
12553582 1 18339636742281952342
12633257 1 18270691852908627355
12788726 201 18191592943288483570
12839892 36 18267284591150098560
13140716 1 18269557135228776169
13533116 47 18337668750050199111
138480 1 18411416245444485218
14790565 3 17905615745403272396
14844126 61 17975123241231712554
14866123 147 17691683386019006907
15042514 8 18050566244472151795
15099037 8 18409449146164931728
15196674 1 17982174732082634333
15442244 35 18411420579224800881
17492 89 18410291445414027323
1813 80 17604147009277306972
19319366 153 18045507662488425494
19591789 44 17690845987291231174
19930381 70 18266456684400643819
20028762 73 17407679974867366238
20600515 1 17766559054476926908
20905425 154 18342747325090708876
21267235 1 17981620569542142823
21421861 104 18335422387010255800
23184049 29 18339359665198291156
23366157 5 18186527592235396300
23559900 14 18340477898430131538
335352 9 18339361843369332685
352729 6 18126008157065575381
4409770 3 17032460160299605900
463206 1 18265336282009618618
5104073 3 18342182180814915339
6823239 73 17915187819537167726
7097593 13 18339640139516213063
9709674 26 18263364848997378155

> <PUBCHEM_SHAPE_MULTIPOLES>
493.98
8.56
5.4
0.94
1.19
0.36
-0.09
-6.63
0.13
-2.44
-0.55
-0.91
-0.21
-2.17

> <PUBCHEM_SHAPE_SELFOVERLAP>
1081.91

> <PUBCHEM_SHAPE_VOLUME>
268.1

> <PUBCHEM_COORDINATE_TYPE>
2
5
10

$$$$
