11552833
  -OEChem-03292013303D

 42 43  0     1  0  0  0  0  0999 V2000
   -3.4101   -1.7304    2.4619 F   0  0  0  0  0  0  0  0  0  0  0  0
   -5.3335   -1.3124    1.5513 F   0  0  0  0  0  0  0  0  0  0  0  0
   -4.0530   -2.8598    0.7183 F   0  0  0  0  0  0  0  0  0  0  0  0
    2.0733    4.1932   -0.1806 O   0  0  0  0  0  0  0  0  0  0  0  0
    3.0332    1.5908   -0.3180 O   0  0  0  0  0  0  0  0  0  0  0  0
    0.0311    3.0742   -1.3704 O   0  0  0  0  0  0  0  0  0  0  0  0
   -0.5034    1.6926    0.4422 N   0  0  0  0  0  0  0  0  0  0  0  0
   -5.9828   -1.5912   -1.8160 N   0  0  0  0  0  0  0  0  0  0  0  0
    5.4804   -4.6877   -0.1066 N   0  0  0  0  0  0  0  0  0  0  0  0
    1.4266    3.1824    0.5935 C   0  0  2  0  0  0  0  0  0  0  0  0
    2.4699    2.0983    0.8883 C   0  0  0  0  0  0  0  0  0  0  0  0
    0.2412    2.6519   -0.2352 C   0  0  0  0  0  0  0  0  0  0  0  0
    0.9394    3.8296    1.8921 C   0  0  0  0  0  0  0  0  0  0  0  0
   -1.6497    1.0022   -0.0199 C   0  0  0  0  0  0  0  0  0  0  0  0
   -2.2605    0.0740    0.8063 C   0  0  0  0  0  0  0  0  0  0  0  0
   -3.3894   -0.6064    0.3501 C   0  0  0  0  0  0  0  0  0  0  0  0
   -2.1346    1.2700   -1.2889 C   0  0  0  0  0  0  0  0  0  0  0  0
    3.5295    0.3156   -0.2757 C   0  0  0  0  0  0  0  0  0  0  0  0
   -3.8910   -0.3485   -0.9257 C   0  0  0  0  0  0  0  0  0  0  0  0
   -3.2636    0.5896   -1.7452 C   0  0  0  0  0  0  0  0  0  0  0  0
   -4.0346   -1.6066    1.2551 C   0  0  0  0  0  0  0  0  0  0  0  0
    4.0475   -0.1830    0.9151 C   0  0  0  0  0  0  0  0  0  0  0  0
    3.5121   -0.4705   -1.4231 C   0  0  0  0  0  0  0  0  0  0  0  0
    4.5536   -1.4821    0.9591 C   0  0  0  0  0  0  0  0  0  0  0  0
    4.0180   -1.7696   -1.3792 C   0  0  0  0  0  0  0  0  0  0  0  0
    4.5388   -2.2754   -0.1881 C   0  0  0  0  0  0  0  0  0  0  0  0
   -5.0465   -1.0351   -1.4175 C   0  0  0  0  0  0  0  0  0  0  0  0
    5.0582   -3.6057   -0.1431 C   0  0  0  0  0  0  0  0  0  0  0  0
    3.2879    2.5394    1.4723 H   0  0  0  0  0  0  0  0  0  0  0  0
    2.0003    1.3008    1.4781 H   0  0  0  0  0  0  0  0  0  0  0  0
    1.7530    4.3752    2.3839 H   0  0  0  0  0  0  0  0  0  0  0  0
    0.1500    4.5626    1.6882 H   0  0  0  0  0  0  0  0  0  0  0  0
    0.5412    3.0973    2.6013 H   0  0  0  0  0  0  0  0  0  0  0  0
   -0.2062    1.4386    1.3808 H   0  0  0  0  0  0  0  0  0  0  0  0
    1.4514    4.9331   -0.2891 H   0  0  0  0  0  0  0  0  0  0  0  0
   -1.8596   -0.1181    1.7981 H   0  0  0  0  0  0  0  0  0  0  0  0
   -1.7085    1.9784   -1.9833 H   0  0  0  0  0  0  0  0  0  0  0  0
   -3.6426    0.8012   -2.7426 H   0  0  0  0  0  0  0  0  0  0  0  0
    4.1042    0.4090    1.8233 H   0  0  0  0  0  0  0  0  0  0  0  0
    3.1068   -0.0805   -2.3525 H   0  0  0  0  0  0  0  0  0  0  0  0
    4.9621   -1.8606    1.8932 H   0  0  0  0  0  0  0  0  0  0  0  0
    3.9995   -2.3759   -2.2818 H   0  0  0  0  0  0  0  0  0  0  0  0
  1 21  1  0  0  0  0
  2 21  1  0  0  0  0
  3 21  1  0  0  0  0
  4 10  1  0  0  0  0
  4 35  1  0  0  0  0
  5 11  1  0  0  0  0
  5 18  1  0  0  0  0
  6 12  2  0  0  0  0
  7 12  1  0  0  0  0
  7 14  1  0  0  0  0
  7 34  1  0  0  0  0
  8 27  3  0  0  0  0
  9 28  3  0  0  0  0
 10 11  1  0  0  0  0
 10 12  1  0  0  0  0
 10 13  1  0  0  0  0
 11 29  1  0  0  0  0
 11 30  1  0  0  0  0
 13 31  1  0  0  0  0
 13 32  1  0  0  0  0
 13 33  1  0  0  0  0
 14 15  2  0  0  0  0
 14 17  1  0  0  0  0
 15 16  1  0  0  0  0
 15 36  1  0  0  0  0
 16 19  2  0  0  0  0
 16 21  1  0  0  0  0
 17 20  2  0  0  0  0
 17 37  1  0  0  0  0
 18 22  2  0  0  0  0
 18 23  1  0  0  0  0
 19 20  1  0  0  0  0
 19 27  1  0  0  0  0
 20 38  1  0  0  0  0
 22 24  1  0  0  0  0
 22 39  1  0  0  0  0
 23 25  2  0  0  0  0
 23 40  1  0  0  0  0
 24 26  2  0  0  0  0
 24 41  1  0  0  0  0
 25 26  1  0  0  0  0
 25 42  1  0  0  0  0
 26 28  1  0  0  0  0
M  END
> <PUBCHEM_COMPOUND_CID>
11552833

> <PUBCHEM_CONFORMER_RMSD>
0.8

> <PUBCHEM_CONFORMER_DIVERSEORDER>
1
40
70
7
156
144
150
102
130
163
186
73
94
119
213
51
56
54
147
23
145
181
121
47
173
15
100
137
10
41
123
34
176
151
211
158
52
89
155
200
134
132
153
168
198
178
209
165
169
4
78
138
110
113
79
32
179
8
188
180
177
72
208
85
205
126
59
214
63
152
97
128
86
191
28
199
107
42
127
184
162
112
202
160
171
170
66
14
87
55
17
80
125
50
75
71
36
122
148
164
77
120
38
195
37
118
27
146
115
103
2
88
11
81
65
210
135
131
6
106
98
64
99
49
201
24
124
104
204
60
18
189
13
139
90
58
45
203
140
48
35
74
192
12
46
93
76
207
9
109
44
157
193
101
82
136
114
159
116
29
95
83
194
84
91
31
166
175
190
62
142
96
183
53
3
61
143
133
187
43
212
68
16
26
30
149
172
92
5
129
25
39
21
154
182
105
196
57
20
69
117
197
22
111
19
141
108
167
206
33
185
67
174
161

> <PUBCHEM_MMFF94_PARTIAL_CHARGES>
36
1 -0.34
10 0.34
11 0.28
12 0.57
14 0.12
15 -0.15
16 -0.14
17 -0.15
18 0.08
19 0.07
2 -0.34
20 -0.15
21 1.16
22 -0.15
23 -0.15
24 -0.15
25 -0.15
26 0.07
27 0.48
28 0.48
3 -0.34
34 0.37
35 0.4
36 0.15
37 0.15
38 0.15
39 0.15
4 -0.68
40 0.15
41 0.15
42 0.15
5 -0.36
6 -0.57
7 -0.55
8 -0.56
9 -0.56

> <PUBCHEM_EFFECTIVE_ROTOR_COUNT>
7

> <PUBCHEM_PHARMACOPHORE_FEATURES>
9
1 4 acceptor
1 4 donor
1 5 acceptor
1 6 acceptor
1 7 donor
1 8 acceptor
1 9 acceptor
6 14 15 16 17 19 20 rings
6 18 22 23 24 25 26 rings

> <PUBCHEM_HEAVY_ATOM_COUNT>
28

> <PUBCHEM_ATOM_DEF_STEREO_COUNT>
0

> <PUBCHEM_ATOM_UDEF_STEREO_COUNT>
1

> <PUBCHEM_BOND_DEF_STEREO_COUNT>
0

> <PUBCHEM_BOND_UDEF_STEREO_COUNT>
0

> <PUBCHEM_ISOTOPIC_ATOM_COUNT>
0

> <PUBCHEM_COMPONENT_COUNT>
1

> <PUBCHEM_CACTVS_TAUTO_COUNT>
2

> <PUBCHEM_CONFORMER_ID>
00B0484100000001

> <PUBCHEM_MMFF94_ENERGY>
70.6675

> <PUBCHEM_FEATURE_SELFOVERLAP>
45.688

> <PUBCHEM_SHAPE_FINGERPRINT>
10928967 22 18271254837143354990
11595378 159 15410624721867981017
12107183 9 18058742308080040617
12363563 72 18340488868262168532
12623949 98 17320163209078300147
13533116 47 18128532863802137797
1361 87 18114472200988735635
13911852 28 18341608192056934511
14429380 30 18266459807221818982
14848160 33 18412543228015668836
14863182 85 18195249051880589488
14866123 147 18123755244987359441
14950920 106 15266188403551565262
15510800 12 18334008385198490626
15728490 83 17902806154187262002
17859628 70 18265623271613476792
19319366 153 18196376038498087188
20645477 70 18267854167726640221
20775438 99 17979045482855763375
20775530 9 18341907251114999540
21133410 58 18269534166192408695
21365058 27 17615144603657232644
23466295 7 18122070793289397720
23559900 14 17676763279486332565
23569914 152 17908104761425238823
23572383 38 18337375055621908394
314194 84 18341895233638379636
345986 75 17775294866926364881
404807 14 18270114605167963775
4403749 210 17257917725157499824
44062 13 18191022300795161108
463206 1 18117839898077876506
5309563 4 18271240521985312382
6034566 193 8430016664643516195
613672 6 18266159678985227522
6431902 208 18195244417621264334
6673363 416 18199762346181810908
7970288 3 18270109124515530438
88748 71 18336835212275846536

> <PUBCHEM_SHAPE_MULTIPOLES>
521.85
13.24
5.21
1.77
1.82
1.65
-0.24
-17.65
1.16
-6.27
-0.99
1.91
-0.2
1.3

> <PUBCHEM_SHAPE_SELFOVERLAP>
1119.27

> <PUBCHEM_SHAPE_VOLUME>
287.6

> <PUBCHEM_COORDINATE_TYPE>
2
5
10

$$$$
