11567174
  -OEChem-03292013303D

 59 60  0     1  0  0  0  0  0999 V2000
    1.9262   -1.7546    0.5809 O   0  0  0  0  0  0  0  0  0  0  0  0
    3.4738    1.4864   -0.2177 O   0  0  0  0  0  0  0  0  0  0  0  0
   -0.9163    0.3823    1.5657 O   0  0  0  0  0  0  0  0  0  0  0  0
    4.4807   -2.2215   -1.1616 O   0  0  0  0  0  0  0  0  0  0  0  0
    5.4001    1.8262   -1.3546 O   0  0  0  0  0  0  0  0  0  0  0  0
   -1.0648    0.4094   -0.7400 O   0  0  0  0  0  0  0  0  0  0  0  0
   -5.3930    2.9200   -0.7188 O   0  0  0  0  0  0  0  0  0  0  0  0
    2.7265   -0.8158   -0.1546 C   0  0  1  0  0  0  0  0  0  0  0  0
    2.7020    0.5468    0.5554 C   0  0  2  0  0  0  0  0  0  0  0  0
    1.2739    1.0701    0.7715 C   0  0  1  0  0  0  0  0  0  0  0  0
    4.1956   -1.3246   -0.0901 C   0  0  2  0  0  0  0  0  0  0  0  0
    0.4496   -0.0139    1.4890 C   0  0  2  0  0  0  0  0  0  0  0  0
    0.5626   -1.3705    0.7770 C   0  0  2  0  0  0  0  0  0  0  0  0
    5.2323   -0.1800    0.0074 C   0  0  2  0  0  0  0  0  0  0  0  0
    2.2260   -0.7452   -1.6157 C   0  0  0  0  0  0  0  0  0  0  0  0
    1.2761    2.3831    1.5640 C   0  0  0  0  0  0  0  0  0  0  0  0
    4.7290    1.1198   -0.6101 C   0  0  0  0  0  0  0  0  0  0  0  0
   -0.1019   -2.4789    1.5912 C   0  0  0  0  0  0  0  0  0  0  0  0
    6.6096   -0.5601   -0.5357 C   0  0  0  0  0  0  0  0  0  0  0  0
   -1.5493    0.5574    0.3708 C   0  0  0  0  0  0  0  0  0  0  0  0
   -2.9429    0.9646    0.6505 C   0  0  0  0  0  0  0  0  0  0  0  0
   -3.7868    1.2021   -0.3628 C   0  0  0  0  0  0  0  0  0  0  0  0
   -5.2182    1.6180   -0.1624 C   0  0  2  0  0  0  0  0  0  0  0  0
   -6.1827    0.6276   -0.8283 C   0  0  0  0  0  0  0  0  0  0  0  0
   -6.0663   -0.7791   -0.2306 C   0  0  0  0  0  0  0  0  0  0  0  0
   -7.0661   -1.7398   -0.8749 C   0  0  0  0  0  0  0  0  0  0  0  0
   -6.9759   -3.1297   -0.2654 C   0  0  0  0  0  0  0  0  0  0  0  0
    3.1589    0.4641    1.5525 H   0  0  0  0  0  0  0  0  0  0  0  0
    0.8737    1.3482   -0.2054 H   0  0  0  0  0  0  0  0  0  0  0  0
    4.3210   -1.9285    0.8194 H   0  0  0  0  0  0  0  0  0  0  0  0
    0.8215   -0.1145    2.5168 H   0  0  0  0  0  0  0  0  0  0  0  0
    0.0780   -1.4044   -0.1990 H   0  0  0  0  0  0  0  0  0  0  0  0
    5.3747    0.0590    1.0715 H   0  0  0  0  0  0  0  0  0  0  0  0
    2.0702   -1.7517   -2.0209 H   0  0  0  0  0  0  0  0  0  0  0  0
    1.2645   -0.2362   -1.7081 H   0  0  0  0  0  0  0  0  0  0  0  0
    2.9312   -0.2189   -2.2667 H   0  0  0  0  0  0  0  0  0  0  0  0
    1.8636    3.1519    1.0514 H   0  0  0  0  0  0  0  0  0  0  0  0
    0.2600    2.7727    1.6839 H   0  0  0  0  0  0  0  0  0  0  0  0
    1.7046    2.2426    2.5621 H   0  0  0  0  0  0  0  0  0  0  0  0
    0.3709   -2.5780    2.5747 H   0  0  0  0  0  0  0  0  0  0  0  0
    0.0191   -3.4453    1.0892 H   0  0  0  0  0  0  0  0  0  0  0  0
   -1.1709   -2.2942    1.7320 H   0  0  0  0  0  0  0  0  0  0  0  0
    7.3381    0.2337   -0.3360 H   0  0  0  0  0  0  0  0  0  0  0  0
    6.5853   -0.7133   -1.6201 H   0  0  0  0  0  0  0  0  0  0  0  0
    6.9765   -1.4767   -0.0625 H   0  0  0  0  0  0  0  0  0  0  0  0
    3.8633   -2.9693   -1.0873 H   0  0  0  0  0  0  0  0  0  0  0  0
   -3.2587    1.0589    1.6838 H   0  0  0  0  0  0  0  0  0  0  0  0
   -3.4483    1.1056   -1.3920 H   0  0  0  0  0  0  0  0  0  0  0  0
   -5.4571    1.6957    0.9045 H   0  0  0  0  0  0  0  0  0  0  0  0
   -7.2085    1.0007   -0.7130 H   0  0  0  0  0  0  0  0  0  0  0  0
   -6.0013    0.5933   -1.9108 H   0  0  0  0  0  0  0  0  0  0  0  0
   -6.2460   -0.7332    0.8505 H   0  0  0  0  0  0  0  0  0  0  0  0
   -5.0550   -1.1761   -0.3757 H   0  0  0  0  0  0  0  0  0  0  0  0
   -8.0855   -1.3578   -0.7464 H   0  0  0  0  0  0  0  0  0  0  0  0
   -6.8773   -1.8055   -1.9528 H   0  0  0  0  0  0  0  0  0  0  0  0
   -5.2642    2.8570   -1.6808 H   0  0  0  0  0  0  0  0  0  0  0  0
   -7.6989   -3.7998   -0.7409 H   0  0  0  0  0  0  0  0  0  0  0  0
   -5.9766   -3.5548   -0.4040 H   0  0  0  0  0  0  0  0  0  0  0  0
   -7.1922   -3.1025    0.8073 H   0  0  0  0  0  0  0  0  0  0  0  0
  1  8  1  0  0  0  0
  1 13  1  0  0  0  0
  2  9  1  0  0  0  0
  2 17  1  0  0  0  0
  3 12  1  0  0  0  0
  3 20  1  0  0  0  0
  4 11  1  0  0  0  0
  4 46  1  0  0  0  0
  5 17  2  0  0  0  0
  6 20  2  0  0  0  0
  7 23  1  0  0  0  0
  7 56  1  0  0  0  0
  8  9  1  0  0  0  0
  8 11  1  0  0  0  0
  8 15  1  0  0  0  0
  9 10  1  0  0  0  0
  9 28  1  0  0  0  0
 10 12  1  0  0  0  0
 10 16  1  0  0  0  0
 10 29  1  0  0  0  0
 11 14  1  0  0  0  0
 11 30  1  0  0  0  0
 12 13  1  0  0  0  0
 12 31  1  0  0  0  0
 13 18  1  0  0  0  0
 13 32  1  0  0  0  0
 14 17  1  0  0  0  0
 14 19  1  0  0  0  0
 14 33  1  0  0  0  0
 15 34  1  0  0  0  0
 15 35  1  0  0  0  0
 15 36  1  0  0  0  0
 16 37  1  0  0  0  0
 16 38  1  0  0  0  0
 16 39  1  0  0  0  0
 18 40  1  0  0  0  0
 18 41  1  0  0  0  0
 18 42  1  0  0  0  0
 19 43  1  0  0  0  0
 19 44  1  0  0  0  0
 19 45  1  0  0  0  0
 20 21  1  0  0  0  0
 21 22  2  0  0  0  0
 21 47  1  0  0  0  0
 22 23  1  0  0  0  0
 22 48  1  0  0  0  0
 23 24  1  0  0  0  0
 23 49  1  0  0  0  0
 24 25  1  0  0  0  0
 24 50  1  0  0  0  0
 24 51  1  0  0  0  0
 25 26  1  0  0  0  0
 25 52  1  0  0  0  0
 25 53  1  0  0  0  0
 26 27  1  0  0  0  0
 26 54  1  0  0  0  0
 26 55  1  0  0  0  0
 27 57  1  0  0  0  0
 27 58  1  0  0  0  0
 27 59  1  0  0  0  0
M  END
> <PUBCHEM_COMPOUND_CID>
11567174

> <PUBCHEM_CONFORMER_RMSD>
1

> <PUBCHEM_CONFORMER_DIVERSEORDER>
1
20
9
8
24
16
26
25
10
6
23
12
4
19
18
27
15
22
28
29
11
13
17
5
21
3
7
30
14
2

> <PUBCHEM_MMFF94_PARTIAL_CHARGES>
22
1 -0.56
11 0.28
12 0.28
13 0.28
14 0.06
17 0.66
2 -0.43
20 0.71
21 -0.14
22 -0.29
23 0.42
3 -0.43
4 -0.68
46 0.4
47 0.15
48 0.15
5 -0.57
56 0.4
6 -0.57
7 -0.68
8 0.28
9 0.28

> <PUBCHEM_EFFECTIVE_ROTOR_COUNT>
8.4

> <PUBCHEM_PHARMACOPHORE_FEATURES>
10
1 1 acceptor
1 27 hydrophobe
1 4 acceptor
1 4 donor
1 5 acceptor
1 6 acceptor
1 7 acceptor
1 7 donor
6 1 8 9 10 12 13 rings
6 2 8 9 11 14 17 rings

> <PUBCHEM_HEAVY_ATOM_COUNT>
27

> <PUBCHEM_ATOM_DEF_STEREO_COUNT>
8

> <PUBCHEM_ATOM_UDEF_STEREO_COUNT>
0

> <PUBCHEM_BOND_DEF_STEREO_COUNT>
1

> <PUBCHEM_BOND_UDEF_STEREO_COUNT>
0

> <PUBCHEM_ISOTOPIC_ATOM_COUNT>
0

> <PUBCHEM_COMPONENT_COUNT>
1

> <PUBCHEM_CACTVS_TAUTO_COUNT>
1

> <PUBCHEM_CONFORMER_ID>
00B0804600000001

> <PUBCHEM_MMFF94_ENERGY>
71.6563

> <PUBCHEM_FEATURE_SELFOVERLAP>
50.777

> <PUBCHEM_SHAPE_FINGERPRINT>
10595046 47 18335137579471375317
10693767 8 18196656186298838894
11315621 246 18335695075428195863
11961588 58 17749108932437727776
12236239 1 17845936221362990784
13631057 29 18411133667737514803
13690498 29 18342450457620680669
13782708 43 18412262835481583931
14528608 73 18186800258107452169
15142383 8 14620803669765233731
15183329 4 18260546697520695001
15301273 46 10881674694473261312
15352257 5 18202565099261773199
15475509 84 11025784406176087030
15537594 2 16271921597861862293
16993427 108 16085283729764513626
1813 80 14189569715587025306
20567600 247 17704065192802497535
20715895 44 18186806859836527316
21054139 6 18259980488109478859
21521239 73 18410855451654713570
21623969 137 17203612592763728807
22393880 68 18338226086491102233
23559900 14 18341601634639262881
2838139 119 16877944910368693549
3004659 81 18340768135789063310
335352 9 18259991458046549798
4325135 7 18335419076218172375
439807 62 18342457058843359895
465052 167 17704355485056747533
484989 97 18339929328048940019
54040823 5 17846498110680840924
7495541 125 18202560692155653537
8863177 126 17845646097029131431

> <PUBCHEM_SHAPE_MULTIPOLES>
514.56
17.76
2.78
1.36
20.22
0.54
0.2
4.45
-8.09
3.1
0.09
-0.56
0.03
0.19

> <PUBCHEM_SHAPE_SELFOVERLAP>
1047.715

> <PUBCHEM_SHAPE_VOLUME>
296

> <PUBCHEM_COORDINATE_TYPE>
2
5
10

$$$$
