REMARK  Name = 11567635
REMARK  4 active torsions:
REMARK  status: ('A' for Active; 'I' for Inactive)
REMARK    1  A    between atoms: N_1  and  C_18
REMARK    2  A    between atoms: P_10  and  O_22
REMARK    3  A    between atoms: C_17  and  O_20
REMARK    4  A    between atoms: N_24  and  C_26
REMARK                            x       y       z     vdW  Elec       q    Type
REMARK                         _______ _______ _______ _____ _____    ______ ____
ROOT
ATOM      1  N   UNL     1       0.658   0.443  -0.509  0.00  0.00    -0.247 N 
ATOM      2  N   UNL     1      -0.828  -1.207  -0.714  0.00  0.00    -0.242 NA
ATOM      3  N   UNL     1      -0.821   2.255   0.148  0.00  0.00    -0.228 NA
ATOM      4  N   UNL     1      -3.139   1.503   0.283  0.00  0.00    -0.228 NA
ATOM      5  C   UNL     1      -0.557   0.988  -0.204  0.00  0.00    +0.152 C 
ATOM      6  C   UNL     1       0.443  -0.876  -0.808  0.00  0.00    +0.223 C 
ATOM      7  C   UNL     1      -1.464  -0.051  -0.337  0.00  0.00    +0.140 C 
ATOM      8  C   UNL     1      -2.800   0.242  -0.077  0.00  0.00    +0.150 C 
ATOM      9  C   UNL     1      -2.143   2.418   0.372  0.00  0.00    +0.253 C 
ATOM     10  N   UNL     1      -3.787  -0.752  -0.186  0.00  0.00    -0.297 N 
ATOM     11  H   UNL     1      -3.434  -1.631  -0.452  0.00  0.00    +0.154 HD
ENDROOT
BRANCH   1  20
ATOM     12  P   UNL     1       6.139  -1.005   0.666  0.00  0.00    +0.476 P 
ATOM     13  O   UNL     1       2.789   0.572  -1.566  0.00  0.00    -0.333 OA
ATOM     14  O   UNL     1       4.954  -0.032   1.212  0.00  0.00    -0.271 OA
ATOM     15  O   UNL     1       6.145  -0.831  -0.950  0.00  0.00    -0.271 OA
ATOM     16  O   UNL     1       7.474  -0.768   1.313  0.00  0.00    -0.227 OA
ATOM     17  C   UNL     1       3.766  -0.030   0.452  0.00  0.00    +0.186 C 
ATOM     18  C   UNL     1       4.071   0.350  -0.982  0.00  0.00    +0.177 C 
ATOM     19  C   UNL     1       2.723   1.003   0.810  0.00  0.00    +0.188 C 
ATOM     20  C   UNL     1       1.950   1.129  -0.517  0.00  0.00    +0.225 C 
ATOM     21  C   UNL     1       4.903  -0.727  -1.647  0.00  0.00    +0.186 C 
BRANCH  19  22
ATOM     22  O   UNL     1       3.347   2.247   1.113  0.00  0.00    -0.378 OA
ATOM     23  H   UNL     1       3.834   2.170   1.948  0.00  0.00    +0.211 HD
ENDBRANCH  19  22
BRANCH  12  24
ATOM     24  O   UNL     1       5.568  -2.503   0.895  0.00  0.00    -0.302 OA
ATOM     25  H   UNL     1       4.708  -2.591   0.456  0.00  0.00    +0.222 HD
ENDBRANCH  12  24
ENDBRANCH   1  20
BRANCH  10  26
ATOM     26  C   UNL     1      -5.185  -0.740   0.011  0.00  0.00    +0.049 C 
ATOM     27  C   UNL     1      -5.837  -1.894   0.444  0.00  0.00    +0.015 C 
ATOM     28  C   UNL     1      -5.912   0.426  -0.227  0.00  0.00    +0.015 C 
ATOM     29  C   UNL     1      -7.218  -1.882   0.638  0.00  0.00    +0.001 C 
ATOM     30  C   UNL     1      -7.293   0.438  -0.033  0.00  0.00    +0.001 C 
ATOM     31  C   UNL     1      -7.946  -0.717   0.400  0.00  0.00    +0.000 C 
ENDBRANCH  10  26
TORSDOF 4
