REMARK  Name = 11560395
REMARK  8 active torsions:
REMARK  status: ('A' for Active; 'I' for Inactive)
REMARK    1  A    between atoms: N_1  and  C_17
REMARK    2  A    between atoms: N_2  and  C_23
REMARK    3  A    between atoms: N_3  and  C_29
REMARK    4  A    between atoms: N_4  and  C_35
REMARK    5  A    between atoms: C_17  and  C_20
REMARK    6  A    between atoms: C_23  and  C_26
REMARK    7  A    between atoms: C_29  and  C_32
REMARK    8  A    between atoms: C_35  and  C_38
REMARK                            x       y       z     vdW  Elec       q    Type
REMARK                         _______ _______ _______ _____ _____    ______ ____
ROOT
ATOM      1  N   UNL     1       2.060  -0.550   0.997  0.00  0.00    +0.390 N 
ATOM      2  N   UNL     1       0.577   2.040   0.985  0.00  0.00    +0.390 N 
ATOM      3  N   UNL     1      -0.534  -2.028   1.020  0.00  0.00    +0.390 N 
ATOM      4  N   UNL     1      -2.017   0.563   1.011  0.00  0.00    +0.390 N 
ATOM      5  C   UNL     1       2.628   0.690   1.558  0.00  0.00    -0.100 C 
ATOM      6  C   UNL     1       1.683  -1.500   2.064  0.00  0.00    -0.100 C 
ATOM      7  C   UNL     1       1.539   1.668   2.042  0.00  0.00    -0.100 C 
ATOM      8  C   UNL     1       0.705  -2.592   1.589  0.00  0.00    -0.100 C 
ATOM      9  C   UNL     1      -0.655   2.613   1.558  0.00  0.00    -0.100 C 
ATOM     10  C   UNL     1      -1.484  -1.639   2.083  0.00  0.00    -0.100 C 
ATOM     11  C   UNL     1      -1.628   1.528   2.060  0.00  0.00    -0.100 C 
ATOM     12  C   UNL     1      -2.579  -0.669   1.596  0.00  0.00    -0.100 C 
ATOM     13  H   UNL     1       1.209  -0.313   0.487  0.00  0.00    -0.079 HD
ATOM     14  H   UNL     1       0.333   1.186   0.482  0.00  0.00    -0.079 HD
ATOM     15  H   UNL     1      -0.296  -1.183   0.502  0.00  0.00    -0.079 HD
ATOM     16  H   UNL     1      -1.172   0.319   0.495  0.00  0.00    -0.079 HD
ENDROOT
BRANCH   1  17
ATOM     17  C   UNL     1       3.015  -1.159   0.067  0.00  0.00    +0.009 C 
BRANCH  17  20
ATOM     18  O   UNL     1       1.883  -0.363  -1.911  0.00  0.00    -0.278 OA
ATOM     19  N   UNL     1       4.108   0.142  -1.648  0.00  0.00    -0.330 N 
ATOM     20  C   UNL     1       2.918  -0.428  -1.253  0.00  0.00    +0.198 C 
ATOM     21  H   UNL     1       4.157   0.643  -2.494  0.00  0.00    +0.145 HD
ATOM     22  H   UNL     1       4.910   0.049  -1.084  0.00  0.00    +0.145 HD
ENDBRANCH  17  20
ENDBRANCH   1  17
BRANCH   2  23
ATOM     23  C   UNL     1       1.176   2.989   0.042  0.00  0.00    +0.009 C 
BRANCH  23  26
ATOM     24  O   UNL     1       0.234   1.931  -1.913  0.00  0.00    -0.278 OA
ATOM     25  N   UNL     1      -0.165   4.168  -1.582  0.00  0.00    -0.330 N 
ATOM     26  C   UNL     1       0.375   2.949  -1.239  0.00  0.00    +0.198 C 
ATOM     27  H   UNL     1      -0.707   4.255  -2.399  0.00  0.00    +0.145 HD
ATOM     28  H   UNL     1      -0.010   4.954  -1.009  0.00  0.00    +0.145 HD
ENDBRANCH  23  26
ENDBRANCH   2  23
BRANCH   3  29
ATOM     29  C   UNL     1      -1.144  -2.993   0.100  0.00  0.00    +0.009 C 
BRANCH  29  32
ATOM     30  O   UNL     1      -0.345  -1.883  -1.889  0.00  0.00    -0.278 OA
ATOM     31  N   UNL     1       0.157  -4.106  -1.602  0.00  0.00    -0.330 N 
ATOM     32  C   UNL     1      -0.412  -2.911  -1.220  0.00  0.00    +0.198 C 
ATOM     33  H   UNL     1       0.659  -4.164  -2.447  0.00  0.00    +0.145 HD
ATOM     34  H   UNL     1       0.062  -4.901  -1.030  0.00  0.00    +0.145 HD
ENDBRANCH  29  32
ENDBRANCH   3  29
BRANCH   4  35
ATOM     35  C   UNL     1      -2.984   1.159   0.084  0.00  0.00    +0.009 C 
BRANCH  35  38
ATOM     36  O   UNL     1      -1.958   0.215  -1.888  0.00  0.00    -0.278 OA
ATOM     37  N   UNL     1      -4.189  -0.188  -1.517  0.00  0.00    -0.330 N 
ATOM     38  C   UNL     1      -2.965   0.355  -1.196  0.00  0.00    +0.198 C 
ATOM     39  H   UNL     1      -4.289  -0.731  -2.332  0.00  0.00    +0.145 HD
ATOM     40  H   UNL     1      -4.965  -0.033  -0.930  0.00  0.00    +0.145 HD
ENDBRANCH  35  38
ENDBRANCH   4  35
TORSDOF 8
