REMARK  Name = 11567174
REMARK  9 active torsions:
REMARK  status: ('A' for Active; 'I' for Inactive)
REMARK    1  A    between atoms: C_7  and  O_16
REMARK    2  A    between atoms: C_8  and  O_18
REMARK    3  A    between atoms: O_18  and  C_20
REMARK    4  A    between atoms: C_20  and  C_21
REMARK    5  A    between atoms: C_22  and  C_23
REMARK    6  A    between atoms: C_23  and  O_24
REMARK    7  A    between atoms: C_23  and  C_26
REMARK    8  A    between atoms: C_26  and  C_27
REMARK    9  A    between atoms: C_27  and  C_28
REMARK                            x       y       z     vdW  Elec       q    Type
REMARK                         _______ _______ _______ _____ _____    ______ ____
ROOT
ATOM      1  O   UNL     1       1.926  -1.755   0.581  0.00  0.00    -0.351 OA
ATOM      2  O   UNL     1       3.474   1.486  -0.218  0.00  0.00    -0.450 OA
ATOM      3  O   UNL     1       5.400   1.826  -1.355  0.00  0.00    -0.250 OA
ATOM      4  C   UNL     1       2.727  -0.816  -0.155  0.00  0.00    +0.154 C 
ATOM      5  C   UNL     1       2.702   0.547   0.555  0.00  0.00    +0.199 C 
ATOM      6  C   UNL     1       1.274   1.070   0.771  0.00  0.00    +0.085 C 
ATOM      7  C   UNL     1       4.196  -1.325  -0.090  0.00  0.00    +0.149 C 
ATOM      8  C   UNL     1       0.450  -0.014   1.489  0.00  0.00    +0.199 C 
ATOM      9  C   UNL     1       0.563  -1.371   0.777  0.00  0.00    +0.155 C 
ATOM     10  C   UNL     1       5.232  -0.180   0.007  0.00  0.00    +0.128 C 
ATOM     11  C   UNL     1       2.226  -0.745  -1.616  0.00  0.00    +0.036 C 
ATOM     12  C   UNL     1       1.276   2.383   1.564  0.00  0.00    +0.008 C 
ATOM     13  C   UNL     1       4.729   1.120  -0.610  0.00  0.00    +0.319 C 
ATOM     14  C   UNL     1      -0.102  -2.479   1.591  0.00  0.00    +0.036 C 
ATOM     15  C   UNL     1       6.610  -0.560  -0.536  0.00  0.00    +0.014 C 
ENDROOT
BRANCH   7  16
ATOM     16  O   UNL     1       4.481  -2.221  -1.162  0.00  0.00    -0.381 OA
ATOM     17  H   UNL     1       3.809  -2.920  -1.186  0.00  0.00    +0.210 HD
ENDBRANCH   7  16
BRANCH   8  18
ATOM     18  O   UNL     1      -0.916   0.382   1.566  0.00  0.00    -0.447 OA
BRANCH  18  20
ATOM     19  O   UNL     1      -1.065   0.409  -0.740  0.00  0.00    -0.245 OA
ATOM     20  C   UNL     1      -1.549   0.557   0.371  0.00  0.00    +0.341 C 
BRANCH  20  21
ATOM     21  C   UNL     1      -2.943   0.965   0.650  0.00  0.00    +0.080 C 
ATOM     22  C   UNL     1      -3.787   1.202  -0.363  0.00  0.00    +0.009 C 
BRANCH  22  23
ATOM     23  C   UNL     1      -5.218   1.618  -0.162  0.00  0.00    +0.133 C 
BRANCH  23  24
ATOM     24  O   UNL     1      -5.393   2.920  -0.719  0.00  0.00    -0.380 OA
ATOM     25  H   UNL     1      -4.780   3.539  -0.292  0.00  0.00    +0.211 HD
ENDBRANCH  23  24
BRANCH  23  26
ATOM     26  C   UNL     1      -6.183   0.628  -0.828  0.00  0.00    +0.034 C 
BRANCH  26  27
ATOM     27  C   UNL     1      -6.066  -0.779  -0.231  0.00  0.00    +0.003 C 
BRANCH  27  28
ATOM     28  C   UNL     1      -7.066  -1.740  -0.875  0.00  0.00    +0.000 C 
ATOM     29  C   UNL     1      -6.976  -3.130  -0.265  0.00  0.00    +0.000 C 
ENDBRANCH  27  28
ENDBRANCH  26  27
ENDBRANCH  23  26
ENDBRANCH  22  23
ENDBRANCH  20  21
ENDBRANCH  18  20
ENDBRANCH   8  18
TORSDOF 9
