REMARK  Name = 11567371
REMARK  6 active torsions:
REMARK  status: ('A' for Active; 'I' for Inactive)
REMARK    1  A    between atoms: C_7  and  C_22
REMARK    2  A    between atoms: C_13  and  C_18
REMARK    3  A    between atoms: C_22  and  C_23
REMARK    4  A    between atoms: C_23  and  C_24
REMARK    5  A    between atoms: C_24  and  C_26
REMARK    6  A    between atoms: C_26  and  O_27
REMARK                            x       y       z     vdW  Elec       q    Type
REMARK                         _______ _______ _______ _____ _____    ______ ____
ROOT
ATOM      1  S   UNL     1       2.796  -3.461  -0.554  0.00  0.00    +0.017 S 
ATOM      2  O   UNL     1       2.651  -3.776  -1.962  0.00  0.00    -0.168 OA
ATOM      3  O   UNL     1       2.958  -4.500   0.443  0.00  0.00    -0.168 OA
ATOM      4  N   UNL     1       0.017   0.065   0.499  0.00  0.00    -0.283 N 
ATOM      5  N   UNL     1       2.044   1.273   0.438  0.00  0.00    -0.329 NA
ATOM      6  N   UNL     1       4.129   0.133  -0.002  0.00  0.00    -0.346 NA
ATOM      7  C   UNL     1      -2.841   0.115   0.961  0.00  0.00    +0.003 C 
ATOM      8  C   UNL     1      -1.902  -0.743   1.815  0.00  0.00    +0.022 C 
ATOM      9  C   UNL     1      -2.248   0.277  -0.443  0.00  0.00    +0.022 C 
ATOM     10  C   UNL     1      -0.493  -0.156   1.859  0.00  0.00    +0.093 C 
ATOM     11  C   UNL     1      -0.835   0.857  -0.395  0.00  0.00    +0.093 C 
ATOM     12  C   UNL     1       1.406   0.089   0.327  0.00  0.00    +0.199 C 
ATOM     13  C   UNL     1       3.382   1.223   0.264  0.00  0.00    +0.113 C 
ATOM     14  C   UNL     1       2.058  -1.094   0.054  0.00  0.00    +0.091 C 
ATOM     15  C   UNL     1       3.431  -1.015  -0.102  0.00  0.00    +0.150 C 
ATOM     16  C   UNL     1       1.419  -2.425  -0.072  0.00  0.00    +0.129 C 
ATOM     17  C   UNL     1       4.142  -2.297  -0.381  0.00  0.00    +0.215 C 
ENDROOT
BRANCH  13  18
ATOM     18  C   UNL     1       4.143   2.578   0.381  0.00  0.00    +0.109 C 
ATOM     19  C   UNL     1       3.457   3.819  -0.227  0.00  0.00    +0.017 C 
ATOM     20  C   UNL     1       5.295   2.822  -0.616  0.00  0.00    +0.017 C 
ATOM     21  C   UNL     1       4.864   4.303  -0.634  0.00  0.00    +0.002 C 
ENDBRANCH  13  18
BRANCH   7  22
ATOM     22  C   UNL     1      -4.235  -0.504   0.895  0.00  0.00    +0.001 C 
BRANCH  22  23
ATOM     23  C   UNL     1      -5.233   0.339   0.104  0.00  0.00    +0.012 C 
BRANCH  23  24
ATOM     24  C   UNL     1      -6.638  -0.263   0.062  0.00  0.00    +0.109 C 
BRANCH  24  26
ATOM     25  O   UNL     1      -7.317   1.661  -1.268  0.00  0.00    -0.250 OA
ATOM     26  C   UNL     1      -7.599   0.606  -0.716  0.00  0.00    +0.314 C 
BRANCH  26  27
ATOM     27  O   UNL     1      -8.850   0.074  -0.729  0.00  0.00    -0.480 OA
ATOM     28  H   UNL     1      -9.018  -0.737  -0.292  0.00  0.00    +0.295 HD
ENDBRANCH  26  27
ENDBRANCH  24  26
ENDBRANCH  23  24
ENDBRANCH  22  23
ENDBRANCH   7  22
TORSDOF 6
