REMARK  Name = 11561383
REMARK  8 active torsions:
REMARK  status: ('A' for Active; 'I' for Inactive)
REMARK    1  A    between atoms: C_2  and  C_22
REMARK    2  A    between atoms: C_3  and  N_25
REMARK    3  A    between atoms: C_8  and  C_19
REMARK    4  A    between atoms: C_9  and  C_11
REMARK    5  A    between atoms: N_25  and  S_26
REMARK    6  A    between atoms: N_25  and  C_30
REMARK    7  A    between atoms: C_30  and  C_31
REMARK    8  A    between atoms: C_31  and  O_32
REMARK                            x       y       z     vdW  Elec       q    Type
REMARK                         _______ _______ _______ _____ _____    ______ ____
ROOT
ATOM      1  O   UNL     1       1.299   1.208   0.220  0.00  0.00    -0.453 OA
ATOM      2  C   UNL     1      -2.169  -0.929  -0.206  0.00  0.00    -0.007 C 
ATOM      3  C   UNL     1      -2.284   0.438   0.062  0.00  0.00    +0.068 C 
ATOM      4  C   UNL     1      -0.913  -1.539  -0.324  0.00  0.00    +0.000 C 
ATOM      5  C   UNL     1       0.239  -0.748  -0.167  0.00  0.00    +0.042 A 
ATOM      6  C   UNL     1      -1.153   1.243   0.222  0.00  0.00    +0.053 C 
ATOM      7  C   UNL     1       0.082   0.608   0.100  0.00  0.00    +0.147 A 
ATOM      8  C   UNL     1       1.640  -0.974  -0.210  0.00  0.00    +0.091 A 
ATOM      9  C   UNL     1       2.236   0.243   0.031  0.00  0.00    +0.150 A 
ENDROOT
BRANCH   9  11
ATOM     10  F   UNL     1       7.514   1.991   0.378  0.00  0.00    -0.204 F 
ATOM     11  C   UNL     1       3.597   0.694   0.121  0.00  0.00    +0.035 C 
ATOM     12  C   UNL     1       4.263   1.149  -1.021  0.00  0.00    +0.005 C 
ATOM     13  C   UNL     1       4.263   0.680   1.349  0.00  0.00    +0.005 C 
ATOM     14  C   UNL     1       5.585   1.586  -0.934  0.00  0.00    +0.030 C 
ATOM     15  C   UNL     1       5.584   1.118   1.437  0.00  0.00    +0.030 C 
ATOM     16  C   UNL     1       6.245   1.571   0.295  0.00  0.00    +0.140 C 
ENDBRANCH   9  11
BRANCH   8  19
ATOM     17  O   UNL     1       3.470  -2.249  -0.970  0.00  0.00    -0.270 OA
ATOM     18  N   UNL     1       1.692  -3.386  -0.044  0.00  0.00    -0.299 N 
ATOM     19  C   UNL     1       2.335  -2.205  -0.450  0.00  0.00    +0.249 C 
ATOM     20  C   UNL     1       2.274  -4.701  -0.190  0.00  0.00    +0.111 C 
ATOM     21  H   UNL     1       0.797  -3.315   0.362  0.00  0.00    +0.150 HD
ENDBRANCH   8  19
BRANCH   2  22
ATOM     22  C   UNL     1      -3.389  -1.777  -0.374  0.00  0.00    +0.024 C 
ATOM     23  C   UNL     1      -4.049  -2.347   0.840  0.00  0.00    +0.005 C 
ATOM     24  C   UNL     1      -3.298  -3.243  -0.101  0.00  0.00    +0.005 C 
ENDBRANCH   2  22
BRANCH   3  25
ATOM     25  N   UNL     1      -3.574   1.048   0.179  0.00  0.00    -0.192 N 
BRANCH  25  26
ATOM     26  S   UNL     1      -4.269   1.709  -1.254  0.00  0.00    +0.059 S 
ATOM     27  O   UNL     1      -5.710   1.788  -1.098  0.00  0.00    -0.154 OA
ATOM     28  O   UNL     1      -3.698   1.069  -2.425  0.00  0.00    -0.154 OA
ATOM     29  C   UNL     1      -3.654   3.379  -1.206  0.00  0.00    +0.200 C 
ENDBRANCH  25  26
BRANCH  25  30
ATOM     30  C   UNL     1      -3.906   1.703   1.475  0.00  0.00    +0.147 C 
BRANCH  30  31
ATOM     31  C   UNL     1      -4.524   0.686   2.417  0.00  0.00    +0.160 C 
BRANCH  31  32
ATOM     32  O   UNL     1      -5.729   0.189   1.849  0.00  0.00    -0.380 OA
ATOM     33  H   UNL     1      -6.125  -0.461   2.451  0.00  0.00    +0.211 HD
ENDBRANCH  31  32
ENDBRANCH  30  31
ENDBRANCH  25  30
ENDBRANCH   3  25
TORSDOF 8
