11560189
  -OEChem-03292013303D

 54 56  0     1  0  0  0  0  0999 V2000
   -1.4895   -0.7221    1.2941 O   0  0  0  0  0  0  0  0  0  0  0  0
    0.1327   -2.1062    0.3469 O   0  0  0  0  0  0  0  0  0  0  0  0
   -4.3805   -2.1531   -1.2479 O   0  0  0  0  0  0  0  0  0  0  0  0
   -4.8189    0.3213    0.1808 O   0  0  0  0  0  0  0  0  0  0  0  0
   -1.5281   -2.4672   -1.9157 O   0  0  0  0  0  0  0  0  0  0  0  0
   -1.8342    1.4312    2.9675 O   0  0  0  0  0  0  0  0  0  0  0  0
    4.8843   -2.2925   -0.2683 O   0  0  0  0  0  0  0  0  0  0  0  0
   -3.3299   -1.2752   -0.8404 C   0  0  1  0  0  0  0  0  0  0  0  0
   -3.7609   -0.5924    0.4577 C   0  0  1  0  0  0  0  0  0  0  0  0
   -2.0437   -2.0778   -0.6429 C   0  0  2  0  0  0  0  0  0  0  0  0
   -2.5897    0.1654    1.0875 C   0  0  1  0  0  0  0  0  0  0  0  0
   -0.9765   -1.2505    0.0734 C   0  0  1  0  0  0  0  0  0  0  0  0
   -2.9637    0.7576    2.4426 C   0  0  0  0  0  0  0  0  0  0  0  0
    1.3661   -1.5160    0.3872 C   0  0  0  0  0  0  0  0  0  0  0  0
    2.5059   -2.2305    0.0295 C   0  0  0  0  0  0  0  0  0  0  0  0
    1.4660   -0.1879    0.7928 C   0  0  0  0  0  0  0  0  0  0  0  0
    2.7156    0.4303    0.8411 C   0  0  0  0  0  0  0  0  0  0  0  0
    2.8275    1.8533    1.2739 C   0  0  0  0  0  0  0  0  0  0  0  0
    3.7555   -1.6125    0.0779 C   0  0  0  0  0  0  0  0  0  0  0  0
    3.8603   -0.2820    0.4836 C   0  0  0  0  0  0  0  0  0  0  0  0
    2.7193    2.8707    0.1210 C   0  0  0  0  0  0  0  0  0  0  0  0
    2.3937   -3.6563   -0.4057 C   0  0  0  0  0  0  0  0  0  0  0  0
    1.3936    2.8156   -0.5982 C   0  0  0  0  0  0  0  0  0  0  0  0
    1.2459    1.9715   -1.6878 C   0  0  0  0  0  0  0  0  0  0  0  0
    0.3472    3.6101   -0.1568 C   0  0  0  0  0  0  0  0  0  0  0  0
    0.0207    1.9209   -2.3528 C   0  0  0  0  0  0  0  0  0  0  0  0
   -0.8779    3.5593   -0.8216 C   0  0  0  0  0  0  0  0  0  0  0  0
   -1.0411    2.7147   -1.9197 C   0  0  0  0  0  0  0  0  0  0  0  0
   -3.2073   -0.5427   -1.6480 H   0  0  0  0  0  0  0  0  0  0  0  0
   -4.1515   -1.3454    1.1531 H   0  0  0  0  0  0  0  0  0  0  0  0
   -2.2533   -3.0011   -0.0898 H   0  0  0  0  0  0  0  0  0  0  0  0
   -2.2580    0.9868    0.4398 H   0  0  0  0  0  0  0  0  0  0  0  0
   -0.6729   -0.4349   -0.5975 H   0  0  0  0  0  0  0  0  0  0  0  0
   -3.2486   -0.0226    3.1563 H   0  0  0  0  0  0  0  0  0  0  0  0
   -3.7844    1.4756    2.3582 H   0  0  0  0  0  0  0  0  0  0  0  0
   -5.1846   -1.6160   -1.3517 H   0  0  0  0  0  0  0  0  0  0  0  0
   -4.4788    0.9987   -0.4285 H   0  0  0  0  0  0  0  0  0  0  0  0
   -1.3363   -1.6604   -2.4236 H   0  0  0  0  0  0  0  0  0  0  0  0
    0.6086    0.3941    1.1105 H   0  0  0  0  0  0  0  0  0  0  0  0
   -1.1098    0.7856    3.0321 H   0  0  0  0  0  0  0  0  0  0  0  0
    2.0600    2.0683    2.0297 H   0  0  0  0  0  0  0  0  0  0  0  0
    3.7862    2.0048    1.7872 H   0  0  0  0  0  0  0  0  0  0  0  0
    4.8335    0.2021    0.5192 H   0  0  0  0  0  0  0  0  0  0  0  0
    3.5316    2.7082   -0.5999 H   0  0  0  0  0  0  0  0  0  0  0  0
    2.8765    3.8815    0.5191 H   0  0  0  0  0  0  0  0  0  0  0  0
    3.2855   -4.2329   -0.1382 H   0  0  0  0  0  0  0  0  0  0  0  0
    1.5507   -4.1619    0.0770 H   0  0  0  0  0  0  0  0  0  0  0  0
    2.2563   -3.7057   -1.4906 H   0  0  0  0  0  0  0  0  0  0  0  0
    5.6524   -1.7035   -0.1730 H   0  0  0  0  0  0  0  0  0  0  0  0
    2.0669    1.3536   -2.0398 H   0  0  0  0  0  0  0  0  0  0  0  0
    0.4635    4.2684    0.6993 H   0  0  0  0  0  0  0  0  0  0  0  0
   -0.1069    1.2621   -3.2067 H   0  0  0  0  0  0  0  0  0  0  0  0
   -1.7058    4.1752   -0.4828 H   0  0  0  0  0  0  0  0  0  0  0  0
   -1.9960    2.6728   -2.4354 H   0  0  0  0  0  0  0  0  0  0  0  0
  1 11  1  0  0  0  0
  1 12  1  0  0  0  0
  2 12  1  0  0  0  0
  2 14  1  0  0  0  0
  3  8  1  0  0  0  0
  3 36  1  0  0  0  0
  4  9  1  0  0  0  0
  4 37  1  0  0  0  0
  5 10  1  0  0  0  0
  5 38  1  0  0  0  0
  6 13  1  0  0  0  0
  6 40  1  0  0  0  0
  7 19  1  0  0  0  0
  7 49  1  0  0  0  0
  8  9  1  0  0  0  0
  8 10  1  0  0  0  0
  8 29  1  0  0  0  0
  9 11  1  0  0  0  0
  9 30  1  0  0  0  0
 10 12  1  0  0  0  0
 10 31  1  0  0  0  0
 11 13  1  0  0  0  0
 11 32  1  0  0  0  0
 12 33  1  0  0  0  0
 13 34  1  0  0  0  0
 13 35  1  0  0  0  0
 14 15  1  0  0  0  0
 14 16  2  0  0  0  0
 15 19  2  0  0  0  0
 15 22  1  0  0  0  0
 16 17  1  0  0  0  0
 16 39  1  0  0  0  0
 17 18  1  0  0  0  0
 17 20  2  0  0  0  0
 18 21  1  0  0  0  0
 18 41  1  0  0  0  0
 18 42  1  0  0  0  0
 19 20  1  0  0  0  0
 20 43  1  0  0  0  0
 21 23  1  0  0  0  0
 21 44  1  0  0  0  0
 21 45  1  0  0  0  0
 22 46  1  0  0  0  0
 22 47  1  0  0  0  0
 22 48  1  0  0  0  0
 23 24  2  0  0  0  0
 23 25  1  0  0  0  0
 24 26  1  0  0  0  0
 24 50  1  0  0  0  0
 25 27  2  0  0  0  0
 25 51  1  0  0  0  0
 26 28  2  0  0  0  0
 26 52  1  0  0  0  0
 27 28  1  0  0  0  0
 27 53  1  0  0  0  0
 28 54  1  0  0  0  0
M  END
> <PUBCHEM_COMPOUND_CID>
11560189

> <PUBCHEM_CONFORMER_RMSD>
1

> <PUBCHEM_CONFORMER_DIVERSEORDER>
1
130
265
116
449
3
232
471
214
586
375
15
494
474
394
452
607
23
204
485
255
618
57
213
110
281
510
221
244
63
599
311
141
241
117
31
420
111
26
77
422
555
318
458
19
509
230
600
69
526
12
103
238
609
288
456
16
35
588
80
418
2
583
233
296
4
615
266
8
87
24
6
226
316
189
176
307
528
435
160
200
404
195
268
48
514
325
76
301
109
59
432
81
270
179
373
335
566
5
193
29
28
78
105
207
177
150
623
53
132
605
283
145
61
278
11
74
50
463
39
376
40
45
36
297
257
319
515
433
99
119
572
210
148
92
438
506
123
62
217
192
334
55
385
237
243
20
86
548
47
102
43
7
75
556
44
13
107
9
527
84
169
70
561
125
487
51
151
115
552
34
414
604
135
178
156
124

> <PUBCHEM_MMFF94_PARTIAL_CHARGES>
40
1 -0.56
10 0.28
11 0.28
12 0.56
13 0.28
14 0.08
15 -0.14
16 -0.15
17 -0.14
18 0.14
19 0.08
2 -0.36
20 -0.15
21 0.14
22 0.14
23 -0.14
24 -0.15
25 -0.15
26 -0.15
27 -0.15
28 -0.15
3 -0.68
36 0.4
37 0.4
38 0.4
39 0.15
4 -0.68
40 0.4
43 0.15
49 0.45
5 -0.68
50 0.15
51 0.15
52 0.15
53 0.15
54 0.15
6 -0.68
7 -0.53
8 0.28
9 0.28

> <PUBCHEM_EFFECTIVE_ROTOR_COUNT>
7.2

> <PUBCHEM_PHARMACOPHORE_FEATURES>
14
1 1 acceptor
1 2 acceptor
1 3 acceptor
1 3 donor
1 4 acceptor
1 4 donor
1 5 acceptor
1 5 donor
1 6 acceptor
1 6 donor
1 7 donor
6 1 8 9 10 11 12 rings
6 14 15 16 17 19 20 rings
6 23 24 25 26 27 28 rings

> <PUBCHEM_HEAVY_ATOM_COUNT>
28

> <PUBCHEM_ATOM_DEF_STEREO_COUNT>
5

> <PUBCHEM_ATOM_UDEF_STEREO_COUNT>
0

> <PUBCHEM_BOND_DEF_STEREO_COUNT>
0

> <PUBCHEM_BOND_UDEF_STEREO_COUNT>
0

> <PUBCHEM_ISOTOPIC_ATOM_COUNT>
0

> <PUBCHEM_COMPONENT_COUNT>
1

> <PUBCHEM_CACTVS_TAUTO_COUNT>
9

> <PUBCHEM_CONFORMER_ID>
00B064FD00000001

> <PUBCHEM_MMFF94_ENERGY>
84.6577

> <PUBCHEM_FEATURE_SELFOVERLAP>
71.11

> <PUBCHEM_SHAPE_FINGERPRINT>
10119406 146 16032950094102233186
10708813 3 18268995447900605645
11244481 83 15070031298164874901
11370993 70 17257076598651026029
11578080 2 17984108532253733744
11640471 11 18125736809605638761
12156800 1 12855778797314464953
12166972 35 18342733044772517471
12422481 6 17972288937059204016
13009979 54 18202293519082552219
13402501 40 17686627844381768577
13965767 371 18050260834117571824
14251757 17 17898818363067582685
14790565 3 17829613112651732492
15420108 30 17329687226032381056
17357779 13 18187640267473697876
20764821 26 17474386876914248054
21641784 216 17824566101303522630
23419403 2 17699812256129965210
3380486 145 18122631548292770418
35225 105 17060329704624939829
4409770 3 17186164167543280278
474 4 18192422189635256178
513532 50 18200039593528886276
539174 4 18269011889051252305
6287921 2 18122626312480080422
7237137 82 18047206150798770054

> <PUBCHEM_SHAPE_MULTIPOLES>
535.14
7.2
4.77
1.99
1.81
1.83
-0.45
-4.47
-1.05
-2.27
2.07
1.62
1.03
-0.45

> <PUBCHEM_SHAPE_SELFOVERLAP>
1139.03

> <PUBCHEM_SHAPE_VOLUME>
295

> <PUBCHEM_COORDINATE_TYPE>
2
5
10

$$$$
