REMARK  Name = 11561674
REMARK  8 active torsions:
REMARK  status: ('A' for Active; 'I' for Inactive)
REMARK    1  A    between atoms: C_1  and  N_4
REMARK    2  A    between atoms: C_1  and  C_18
REMARK    3  A    between atoms: C_1  and  C_29
REMARK    4  A    between atoms: C_9  and  N_14
REMARK    5  A    between atoms: C_21  and  O_26
REMARK    6  A    between atoms: C_23  and  O_24
REMARK    7  A    between atoms: O_26  and  C_27
REMARK    8  A    between atoms: C_29  and  S_30
REMARK                            x       y       z     vdW  Elec       q    Type
REMARK                         _______ _______ _______ _____ _____    ______ ____
ROOT
ATOM      1  C   UNL     1      -0.698   1.996  -0.080  0.00  0.00    +0.129 C 
ENDROOT
BRANCH   1   4
ATOM      2  O   UNL     1       0.314  -0.608   0.939  0.00  0.00    -0.269 OA
ATOM      3  O   UNL     1       1.437   2.783  -2.007  0.00  0.00    -0.269 OA
ATOM      4  N   UNL     1       0.522   1.295  -0.427  0.00  0.00    -0.219 N 
ATOM      5  C   UNL     1       0.890   0.083   0.119  0.00  0.00    +0.257 C 
ATOM      6  C   UNL     1       1.443   1.766  -1.339  0.00  0.00    +0.255 C 
ATOM      7  C   UNL     1       2.175  -0.252  -0.494  0.00  0.00    +0.072 C 
ATOM      8  C   UNL     1       2.510   0.766  -1.375  0.00  0.00    +0.060 C 
ATOM      9  C   UNL     1       2.989  -1.350  -0.304  0.00  0.00    +0.055 C 
ATOM     10  C   UNL     1       3.675   0.738  -2.114  0.00  0.00    +0.005 C 
ATOM     11  C   UNL     1       4.175  -1.399  -1.042  0.00  0.00    +0.015 C 
ATOM     12  C   UNL     1       4.515  -0.365  -1.938  0.00  0.00    +0.001 C 
BRANCH   9  14
ATOM     13  O   UNL     1       4.474  -3.877   0.383  0.00  0.00    -0.275 OA
ATOM     14  N   UNL     1       2.663  -2.379   0.577  0.00  0.00    -0.284 N 
ATOM     15  C   UNL     1       3.395  -3.542   0.860  0.00  0.00    +0.227 C 
ATOM     16  C   UNL     1       2.697  -4.409   1.878  0.00  0.00    +0.095 C 
ATOM     17  H   UNL     1       1.813  -2.277   1.063  0.00  0.00    +0.155 HD
ENDBRANCH   9  14
ENDBRANCH   1   4
BRANCH   1  18
ATOM     18  C   UNL     1      -1.912   1.171  -0.452  0.00  0.00    +0.001 C 
ATOM     19  C   UNL     1      -2.495   0.360   0.506  0.00  0.00    +0.037 C 
ATOM     20  C   UNL     1      -2.409   1.246  -1.741  0.00  0.00    +0.001 C 
ATOM     21  C   UNL     1      -3.614  -0.400   0.163  0.00  0.00    +0.172 C 
ATOM     22  C   UNL     1      -3.527   0.486  -2.083  0.00  0.00    +0.040 C 
ATOM     23  C   UNL     1      -4.130  -0.337  -1.131  0.00  0.00    +0.172 C 
BRANCH  23  24
ATOM     24  O   UNL     1      -5.221  -1.075  -1.478  0.00  0.00    -0.468 OA
ATOM     25  C   UNL     1      -4.983  -2.384  -1.991  0.00  0.00    +0.253 C 
ENDBRANCH  23  24
BRANCH  21  26
ATOM     26  O   UNL     1      -4.193  -1.199   1.102  0.00  0.00    -0.472 OA
BRANCH  26  27
ATOM     27  C   UNL     1      -3.380  -2.223   1.673  0.00  0.00    +0.206 C 
ATOM     28  C   UNL     1      -4.261  -3.386   2.075  0.00  0.00    +0.051 C 
ENDBRANCH  26  27
ENDBRANCH  21  26
ENDBRANCH   1  18
BRANCH   1  29
ATOM     29  C   UNL     1      -0.711   2.382   1.400  0.00  0.00    +0.176 C 
BRANCH  29  30
ATOM     30  S   UNL     1       0.699   3.348   1.851  0.00  0.00    -0.006 S 
ATOM     31  O   UNL     1       1.887   2.538   1.646  0.00  0.00    -0.173 OA
ATOM     32  O   UNL     1       0.574   4.652   1.222  0.00  0.00    -0.173 OA
ATOM     33  C   UNL     1       0.497   3.574   3.602  0.00  0.00    +0.176 C 
ENDBRANCH  29  30
ENDBRANCH   1  29
TORSDOF 8
