11560039
  -OEChem-03292013303D

 55 57  0     1  0  0  0  0  0999 V2000
   -1.2448   -0.6425    1.1522 O   0  0  0  0  0  0  0  0  0  0  0  0
    0.3395    0.8748   -0.1677 O   0  0  0  0  0  0  0  0  0  0  0  0
    2.2281   -0.3523   -0.7772 O   0  0  0  0  0  0  0  0  0  0  0  0
   -4.8828    1.9672   -1.9653 O   0  0  0  0  0  0  0  0  0  0  0  0
    2.0028    2.7193    1.1885 O   0  0  0  0  0  0  0  0  0  0  0  0
    4.5048    1.4694    2.1151 O   0  0  0  0  0  0  0  0  0  0  0  0
    5.7947    0.0584   -0.0531 O   0  0  0  0  0  0  0  0  0  0  0  0
    3.2441   -1.9925   -2.7352 O   0  0  0  0  0  0  0  0  0  0  0  0
   -3.5856    0.0089    0.8448 C   0  0  0  0  0  0  0  0  0  0  0  0
   -2.2815   -0.5152    0.1391 C   0  0  1  0  0  0  0  0  0  0  0  0
   -4.6504    0.3435   -0.2199 C   0  0  0  0  0  0  0  0  0  0  0  0
   -1.8210    0.4515   -0.9543 C   0  0  0  0  0  0  0  0  0  0  0  0
   -2.4117   -1.9018   -0.4277 C   0  0  0  0  0  0  0  0  0  0  0  0
   -4.1862   -1.0312    1.8191 C   0  0  0  0  0  0  0  0  0  0  0  0
   -3.2909    1.2747    1.6951 C   0  0  0  0  0  0  0  0  0  0  0  0
   -0.6459   -1.9537    1.0552 C   0  0  2  0  0  0  0  0  0  0  0  0
   -0.3591    0.4703   -1.3202 C   0  0  0  0  0  0  0  0  0  0  0  0
   -4.1255    1.2590   -1.3031 C   0  0  0  0  0  0  0  0  0  0  0  0
   -2.6743    1.2608   -1.6043 C   0  0  0  0  0  0  0  0  0  0  0  0
   -1.4940   -2.7095    0.0994 C   0  0  0  0  0  0  0  0  0  0  0  0
    1.7487    0.9325   -0.3875 C   0  0  2  0  0  0  0  0  0  0  0  0
    2.4105    1.3788    0.9161 C   0  0  1  0  0  0  0  0  0  0  0  0
    3.9348    1.3228    0.8135 C   0  0  2  0  0  0  0  0  0  0  0  0
    4.4020   -0.0153    0.2405 C   0  0  1  0  0  0  0  0  0  0  0  0
    3.6328   -0.3572   -1.0377 C   0  0  1  0  0  0  0  0  0  0  0  0
   -0.5875   -2.5790    2.4380 C   0  0  0  0  0  0  0  0  0  0  0  0
    3.9984   -1.7416   -1.5635 C   0  0  0  0  0  0  0  0  0  0  0  0
   -5.5096    0.8370    0.2509 H   0  0  0  0  0  0  0  0  0  0  0  0
   -5.0197   -0.5649   -0.7108 H   0  0  0  0  0  0  0  0  0  0  0  0
   -3.1369   -2.2039   -1.1697 H   0  0  0  0  0  0  0  0  0  0  0  0
   -5.0863   -0.6364    2.3054 H   0  0  0  0  0  0  0  0  0  0  0  0
   -3.4781   -1.2933    2.6113 H   0  0  0  0  0  0  0  0  0  0  0  0
   -4.4805   -1.9528    1.3064 H   0  0  0  0  0  0  0  0  0  0  0  0
   -4.2114    1.6682    2.1422 H   0  0  0  0  0  0  0  0  0  0  0  0
   -2.8461    2.0834    1.1077 H   0  0  0  0  0  0  0  0  0  0  0  0
   -2.6027    1.0506    2.5179 H   0  0  0  0  0  0  0  0  0  0  0  0
    0.3685   -1.8421    0.6595 H   0  0  0  0  0  0  0  0  0  0  0  0
   -0.1583    1.1706   -2.1400 H   0  0  0  0  0  0  0  0  0  0  0  0
   -0.0528   -0.5293   -1.6480 H   0  0  0  0  0  0  0  0  0  0  0  0
   -2.3404    1.9370   -2.3843 H   0  0  0  0  0  0  0  0  0  0  0  0
   -1.3656   -3.7504   -0.1568 H   0  0  0  0  0  0  0  0  0  0  0  0
    1.9393    1.6611   -1.1873 H   0  0  0  0  0  0  0  0  0  0  0  0
    2.0629    0.7647    1.7556 H   0  0  0  0  0  0  0  0  0  0  0  0
    4.3120    2.1605    0.2141 H   0  0  0  0  0  0  0  0  0  0  0  0
    4.2667   -0.8012    0.9937 H   0  0  0  0  0  0  0  0  0  0  0  0
    3.8421    0.3732   -1.8312 H   0  0  0  0  0  0  0  0  0  0  0  0
   -1.5865   -2.6900    2.8726 H   0  0  0  0  0  0  0  0  0  0  0  0
   -0.1138   -3.5654    2.4082 H   0  0  0  0  0  0  0  0  0  0  0  0
   -0.0182   -1.9384    3.1203 H   0  0  0  0  0  0  0  0  0  0  0  0
    3.7554   -2.5234   -0.8363 H   0  0  0  0  0  0  0  0  0  0  0  0
    5.0603   -1.8119   -1.8156 H   0  0  0  0  0  0  0  0  0  0  0  0
    2.3023    3.2809    0.4532 H   0  0  0  0  0  0  0  0  0  0  0  0
    5.4710    1.4159    2.0174 H   0  0  0  0  0  0  0  0  0  0  0  0
    5.9237    0.7483   -0.7261 H   0  0  0  0  0  0  0  0  0  0  0  0
    2.3029   -1.9237   -2.4996 H   0  0  0  0  0  0  0  0  0  0  0  0
  1 10  1  0  0  0  0
  1 16  1  0  0  0  0
  2 17  1  0  0  0  0
  2 21  1  0  0  0  0
  3 21  1  0  0  0  0
  3 25  1  0  0  0  0
  4 18  2  0  0  0  0
  5 22  1  0  0  0  0
  5 52  1  0  0  0  0
  6 23  1  0  0  0  0
  6 53  1  0  0  0  0
  7 24  1  0  0  0  0
  7 54  1  0  0  0  0
  8 27  1  0  0  0  0
  8 55  1  0  0  0  0
  9 10  1  0  0  0  0
  9 11  1  0  0  0  0
  9 14  1  0  0  0  0
  9 15  1  0  0  0  0
 10 12  1  0  0  0  0
 10 13  1  0  0  0  0
 11 18  1  0  0  0  0
 11 28  1  0  0  0  0
 11 29  1  0  0  0  0
 12 17  1  0  0  0  0
 12 19  2  0  0  0  0
 13 20  2  0  0  0  0
 13 30  1  0  0  0  0
 14 31  1  0  0  0  0
 14 32  1  0  0  0  0
 14 33  1  0  0  0  0
 15 34  1  0  0  0  0
 15 35  1  0  0  0  0
 15 36  1  0  0  0  0
 16 20  1  0  0  0  0
 16 26  1  0  0  0  0
 16 37  1  0  0  0  0
 17 38  1  0  0  0  0
 17 39  1  0  0  0  0
 18 19  1  0  0  0  0
 19 40  1  0  0  0  0
 20 41  1  0  0  0  0
 21 22  1  0  0  0  0
 21 42  1  0  0  0  0
 22 23  1  0  0  0  0
 22 43  1  0  0  0  0
 23 24  1  0  0  0  0
 23 44  1  0  0  0  0
 24 25  1  0  0  0  0
 24 45  1  0  0  0  0
 25 27  1  0  0  0  0
 25 46  1  0  0  0  0
 26 47  1  0  0  0  0
 26 48  1  0  0  0  0
 26 49  1  0  0  0  0
 27 50  1  0  0  0  0
 27 51  1  0  0  0  0
M  END
> <PUBCHEM_COMPOUND_CID>
11560039

> <PUBCHEM_CONFORMER_RMSD>
0.8

> <PUBCHEM_CONFORMER_DIVERSEORDER>
4
56
52
31
92
84
71
82
21
74
49
78
105
13
85
19
41
102
77
12
83
42
37
60
96
89
81
23
95
65
22
63
103
58
64
61
86
5
30
59
54
94
51
88
93
3
44
91
43
98
7
50
9
80
99
36
101
53
45
2
6
79
67
76
35
40
62
46
90
27
18
48
10
24
87
73
26
33
11
1
104
97
69
100
28
25
15
47
20
32
106
72
66
55
75
17
16
57
38
29
68
70
34
8
14
39

> <PUBCHEM_MMFF94_PARTIAL_CHARGES>
30
1 -0.56
10 0.56
11 0.06
12 -0.28
13 -0.29
16 0.42
17 0.42
18 0.49
19 -0.14
2 -0.56
20 -0.29
21 0.56
22 0.28
23 0.28
24 0.28
25 0.28
27 0.28
3 -0.56
30 0.15
4 -0.57
40 0.15
41 0.15
5 -0.68
52 0.4
53 0.4
54 0.4
55 0.4
6 -0.68
7 -0.68
8 -0.68

> <PUBCHEM_EFFECTIVE_ROTOR_COUNT>
6

> <PUBCHEM_PHARMACOPHORE_FEATURES>
16
1 1 acceptor
1 2 acceptor
1 3 acceptor
1 4 acceptor
1 5 acceptor
1 5 donor
1 6 acceptor
1 6 donor
1 7 acceptor
1 7 donor
1 8 acceptor
1 8 donor
3 9 14 15 hydrophobe
5 1 10 13 16 20 rings
6 3 21 22 23 24 25 rings
6 9 10 11 12 18 19 rings

> <PUBCHEM_HEAVY_ATOM_COUNT>
27

> <PUBCHEM_ATOM_DEF_STEREO_COUNT>
7

> <PUBCHEM_ATOM_UDEF_STEREO_COUNT>
0

> <PUBCHEM_BOND_DEF_STEREO_COUNT>
0

> <PUBCHEM_BOND_UDEF_STEREO_COUNT>
0

> <PUBCHEM_ISOTOPIC_ATOM_COUNT>
0

> <PUBCHEM_COMPONENT_COUNT>
1

> <PUBCHEM_CACTVS_TAUTO_COUNT>
2

> <PUBCHEM_CONFORMER_ID>
00B0646700000004

> <PUBCHEM_MMFF94_ENERGY>
68.825

> <PUBCHEM_FEATURE_SELFOVERLAP>
81.282

> <PUBCHEM_SHAPE_FINGERPRINT>
11089746 13 16128654172190745288
11370993 70 17917713556164054014
12107183 9 16411844201739842514
12166972 35 15051728711929537696
12236239 1 15864070962331132428
12422481 6 16806987863124495424
12596602 18 14549011075362527334
12633257 1 18262223543285243440
12788726 201 18340765928118384112
13224815 77 15357973529435012956
13533116 47 17846786195501574031
13544592 145 18410295778935165902
13583140 156 16845293903253956090
13726171 33 17170148934496915452
14251757 17 18341333301317894578
16752209 62 17603302682910006687
17349148 13 14549023169310028980
17818456 19 15481005405832967720
19930381 70 17986405398801052895
20511986 3 15697703840488901376
20600515 1 18113610196836570124
20715895 44 15264557711811341017
21033648 29 18408597055040514293
22182313 1 18260838051391990151
23559900 14 18273216426243208640
2838139 119 17272581525854613201
3298306 158 17968934184936961703
3729539 64 18120098273339571494
4015057 19 17917709123672934568
508706 21 18259983799102067679
5161694 15 18411426111216583198
5265222 85 17968387844423823566
5385378 56 17969780762183694905
59755656 215 18261399919208857423
602551 16 17894909676587547000
7226269 152 18408038499107292176
7399639 24 17406830056583716378
9709674 26 18271249442432068726
9862522 239 17604693500895048885
9981440 41 17053269950610543816

> <PUBCHEM_SHAPE_MULTIPOLES>
508.69
10.61
2.59
2.19
6.3
1.22
0.11
-2.9
0.3
-1.51
-0.36
1.16
0.15
2.92

> <PUBCHEM_SHAPE_SELFOVERLAP>
1069.993

> <PUBCHEM_SHAPE_VOLUME>
283.1

> <PUBCHEM_COORDINATE_TYPE>
2
5
10

$$$$
