REMARK  Name = 11561692
REMARK  8 active torsions:
REMARK  status: ('A' for Active; 'I' for Inactive)
REMARK    1  A    between atoms: N_1  and  C_11
REMARK    2  A    between atoms: C_12  and  O_15
REMARK    3  A    between atoms: C_13  and  O_17
REMARK    4  A    between atoms: C_14  and  C_19
REMARK    5  A    between atoms: C_19  and  S_20
REMARK    6  A    between atoms: S_20  and  C_22
REMARK    7  A    between atoms: N_28  and  C_30
REMARK    8  A    between atoms: C_31  and  O_35
REMARK                            x       y       z     vdW  Elec       q    Type
REMARK                         _______ _______ _______ _____ _____    ______ ____
ROOT
ATOM      1  N   UNL     1      -0.308  -1.189   0.123  0.00  0.00    -0.247 N 
ATOM      2  N   UNL     1      -1.236   0.823  -0.133  0.00  0.00    -0.242 NA
ATOM      3  N   UNL     1      -2.304  -2.574   0.098  0.00  0.00    -0.228 NA
ATOM      4  N   UNL     1      -4.317  -1.223  -0.181  0.00  0.00    -0.228 NA
ATOM      5  C   UNL     1      -1.655  -1.401   0.039  0.00  0.00    +0.152 C 
ATOM      6  C   UNL     1      -3.607  -0.057  -0.234  0.00  0.00    +0.146 C 
ATOM      7  C   UNL     1      -2.212  -0.142  -0.119  0.00  0.00    +0.140 C 
ATOM      8  C   UNL     1      -0.106   0.162   0.015  0.00  0.00    +0.223 C 
ATOM      9  C   UNL     1      -3.636  -2.383  -0.022  0.00  0.00    +0.253 C 
ATOM     10  N   UNL     1      -4.246   1.160  -0.397  0.00  0.00    -0.316 N 
ATOM     11  H   UNL     1      -3.694   1.974  -0.430  0.00  0.00    +0.148 HD
ENDROOT
BRANCH   1  13
ATOM     12  O   UNL     1       1.815  -1.659   1.071  0.00  0.00    -0.335 OA
ATOM     13  C   UNL     1       0.730  -2.202   0.295  0.00  0.00    +0.225 C 
ATOM     14  C   UNL     1       1.343  -2.689  -1.009  0.00  0.00    +0.187 C 
ATOM     15  C   UNL     1       2.703  -3.169  -0.542  0.00  0.00    +0.169 C 
ATOM     16  C   UNL     1       3.065  -2.135   0.520  0.00  0.00    +0.157 C 
BRANCH  14  17
ATOM     17  O   UNL     1       0.571  -3.712  -1.605  0.00  0.00    -0.378 OA
ATOM     18  H   UNL     1      -0.285  -3.350  -1.883  0.00  0.00    +0.211 HD
ENDBRANCH  14  17
BRANCH  15  19
ATOM     19  O   UNL     1       2.569  -4.444   0.085  0.00  0.00    -0.379 OA
ATOM     20  H   UNL     1       2.339  -5.110  -0.582  0.00  0.00    +0.211 HD
ENDBRANCH  15  19
BRANCH  16  21
ATOM     21  C   UNL     1       3.825  -0.944  -0.046  0.00  0.00    +0.094 C 
BRANCH  21  22
ATOM     22  S   UNL     1       4.228   0.232   1.271  0.00  0.00    -0.109 S 
BRANCH  22  24
ATOM     23  F   UNL     1       7.058   1.180   1.670  0.00  0.00    -0.204 F 
ATOM     24  C   UNL     1       5.097   1.506   0.361  0.00  0.00    +0.053 C 
ATOM     25  C   UNL     1       6.414   1.819   0.682  0.00  0.00    +0.146 C 
ATOM     26  C   UNL     1       4.441   2.178  -0.666  0.00  0.00    +0.008 C 
ATOM     27  C   UNL     1       7.083   2.813  -0.032  0.00  0.00    +0.030 C 
ATOM     28  C   UNL     1       5.111   3.172  -1.380  0.00  0.00    +0.001 C 
ATOM     29  C   UNL     1       6.431   3.490  -1.063  0.00  0.00    +0.002 C 
ENDBRANCH  22  24
ENDBRANCH  21  22
ENDBRANCH  16  21
ENDBRANCH   1  13
BRANCH  10  30
ATOM     30  C   UNL     1      -5.681   1.300  -0.520  0.00  0.00    +0.097 C 
ATOM     31  C   UNL     1      -6.322   1.304   0.875  0.00  0.00    +0.128 C 
ATOM     32  C   UNL     1      -6.027   2.657  -1.147  0.00  0.00    +0.022 C 
ATOM     33  C   UNL     1      -7.254   2.510   0.886  0.00  0.00    +0.031 C 
ATOM     34  C   UNL     1      -6.533   3.514   0.006  0.00  0.00    +0.004 C 
BRANCH  31  35
ATOM     35  O   UNL     1      -7.041   0.103   1.096  0.00  0.00    -0.383 OA
ATOM     36  H   UNL     1      -6.428  -0.648   1.084  0.00  0.00    +0.210 HD
ENDBRANCH  31  35
ENDBRANCH  10  30
TORSDOF 8
