REMARK  Name = 11560039
REMARK  8 active torsions:
REMARK  status: ('A' for Active; 'I' for Inactive)
REMARK    1  A    between atoms: O_1  and  C_3
REMARK    2  A    between atoms: O_1  and  C_17
REMARK    3  A    between atoms: C_4  and  O_8
REMARK    4  A    between atoms: C_5  and  O_10
REMARK    5  A    between atoms: C_6  and  O_12
REMARK    6  A    between atoms: C_7  and  C_14
REMARK    7  A    between atoms: C_14  and  O_15
REMARK    8  A    between atoms: C_17  and  C_23
REMARK                            x       y       z     vdW  Elec       q    Type
REMARK                         _______ _______ _______ _____ _____    ______ ____
ROOT
ATOM      1  O   UNL     1       0.340   0.875  -0.168  0.00  0.00    -0.324 OA
ENDROOT
BRANCH   1   3
ATOM      2  O   UNL     1       2.228  -0.352  -0.777  0.00  0.00    -0.326 OA
ATOM      3  C   UNL     1       1.749   0.932  -0.388  0.00  0.00    +0.266 C 
ATOM      4  C   UNL     1       2.410   1.379   0.916  0.00  0.00    +0.196 C 
ATOM      5  C   UNL     1       3.935   1.323   0.814  0.00  0.00    +0.172 C 
ATOM      6  C   UNL     1       4.402  -0.015   0.240  0.00  0.00    +0.169 C 
ATOM      7  C   UNL     1       3.633  -0.357  -1.038  0.00  0.00    +0.176 C 
BRANCH   4   8
ATOM      8  O   UNL     1       2.003   2.719   1.188  0.00  0.00    -0.378 OA
ATOM      9  H   UNL     1       1.036   2.756   1.254  0.00  0.00    +0.211 HD
ENDBRANCH   4   8
BRANCH   5  10
ATOM     10  O   UNL     1       4.505   1.469   2.115  0.00  0.00    -0.379 OA
ATOM     11  H   UNL     1       4.221   2.314   2.499  0.00  0.00    +0.211 HD
ENDBRANCH   5  10
BRANCH   6  12
ATOM     12  O   UNL     1       5.795   0.058  -0.053  0.00  0.00    -0.379 OA
ATOM     13  H   UNL     1       6.285   0.275   0.756  0.00  0.00    +0.211 HD
ENDBRANCH   6  12
BRANCH   7  14
ATOM     14  C   UNL     1       3.998  -1.742  -1.563  0.00  0.00    +0.169 C 
BRANCH  14  15
ATOM     15  O   UNL     1       3.244  -1.992  -2.735  0.00  0.00    -0.379 OA
ATOM     16  H   UNL     1       3.467  -2.871  -3.081  0.00  0.00    +0.211 HD
ENDBRANCH  14  15
ENDBRANCH   7  14
ENDBRANCH   1   3
BRANCH   1  17
ATOM     17  C   UNL     1      -0.359   0.470  -1.320  0.00  0.00    +0.170 C 
BRANCH  17  23
ATOM     18  O   UNL     1      -1.245  -0.642   1.152  0.00  0.00    -0.349 OA
ATOM     19  O   UNL     1      -4.883   1.967  -1.965  0.00  0.00    -0.291 OA
ATOM     20  C   UNL     1      -3.586   0.009   0.845  0.00  0.00    +0.037 C 
ATOM     21  C   UNL     1      -2.281  -0.515   0.139  0.00  0.00    +0.129 C 
ATOM     22  C   UNL     1      -4.650   0.344  -0.220  0.00  0.00    +0.072 C 
ATOM     23  C   UNL     1      -1.821   0.452  -0.954  0.00  0.00    +0.016 C 
ATOM     24  C   UNL     1      -2.412  -1.902  -0.428  0.00  0.00    +0.002 C 
ATOM     25  C   UNL     1      -4.186  -1.031   1.819  0.00  0.00    +0.003 C 
ATOM     26  C   UNL     1      -3.291   1.275   1.695  0.00  0.00    +0.003 C 
ATOM     27  C   UNL     1      -0.646  -1.954   1.055  0.00  0.00    +0.138 C 
ATOM     28  C   UNL     1      -4.125   1.259  -1.303  0.00  0.00    +0.173 C 
ATOM     29  C   UNL     1      -2.674   1.261  -1.604  0.00  0.00    +0.034 C 
ATOM     30  C   UNL     1      -1.494  -2.709   0.099  0.00  0.00    +0.001 C 
ATOM     31  C   UNL     1      -0.588  -2.579   2.438  0.00  0.00    +0.037 C 
ENDBRANCH  17  23
ENDBRANCH   1  17
TORSDOF 8
