REMARK  Name = 11560189
REMARK  11 active torsions:
REMARK  status: ('A' for Active; 'I' for Inactive)
REMARK    1  A    between atoms: C_1  and  O_10
REMARK    2  A    between atoms: C_4  and  C_26
REMARK    3  A    between atoms: C_5  and  O_8
REMARK    4  A    between atoms: O_10  and  C_16
REMARK    5  A    between atoms: C_12  and  O_17
REMARK    6  A    between atoms: C_13  and  O_19
REMARK    7  A    between atoms: C_14  and  O_21
REMARK    8  A    between atoms: C_15  and  C_23
REMARK    9  A    between atoms: C_23  and  O_24
REMARK   10  A    between atoms: C_26  and  C_27
REMARK   11  A    between atoms: C_27  and  C_28
REMARK                            x       y       z     vdW  Elec       q    Type
REMARK                         _______ _______ _______ _____ _____    ______ ____
ROOT
ATOM      1  C   UNL     1       1.366  -1.516   0.387  0.00  0.00    +0.140 C 
ATOM      2  C   UNL     1       2.506  -2.231   0.029  0.00  0.00    +0.046 C 
ATOM      3  C   UNL     1       1.466  -0.188   0.793  0.00  0.00    +0.033 C 
ATOM      4  C   UNL     1       2.716   0.430   0.841  0.00  0.00    -0.016 C 
ATOM      5  C   UNL     1       3.756  -1.613   0.078  0.00  0.00    +0.132 C 
ATOM      6  C   UNL     1       3.860  -0.282   0.484  0.00  0.00    +0.032 C 
ATOM      7  C   UNL     1       2.394  -3.656  -0.406  0.00  0.00    +0.037 C 
ENDROOT
BRANCH   5   8
ATOM      8  O   UNL     1       4.884  -2.292  -0.268  0.00  0.00    -0.506 OA
ATOM      9  H   UNL     1       4.827  -3.187  -0.542  0.00  0.00    +0.292 HD
ENDBRANCH   5   8
BRANCH   1  10
ATOM     10  O   UNL     1       0.133  -2.106   0.347  0.00  0.00    -0.451 OA
BRANCH  10  16
ATOM     11  O   UNL     1      -1.490  -0.722   1.294  0.00  0.00    -0.316 OA
ATOM     12  C   UNL     1      -3.330  -1.275  -0.840  0.00  0.00    +0.173 C 
ATOM     13  C   UNL     1      -3.761  -0.592   0.458  0.00  0.00    +0.169 C 
ATOM     14  C   UNL     1      -2.044  -2.078  -0.643  0.00  0.00    +0.210 C 
ATOM     15  C   UNL     1      -2.590   0.165   1.087  0.00  0.00    +0.177 C 
ATOM     16  C   UNL     1      -0.977  -1.250   0.073  0.00  0.00    +0.318 C 
BRANCH  12  17
ATOM     17  O   UNL     1      -4.380  -2.153  -1.248  0.00  0.00    -0.379 OA
ATOM     18  H   UNL     1      -5.197  -1.644  -1.373  0.00  0.00    +0.211 HD
ENDBRANCH  12  17
BRANCH  13  19
ATOM     19  O   UNL     1      -4.819   0.321   0.181  0.00  0.00    -0.379 OA
ATOM     20  H   UNL     1      -5.563  -0.157  -0.219  0.00  0.00    +0.211 HD
ENDBRANCH  13  19
BRANCH  14  21
ATOM     21  O   UNL     1      -1.528  -2.467  -1.916  0.00  0.00    -0.377 OA
ATOM     22  H   UNL     1      -2.193  -2.994  -2.386  0.00  0.00    +0.211 HD
ENDBRANCH  14  21
BRANCH  15  23
ATOM     23  C   UNL     1      -2.964   0.758   2.443  0.00  0.00    +0.169 C 
BRANCH  23  24
ATOM     24  O   UNL     1      -1.834   1.431   2.967  0.00  0.00    -0.379 OA
ATOM     25  H   UNL     1      -2.058   1.813   3.831  0.00  0.00    +0.211 HD
ENDBRANCH  23  24
ENDBRANCH  15  23
ENDBRANCH  10  16
ENDBRANCH   1  10
BRANCH   4  26
ATOM     26  C   UNL     1       2.828   1.853   1.274  0.00  0.00    +0.031 C 
BRANCH  26  27
ATOM     27  C   UNL     1       2.719   2.871   0.121  0.00  0.00    +0.031 C 
BRANCH  27  28
ATOM     28  C   UNL     1       1.394   2.816  -0.598  0.00  0.00    -0.022 C 
ATOM     29  C   UNL     1       1.246   1.972  -1.688  0.00  0.00    -0.004 C 
ATOM     30  C   UNL     1       0.347   3.610  -0.157  0.00  0.00    -0.004 C 
ATOM     31  C   UNL     1       0.021   1.921  -2.353  0.00  0.00    -0.000 C 
ATOM     32  C   UNL     1      -0.878   3.559  -0.822  0.00  0.00    -0.000 C 
ATOM     33  C   UNL     1      -1.041   2.715  -1.920  0.00  0.00    -0.000 C 
ENDBRANCH  27  28
ENDBRANCH  26  27
ENDBRANCH   4  26
TORSDOF 11
