REMARK  Name = 11574013
REMARK  7 active torsions:
REMARK  status: ('A' for Active; 'I' for Inactive)
REMARK    1  A    between atoms: C_5  and  O_23
REMARK    2  A    between atoms: C_6  and  O_25
REMARK    3  A    between atoms: C_7  and  N_12
REMARK    4  A    between atoms: C_9  and  C_28
REMARK    5  A    between atoms: C_16  and  C_20
REMARK    6  A    between atoms: C_20  and  O_21
REMARK    7  A    between atoms: C_28  and  O_29
REMARK                            x       y       z     vdW  Elec       q    Type
REMARK                         _______ _______ _______ _____ _____    ______ ____
ROOT
ATOM      1  O   UNL     1       0.191  -0.109   1.770  0.00  0.00    -0.333 OA
ATOM      2  O   UNL     1       2.877  -0.669  -0.526  0.00  0.00    -0.342 OA
ATOM      3  C   UNL     1       1.536   0.054   1.326  0.00  0.00    +0.173 C 
ATOM      4  C   UNL     1       1.547  -0.541  -0.065  0.00  0.00    +0.176 C 
ATOM      5  C   UNL     1       0.773  -1.818   0.177  0.00  0.00    +0.187 C 
ATOM      6  C   UNL     1       2.064   1.478   1.294  0.00  0.00    +0.143 C 
ATOM      7  C   UNL     1      -0.312  -1.318   1.145  0.00  0.00    +0.229 C 
ATOM      8  C   UNL     1       3.465   1.432   0.661  0.00  0.00    +0.073 C 
ATOM      9  C   UNL     1       3.482   0.627  -0.654  0.00  0.00    +0.216 C 
ENDROOT
BRANCH   7  12
ATOM     10  O   UNL     1      -1.930  -3.199  -0.202  0.00  0.00    -0.252 OA
ATOM     11  O   UNL     1      -4.997   0.009  -1.419  0.00  0.00    -0.269 OA
ATOM     12  N   UNL     1      -1.538  -0.996   0.469  0.00  0.00    -0.216 N 
ATOM     13  N   UNL     1      -3.452  -1.592  -0.804  0.00  0.00    -0.235 N 
ATOM     14  C   UNL     1      -1.994   0.318   0.452  0.00  0.00    +0.082 C 
ATOM     15  C   UNL     1      -2.274  -2.015  -0.176  0.00  0.00    +0.315 C 
ATOM     16  C   UNL     1      -3.122   0.708  -0.151  0.00  0.00    +0.144 C 
ATOM     17  C   UNL     1      -3.953  -0.299  -0.851  0.00  0.00    +0.260 C 
ATOM     18  H   UNL     1      -3.981  -2.285  -1.260  0.00  0.00    +0.159 HD
BRANCH  16  20
ATOM     19  O   UNL     1      -2.667   3.037  -0.012  0.00  0.00    -0.245 OA
ATOM     20  C   UNL     1      -3.474   2.128  -0.084  0.00  0.00    +0.344 C 
BRANCH  20  21
ATOM     21  O   UNL     1      -4.816   2.264  -0.114  0.00  0.00    -0.477 OA
ATOM     22  H   UNL     1      -5.363   1.505  -0.171  0.00  0.00    +0.295 HD
ENDBRANCH  20  21
ENDBRANCH  16  20
ENDBRANCH   7  12
BRANCH   5  23
ATOM     23  O   UNL     1       1.595  -2.779   0.833  0.00  0.00    -0.378 OA
ATOM     24  H   UNL     1       2.278  -3.092   0.220  0.00  0.00    +0.211 HD
ENDBRANCH   5  23
BRANCH   6  25
ATOM     25  O   UNL     1       1.206   2.297   0.505  0.00  0.00    -0.382 OA
ATOM     26  H   UNL     1       0.324   2.323   0.908  0.00  0.00    +0.210 HD
ENDBRANCH   6  25
BRANCH   9  28
ATOM     27  O   UNL     1       5.316  -0.807  -1.170  0.00  0.00    -0.248 OA
ATOM     28  C   UNL     1       4.883   0.332  -1.074  0.00  0.00    +0.341 C 
BRANCH  28  29
ATOM     29  O   UNL     1       5.593   1.457  -1.330  0.00  0.00    -0.479 OA
ATOM     30  H   UNL     1       5.190   2.297  -1.233  0.00  0.00    +0.295 HD
ENDBRANCH  28  29
ENDBRANCH   9  28
TORSDOF 7
