REMARK  Name = 11578610
REMARK  4 active torsions:
REMARK  status: ('A' for Active; 'I' for Inactive)
REMARK    1  A    between atoms: N_2  and  C_5
REMARK    2  A    between atoms: C_3  and  C_22
REMARK    3  A    between atoms: C_7  and  C_14
REMARK    4  A    between atoms: C_10  and  C_18
REMARK                            x       y       z     vdW  Elec       q    Type
REMARK                         _______ _______ _______ _____ _____    ______ ____
ROOT
ATOM      1  O   UNL     1       0.334  -0.207   1.283  0.00  0.00    -0.268 OA
ATOM      2  N   UNL     1      -0.821   1.127  -0.236  0.00  0.00    -0.279 N 
ATOM      3  C   UNL     1       0.339   0.640   0.392  0.00  0.00    +0.265 C 
ATOM      4  H   UNL     1      -0.678   1.806  -0.935  0.00  0.00    +0.155 HD
ENDROOT
BRANCH   3   8
ATOM      5 BR   UNL     1       3.999   4.082  -1.505  0.00  0.00    -0.026 Br
ATOM      6  N   UNL     1       2.783   0.629  -0.077  0.00  0.00    -0.167 N 
ATOM      7  N   UNL     1       3.769   1.416  -0.540  0.00  0.00    -0.166 NA
ATOM      8  C   UNL     1       1.598   1.253  -0.064  0.00  0.00    +0.131 C 
ATOM      9  C   UNL     1       1.762   2.507  -0.529  0.00  0.00    +0.049 C 
ATOM     10  C   UNL     1       3.140   2.562  -0.815  0.00  0.00    +0.135 C 
ATOM     11 CL   UNL     1       5.572   0.187   1.008  0.00  0.00    -0.079 Cl
ATOM     12  N   UNL     1       2.066  -1.571   0.170  0.00  0.00    -0.226 NA
ATOM     13  C   UNL     1       3.066  -0.678   0.320  0.00  0.00    +0.165 C 
ATOM     14  C   UNL     1       4.315  -0.980   0.830  0.00  0.00    +0.091 C 
ATOM     15  C   UNL     1       4.557  -2.294   1.214  0.00  0.00    +0.016 C 
ATOM     16  C   UNL     1       2.338  -2.839   0.553  0.00  0.00    +0.100 C 
ATOM     17  C   UNL     1       3.554  -3.248   1.076  0.00  0.00    +0.022 C 
ENDBRANCH   3   8
BRANCH   2  18
ATOM     18  C   UNL     1      -2.154   0.772   0.004  0.00  0.00    +0.051 C 
ATOM     19  C   UNL     1      -2.898   1.470   0.956  0.00  0.00    -0.008 C 
ATOM     20  C   UNL     1      -2.738  -0.278  -0.705  0.00  0.00    +0.067 C 
ATOM     21  C   UNL     1      -4.225   1.117   1.199  0.00  0.00    +0.007 C 
ATOM     22  C   UNL     1      -4.066  -0.630  -0.462  0.00  0.00    +0.016 C 
ATOM     23  C   UNL     1      -4.809   0.068   0.490  0.00  0.00    +0.068 C 
ATOM     24  C   UNL     1      -2.299   2.598   1.732  0.00  0.00    +0.032 C 
BRANCH  20  27
ATOM     25  O   UNL     1      -1.972  -0.650  -2.889  0.00  0.00    -0.270 OA
ATOM     26  N   UNL     1      -1.292  -2.154  -1.260  0.00  0.00    -0.299 N 
ATOM     27  C   UNL     1      -1.990  -1.028  -1.706  0.00  0.00    +0.247 C 
ATOM     28  C   UNL     1      -0.486  -2.986  -2.126  0.00  0.00    +0.111 C 
ATOM     29  H   UNL     1      -1.352  -2.394  -0.307  0.00  0.00    +0.150 HD
ENDBRANCH  20  27
BRANCH  23  31
ATOM     30  N   UNL     1      -7.274  -0.590   0.945  0.00  0.00    -0.191 NA
ATOM     31  C   UNL     1      -6.168  -0.295   0.741  0.00  0.00    +0.100 C 
ENDBRANCH  23  31
ENDBRANCH   2  18
TORSDOF 4
