REMARK  Name = 11574162
REMARK  10 active torsions:
REMARK  status: ('A' for Active; 'I' for Inactive)
REMARK    1  A    between atoms: O_1  and  C_3
REMARK    2  A    between atoms: O_1  and  C_22
REMARK    3  A    between atoms: C_5  and  C_11
REMARK    4  A    between atoms: C_12  and  C_14
REMARK    5  A    between atoms: C_14  and  O_15
REMARK    6  A    between atoms: C_18  and  O_23
REMARK    7  A    between atoms: C_19  and  O_25
REMARK    8  A    between atoms: C_20  and  O_27
REMARK    9  A    between atoms: C_21  and  C_29
REMARK   10  A    between atoms: C_29  and  O_30
REMARK                            x       y       z     vdW  Elec       q    Type
REMARK                         _______ _______ _______ _____ _____    ______ ____
ROOT
ATOM      1  O   UNL     1      -0.203  -0.194   1.694  0.00  0.00    -0.450 OA
ENDROOT
BRANCH   1   3
ATOM      2  O   UNL     1      -3.828   2.018  -0.243  0.00  0.00    -0.450 OA
ATOM      3  C   UNL     1      -1.371  -0.263   0.987  0.00  0.00    +0.144 C 
ATOM      4  C   UNL     1      -2.091   0.906   0.679  0.00  0.00    +0.072 C 
ATOM      5  C   UNL     1      -1.878  -1.496   0.552  0.00  0.00    +0.034 C 
ATOM      6  C   UNL     1      -3.274   0.789  -0.042  0.00  0.00    +0.148 C 
ATOM      7  C   UNL     1      -3.071  -1.571  -0.171  0.00  0.00    +0.006 C 
ATOM      8  C   UNL     1      -1.925   2.295   0.926  0.00  0.00    +0.047 C 
ATOM      9  C   UNL     1      -3.802  -0.422  -0.487  0.00  0.00    +0.038 C 
ATOM     10  C   UNL     1      -3.003   2.923   0.346  0.00  0.00    +0.180 C 
BRANCH   5  11
ATOM     11  C   UNL     1      -1.165  -2.733   0.847  0.00  0.00    +0.010 C 
ATOM     12  C   UNL     1      -0.204  -3.280   0.074  0.00  0.00    +0.082 C 
BRANCH  12  14
ATOM     13  O   UNL     1      -0.508  -1.920  -1.892  0.00  0.00    -0.245 OA
ATOM     14  C   UNL     1       0.198  -2.617  -1.183  0.00  0.00    +0.338 C 
BRANCH  14  15
ATOM     15  O   UNL     1       1.496  -2.907  -1.430  0.00  0.00    -0.477 OA
ATOM     16  H   UNL     1       1.976  -3.451  -0.838  0.00  0.00    +0.295 HD
ENDBRANCH  14  15
ENDBRANCH  12  14
ENDBRANCH   5  11
ENDBRANCH   1   3
BRANCH   1  22
ATOM     17  O   UNL     1       0.740   0.546  -0.308  0.00  0.00    -0.316 OA
ATOM     18  C   UNL     1       3.363   0.628   0.859  0.00  0.00    +0.173 C 
ATOM     19  C   UNL     1       3.133   0.725  -0.649  0.00  0.00    +0.169 C 
ATOM     20  C   UNL     1       2.180  -0.041   1.558  0.00  0.00    +0.210 C 
ATOM     21  C   UNL     1       1.755   1.318  -0.952  0.00  0.00    +0.177 C 
ATOM     22  C   UNL     1       0.852   0.572   1.113  0.00  0.00    +0.318 C 
BRANCH  18  23
ATOM     23  O   UNL     1       4.544  -0.145   1.077  0.00  0.00    -0.379 OA
ATOM     24  H   UNL     1       5.295   0.280   0.634  0.00  0.00    +0.211 HD
ENDBRANCH  18  23
BRANCH  19  25
ATOM     25  O   UNL     1       4.139   1.552  -1.228  0.00  0.00    -0.379 OA
ATOM     26  H   UNL     1       5.014   1.178  -1.038  0.00  0.00    +0.211 HD
ENDBRANCH  19  25
BRANCH  20  27
ATOM     27  O   UNL     1       2.303   0.133   2.969  0.00  0.00    -0.377 OA
ATOM     28  H   UNL     1       3.141  -0.251   3.270  0.00  0.00    +0.211 HD
ENDBRANCH  20  27
BRANCH  21  29
ATOM     29  C   UNL     1       1.455   1.316  -2.447  0.00  0.00    +0.169 C 
BRANCH  29  30
ATOM     30  O   UNL     1       0.166   1.867  -2.649  0.00  0.00    -0.379 OA
ATOM     31  H   UNL     1      -0.038   1.872  -3.597  0.00  0.00    +0.211 HD
ENDBRANCH  29  30
ENDBRANCH  21  29
ENDBRANCH   1  22
TORSDOF 10
