REMARK  Name = 11583423
REMARK  7 active torsions:
REMARK  status: ('A' for Active; 'I' for Inactive)
REMARK    1  A    between atoms: C_5  and  O_21
REMARK    2  A    between atoms: C_17  and  C_19
REMARK    3  A    between atoms: C_18  and  O_28
REMARK    4  A    between atoms: O_21  and  S_22
REMARK    5  A    between atoms: S_22  and  N_25
REMARK    6  A    between atoms: O_28  and  S_29
REMARK    7  A    between atoms: S_29  and  N_32
REMARK                            x       y       z     vdW  Elec       q    Type
REMARK                         _______ _______ _______ _____ _____    ______ ____
ROOT
ATOM      1  C   UNL     1       2.970   0.182   0.227  0.00  0.00    +0.027 C 
ATOM      2  C   UNL     1       2.294  -0.875  -0.669  0.00  0.00    +0.003 C 
ATOM      3  C   UNL     1       0.796  -0.995  -0.390  0.00  0.00    +0.004 C 
ATOM      4  C   UNL     1       0.120   0.376  -0.699  0.00  0.00    +0.022 C 
ATOM      5  C   UNL     1       4.427   0.009  -0.241  0.00  0.00    +0.144 C 
ATOM      6  C   UNL     1       2.347   1.547  -0.093  0.00  0.00    +0.003 C 
ATOM      7  C   UNL     1       3.185  -2.103  -0.504  0.00  0.00    +0.003 C 
ATOM      8  C   UNL     1       0.815   1.531   0.071  0.00  0.00    +0.004 C 
ATOM      9  C   UNL     1       4.602  -1.517  -0.359  0.00  0.00    +0.032 C 
ATOM     10  C   UNL     1       0.126  -2.080  -1.234  0.00  0.00    +0.005 C 
ATOM     11  C   UNL     1       2.857  -0.087   1.749  0.00  0.00    +0.002 C 
ATOM     12  C   UNL     1      -1.394   0.299  -0.521  0.00  0.00    -0.027 C 
ATOM     13  C   UNL     1      -1.330  -2.244  -0.807  0.00  0.00    +0.026 C 
ATOM     14  C   UNL     1      -2.065  -0.940  -0.617  0.00  0.00    -0.023 C 
ATOM     15  C   UNL     1      -2.166   1.461  -0.348  0.00  0.00    -0.006 C 
ATOM     16  C   UNL     1      -3.464  -0.991  -0.485  0.00  0.00    +0.035 C 
ATOM     17  C   UNL     1      -3.556   1.397  -0.228  0.00  0.00    +0.014 C 
ATOM     18  C   UNL     1      -4.205   0.171  -0.291  0.00  0.00    +0.168 C 
ENDROOT
BRANCH  17  19
ATOM     19  C   UNL     1      -4.330   2.660  -0.035  0.00  0.00    +0.030 C 
ATOM     20  C   UNL     1      -4.757   3.285  -1.360  0.00  0.00    +0.005 C 
ENDBRANCH  17  19
BRANCH   5  21
ATOM     21  O   UNL     1       5.367   0.577   0.652  0.00  0.00    -0.232 OA
BRANCH  21  22
ATOM     22  S   UNL     1       6.971   0.425   0.357  0.00  0.00    +0.045 S 
ATOM     23  O   UNL     1       7.323  -0.980   0.448  0.00  0.00    -0.056 OA
ATOM     24  O   UNL     1       7.265   1.171  -0.853  0.00  0.00    -0.056 OA
BRANCH  22  25
ATOM     25  N   UNL     1       7.714   1.246   1.666  0.00  0.00    -0.204 NA
ATOM     26  H   UNL     1       7.524   0.744   2.534  0.00  0.00    +0.144 HD
ATOM     27  H   UNL     1       7.338   2.192   1.732  0.00  0.00    +0.144 HD
ENDBRANCH  22  25
ENDBRANCH  21  22
ENDBRANCH   5  21
BRANCH  18  28
ATOM     28  O   UNL     1      -5.559   0.088  -0.173  0.00  0.00    -0.349 OA
BRANCH  28  29
ATOM     29  S   UNL     1      -6.313  -0.771   1.003  0.00  0.00    +0.086 S 
ATOM     30  O   UNL     1      -6.029  -0.143   2.281  0.00  0.00    -0.046 OA
ATOM     31  O   UNL     1      -6.035  -2.180   0.789  0.00  0.00    -0.046 OA
BRANCH  29  32
ATOM     32  N   UNL     1      -7.976  -0.519   0.666  0.00  0.00    -0.194 NA
ATOM     33  H   UNL     1      -8.207   0.464   0.807  0.00  0.00    +0.145 HD
ATOM     34  H   UNL     1      -8.541  -1.094   1.292  0.00  0.00    +0.145 HD
ENDBRANCH  29  32
ENDBRANCH  28  29
ENDBRANCH  18  28
TORSDOF 7
