115817
  -OEChem-03292013323D

 43 43  0     1  0  0  0  0  0999 V2000
   -5.4341    3.2909    0.1497 Cl  0  0  0  0  0  0  0  0  0  0  0  0
   -6.1770    0.5821   -0.6513 Cl  0  0  0  0  0  0  0  0  0  0  0  0
    5.4778    0.4362   -0.3883 S   0  0  0  0  0  0  0  0  0  0  0  0
   -0.5596    2.1688    1.6722 O   0  0  0  0  0  0  0  0  0  0  0  0
   -1.5391   -1.7703    0.2453 O   0  0  0  0  0  0  0  0  0  0  0  0
    5.8811    1.7035   -0.9811 O   0  0  0  0  0  0  0  0  0  0  0  0
    6.2206   -0.1008    0.7437 O   0  0  0  0  0  0  0  0  0  0  0  0
   -3.4692    1.7076   -1.6472 O   0  0  0  0  0  0  0  0  0  0  0  0
   -1.2159   -3.3691   -1.3848 O   0  0  0  0  0  0  0  0  0  0  0  0
   -2.6927    0.8940    0.3800 N   0  0  0  0  0  0  0  0  0  0  0  0
   -1.7796   -5.3715    0.3737 N   0  0  0  0  0  0  0  0  0  0  0  0
   -1.3317    0.6472   -0.0567 C   0  0  1  0  0  0  0  0  0  0  0  0
   -0.3616    0.8608    1.1252 C   0  0  1  0  0  0  0  0  0  0  0  0
    1.0984    0.7553    0.7469 C   0  0  0  0  0  0  0  0  0  0  0  0
   -1.2467   -0.7446   -0.6948 C   0  0  0  0  0  0  0  0  0  0  0  0
    1.9259   -0.1528    1.4075 C   0  0  0  0  0  0  0  0  0  0  0  0
    1.6176    1.5651   -0.2632 C   0  0  0  0  0  0  0  0  0  0  0  0
    3.7919    0.5586    0.0478 C   0  0  0  0  0  0  0  0  0  0  0  0
    3.2726   -0.2512    1.0579 C   0  0  0  0  0  0  0  0  0  0  0  0
    2.9644    1.4667   -0.6128 C   0  0  0  0  0  0  0  0  0  0  0  0
   -3.6554    1.4105   -0.4680 C   0  0  0  0  0  0  0  0  0  0  0  0
    5.5150   -0.8009   -1.6659 C   0  0  0  0  0  0  0  0  0  0  0  0
   -4.9937    1.5767    0.2129 C   0  0  0  0  0  0  0  0  0  0  0  0
   -1.4882   -3.0542   -0.2343 C   0  0  0  0  0  0  0  0  0  0  0  0
   -1.8204   -4.0087    0.8855 C   0  0  0  0  0  0  0  0  0  0  0  0
   -1.1203    1.3880   -0.8376 H   0  0  0  0  0  0  0  0  0  0  0  0
   -0.5939    0.1512    1.9292 H   0  0  0  0  0  0  0  0  0  0  0  0
   -0.2434   -0.9074   -1.1056 H   0  0  0  0  0  0  0  0  0  0  0  0
   -1.9638   -0.8129   -1.5228 H   0  0  0  0  0  0  0  0  0  0  0  0
   -2.9522    0.6049    1.3186 H   0  0  0  0  0  0  0  0  0  0  0  0
    1.5347   -0.7920    2.1945 H   0  0  0  0  0  0  0  0  0  0  0  0
    0.9934    2.2862   -0.7832 H   0  0  0  0  0  0  0  0  0  0  0  0
    3.8975   -0.9697    1.5806 H   0  0  0  0  0  0  0  0  0  0  0  0
    3.3462    2.1041   -1.4053 H   0  0  0  0  0  0  0  0  0  0  0  0
   -1.4986    2.2453    1.9127 H   0  0  0  0  0  0  0  0  0  0  0  0
    6.5509   -0.9232   -1.9890 H   0  0  0  0  0  0  0  0  0  0  0  0
    5.1375   -1.7417   -1.2607 H   0  0  0  0  0  0  0  0  0  0  0  0
    4.9013   -0.4645   -2.5036 H   0  0  0  0  0  0  0  0  0  0  0  0
   -4.9771    1.2632    1.2597 H   0  0  0  0  0  0  0  0  0  0  0  0
   -2.8199   -3.7841    1.2692 H   0  0  0  0  0  0  0  0  0  0  0  0
   -1.0784   -3.8940    1.6808 H   0  0  0  0  0  0  0  0  0  0  0  0
   -2.0045   -6.0205    1.1267 H   0  0  0  0  0  0  0  0  0  0  0  0
   -2.5065   -5.4948   -0.3304 H   0  0  0  0  0  0  0  0  0  0  0  0
  1 23  1  0  0  0  0
  2 23  1  0  0  0  0
  3  6  2  0  0  0  0
  3  7  2  0  0  0  0
  3 18  1  0  0  0  0
  3 22  1  0  0  0  0
  4 13  1  0  0  0  0
  4 35  1  0  0  0  0
  5 15  1  0  0  0  0
  5 24  1  0  0  0  0
  8 21  2  0  0  0  0
  9 24  2  0  0  0  0
 10 12  1  0  0  0  0
 10 21  1  0  0  0  0
 10 30  1  0  0  0  0
 11 25  1  0  0  0  0
 11 42  1  0  0  0  0
 11 43  1  0  0  0  0
 12 13  1  0  0  0  0
 12 15  1  0  0  0  0
 12 26  1  0  0  0  0
 13 14  1  0  0  0  0
 13 27  1  0  0  0  0
 14 16  2  0  0  0  0
 14 17  1  0  0  0  0
 15 28  1  0  0  0  0
 15 29  1  0  0  0  0
 16 19  1  0  0  0  0
 16 31  1  0  0  0  0
 17 20  2  0  0  0  0
 17 32  1  0  0  0  0
 18 19  2  0  0  0  0
 18 20  1  0  0  0  0
 19 33  1  0  0  0  0
 20 34  1  0  0  0  0
 21 23  1  0  0  0  0
 22 36  1  0  0  0  0
 22 37  1  0  0  0  0
 22 38  1  0  0  0  0
 23 39  1  0  0  0  0
 24 25  1  0  0  0  0
 25 40  1  0  0  0  0
 25 41  1  0  0  0  0
M  END
> <PUBCHEM_COMPOUND_CID>
115817

> <PUBCHEM_CONFORMER_RMSD>
1

> <PUBCHEM_CONFORMER_DIVERSEORDER>
1
26
35
15
2
39
25
22
33
40
27
21
10
7
9
23
18
5
12
31
43
14
17
29
20
8
34
13
36
41
11
4
24
28
38
3
42
19
30
32
37
6
16

> <PUBCHEM_MMFF94_PARTIAL_CHARGES>
33
1 -0.29
10 -0.73
11 -0.99
12 0.3
13 0.42
14 -0.14
15 0.28
16 -0.15
17 -0.15
18 -0.01
19 -0.15
2 -0.29
20 -0.15
21 0.57
22 0.11
23 0.64
24 0.66
25 0.33
3 1.2
30 0.37
31 0.15
32 0.15
33 0.15
34 0.15
35 0.4
4 -0.68
42 0.36
43 0.36
5 -0.43
6 -0.65
7 -0.65
8 -0.57
9 -0.57

> <PUBCHEM_EFFECTIVE_ROTOR_COUNT>
10

> <PUBCHEM_PHARMACOPHORE_FEATURES>
10
1 10 donor
1 11 cation
1 11 donor
1 4 acceptor
1 4 donor
1 6 acceptor
1 7 acceptor
1 8 acceptor
1 9 acceptor
6 14 16 17 18 19 20 rings

> <PUBCHEM_HEAVY_ATOM_COUNT>
25

> <PUBCHEM_ATOM_DEF_STEREO_COUNT>
2

> <PUBCHEM_ATOM_UDEF_STEREO_COUNT>
0

> <PUBCHEM_BOND_DEF_STEREO_COUNT>
0

> <PUBCHEM_BOND_UDEF_STEREO_COUNT>
0

> <PUBCHEM_ISOTOPIC_ATOM_COUNT>
0

> <PUBCHEM_COMPONENT_COUNT>
1

> <PUBCHEM_CACTVS_TAUTO_COUNT>
2

> <PUBCHEM_CONFORMER_ID>
0001C46900000001

> <PUBCHEM_MMFF94_ENERGY>
39.0358

> <PUBCHEM_FEATURE_SELFOVERLAP>
50.769

> <PUBCHEM_SHAPE_FINGERPRINT>
10366900 7 17060624382726393528
107951 10 18411421695748110383
10906281 52 17703244956838350904
11796584 16 18412547618184330122
11991303 11 18040994081610506879
12236239 1 18335701607187833656
12293681 160 17917427562771004977
12549972 3 17773866687268306490
12616971 3 17385712609418680944
12788726 201 17845936208705118104
13540713 4 17914890083402616520
14251757 5 18340207495895090090
14866123 147 18338232777787340851
15131766 46 14563964523510017782
15183329 4 18337112267900547556
15927050 60 18412543185235560943
19958102 18 18408598149998355318
200 152 11743833664349709161
20645476 183 18409725162359430927
20681677 155 18411415124848495720
21033650 10 17416151428428533864
21307412 95 18056784069428613478
22849339 104 18339094768864370054
23366157 5 17689156704293242377
23402539 116 18060133206799314721
23559900 14 18131066078679594608
23598288 3 18267585899658008518
26918003 58 12247671686628963837
340366 18 18260272974907583348
3759504 43 18409166606358136875
4015057 19 17059761321411269640
4058900 60 18193846938009525625
44062 13 18337958990843800702
59025328 239 16406157935939974903
59755656 215 17702943613469373877
59755656 520 18410569583311087655
81228 2 17761463161811093363

> <PUBCHEM_SHAPE_MULTIPOLES>
476.9
13.56
4.49
1.33
5.95
8.68
0.05
-9.38
3.84
-6.26
-0.28
0.65
-0.01
0.03

> <PUBCHEM_SHAPE_SELFOVERLAP>
939.971

> <PUBCHEM_SHAPE_VOLUME>
285.9

> <PUBCHEM_COORDINATE_TYPE>
2
5
10

$$$$
