REMARK  Name = 115817
REMARK  11 active torsions:
REMARK  status: ('A' for Active; 'I' for Inactive)
REMARK    1  A    between atoms: C_1  and  N_3
REMARK    2  A    between atoms: C_1  and  C_9
REMARK    3  A    between atoms: C_1  and  C_22
REMARK    4  A    between atoms: C_4  and  C_8
REMARK    5  A    between atoms: C_9  and  C_10
REMARK    6  A    between atoms: C_9  and  O_20
REMARK    7  A    between atoms: C_13  and  S_16
REMARK    8  A    between atoms: C_22  and  O_23
REMARK    9  A    between atoms: O_23  and  C_25
REMARK   10  A    between atoms: C_25  and  C_26
REMARK   11  A    between atoms: C_26  and  N_27
REMARK                            x       y       z     vdW  Elec       q    Type
REMARK                         _______ _______ _______ _____ _____    ______ ____
ROOT
ATOM      1  C   UNL     1      -1.332   0.647  -0.057  0.00  0.00    +0.147 C 
ENDROOT
BRANCH   1   3
ATOM      2  O   UNL     1      -3.469   1.708  -1.647  0.00  0.00    -0.272 OA
ATOM      3  N   UNL     1      -2.693   0.894   0.380  0.00  0.00    -0.298 N 
ATOM      4  C   UNL     1      -3.655   1.411  -0.468  0.00  0.00    +0.253 C 
ATOM      5  H   UNL     1      -2.939   0.687   1.310  0.00  0.00    +0.150 HD
BRANCH   4   8
ATOM      6 CL   UNL     1      -5.434   3.291   0.150  0.00  0.00    -0.087 Cl
ATOM      7 CL   UNL     1      -6.177   0.582  -0.651  0.00  0.00    -0.087 Cl
ATOM      8  C   UNL     1      -4.994   1.577   0.213  0.00  0.00    +0.234 C 
ENDBRANCH   4   8
ENDBRANCH   1   3
BRANCH   1   9
ATOM      9  C   UNL     1      -0.362   0.861   1.125  0.00  0.00    +0.154 C 
BRANCH   9  10
ATOM     10  C   UNL     1       1.098   0.755   0.747  0.00  0.00    +0.006 C 
ATOM     11  C   UNL     1       1.926  -0.153   1.407  0.00  0.00    -0.001 C 
ATOM     12  C   UNL     1       1.618   1.565  -0.263  0.00  0.00    -0.001 C 
ATOM     13  C   UNL     1       3.792   0.559   0.048  0.00  0.00    +0.106 C 
ATOM     14  C   UNL     1       3.273  -0.251   1.058  0.00  0.00    +0.018 C 
ATOM     15  C   UNL     1       2.964   1.467  -0.613  0.00  0.00    +0.018 C 
BRANCH  13  16
ATOM     16  S   UNL     1       5.478   0.436  -0.388  0.00  0.00    +0.010 S 
ATOM     17  O   UNL     1       5.881   1.704  -0.981  0.00  0.00    -0.169 OA
ATOM     18  O   UNL     1       6.221  -0.101   0.744  0.00  0.00    -0.169 OA
ATOM     19  C   UNL     1       5.515  -0.801  -1.666  0.00  0.00    +0.182 C 
ENDBRANCH  13  16
ENDBRANCH   9  10
BRANCH   9  20
ATOM     20  O   UNL     1      -0.560   2.169   1.672  0.00  0.00    -0.378 OA
ATOM     21  H   UNL     1      -1.489   2.275   1.928  0.00  0.00    +0.211 HD
ENDBRANCH   9  20
ENDBRANCH   1   9
BRANCH   1  22
ATOM     22  C   UNL     1      -1.247  -0.745  -0.695  0.00  0.00    +0.231 C 
BRANCH  22  23
ATOM     23  O   UNL     1      -1.539  -1.770   0.245  0.00  0.00    -0.448 OA
BRANCH  23  25
ATOM     24  O   UNL     1      -1.216  -3.369  -1.385  0.00  0.00    -0.253 OA
ATOM     25  C   UNL     1      -1.488  -3.054  -0.234  0.00  0.00    +0.295 C 
BRANCH  25  26
ATOM     26  C   UNL     1      -1.820  -4.009   0.885  0.00  0.00    +0.026 C 
BRANCH  26  27
ATOM     27  N   UNL     1      -1.780  -5.372   0.374  0.00  0.00    +0.388 N 
ATOM     28  H   UNL     1      -2.003  -6.024   1.125  0.00  0.00    -0.089 HD
ATOM     29  H   UNL     1      -0.846  -5.572   0.016  0.00  0.00    -0.089 HD
ATOM     30  H   UNL     1      -2.461  -5.473  -0.378  0.00  0.00    -0.089 HD
ENDBRANCH  26  27
ENDBRANCH  25  26
ENDBRANCH  23  25
ENDBRANCH  22  23
ENDBRANCH   1  22
TORSDOF 11
