REMARK  Name = 11588811
REMARK  15 active torsions:
REMARK  status: ('A' for Active; 'I' for Inactive)
REMARK    1  A    between atoms: N_2  and  C_8
REMARK    2  A    between atoms: C_3  and  C_19
REMARK    3  A    between atoms: C_5  and  C_11
REMARK    4  A    between atoms: C_11  and  C_12
REMARK    5  A    between atoms: C_12  and  C_13
REMARK    6  A    between atoms: C_13  and  C_14
REMARK    7  A    between atoms: C_14  and  C_15
REMARK    8  A    between atoms: C_15  and  C_16
REMARK    9  A    between atoms: C_16  and  C_17
REMARK   10  A    between atoms: C_19  and  N_20
REMARK   11  A    between atoms: C_19  and  C_24
REMARK   12  A    between atoms: C_24  and  O_25
REMARK   13  A    between atoms: O_25  and  P_26
REMARK   14  A    between atoms: P_26  and  O_28
REMARK   15  A    between atoms: P_26  and  O_30
REMARK                            x       y       z     vdW  Elec       q    Type
REMARK                         _______ _______ _______ _____ _____    ______ ____
ROOT
ATOM      1  O   UNL     1       4.211   0.200   1.249  0.00  0.00    -0.277 OA
ATOM      2  N   UNL     1       2.466  -0.081  -0.300  0.00  0.00    -0.286 N 
ATOM      3  C   UNL     1       3.511   0.616   0.330  0.00  0.00    +0.208 C 
ATOM      4  H   UNL     1       2.017   0.393  -1.038  0.00  0.00    +0.155 HD
ENDROOT
BRANCH   2   8
ATOM      5  C   UNL     1       0.449  -3.167  -0.471  0.00  0.00    -0.021 C 
ATOM      6  C   UNL     1       0.931  -1.891  -0.759  0.00  0.00    +0.010 C 
ATOM      7  C   UNL     1       1.019  -3.912   0.562  0.00  0.00    -0.004 C 
ATOM      8  C   UNL     1       1.983  -1.358  -0.013  0.00  0.00    +0.050 C 
ATOM      9  C   UNL     1       2.071  -3.379   1.307  0.00  0.00    +0.001 C 
ATOM     10  C   UNL     1       2.553  -2.102   1.020  0.00  0.00    +0.015 C 
BRANCH   5  11
ATOM     11  C   UNL     1      -0.688  -3.743  -1.277  0.00  0.00    +0.026 C 
BRANCH  11  12
ATOM     12  C   UNL     1      -2.046  -3.399  -0.659  0.00  0.00    +0.005 C 
BRANCH  12  13
ATOM     13  C   UNL     1      -2.345  -1.897  -0.647  0.00  0.00    +0.000 C 
BRANCH  13  14
ATOM     14  C   UNL     1      -3.714  -1.493  -0.092  0.00  0.00    +0.000 C 
BRANCH  14  15
ATOM     15  C   UNL     1      -3.924   0.021  -0.025  0.00  0.00    +0.000 C 
BRANCH  15  16
ATOM     16  C   UNL     1      -5.268   0.366   0.619  0.00  0.00    +0.000 C 
BRANCH  16  17
ATOM     17  C   UNL     1      -5.495   1.877   0.658  0.00  0.00    +0.000 C 
ATOM     18  C   UNL     1      -6.845   2.223   1.266  0.00  0.00    +0.000 C 
ENDBRANCH  16  17
ENDBRANCH  15  16
ENDBRANCH  14  15
ENDBRANCH  13  14
ENDBRANCH  12  13
ENDBRANCH  11  12
ENDBRANCH   5  11
ENDBRANCH   2   8
BRANCH   3  19
ATOM     19  C   UNL     1       3.728   1.999  -0.288  0.00  0.00    +0.044 C 
BRANCH  19  20
ATOM     20  N   UNL     1       4.875   2.604   0.387  0.00  0.00    +0.389 N 
ATOM     21  H   UNL     1       5.698   2.018   0.250  0.00  0.00    -0.088 HD
ATOM     22  H   UNL     1       4.678   2.687   1.384  0.00  0.00    -0.088 HD
ATOM     23  H   UNL     1       5.049   3.531  -0.003  0.00  0.00    -0.088 HD
ENDBRANCH  19  20
BRANCH  19  24
ATOM     24  C   UNL     1       2.484   2.865  -0.093  0.00  0.00    +0.141 C 
BRANCH  24  25
ATOM     25  O   UNL     1       1.486   2.518  -1.048  0.00  0.00    -0.275 OA
BRANCH  25  26
ATOM     26  P   UNL     1      -0.065   2.706  -0.635  0.00  0.00    +0.473 P 
ATOM     27  O   UNL     1      -1.056   2.319  -1.694  0.00  0.00    -0.228 OA
BRANCH  26  28
ATOM     28  O   UNL     1      -0.171   1.863   0.741  0.00  0.00    -0.303 OA
ATOM     29  H   UNL     1       0.502   2.177   1.365  0.00  0.00    +0.222 HD
ENDBRANCH  26  28
BRANCH  26  30
ATOM     30  O   UNL     1      -0.149   4.242  -0.138  0.00  0.00    -0.303 OA
ATOM     31  H   UNL     1       0.525   4.399   0.542  0.00  0.00    +0.222 HD
ENDBRANCH  26  30
ENDBRANCH  25  26
ENDBRANCH  24  25
ENDBRANCH  19  24
ENDBRANCH   3  19
TORSDOF 15
