REMARK  Name = 11582982
REMARK  7 active torsions:
REMARK  status: ('A' for Active; 'I' for Inactive)
REMARK    1  A    between atoms: C_1  and  C_3
REMARK    2  A    between atoms: C_1  and  N_9
REMARK    3  A    between atoms: C_1  and  C_20
REMARK    4  A    between atoms: C_10  and  C_12
REMARK    5  A    between atoms: C_20  and  C_23
REMARK    6  A    between atoms: N_22  and  N_27
REMARK    7  A    between atoms: N_27  and  C_30
REMARK                            x       y       z     vdW  Elec       q    Type
REMARK                         _______ _______ _______ _____ _____    ______ ____
ROOT
ATOM      1  C   UNL     1      -1.930  -1.249   0.817  0.00  0.00    +0.139 C 
ENDROOT
BRANCH   1   3
ATOM      2  O   UNL     1      -5.830  -0.938  -0.885  0.00  0.00    -0.354 OA
ATOM      3  C   UNL     1      -3.375  -1.602   0.475  0.00  0.00    +0.031 C 
ATOM      4  C   UNL     1      -4.343  -0.531   0.992  0.00  0.00    +0.034 C 
ATOM      5  C   UNL     1      -3.558  -1.782  -1.036  0.00  0.00    +0.034 C 
ATOM      6  C   UNL     1      -5.766  -0.827   0.536  0.00  0.00    +0.142 C 
ATOM      7  C   UNL     1      -5.025  -2.008  -1.378  0.00  0.00    +0.142 C 
ENDBRANCH   1   3
BRANCH   1   9
ATOM      8  O   UNL     1      -1.066   1.103   2.283  0.00  0.00    -0.275 OA
ATOM      9  N   UNL     1      -1.579   0.043   0.275  0.00  0.00    -0.299 N 
ATOM     10  C   UNL     1      -1.176   1.110   1.060  0.00  0.00    +0.222 C 
ATOM     11  H   UNL     1      -1.629   0.172  -0.700  0.00  0.00    +0.150 HD
BRANCH  10  12
ATOM     12  C   UNL     1      -0.847   2.325   0.242  0.00  0.00    +0.076 C 
ATOM     13  C   UNL     1       0.627   2.260  -0.161  0.00  0.00    +0.009 C 
ATOM     14  C   UNL     1      -1.166   3.559   1.093  0.00  0.00    +0.009 C 
ATOM     15  C   UNL     1       0.972   3.006  -1.448  0.00  0.00    +0.000 C 
ATOM     16  C   UNL     1      -1.185   4.879   0.328  0.00  0.00    +0.000 C 
ATOM     17  C   UNL     1       0.280   4.346  -1.682  0.00  0.00    +0.000 C 
ATOM     18  C   UNL     1       0.095   5.210  -0.438  0.00  0.00    +0.000 C 
ENDBRANCH  10  12
ENDBRANCH   1   9
BRANCH   1  20
ATOM     19  O   UNL     1      -1.051  -3.509   0.678  0.00  0.00    -0.285 OA
ATOM     20  C   UNL     1      -0.992  -2.337   0.327  0.00  0.00    +0.245 C 
BRANCH  20  23
ATOM     21  O   UNL     1      -0.201  -2.061  -1.857  0.00  0.00    -0.266 OA
ATOM     22  N   UNL     1       1.262  -1.652  -0.070  0.00  0.00    -0.224 N 
ATOM     23  C   UNL     1       0.074  -1.988  -0.670  0.00  0.00    +0.297 C 
ATOM     24  H   UNL     1       1.342  -1.633   0.911  0.00  0.00    +0.171 HD
BRANCH  22  25
ATOM     25  N   UNL     1       2.321  -1.347  -0.854  0.00  0.00    -0.104 NA
BRANCH  25  30
ATOM     26  S   UNL     1       3.313  -1.063   1.576  0.00  0.00    -0.104 S 
ATOM     27  N   UNL     1       4.642  -0.681  -0.625  0.00  0.00    -0.249 NA
ATOM     28  C   UNL     1       5.672  -0.553   0.409  0.00  0.00    +0.070 C 
ATOM     29  C   UNL     1       4.933  -0.238   1.715  0.00  0.00    +0.076 C 
ATOM     30  C   UNL     1       3.384  -1.043  -0.191  0.00  0.00    +0.202 C 
ATOM     31  C   UNL     1       6.490  -1.841   0.506  0.00  0.00    +0.018 C 
ATOM     32  C   UNL     1       5.024  -0.591  -2.020  0.00  0.00    +0.091 C 
ENDBRANCH  25  30
ENDBRANCH  22  25
ENDBRANCH  20  23
ENDBRANCH   1  20
TORSDOF 7
