REMARK  Name = 11589139
REMARK  6 active torsions:
REMARK  status: ('A' for Active; 'I' for Inactive)
REMARK    1  A    between atoms: C_6  and  C_30
REMARK    2  A    between atoms: C_7  and  C_16
REMARK    3  A    between atoms: C_12  and  O_27
REMARK    4  A    between atoms: C_23  and  O_25
REMARK    5  A    between atoms: C_30  and  C_32
REMARK    6  A    between atoms: C_32  and  O_33
REMARK                            x       y       z     vdW  Elec       q    Type
REMARK                         _______ _______ _______ _____ _____    ______ ____
ROOT
ATOM      1  N   UNL     1      -3.243  -2.289  -0.669  0.00  0.00    -0.355 N 
ATOM      2  N   UNL     1       0.373  -2.552   0.012  0.00  0.00    -0.268 NA
ATOM      3  C   UNL     1      -1.774  -0.767   0.038  0.00  0.00    +0.006 A 
ATOM      4  C   UNL     1      -3.060  -0.150  -0.065  0.00  0.00    +0.017 A 
ATOM      5  C   UNL     1      -1.921  -2.100  -0.345  0.00  0.00    +0.055 A 
ATOM      6  C   UNL     1      -0.499  -0.319   0.420  0.00  0.00    +0.132 C 
ATOM      7  C   UNL     1       0.521  -1.260   0.383  0.00  0.00    +0.067 C 
ATOM      8  C   UNL     1      -3.955  -1.124  -0.509  0.00  0.00    +0.056 A 
ATOM      9  C   UNL     1      -0.853  -2.988  -0.358  0.00  0.00    +0.168 C 
ATOM     10  C   UNL     1      -3.547   1.152   0.178  0.00  0.00    +0.038 C 
ATOM     11  C   UNL     1      -5.314  -0.864  -0.721  0.00  0.00    +0.020 C 
ATOM     12  C   UNL     1      -4.903   1.427  -0.029  0.00  0.00    +0.134 C 
ATOM     13  C   UNL     1      -5.772   0.433  -0.473  0.00  0.00    +0.038 C 
ATOM     14  H   UNL     1      -3.627  -3.143  -0.974  0.00  0.00    +0.166 HD
ENDROOT
BRANCH   7  16
ATOM     15  N   UNL     1       3.629  -0.611   2.063  0.00  0.00    -0.311 N 
ATOM     16  C   UNL     1       1.866  -0.909   0.754  0.00  0.00    +0.030 C 
ATOM     17  C   UNL     1       2.930  -0.414  -0.047  0.00  0.00    +0.016 C 
ATOM     18  C   UNL     1       4.026  -0.235   0.800  0.00  0.00    +0.051 C 
ATOM     19  C   UNL     1       2.322  -1.020   2.045  0.00  0.00    +0.063 C 
ATOM     20  C   UNL     1       3.070  -0.100  -1.413  0.00  0.00    +0.004 C 
ATOM     21  C   UNL     1       5.260   0.245   0.346  0.00  0.00    +0.051 C 
ATOM     22  C   UNL     1       4.298   0.382  -1.881  0.00  0.00    +0.037 C 
ATOM     23  C   UNL     1       5.375   0.551  -1.013  0.00  0.00    +0.135 C 
ATOM     24  H   UNL     1       4.201  -0.589   2.864  0.00  0.00    +0.152 HD
BRANCH  23  25
ATOM     25  O   UNL     1       6.560   1.021  -1.496  0.00  0.00    -0.505 OA
ATOM     26  H   UNL     1       7.288   1.137  -0.918  0.00  0.00    +0.292 HD
ENDBRANCH  23  25
ENDBRANCH   7  16
BRANCH  12  27
ATOM     27  O   UNL     1      -5.377   2.683   0.204  0.00  0.00    -0.506 OA
ATOM     28  H   UNL     1      -4.796   3.356   0.502  0.00  0.00    +0.292 HD
ENDBRANCH  12  27
BRANCH   6  30
ATOM     29  O   UNL     1      -0.345   1.455   1.999  0.00  0.00    -0.284 OA
ATOM     30  C   UNL     1      -0.271   1.058   0.831  0.00  0.00    +0.257 C 
BRANCH  30  32
ATOM     31  O   UNL     1       0.227   1.888  -1.354  0.00  0.00    -0.242 OA
ATOM     32  C   UNL     1       0.104   2.122  -0.170  0.00  0.00    +0.374 C 
BRANCH  32  33
ATOM     33  O   UNL     1       0.274   3.287   0.470  0.00  0.00    -0.475 OA
ATOM     34  H   UNL     1       0.148   3.334   1.397  0.00  0.00    +0.295 HD
ENDBRANCH  32  33
ENDBRANCH  30  32
ENDBRANCH   6  30
TORSDOF 6
