REMARK  Name = 11587035
REMARK  6 active torsions:
REMARK  status: ('A' for Active; 'I' for Inactive)
REMARK    1  A    between atoms: C_4  and  C_24
REMARK    2  A    between atoms: C_6  and  O_16
REMARK    3  A    between atoms: C_7  and  O_18
REMARK    4  A    between atoms: C_8  and  O_20
REMARK    5  A    between atoms: C_9  and  O_22
REMARK    6  A    between atoms: C_11  and  N_13
REMARK                            x       y       z     vdW  Elec       q    Type
REMARK                         _______ _______ _______ _____ _____    ______ ____
ROOT
ATOM      1  O   UNL     1      -1.800   2.579   0.235  0.00  0.00    -0.283 OA
ATOM      2  O   UNL     1      -3.919   1.020  -0.072  0.00  0.00    -0.282 OA
ATOM      3  C   UNL     1      -0.160  -0.622  -0.046  0.00  0.00    +0.075 A 
ATOM      4  C   UNL     1       2.259  -0.321  -0.232  0.00  0.00    +0.048 A 
ATOM      5  C   UNL     1      -0.280   0.775   0.014  0.00  0.00    +0.085 A 
ATOM      6  C   UNL     1       1.134  -1.152  -0.187  0.00  0.00    +0.136 A 
ATOM      7  C   UNL     1       2.113   1.060  -0.147  0.00  0.00    +0.166 A 
ATOM      8  C   UNL     1       0.843   1.613  -0.027  0.00  0.00    +0.171 A 
ATOM      9  C   UNL     1      -1.369  -1.473   0.020  0.00  0.00    +0.153 C 
ATOM     10  C   UNL     1      -1.617   1.379   0.100  0.00  0.00    +0.239 C 
ATOM     11  C   UNL     1      -2.621  -0.982   0.026  0.00  0.00    +0.118 C 
ATOM     12  C   UNL     1      -2.819   0.490   0.005  0.00  0.00    +0.250 C 
ENDROOT
BRANCH  11  13
ATOM     13  N   UNL     1      -3.762  -1.731   0.066  0.00  0.00    -0.352 N 
ATOM     14  H   UNL     1      -3.705  -2.713   0.082  0.00  0.00    +0.143 HD
ATOM     15  H   UNL     1      -4.641  -1.288   0.079  0.00  0.00    +0.143 HD
ENDBRANCH  11  13
BRANCH   6  16
ATOM     16  O   UNL     1       1.354  -2.499  -0.287  0.00  0.00    -0.506 OA
ATOM     17  H   UNL     1       0.631  -3.095  -0.261  0.00  0.00    +0.292 HD
ENDBRANCH   6  16
BRANCH   7  18
ATOM     18  O   UNL     1       3.209   1.870  -0.191  0.00  0.00    -0.503 OA
ATOM     19  H   UNL     1       4.065   1.497  -0.271  0.00  0.00    +0.292 HD
ENDBRANCH   7  18
BRANCH   8  20
ATOM     20  O   UNL     1       0.737   2.972   0.035  0.00  0.00    -0.503 OA
ATOM     21  H   UNL     1      -0.106   3.373   0.116  0.00  0.00    +0.292 HD
ENDBRANCH   8  20
BRANCH   9  22
ATOM     22  O   UNL     1      -1.193  -2.848   0.088  0.00  0.00    -0.504 OA
ATOM     23  H   UNL     1      -0.329  -3.210   0.085  0.00  0.00    +0.292 HD
ENDBRANCH   9  22
BRANCH   4  24
ATOM     24  C   UNL     1       3.626  -0.914  -0.375  0.00  0.00    +0.033 C 
ATOM     25  C   UNL     1       4.264  -1.218   0.976  0.00  0.00    +0.005 C 
ENDBRANCH   4  24
TORSDOF 6
