11589139
  -OEChem-03292013303D

 42 46  0     0  0  0  0  0  0999 V2000
   -5.3772    2.6835    0.2041 O   0  0  0  0  0  0  0  0  0  0  0  0
   -0.3455    1.4546    1.9994 O   0  0  0  0  0  0  0  0  0  0  0  0
    6.5602    1.0208   -1.4958 O   0  0  0  0  0  0  0  0  0  0  0  0
    0.2741    3.2866    0.4702 O   0  0  0  0  0  0  0  0  0  0  0  0
    0.2267    1.8880   -1.3543 O   0  0  0  0  0  0  0  0  0  0  0  0
   -3.2426   -2.2895   -0.6690 N   0  0  0  0  0  0  0  0  0  0  0  0
    0.3731   -2.5521    0.0117 N   0  0  0  0  0  0  0  0  0  0  0  0
    3.6287   -0.6110    2.0629 N   0  0  0  0  0  0  0  0  0  0  0  0
   -1.7735   -0.7671    0.0378 C   0  0  0  0  0  0  0  0  0  0  0  0
   -3.0603   -0.1498   -0.0654 C   0  0  0  0  0  0  0  0  0  0  0  0
   -1.9212   -2.0998   -0.3449 C   0  0  0  0  0  0  0  0  0  0  0  0
   -0.4993   -0.3191    0.4200 C   0  0  0  0  0  0  0  0  0  0  0  0
    0.5208   -1.2602    0.3827 C   0  0  0  0  0  0  0  0  0  0  0  0
   -3.9553   -1.1244   -0.5086 C   0  0  0  0  0  0  0  0  0  0  0  0
    1.8658   -0.9087    0.7537 C   0  0  0  0  0  0  0  0  0  0  0  0
    2.9301   -0.4144   -0.0467 C   0  0  0  0  0  0  0  0  0  0  0  0
    4.0263   -0.2349    0.7997 C   0  0  0  0  0  0  0  0  0  0  0  0
   -0.8533   -2.9877   -0.3576 C   0  0  0  0  0  0  0  0  0  0  0  0
   -3.5468    1.1518    0.1784 C   0  0  0  0  0  0  0  0  0  0  0  0
    2.3224   -1.0204    2.0445 C   0  0  0  0  0  0  0  0  0  0  0  0
   -5.3140   -0.8637   -0.7211 C   0  0  0  0  0  0  0  0  0  0  0  0
   -0.2712    1.0578    0.8313 C   0  0  0  0  0  0  0  0  0  0  0  0
    3.0696   -0.1004   -1.4131 C   0  0  0  0  0  0  0  0  0  0  0  0
   -4.9029    1.4274   -0.0294 C   0  0  0  0  0  0  0  0  0  0  0  0
   -5.7716    0.4331   -0.4726 C   0  0  0  0  0  0  0  0  0  0  0  0
    5.2600    0.2454    0.3460 C   0  0  0  0  0  0  0  0  0  0  0  0
    4.2977    0.3815   -1.8810 C   0  0  0  0  0  0  0  0  0  0  0  0
    5.3748    0.5509   -1.0132 C   0  0  0  0  0  0  0  0  0  0  0  0
    0.1045    2.1219   -0.1698 C   0  0  0  0  0  0  0  0  0  0  0  0
   -3.6376   -3.1654   -0.9824 H   0  0  0  0  0  0  0  0  0  0  0  0
   -0.9434   -4.0256   -0.6501 H   0  0  0  0  0  0  0  0  0  0  0  0
   -2.8812    1.9362    0.5254 H   0  0  0  0  0  0  0  0  0  0  0  0
    1.8422   -1.3520    2.9553 H   0  0  0  0  0  0  0  0  0  0  0  0
   -5.9913   -1.6377   -1.0662 H   0  0  0  0  0  0  0  0  0  0  0  0
    4.2168   -0.5877    2.8845 H   0  0  0  0  0  0  0  0  0  0  0  0
    2.2404   -0.2284   -2.1030 H   0  0  0  0  0  0  0  0  0  0  0  0
   -6.8231    0.6615   -0.6300 H   0  0  0  0  0  0  0  0  0  0  0  0
    6.0928    0.3734    1.0302 H   0  0  0  0  0  0  0  0  0  0  0  0
    4.4046    0.6236   -2.9356 H   0  0  0  0  0  0  0  0  0  0  0  0
   -4.6439    3.2474    0.5047 H   0  0  0  0  0  0  0  0  0  0  0  0
    7.1983    1.0780   -0.7639 H   0  0  0  0  0  0  0  0  0  0  0  0
    0.5255    4.0124   -0.1399 H   0  0  0  0  0  0  0  0  0  0  0  0
  1 24  1  0  0  0  0
  1 40  1  0  0  0  0
  2 22  2  0  0  0  0
  3 28  1  0  0  0  0
  3 41  1  0  0  0  0
  4 29  1  0  0  0  0
  4 42  1  0  0  0  0
  5 29  2  0  0  0  0
  6 11  1  0  0  0  0
  6 14  1  0  0  0  0
  6 30  1  0  0  0  0
  7 13  2  0  0  0  0
  7 18  1  0  0  0  0
  8 17  1  0  0  0  0
  8 20  1  0  0  0  0
  8 35  1  0  0  0  0
  9 10  1  0  0  0  0
  9 11  1  0  0  0  0
  9 12  2  0  0  0  0
 10 14  2  0  0  0  0
 10 19  1  0  0  0  0
 11 18  2  0  0  0  0
 12 13  1  0  0  0  0
 12 22  1  0  0  0  0
 13 15  1  0  0  0  0
 14 21  1  0  0  0  0
 15 16  1  0  0  0  0
 15 20  2  0  0  0  0
 16 17  2  0  0  0  0
 16 23  1  0  0  0  0
 17 26  1  0  0  0  0
 18 31  1  0  0  0  0
 19 24  2  0  0  0  0
 19 32  1  0  0  0  0
 20 33  1  0  0  0  0
 21 25  2  0  0  0  0
 21 34  1  0  0  0  0
 22 29  1  0  0  0  0
 23 27  2  0  0  0  0
 23 36  1  0  0  0  0
 24 25  1  0  0  0  0
 25 37  1  0  0  0  0
 26 28  2  0  0  0  0
 26 38  1  0  0  0  0
 27 28  1  0  0  0  0
 27 39  1  0  0  0  0
M  END
> <PUBCHEM_COMPOUND_CID>
11589139

> <PUBCHEM_CONFORMER_RMSD>
0.8

> <PUBCHEM_CONFORMER_DIVERSEORDER>
1
8
7
2
3
4
5
6

> <PUBCHEM_MMFF94_PARTIAL_CHARGES>
39
1 -0.53
11 -0.15
12 0.09
13 0.36
14 -0.15
15 -0.05
17 -0.15
18 0.16
19 -0.15
2 -0.57
20 -0.3
21 -0.15
22 0.48
23 -0.15
24 0.08
25 -0.15
26 -0.15
27 -0.15
28 0.08
29 0.72
3 -0.53
30 0.27
31 0.15
32 0.15
33 0.15
34 0.15
35 0.27
36 0.15
37 0.15
38 0.15
39 0.15
4 -0.65
40 0.45
41 0.45
42 0.5
5 -0.57
6 0.03
7 -0.62
8 0.03

> <PUBCHEM_EFFECTIVE_ROTOR_COUNT>
3

> <PUBCHEM_PHARMACOPHORE_FEATURES>
16
1 1 donor
1 2 acceptor
1 3 donor
1 4 acceptor
1 5 acceptor
1 6 cation
1 6 donor
1 7 acceptor
1 8 cation
1 8 donor
3 4 5 29 anion
5 6 9 10 11 14 rings
5 8 15 16 17 20 rings
6 10 14 19 21 24 25 rings
6 16 17 23 26 27 28 rings
6 7 9 11 12 13 18 rings

> <PUBCHEM_HEAVY_ATOM_COUNT>
29

> <PUBCHEM_ATOM_DEF_STEREO_COUNT>
0

> <PUBCHEM_ATOM_UDEF_STEREO_COUNT>
0

> <PUBCHEM_BOND_DEF_STEREO_COUNT>
0

> <PUBCHEM_BOND_UDEF_STEREO_COUNT>
0

> <PUBCHEM_ISOTOPIC_ATOM_COUNT>
0

> <PUBCHEM_COMPONENT_COUNT>
1

> <PUBCHEM_CACTVS_TAUTO_COUNT>
600

> <PUBCHEM_CONFORMER_ID>
00B0D61300000001

> <PUBCHEM_MMFF94_ENERGY>
74.3921

> <PUBCHEM_FEATURE_SELFOVERLAP>
81.549

> <PUBCHEM_SHAPE_FINGERPRINT>
10 15 12757433899597404230
10090160 65 17385718076236939106
10366900 7 16988572286140966366
10498660 4 18343023276754937170
10554248 39 18045761430836883655
10670039 82 18411703145091582532
10906281 52 18263090937821533561
11578080 2 13181649605712936321
11607047 403 12346685603707599712
12011746 2 17346884455193947446
12236239 1 18040995155030219882
12390115 104 18059862714928848659
12403814 3 17531238440357630943
12422481 6 17533209770022085901
12788726 201 18338802212835216168
13140716 1 18122615326634479147
13583140 156 17095530633907208315
13690498 29 18126286578457942591
13782708 43 16916519073127949822
13947920 75 18411427211223979316
14341114 328 17749104482851881827
14573314 32 17131834252761034513
14790565 3 18409449167840578925
14840074 17 18113344089162796604
14955137 171 18196399041693720515
15297060 5 18201167563414675938
15324884 4 17344346907328531314
15475509 8 18058746731331534237
15575132 122 18186802431007808013
15664445 248 18342178882179973348
15840311 113 17604432882226897221
1601671 61 18411696556812067339
17492 54 18187645825118927357
18608769 82 18341054125082935339
19319366 153 17748816410900584434
20511986 3 18113889481643242164
20642791 35 18337669827786225712
20715895 44 17391892778941221485
21033648 29 17132103654753871291
21304303 64 17095811013540970340
22122407 14 16877949317369266621
23559900 14 17846216700239643656
23569914 152 15620329893014396005
34797466 226 17561081461798841192
350125 39 18410853287919110925
4173938 77 17169295773999143988
484989 97 18193833980726787431
6823239 73 18131064995846266952

> <PUBCHEM_SHAPE_MULTIPOLES>
552.52
12.48
2.68
1.48
1.14
0.28
0.26
3.79
-4.01
-2.35
-0.03
2.07
0.12
-1.42

> <PUBCHEM_SHAPE_SELFOVERLAP>
1275.252

> <PUBCHEM_SHAPE_VOLUME>
284.6

> <PUBCHEM_COORDINATE_TYPE>
2
5
10

$$$$
