REMARK  Name = 11589584
REMARK  9 active torsions:
REMARK  status: ('A' for Active; 'I' for Inactive)
REMARK    1  A    between atoms: C_1  and  C_4
REMARK    2  A    between atoms: C_1  and  N_8
REMARK    3  A    between atoms: C_1  and  C_17
REMARK    4  A    between atoms: C_9  and  C_11
REMARK    5  A    between atoms: C_17  and  C_18
REMARK    6  A    between atoms: C_18  and  C_19
REMARK    7  A    between atoms: C_19  and  N_20
REMARK    8  A    between atoms: N_20  and  C_22
REMARK    9  A    between atoms: C_22  and  C_26
REMARK                            x       y       z     vdW  Elec       q    Type
REMARK                         _______ _______ _______ _____ _____    ______ ____
ROOT
ATOM      1  C   UNL     1       0.104   1.489  -0.164  0.00  0.00    +0.149 C 
ENDROOT
BRANCH   1   4
ATOM      2  O   UNL     1       0.897   2.704   1.785  0.00  0.00    -0.274 OA
ATOM      3  N   UNL     1       0.028   3.898   0.025  0.00  0.00    -0.327 N 
ATOM      4  C   UNL     1       0.377   2.731   0.671  0.00  0.00    +0.237 C 
ATOM      5  H   UNL     1       0.160   4.766   0.471  0.00  0.00    +0.145 HD
ATOM      6  H   UNL     1      -0.355   3.864  -0.881  0.00  0.00    +0.145 HD
ENDBRANCH   1   4
BRANCH   1   8
ATOM      7  O   UNL     1       2.633   1.363  -1.517  0.00  0.00    -0.270 OA
ATOM      8  N   UNL     1       1.172   0.559   0.095  0.00  0.00    -0.295 N 
ATOM      9  C   UNL     1       2.365   0.574  -0.615  0.00  0.00    +0.246 C 
ATOM     10  H   UNL     1       1.051  -0.115   0.802  0.00  0.00    +0.150 HD
BRANCH   9  11
ATOM     11  C   UNL     1       3.357  -0.469  -0.245  0.00  0.00    +0.053 C 
ATOM     12  C   UNL     1       4.698  -0.215  -0.449  0.00  0.00    +0.005 C 
ATOM     13  C   UNL     1       2.906  -1.657   0.290  0.00  0.00    +0.005 C 
ATOM     14  C   UNL     1       5.629  -1.194  -0.102  0.00  0.00    +0.000 C 
ATOM     15  C   UNL     1       3.837  -2.636   0.637  0.00  0.00    +0.000 C 
ATOM     16  C   UNL     1       5.199  -2.404   0.441  0.00  0.00    +0.000 C 
ENDBRANCH   9  11
ENDBRANCH   1   8
BRANCH   1  17
ATOM     17  C   UNL     1      -1.271   0.904   0.178  0.00  0.00    +0.031 C 
BRANCH  17  18
ATOM     18  C   UNL     1      -1.564  -0.385  -0.599  0.00  0.00    +0.026 C 
BRANCH  18  19
ATOM     19  C   UNL     1      -2.906  -1.001  -0.220  0.00  0.00    +0.114 C 
BRANCH  19  20
ATOM     20  N   UNL     1      -3.986  -0.058  -0.515  0.00  0.00    -0.224 NA
BRANCH  20  22
ATOM     21  N   UNL     1      -6.373   0.222  -0.402  0.00  0.00    -0.386 N 
ATOM     22  C   UNL     1      -5.184  -0.450  -0.242  0.00  0.00    +0.131 C 
ATOM     23  H   UNL     1      -6.378   1.131  -0.780  0.00  0.00    +0.157 HD
ATOM     24  H   UNL     1      -7.220  -0.205  -0.137  0.00  0.00    +0.157 HD
BRANCH  22  26
ATOM     25  F   UNL     1      -6.609  -2.140   0.596  0.00  0.00    -0.226 F 
ATOM     26  C   UNL     1      -5.306  -1.837   0.350  0.00  0.00    +0.253 C 
ENDBRANCH  22  26
ENDBRANCH  20  22
ENDBRANCH  19  20
ENDBRANCH  18  19
ENDBRANCH  17  18
ENDBRANCH   1  17
TORSDOF 9
