REMARK  Name = 11588145
REMARK  3 active torsions:
REMARK  status: ('A' for Active; 'I' for Inactive)
REMARK    1  A    between atoms: C_5  and  S_18
REMARK    2  A    between atoms: C_9  and  S_20
REMARK    3  A    between atoms: C_10  and  O_22
REMARK                            x       y       z     vdW  Elec       q    Type
REMARK                         _______ _______ _______ _____ _____    ______ ____
ROOT
ATOM      1  O   UNL     1      -0.192   2.604   0.085  0.00  0.00    -0.272 OA
ATOM      2  O   UNL     1      -1.776  -2.477   0.954  0.00  0.00    -0.272 OA
ATOM      3  N   UNL     1       0.301   0.358   0.227  0.00  0.00    -0.260 N 
ATOM      4  N   UNL     1      -2.322  -0.224   0.737  0.00  0.00    -0.263 N 
ATOM      5  C   UNL     1      -0.094  -1.039   0.051  0.00  0.00    +0.173 C 
ATOM      6  C   UNL     1       1.728   0.498   0.559  0.00  0.00    +0.126 C 
ATOM      7  C   UNL     1       0.994  -1.825   0.812  0.00  0.00    +0.061 C 
ATOM      8  C   UNL     1       2.181  -0.941   0.608  0.00  0.00    -0.021 C 
ATOM      9  C   UNL     1      -2.055   1.069   0.055  0.00  0.00    +0.169 C 
ATOM     10  C   UNL     1       2.568   1.352  -0.418  0.00  0.00    +0.154 C 
ATOM     11  C   UNL     1      -0.567   1.431   0.144  0.00  0.00    +0.253 C 
ATOM     12  C   UNL     1      -1.460  -1.324   0.648  0.00  0.00    +0.253 C 
ATOM     13  C   UNL     1       3.420  -1.329   0.280  0.00  0.00    -0.007 C 
ATOM     14  C   UNL     1       4.002   0.881  -0.523  0.00  0.00    +0.005 C 
ATOM     15  C   UNL     1      -2.851   2.238   0.679  0.00  0.00    +0.041 C 
ATOM     16  C   UNL     1       4.386  -0.351  -0.153  0.00  0.00    -0.003 C 
ATOM     17  C   UNL     1      -3.540  -0.352   1.539  0.00  0.00    +0.116 C 
ENDROOT
BRANCH   5  18
ATOM     18  S   UNL     1      -0.086  -1.557  -1.705  0.00  0.00    -0.114 S 
ATOM     19  C   UNL     1      -0.458  -3.305  -1.448  0.00  0.00    +0.071 C 
ENDBRANCH   5  18
BRANCH   9  20
ATOM     20  S   UNL     1      -2.535   1.016  -1.714  0.00  0.00    -0.114 S 
ATOM     21  C   UNL     1      -4.271   0.581  -1.484  0.00  0.00    +0.071 C 
ENDBRANCH   9  20
BRANCH  10  22
ATOM     22  O   UNL     1       2.627   2.695   0.066  0.00  0.00    -0.378 OA
ATOM     23  H   UNL     1       1.728   3.047   0.152  0.00  0.00    +0.211 HD
ENDBRANCH  10  22
TORSDOF 3
