REMARK  Name = 11599547
REMARK  6 active torsions:
REMARK  status: ('A' for Active; 'I' for Inactive)
REMARK    1  A    between atoms: C_7  and  O_20
REMARK    2  A    between atoms: C_19  and  C_22
REMARK    3  A    between atoms: C_22  and  C_25
REMARK    4  A    between atoms: N_24  and  C_27
REMARK    5  A    between atoms: C_27  and  C_28
REMARK    6  A    between atoms: C_28  and  N_31
REMARK                            x       y       z     vdW  Elec       q    Type
REMARK                         _______ _______ _______ _____ _____    ______ ____
ROOT
ATOM      1  O   UNL     1       1.468  -0.574  -0.111  0.00  0.00    -0.309 OA
ATOM      2  O   UNL     1       2.886  -1.440   1.491  0.00  0.00    -0.195 OA
ATOM      3  O   UNL     1       2.051  -2.526   0.993  0.00  0.00    -0.195 OA
ATOM      4  C   UNL     1       3.864  -0.552  -0.562  0.00  0.00    +0.057 C 
ATOM      5  C   UNL     1       2.839   0.970   1.165  0.00  0.00    +0.057 C 
ATOM      6  C   UNL     1       2.747  -0.421   0.502  0.00  0.00    +0.221 C 
ATOM      7  C   UNL     1       3.773   1.935  -0.969  0.00  0.00    +0.089 C 
ATOM      8  C   UNL     1       5.334   1.004   0.777  0.00  0.00    +0.003 C 
ATOM      9  C   UNL     1       3.691   0.546  -1.628  0.00  0.00    +0.032 C 
ATOM     10  C   UNL     1       2.668   2.066   0.095  0.00  0.00    +0.032 C 
ATOM     11  C   UNL     1       5.242  -0.380   0.109  0.00  0.00    +0.005 C 
ATOM     12  C   UNL     1       4.220   1.140   1.831  0.00  0.00    +0.005 C 
ATOM     13  C   UNL     1       5.148   2.091  -0.294  0.00  0.00    +0.027 C 
ATOM     14  C   UNL     1       0.999  -1.854   0.307  0.00  0.00    +0.221 C 
ATOM     15  C   UNL     1       0.609  -2.669  -0.926  0.00  0.00    +0.059 C 
ATOM     16  C   UNL     1      -0.193  -1.676   1.252  0.00  0.00    +0.059 C 
ATOM     17  C   UNL     1      -0.604  -2.081  -1.645  0.00  0.00    +0.006 C 
ATOM     18  C   UNL     1      -1.408  -1.085   0.538  0.00  0.00    +0.006 C 
ATOM     19  C   UNL     1      -1.797  -1.913  -0.694  0.00  0.00    +0.009 C 
ENDROOT
BRANCH   7  20
ATOM     20  O   UNL     1       3.607   2.932  -1.967  0.00  0.00    -0.387 OA
ATOM     21  H   UNL     1       2.739   2.827  -2.387  0.00  0.00    +0.210 HD
ENDBRANCH   7  20
BRANCH  19  22
ATOM     22  C   UNL     1      -2.979  -1.274  -1.421  0.00  0.00    +0.085 C 
BRANCH  22  25
ATOM     23  O   UNL     1      -4.457  -1.906   0.387  0.00  0.00    -0.275 OA
ATOM     24  N   UNL     1      -4.948  -0.022  -0.881  0.00  0.00    -0.306 N 
ATOM     25  C   UNL     1      -4.192  -1.130  -0.527  0.00  0.00    +0.222 C 
ATOM     26  H   UNL     1      -4.641   0.534  -1.634  0.00  0.00    +0.149 HD
BRANCH  24  27
ATOM     27  C   UNL     1      -6.164   0.356  -0.198  0.00  0.00    +0.069 C 
BRANCH  27  28
ATOM     28  C   UNL     1      -6.105   1.760   0.433  0.00  0.00    -0.031 C 
ATOM     29  C   UNL     1      -5.937   2.848  -0.637  0.00  0.00    -0.020 C 
ATOM     30  C   UNL     1      -4.974   1.862   1.468  0.00  0.00    -0.020 C 
BRANCH  28  31
ATOM     31  N   UNL     1      -7.387   1.993   1.114  0.00  0.00    +0.384 N 
ATOM     32  H   UNL     1      -8.148   1.928   0.438  0.00  0.00    -0.089 HD
ATOM     33  H   UNL     1      -7.385   2.922   1.535  0.00  0.00    -0.089 HD
ATOM     34  H   UNL     1      -7.518   1.290   1.842  0.00  0.00    -0.089 HD
ENDBRANCH  28  31
ENDBRANCH  27  28
ENDBRANCH  24  27
ENDBRANCH  22  25
ENDBRANCH  19  22
TORSDOF 6
