11594161
  -OEChem-03292013303D

 33 33  0     0  0  0  0  0  0999 V2000
   -2.0672    0.7223   -1.7696 O   0  0  0  0  0  0  0  0  0  0  0  0
    0.2623    2.6497   -0.3180 O   0  0  0  0  0  0  0  0  0  0  0  0
   -0.8094   -2.0089   -0.3481 O   0  0  0  0  0  0  0  0  0  0  0  0
    3.6915   -0.5966    0.4259 O   0  0  0  0  0  0  0  0  0  0  0  0
    1.0778   -3.6542    0.0560 O   0  0  0  0  0  0  0  0  0  0  0  0
    4.1610    1.8955    0.4231 O   0  0  0  0  0  0  0  0  0  0  0  0
   -4.0728    0.4217    0.2874 C   0  0  0  0  0  0  0  0  0  0  0  0
   -2.6247    0.8552    0.5763 C   0  0  0  0  0  0  0  0  0  0  0  0
   -1.6850    0.6470   -0.6043 C   0  0  0  0  0  0  0  0  0  0  0  0
   -0.2575    0.3167   -0.3306 C   0  0  0  0  0  0  0  0  0  0  0  0
   -4.1069   -1.0533   -0.1184 C   0  0  0  0  0  0  0  0  0  0  0  0
   -4.9758    0.6433    1.5036 C   0  0  0  0  0  0  0  0  0  0  0  0
    0.6509    1.3464   -0.2005 C   0  0  0  0  0  0  0  0  0  0  0  0
    0.1095   -1.0081   -0.2163 C   0  0  0  0  0  0  0  0  0  0  0  0
    1.9868    1.0375    0.0555 C   0  0  0  0  0  0  0  0  0  0  0  0
    1.4455   -1.3170    0.0397 C   0  0  0  0  0  0  0  0  0  0  0  0
    2.3842   -0.2944    0.1756 C   0  0  0  0  0  0  0  0  0  0  0  0
    1.8608   -2.7100    0.1657 C   0  0  0  0  0  0  0  0  0  0  0  0
    2.9690    2.1071    0.1970 C   0  0  0  0  0  0  0  0  0  0  0  0
   -4.4667    1.0163   -0.5464 H   0  0  0  0  0  0  0  0  0  0  0  0
   -2.5999    1.9213    0.8304 H   0  0  0  0  0  0  0  0  0  0  0  0
   -2.2369    0.2999    1.4390 H   0  0  0  0  0  0  0  0  0  0  0  0
   -3.6608   -1.6887    0.6544 H   0  0  0  0  0  0  0  0  0  0  0  0
   -5.1405   -1.3860   -0.2664 H   0  0  0  0  0  0  0  0  0  0  0  0
   -3.5779   -1.2366   -1.0578 H   0  0  0  0  0  0  0  0  0  0  0  0
   -4.6381    0.0534    2.3624 H   0  0  0  0  0  0  0  0  0  0  0  0
   -6.0089    0.3575    1.2795 H   0  0  0  0  0  0  0  0  0  0  0  0
   -4.9756    1.6985    1.7961 H   0  0  0  0  0  0  0  0  0  0  0  0
    2.9260   -2.9077    0.3683 H   0  0  0  0  0  0  0  0  0  0  0  0
    2.6109    3.1445    0.0945 H   0  0  0  0  0  0  0  0  0  0  0  0
   -0.6784    2.7112   -0.5479 H   0  0  0  0  0  0  0  0  0  0  0  0
   -0.4733   -2.8426    0.0131 H   0  0  0  0  0  0  0  0  0  0  0  0
    4.1748    0.1780    0.7498 H   0  0  0  0  0  0  0  0  0  0  0  0
  1  9  2  0  0  0  0
  2 13  1  0  0  0  0
  2 31  1  0  0  0  0
  3 14  1  0  0  0  0
  3 32  1  0  0  0  0
  4 17  1  0  0  0  0
  4 33  1  0  0  0  0
  5 18  2  0  0  0  0
  6 19  2  0  0  0  0
  7  8  1  0  0  0  0
  7 11  1  0  0  0  0
  7 12  1  0  0  0  0
  7 20  1  0  0  0  0
  8  9  1  0  0  0  0
  8 21  1  0  0  0  0
  8 22  1  0  0  0  0
  9 10  1  0  0  0  0
 10 13  2  0  0  0  0
 10 14  1  0  0  0  0
 11 23  1  0  0  0  0
 11 24  1  0  0  0  0
 11 25  1  0  0  0  0
 12 26  1  0  0  0  0
 12 27  1  0  0  0  0
 12 28  1  0  0  0  0
 13 15  1  0  0  0  0
 14 16  2  0  0  0  0
 15 17  2  0  0  0  0
 15 19  1  0  0  0  0
 16 17  1  0  0  0  0
 16 18  1  0  0  0  0
 18 29  1  0  0  0  0
 19 30  1  0  0  0  0
M  END
> <PUBCHEM_COMPOUND_CID>
11594161

> <PUBCHEM_CONFORMER_RMSD>
0.8

> <PUBCHEM_CONFORMER_DIVERSEORDER>
1
6
5
3
2
4

> <PUBCHEM_MMFF94_PARTIAL_CHARGES>
21
1 -0.57
10 0.09
13 0.08
14 0.08
15 0.09
16 0.09
17 0.08
18 0.42
19 0.42
2 -0.53
29 0.06
3 -0.53
30 0.06
31 0.45
32 0.45
33 0.45
4 -0.53
5 -0.57
6 -0.57
8 0.06
9 0.42

> <PUBCHEM_EFFECTIVE_ROTOR_COUNT>
5

> <PUBCHEM_PHARMACOPHORE_FEATURES>
8
1 1 acceptor
1 2 donor
1 3 donor
1 4 donor
1 5 acceptor
1 6 acceptor
3 7 11 12 hydrophobe
6 10 13 14 15 16 17 rings

> <PUBCHEM_HEAVY_ATOM_COUNT>
19

> <PUBCHEM_ATOM_DEF_STEREO_COUNT>
0

> <PUBCHEM_ATOM_UDEF_STEREO_COUNT>
0

> <PUBCHEM_BOND_DEF_STEREO_COUNT>
0

> <PUBCHEM_BOND_UDEF_STEREO_COUNT>
0

> <PUBCHEM_ISOTOPIC_ATOM_COUNT>
0

> <PUBCHEM_COMPONENT_COUNT>
1

> <PUBCHEM_CACTVS_TAUTO_COUNT>
49

> <PUBCHEM_CONFORMER_ID>
00B0E9B100000001

> <PUBCHEM_MMFF94_ENERGY>
58.3602

> <PUBCHEM_FEATURE_SELFOVERLAP>
40.597

> <PUBCHEM_SHAPE_FINGERPRINT>
10411042 1 17762900970037256383
10493431 412 18268147745989639232
10967382 1 18410005555257636086
10980938 120 18408886243461477265
11132069 177 18187362181458103793
11471102 22 18336555910637048889
12107183 9 17622455943975533297
12236239 1 17775279457285079397
12251169 10 18340211804380095779
12390115 104 17981059809811747440
12553582 1 17979914912990332543
12644460 14 18335704914391143018
12892183 10 18338817636790321841
13140716 1 18410566323494440762
13583140 156 16589401229417111604
14178342 30 18199170970394143083
14223421 5 18264769870154197181
14252887 29 18114192904008168105
14787075 74 17844526828266723593
14790565 3 18119539983399344820
15196674 1 18411419548633103427
15219456 202 18187357701928825925
15309172 13 18337388352455697373
15475509 84 17769664100619808649
16945 1 18266727005394213886
18186145 218 18342738528813018292
19591789 44 18410292536314290238
19784866 9 18272092686256627313
204376 136 18337390564326983444
20645477 70 18262502716111731095
20739085 24 18334303054214500980
21041028 32 17982451490572915200
21673915 165 18267024032542962043
2334 1 18193544782849505142
23557571 272 17023742300001258293
23558518 356 17551507073579569325
23598291 2 17988629809765943327
2748010 2 18336823208243258934
31174 14 18264492784618102319
33824 294 18408323285208343323
458136 41 18409176518926241910
474 4 18340488966772291697
5104073 3 18411138065061203819
58807428 26 18337935888388419074
633830 44 18202570604560527349
7364860 26 18340770343001554214
77492 1 17632002079694482469
81228 2 17399496309858037762
8272917 22 18341340994015719753

> <PUBCHEM_SHAPE_MULTIPOLES>
355.8
7.46
2.96
0.93
6.48
1.91
-0.09
-2.02
2.58
-2.76
0.06
0.85
-0.2
-0.16

> <PUBCHEM_SHAPE_SELFOVERLAP>
752.427

> <PUBCHEM_SHAPE_VOLUME>
198.8

> <PUBCHEM_COORDINATE_TYPE>
2
5
10

$$$$
