REMARK  Name = 11598520
REMARK  10 active torsions:
REMARK  status: ('A' for Active; 'I' for Inactive)
REMARK    1  A    between atoms: C_16  and  C_28
REMARK    2  A    between atoms: C_17  and  C_25
REMARK    3  A    between atoms: C_20  and  O_22
REMARK    4  A    between atoms: C_25  and  O_26
REMARK    5  A    between atoms: C_28  and  C_31
REMARK    6  A    between atoms: C_31  and  C_32
REMARK    7  A    between atoms: C_32  and  C_33
REMARK    8  A    between atoms: C_33  and  C_34
REMARK    9  A    between atoms: C_34  and  C_35
REMARK   10  A    between atoms: C_35  and  C_36
REMARK                            x       y       z     vdW  Elec       q    Type
REMARK                         _______ _______ _______ _____ _____    ______ ____
ROOT
ATOM      1  O   UNL     1       3.335  -2.505  -1.788  0.00  0.00    -0.354 OA
ATOM      2  O   UNL     1       1.597   1.099  -0.473  0.00  0.00    -0.460 OA
ATOM      3  O   UNL     1      -1.361   1.697   0.170  0.00  0.00    -0.274 OA
ATOM      4  N   UNL     1      -0.410   0.503  -1.567  0.00  0.00    -0.247 N 
ATOM      5  C   UNL     1       1.391  -1.047  -1.719  0.00  0.00    +0.094 C 
ATOM      6  C   UNL     1       2.910  -1.157  -1.548  0.00  0.00    +0.145 C 
ATOM      7  C   UNL     1       0.731   0.002  -0.803  0.00  0.00    +0.249 C 
ATOM      8  C   UNL     1       0.999  -0.559  -3.123  0.00  0.00    +0.030 C 
ATOM      9  C   UNL     1       3.347  -0.528  -0.252  0.00  0.00    +0.035 A 
ATOM     10  C   UNL     1      -0.408  -0.020  -2.927  0.00  0.00    +0.097 C 
ATOM     11  C   UNL     1       4.421  -1.051   0.471  0.00  0.00    -0.020 A 
ATOM     12  C   UNL     1       5.020  -2.356   0.014  0.00  0.00    +0.049 C 
ATOM     13  C   UNL     1       3.934  -3.201  -0.691  0.00  0.00    +0.120 C 
ATOM     14  C   UNL     1       2.704   0.631   0.190  0.00  0.00    +0.148 A 
ATOM     15  C   UNL     1       4.887  -0.366   1.598  0.00  0.00    +0.008 A 
ATOM     16  C   UNL     1      -1.402   1.275  -0.987  0.00  0.00    +0.235 C 
ATOM     17  C   UNL     1       3.177   1.326   1.297  0.00  0.00    +0.142 A 
ATOM     18  C   UNL     1       6.212  -2.090  -0.911  0.00  0.00    +0.007 C 
ATOM     19  C   UNL     1       2.853  -3.732   0.253  0.00  0.00    +0.032 C 
ATOM     20  C   UNL     1       4.273   0.825   2.000  0.00  0.00    +0.138 A 
ATOM     21  C   UNL     1       5.974  -0.887   2.477  0.00  0.00    +0.034 C 
ENDROOT
BRANCH  20  22
ATOM     22  O   UNL     1       4.737   1.495   3.097  0.00  0.00    -0.506 OA
ATOM     23  H   UNL     1       5.472   1.163   3.573  0.00  0.00    +0.292 HD
ENDBRANCH  20  22
BRANCH  17  25
ATOM     24  O   UNL     1       2.019   2.723   2.851  0.00  0.00    -0.245 OA
ATOM     25  C   UNL     1       2.528   2.552   1.742  0.00  0.00    +0.344 C 
BRANCH  25  26
ATOM     26  O   UNL     1       2.539   3.518   0.785  0.00  0.00    -0.477 OA
ATOM     27  H   UNL     1       2.936   3.349  -0.046  0.00  0.00    +0.295 HD
ENDBRANCH  25  26
ENDBRANCH  17  25
BRANCH  16  28
ATOM     28  C   UNL     1      -2.577   1.600  -1.875  0.00  0.00    +0.134 C 
ATOM     29  C   UNL     1      -2.239   2.857  -2.661  0.00  0.00    +0.017 C 
BRANCH  28  31
ATOM     30  O   UNL     1      -4.234   2.828  -0.632  0.00  0.00    -0.296 OA
ATOM     31  C   UNL     1      -3.865   1.743  -1.081  0.00  0.00    +0.159 C 
BRANCH  31  32
ATOM     32  C   UNL     1      -4.660   0.463  -0.852  0.00  0.00    +0.065 C 
BRANCH  32  33
ATOM     33  C   UNL     1      -5.950   0.675  -0.060  0.00  0.00    +0.008 C 
BRANCH  33  34
ATOM     34  C   UNL     1      -6.729  -0.628   0.145  0.00  0.00    +0.005 C 
BRANCH  34  35
ATOM     35  C   UNL     1      -8.015  -0.385   0.939  0.00  0.00    +0.026 C 
BRANCH  35  36
ATOM     36  C   UNL     1      -8.793  -1.656   1.118  0.00  0.00    -0.031 C 
ATOM     37  C   UNL     1      -9.082  -2.192   2.312  0.00  0.00    -0.030 C 
ATOM     38  C   UNL     1      -9.861  -3.453   2.491  0.00  0.00    +0.030 C 
ENDBRANCH  35  36
ENDBRANCH  34  35
ENDBRANCH  33  34
ENDBRANCH  32  33
ENDBRANCH  31  32
ENDBRANCH  28  31
ENDBRANCH  16  28
TORSDOF 10
