REMARK  Name = 11594161
REMARK  8 active torsions:
REMARK  status: ('A' for Active; 'I' for Inactive)
REMARK    1  A    between atoms: C_1  and  C_8
REMARK    2  A    between atoms: C_2  and  O_13
REMARK    3  A    between atoms: C_3  and  O_15
REMARK    4  A    between atoms: C_4  and  C_22
REMARK    5  A    between atoms: C_5  and  C_20
REMARK    6  A    between atoms: C_6  and  O_17
REMARK    7  A    between atoms: C_8  and  C_9
REMARK    8  A    between atoms: C_9  and  C_10
REMARK                            x       y       z     vdW  Elec       q    Type
REMARK                         _______ _______ _______ _____ _____    ______ ____
ROOT
ATOM      1  C   UNL     1      -0.258   0.317  -0.331  0.00  0.00    +0.102 A 
ATOM      2  C   UNL     1       0.651   1.346  -0.201  0.00  0.00    +0.145 A 
ATOM      3  C   UNL     1       0.110  -1.008  -0.216  0.00  0.00    +0.145 A 
ATOM      4  C   UNL     1       1.987   1.038   0.056  0.00  0.00    +0.110 A 
ATOM      5  C   UNL     1       1.446  -1.317   0.040  0.00  0.00    +0.110 A 
ATOM      6  C   UNL     1       2.384  -0.294   0.176  0.00  0.00    +0.146 A 
ENDROOT
BRANCH   1   8
ATOM      7  O   UNL     1      -2.067   0.722  -1.770  0.00  0.00    -0.291 OA
ATOM      8  C   UNL     1      -1.685   0.647  -0.604  0.00  0.00    +0.179 C 
BRANCH   8   9
ATOM      9  C   UNL     1      -2.625   0.855   0.576  0.00  0.00    +0.069 C 
BRANCH   9  10
ATOM     10  C   UNL     1      -4.073   0.422   0.287  0.00  0.00    +0.008 C 
ATOM     11  C   UNL     1      -4.107  -1.053  -0.118  0.00  0.00    +0.000 C 
ATOM     12  C   UNL     1      -4.976   0.643   1.504  0.00  0.00    +0.000 C 
ENDBRANCH   9  10
ENDBRANCH   8   9
ENDBRANCH   1   8
BRANCH   2  13
ATOM     13  O   UNL     1       0.262   2.650  -0.318  0.00  0.00    -0.505 OA
ATOM     14  H   UNL     1      -0.635   2.857  -0.490  0.00  0.00    +0.292 HD
ENDBRANCH   2  13
BRANCH   3  15
ATOM     15  O   UNL     1      -0.809  -2.009  -0.348  0.00  0.00    -0.505 OA
ATOM     16  H   UNL     1      -1.707  -1.801  -0.520  0.00  0.00    +0.292 HD
ENDBRANCH   3  15
BRANCH   6  17
ATOM     17  O   UNL     1       3.692  -0.597   0.426  0.00  0.00    -0.505 OA
ATOM     18  H   UNL     1       4.322   0.090   0.517  0.00  0.00    +0.292 HD
ENDBRANCH   6  17
BRANCH   5  20
ATOM     19  O   UNL     1       1.078  -3.654   0.056  0.00  0.00    -0.283 OA
ATOM     20  C   UNL     1       1.861  -2.710   0.166  0.00  0.00    +0.240 C 
ENDBRANCH   5  20
BRANCH   4  22
ATOM     21  O   UNL     1       4.161   1.895   0.423  0.00  0.00    -0.283 OA
ATOM     22  C   UNL     1       2.969   2.107   0.197  0.00  0.00    +0.240 C 
ENDBRANCH   4  22
TORSDOF 8
