REMARK  Name = 11594626
REMARK  7 active torsions:
REMARK  status: ('A' for Active; 'I' for Inactive)
REMARK    1  A    between atoms: N_3  and  C1*_11
REMARK    2  A    between atoms: C_7  and  C_20
REMARK    3  A    between atoms: C3*_12  and  O3*_15
REMARK    4  A    between atoms: C4*_14  and  C5*_17
REMARK    5  A    between atoms: C5*_17  and  O5*_18
REMARK    6  A    between atoms: C_20  and  O_21
REMARK    7  A    between atoms: C_20  and  O_23
REMARK                            x       y       z     vdW  Elec       q    Type
REMARK                         _______ _______ _______ _____ _____    ______ ____
ROOT
ATOM      1  O   UNL     1       0.820  -3.375   0.224  0.00  0.00    -0.252 OA
ATOM      2  O   UNL     1      -3.400  -1.587  -0.159  0.00  0.00    -0.270 OA
ATOM      3  N   UNL     1       0.617  -1.051   0.151  0.00  0.00    -0.219 N 
ATOM      4  N   UNL     1      -1.279  -2.470   0.033  0.00  0.00    -0.236 N 
ATOM      5  C   UNL     1      -0.248   0.032   0.054  0.00  0.00    +0.076 C 
ATOM      6  C   UNL     1       0.112  -2.369   0.142  0.00  0.00    +0.315 C 
ATOM      7  C   UNL     1      -1.579  -0.068  -0.050  0.00  0.00    +0.102 C 
ATOM      8  C   UNL     1      -2.186  -1.425  -0.066  0.00  0.00    +0.255 C 
ATOM      9  H   UNL     1      -1.654  -3.380   0.024  0.00  0.00    +0.159 HD
ENDROOT
BRANCH   3  11
ATOM     10  O4* UNL     1       2.230   0.426   0.983  0.00  0.00    -0.335 OA
ATOM     11  C1* UNL     1       2.023  -0.795   0.258  0.00  0.00    +0.202 C 
ATOM     12  C3* UNL     1       3.791   0.364  -0.800  0.00  0.00    +0.144 C 
ATOM     13  C2* UNL     1       2.699  -0.639  -1.094  0.00  0.00    +0.083 C 
ATOM     14  C4* UNL     1       3.164   1.254   0.264  0.00  0.00    +0.173 C 
BRANCH  12  15
ATOM     15  O3* UNL     1       4.928  -0.308  -0.263  0.00  0.00    -0.382 OA
ATOM     16  H3* UNL     1       5.322  -0.873  -0.946  0.00  0.00    +0.210 HD
ENDBRANCH  12  15
BRANCH  14  17
ATOM     17  C5* UNL     1       2.393   2.428  -0.325  0.00  0.00    +0.169 C 
BRANCH  17  18
ATOM     18  O5* UNL     1       1.839   3.190   0.736  0.00  0.00    -0.379 OA
ATOM     19  H5* UNL     1       1.345   3.941   0.371  0.00  0.00    +0.211 HD
ENDBRANCH  17  18
ENDBRANCH  14  17
ENDBRANCH   3  11
BRANCH   7  20
ATOM     20  C   UNL     1      -2.491   1.111  -0.153  0.00  0.00    +0.266 C 
BRANCH  20  21
ATOM     21  O   UNL     1      -3.429   1.070   0.924  0.00  0.00    -0.324 OA
ATOM     22  C   UNL     1      -2.802   1.108   2.200  0.00  0.00    +0.177 C 
ENDBRANCH  20  21
BRANCH  20  23
ATOM     23  O   UNL     1      -3.150   1.015  -1.420  0.00  0.00    -0.324 OA
ATOM     24  C   UNL     1      -4.054   2.090  -1.639  0.00  0.00    +0.177 C 
ENDBRANCH  20  23
ENDBRANCH   7  20
TORSDOF 7
