REMARK  Name = 11590196
REMARK  8 active torsions:
REMARK  status: ('A' for Active; 'I' for Inactive)
REMARK    1  A    between atoms: C_4  and  O_23
REMARK    2  A    between atoms: C_9  and  C_13
REMARK    3  A    between atoms: C_12  and  C_25
REMARK    4  A    between atoms: C_16  and  O_19
REMARK    5  A    between atoms: C_18  and  O_21
REMARK    6  A    between atoms: C_26  and  C_27
REMARK    7  A    between atoms: C_30  and  O_33
REMARK    8  A    between atoms: C_32  and  O_35
REMARK                            x       y       z     vdW  Elec       q    Type
REMARK                         _______ _______ _______ _____ _____    ______ ____
ROOT
ATOM      1  O   UNL     1      -1.369  -2.204  -0.483  0.00  0.00    -0.455 OA
ATOM      2  O   UNL     1       1.516   0.653   0.233  0.00  0.00    -0.421 OA
ATOM      3  O   UNL     1      -0.134   2.170   0.624  0.00  0.00    -0.244 OA
ATOM      4  C   UNL     1      -2.605  -1.458  -0.275  0.00  0.00    +0.250 C 
ATOM      5  C   UNL     1      -2.213  -0.031   0.074  0.00  0.00    +0.050 C 
ATOM      6  C   UNL     1      -0.782  -0.040   0.066  0.00  0.00    +0.112 C 
ATOM      7  C   UNL     1      -0.380  -1.265  -0.246  0.00  0.00    +0.150 C 
ATOM      8  C   UNL     1      -3.430  -1.552  -1.559  0.00  0.00    +0.081 C 
ATOM      9  C   UNL     1      -3.040   0.988   0.329  0.00  0.00    +0.002 C 
ATOM     10  C   UNL     1       0.993  -1.632  -0.346  0.00  0.00    +0.075 C 
ATOM     11  C   UNL     1       0.193   1.027   0.332  0.00  0.00    +0.349 C 
ATOM     12  C   UNL     1       1.900  -0.675  -0.106  0.00  0.00    +0.152 C 
ENDROOT
BRANCH   9  13
ATOM     13  C   UNL     1      -4.512   0.925   0.320  0.00  0.00    +0.003 C 
ATOM     14  C   UNL     1      -5.197   1.207  -0.851  0.00  0.00    +0.040 C 
ATOM     15  C   UNL     1      -5.184   0.586   1.484  0.00  0.00    +0.003 C 
ATOM     16  C   UNL     1      -6.590   1.147  -0.859  0.00  0.00    +0.167 C 
ATOM     17  C   UNL     1      -6.577   0.526   1.476  0.00  0.00    +0.040 C 
ATOM     18  C   UNL     1      -7.280   0.807   0.304  0.00  0.00    +0.167 C 
BRANCH  16  19
ATOM     19  O   UNL     1      -7.266   1.424  -2.009  0.00  0.00    -0.503 OA
ATOM     20  H   UNL     1      -6.795   1.651  -2.786  0.00  0.00    +0.292 HD
ENDBRANCH  16  19
BRANCH  18  21
ATOM     21  O   UNL     1      -8.641   0.745   0.309  0.00  0.00    -0.503 OA
ATOM     22  H   UNL     1      -9.121   0.932  -0.473  0.00  0.00    +0.292 HD
ENDBRANCH  18  21
ENDBRANCH   9  13
BRANCH   4  23
ATOM     23  O   UNL     1      -3.333  -2.014   0.820  0.00  0.00    -0.319 OA
ATOM     24  C   UNL     1      -3.728  -3.351   0.551  0.00  0.00    +0.178 C 
ENDBRANCH   4  23
BRANCH  12  25
ATOM     25  C   UNL     1       3.318  -0.880  -0.163  0.00  0.00    +0.038 C 
ATOM     26  C   UNL     1       4.150   0.158   0.085  0.00  0.00    +0.003 C 
BRANCH  26  27
ATOM     27  C   UNL     1       5.623   0.109   0.056  0.00  0.00    +0.003 C 
ATOM     28  C   UNL     1       6.337   1.288  -0.086  0.00  0.00    +0.040 C 
ATOM     29  C   UNL     1       6.263  -1.114   0.170  0.00  0.00    +0.003 C 
ATOM     30  C   UNL     1       7.731   1.242  -0.114  0.00  0.00    +0.167 C 
ATOM     31  C   UNL     1       7.657  -1.160   0.141  0.00  0.00    +0.040 C 
ATOM     32  C   UNL     1       8.391   0.018   0.000  0.00  0.00    +0.167 C 
BRANCH  30  33
ATOM     33  O   UNL     1       8.437   2.398  -0.253  0.00  0.00    -0.503 OA
ATOM     34  H   UNL     1       7.986   3.216  -0.329  0.00  0.00    +0.292 HD
ENDBRANCH  30  33
BRANCH  32  35
ATOM     35  O   UNL     1       9.752  -0.040  -0.026  0.00  0.00    -0.503 OA
ATOM     36  H   UNL     1      10.252   0.746  -0.121  0.00  0.00    +0.292 HD
ENDBRANCH  32  35
ENDBRANCH  26  27
ENDBRANCH  12  25
TORSDOF 8
