11598520
  -OEChem-03292013303D

 73 76  0     1  0  0  0  0  0999 V2000
    3.3347   -2.5047   -1.7882 O   0  0  0  0  0  0  0  0  0  0  0  0
    1.5966    1.0994   -0.4732 O   0  0  0  0  0  0  0  0  0  0  0  0
   -1.3608    1.6966    0.1703 O   0  0  0  0  0  0  0  0  0  0  0  0
    4.7367    1.4954    3.0969 O   0  0  0  0  0  0  0  0  0  0  0  0
    2.5386    3.5177    0.7854 O   0  0  0  0  0  0  0  0  0  0  0  0
    2.0195    2.7232    2.8508 O   0  0  0  0  0  0  0  0  0  0  0  0
   -4.2344    2.8279   -0.6325 O   0  0  0  0  0  0  0  0  0  0  0  0
   -0.4096    0.5028   -1.5666 N   0  0  0  0  0  0  0  0  0  0  0  0
    1.3912   -1.0470   -1.7194 C   0  0  1  0  0  0  0  0  0  0  0  0
    2.9105   -1.1571   -1.5480 C   0  0  1  0  0  0  0  0  0  0  0  0
    0.7309    0.0021   -0.8030 C   0  0  1  0  0  0  0  0  0  0  0  0
    0.9989   -0.5586   -3.1233 C   0  0  0  0  0  0  0  0  0  0  0  0
    3.3471   -0.5282   -0.2524 C   0  0  0  0  0  0  0  0  0  0  0  0
   -0.4077   -0.0202   -2.9270 C   0  0  0  0  0  0  0  0  0  0  0  0
    4.4210   -1.0507    0.4711 C   0  0  0  0  0  0  0  0  0  0  0  0
    5.0204   -2.3559    0.0140 C   0  0  1  0  0  0  0  0  0  0  0  0
    3.9341   -3.2014   -0.6914 C   0  0  1  0  0  0  0  0  0  0  0  0
    2.7040    0.6308    0.1896 C   0  0  0  0  0  0  0  0  0  0  0  0
    4.8866   -0.3658    1.5983 C   0  0  0  0  0  0  0  0  0  0  0  0
   -1.4022    1.2753   -0.9869 C   0  0  0  0  0  0  0  0  0  0  0  0
    3.1766    1.3264    1.2973 C   0  0  0  0  0  0  0  0  0  0  0  0
    6.2117   -2.0900   -0.9113 C   0  0  0  0  0  0  0  0  0  0  0  0
    2.8532   -3.7324    0.2534 C   0  0  0  0  0  0  0  0  0  0  0  0
    4.2729    0.8247    2.0002 C   0  0  0  0  0  0  0  0  0  0  0  0
   -2.5766    1.6004   -1.8747 C   0  0  2  0  0  0  0  0  0  0  0  0
    5.9744   -0.8870    2.4772 C   0  0  0  0  0  0  0  0  0  0  0  0
    2.5281    2.5519    1.7417 C   0  0  0  0  0  0  0  0  0  0  0  0
   -2.2392    2.8569   -2.6611 C   0  0  0  0  0  0  0  0  0  0  0  0
   -3.8652    1.7427   -1.0806 C   0  0  0  0  0  0  0  0  0  0  0  0
   -4.6603    0.4634   -0.8520 C   0  0  0  0  0  0  0  0  0  0  0  0
   -5.9501    0.6747   -0.0600 C   0  0  0  0  0  0  0  0  0  0  0  0
   -6.7294   -0.6284    0.1454 C   0  0  0  0  0  0  0  0  0  0  0  0
   -8.0151   -0.3847    0.9392 C   0  0  0  0  0  0  0  0  0  0  0  0
   -8.7935   -1.6556    1.1178 C   0  0  0  0  0  0  0  0  0  0  0  0
   -9.0825   -2.1917    2.3124 C   0  0  0  0  0  0  0  0  0  0  0  0
   -9.8611   -3.4528    2.4908 C   0  0  0  0  0  0  0  0  0  0  0  0
    0.9041   -2.0186   -1.5582 H   0  0  0  0  0  0  0  0  0  0  0  0
    3.4048   -0.5723   -2.3346 H   0  0  0  0  0  0  0  0  0  0  0  0
    0.3527   -0.4457    0.1265 H   0  0  0  0  0  0  0  0  0  0  0  0
    1.6553    0.2572   -3.4511 H   0  0  0  0  0  0  0  0  0  0  0  0
    1.0419   -1.3527   -3.8744 H   0  0  0  0  0  0  0  0  0  0  0  0
   -1.1451   -0.8293   -2.9754 H   0  0  0  0  0  0  0  0  0  0  0  0
   -0.6625    0.7390   -3.6676 H   0  0  0  0  0  0  0  0  0  0  0  0
    5.3626   -2.9461    0.8715 H   0  0  0  0  0  0  0  0  0  0  0  0
    4.4202   -4.0824   -1.1294 H   0  0  0  0  0  0  0  0  0  0  0  0
    5.9208   -1.5242   -1.8033 H   0  0  0  0  0  0  0  0  0  0  0  0
    6.9927   -1.5157   -0.4014 H   0  0  0  0  0  0  0  0  0  0  0  0
    6.6576   -3.0334   -1.2438 H   0  0  0  0  0  0  0  0  0  0  0  0
    2.2622   -2.9322    0.7087 H   0  0  0  0  0  0  0  0  0  0  0  0
    2.1462   -4.3583   -0.3023 H   0  0  0  0  0  0  0  0  0  0  0  0
    3.2936   -4.3347    1.0540 H   0  0  0  0  0  0  0  0  0  0  0  0
   -2.7593    0.7934   -2.5913 H   0  0  0  0  0  0  0  0  0  0  0  0
    6.5766   -1.6647    2.0018 H   0  0  0  0  0  0  0  0  0  0  0  0
    5.5549   -1.3096    3.3962 H   0  0  0  0  0  0  0  0  0  0  0  0
    6.6957   -0.1011    2.7291 H   0  0  0  0  0  0  0  0  0  0  0  0
   -3.0548    3.1121   -3.3468 H   0  0  0  0  0  0  0  0  0  0  0  0
   -1.3227    2.7579   -3.2488 H   0  0  0  0  0  0  0  0  0  0  0  0
   -2.0969    3.7152   -1.9935 H   0  0  0  0  0  0  0  0  0  0  0  0
    5.1834    0.8928    3.7114 H   0  0  0  0  0  0  0  0  0  0  0  0
   -4.0121   -0.2422   -0.3204 H   0  0  0  0  0  0  0  0  0  0  0  0
   -4.9012    0.0402   -1.8338 H   0  0  0  0  0  0  0  0  0  0  0  0
   -6.5835    1.4018   -0.5834 H   0  0  0  0  0  0  0  0  0  0  0  0
   -5.7096    1.1154    0.9157 H   0  0  0  0  0  0  0  0  0  0  0  0
    2.0994    4.3398    1.0912 H   0  0  0  0  0  0  0  0  0  0  0  0
   -6.9707   -1.0658   -0.8317 H   0  0  0  0  0  0  0  0  0  0  0  0
   -6.0972   -1.3527    0.6745 H   0  0  0  0  0  0  0  0  0  0  0  0
   -8.6478    0.3364    0.4080 H   0  0  0  0  0  0  0  0  0  0  0  0
   -7.7697    0.0622    1.9103 H   0  0  0  0  0  0  0  0  0  0  0  0
   -9.1425   -2.1475    0.2131 H   0  0  0  0  0  0  0  0  0  0  0  0
   -8.7398   -1.7000    3.2189 H   0  0  0  0  0  0  0  0  0  0  0  0
  -10.1694   -3.8894    1.5355 H   0  0  0  0  0  0  0  0  0  0  0  0
   -9.2555   -4.1921    3.0239 H   0  0  0  0  0  0  0  0  0  0  0  0
  -10.7608   -3.2547    3.0813 H   0  0  0  0  0  0  0  0  0  0  0  0
  1 10  1  0  0  0  0
  1 17  1  0  0  0  0
  2 11  1  0  0  0  0
  2 18  1  0  0  0  0
  3 20  2  0  0  0  0
  4 24  1  0  0  0  0
  4 59  1  0  0  0  0
  5 27  1  0  0  0  0
  5 64  1  0  0  0  0
  6 27  2  0  0  0  0
  7 29  2  0  0  0  0
  8 11  1  0  0  0  0
  8 14  1  0  0  0  0
  8 20  1  0  0  0  0
  9 10  1  0  0  0  0
  9 11  1  0  0  0  0
  9 12  1  0  0  0  0
  9 37  1  0  0  0  0
 10 13  1  0  0  0  0
 10 38  1  0  0  0  0
 11 39  1  0  0  0  0
 12 14  1  0  0  0  0
 12 40  1  0  0  0  0
 12 41  1  0  0  0  0
 13 15  1  0  0  0  0
 13 18  2  0  0  0  0
 14 42  1  0  0  0  0
 14 43  1  0  0  0  0
 15 16  1  0  0  0  0
 15 19  2  0  0  0  0
 16 17  1  0  0  0  0
 16 22  1  0  0  0  0
 16 44  1  0  0  0  0
 17 23  1  0  0  0  0
 17 45  1  0  0  0  0
 18 21  1  0  0  0  0
 19 24  1  0  0  0  0
 19 26  1  0  0  0  0
 20 25  1  0  0  0  0
 21 24  2  0  0  0  0
 21 27  1  0  0  0  0
 22 46  1  0  0  0  0
 22 47  1  0  0  0  0
 22 48  1  0  0  0  0
 23 49  1  0  0  0  0
 23 50  1  0  0  0  0
 23 51  1  0  0  0  0
 25 28  1  0  0  0  0
 25 29  1  0  0  0  0
 25 52  1  0  0  0  0
 26 53  1  0  0  0  0
 26 54  1  0  0  0  0
 26 55  1  0  0  0  0
 28 56  1  0  0  0  0
 28 57  1  0  0  0  0
 28 58  1  0  0  0  0
 29 30  1  0  0  0  0
 30 31  1  0  0  0  0
 30 60  1  0  0  0  0
 30 61  1  0  0  0  0
 31 32  1  0  0  0  0
 31 62  1  0  0  0  0
 31 63  1  0  0  0  0
 32 33  1  0  0  0  0
 32 65  1  0  0  0  0
 32 66  1  0  0  0  0
 33 34  1  0  0  0  0
 33 67  1  0  0  0  0
 33 68  1  0  0  0  0
 34 35  2  0  0  0  0
 34 69  1  0  0  0  0
 35 36  1  0  0  0  0
 35 70  1  0  0  0  0
 36 71  1  0  0  0  0
 36 72  1  0  0  0  0
 36 73  1  0  0  0  0
M  END
> <PUBCHEM_COMPOUND_CID>
11598520

> <PUBCHEM_CONFORMER_RMSD>
1

> <PUBCHEM_CONFORMER_DIVERSEORDER>
1
185
169
108
43
186
152
54
148
6
102
168
125
158
62
15
107
58
26
199
46
42
92
87
177
100
41
150
128
196
123
184
179
34
61
166
191
69
28
64
190
183
60
113
53
141
52
121
59
144
55
117
187
181
162
47
198
76
39
71
38
77
72
140
85
82
103
164
174
16
195
188
89
40
84
149
68
182
66
156
73
160
197
27
115
50
203
67
2
126
205
98
88
101
79
31
111
91
65
96
135
151
86
74
33
70
49
78
99
116
171
36
97
83
132
161
139
170
20
93
155
35
145
194
94
154
57
167
110
130
147
136
176
104
124
19
204
175
45
80
63
134
118
163
105
112
10
142
75
192
138
44
137
81
18
29
32
56
153
193
189
120
114
173
106
8
143
23
95
200
109
180
172
133
202
48
14
3
146
165
30
21
178
127
157
37
90
129
159
9
11
201
51
122
119
7
22
17
25
4
5
12
24
131
13

> <PUBCHEM_MMFF94_PARTIAL_CHARGES>
33
1 -0.56
10 0.42
11 0.58
13 -0.14
14 0.3
15 -0.14
16 0.14
17 0.28
18 0.08
19 -0.14
2 -0.36
20 0.57
21 0.09
24 0.08
25 0.12
26 0.14
27 0.63
29 0.45
3 -0.57
30 0.06
33 0.14
34 -0.29
35 -0.29
36 0.14
4 -0.53
5 -0.65
59 0.45
6 -0.57
64 0.5
69 0.15
7 -0.57
70 0.15
8 -0.66

> <PUBCHEM_EFFECTIVE_ROTOR_COUNT>
10.4

> <PUBCHEM_PHARMACOPHORE_FEATURES>
16
1 1 acceptor
1 2 acceptor
1 25 anion
1 28 hydrophobe
1 3 acceptor
1 36 hydrophobe
1 4 donor
1 5 acceptor
1 6 acceptor
1 7 acceptor
3 5 6 27 anion
5 30 31 32 33 34 hydrophobe
5 8 9 11 12 14 rings
6 1 10 13 15 16 17 rings
6 13 15 18 19 21 24 rings
6 2 9 10 11 13 18 rings

> <PUBCHEM_HEAVY_ATOM_COUNT>
36

> <PUBCHEM_ATOM_DEF_STEREO_COUNT>
5

> <PUBCHEM_ATOM_UDEF_STEREO_COUNT>
1

> <PUBCHEM_BOND_DEF_STEREO_COUNT>
1

> <PUBCHEM_BOND_UDEF_STEREO_COUNT>
0

> <PUBCHEM_ISOTOPIC_ATOM_COUNT>
0

> <PUBCHEM_COMPONENT_COUNT>
1

> <PUBCHEM_CACTVS_TAUTO_COUNT>
60

> <PUBCHEM_CONFORMER_ID>
00B0FAB800000001

> <PUBCHEM_MMFF94_ENERGY>
105.7921

> <PUBCHEM_FEATURE_SELFOVERLAP>
81.487

> <PUBCHEM_SHAPE_FINGERPRINT>
11062273 23 17534059671943726557
11828532 37 17894916291058859539
12061779 8 15123223403448537289
12120059 9 18337665426494429575
12342043 65 18337674118468539117
12661589 4 17604157016598878483
12975358 362 14332034520664533163
13075007 39 18341322310744783332
13140716 1 17699814562649260984
13583140 156 18123724518305638012
13627175 4 16878237446120367091
13692115 27 17676773150350132597
13782708 43 18188486861583795327
14068700 675 16805319968900630341
14295343 760 18113906004867759627
15183329 4 13767920209887375053
15475509 35 18191299386637574442
15510800 12 18187367649685045483
16992779 147 17488453255734030225
21033648 29 17975110081752903380
21421861 104 17768779037589647578
21585480 29 18127685153364969255
21781055 127 14476962294602778526
21792965 270 18341604959128546944
23522609 53 15625646327923502809
3178227 256 17774999051818665574
397830 11 18411131438217205413
406291 66 17458063785967577011
4144715 1 17911524186178442501
4408954 87 18411975897434054099
5104073 3 17987513715612516633
5951187 136 13757781685596502112
86090 222 18187651254243316683
9849439 229 12535354455246514373

> <PUBCHEM_SHAPE_MULTIPOLES>
694.8
22.27
3.98
3.18
68.95
1.24
0.63
24.97
16
3.31
0.54
-3.12
-0.84
7.03

> <PUBCHEM_SHAPE_SELFOVERLAP>
1476.59

> <PUBCHEM_SHAPE_VOLUME>
384.6

> <PUBCHEM_COORDINATE_TYPE>
2
5
10

$$$$
