11603813
  -OEChem-03292013303D

 50 54  0     1  0  0  0  0  0999 V2000
   -5.7002   -0.9300    0.3972 O   0  0  0  0  0  0  0  0  0  0  0  0
   -4.0574    2.2037    0.5989 O   0  0  0  0  0  0  0  0  0  0  0  0
   -2.2641   -3.3929    0.1970 O   0  0  0  0  0  0  0  0  0  0  0  0
   -6.4361    1.1189    0.9445 O   0  0  0  0  0  0  0  0  0  0  0  0
    6.7987    1.6158    0.2779 O   0  0  0  0  0  0  0  0  0  0  0  0
   -0.8743   -1.5451    0.1729 N   0  0  0  0  0  0  0  0  0  0  0  0
    1.2750    1.3389    0.0837 N   0  0  0  0  0  0  0  0  0  0  0  0
   -4.2849    1.0048   -0.1461 C   0  0  2  0  0  0  0  0  0  0  0  0
   -3.1001    0.0889   -0.0088 C   0  0  0  0  0  0  0  0  0  0  0  0
   -0.7127   -0.1713    0.0994 C   0  0  0  0  0  0  0  0  0  0  0  0
   -3.2837   -1.2426    0.0465 C   0  0  0  0  0  0  0  0  0  0  0  0
    0.4324   -2.2285    0.2650 C   0  0  0  0  0  0  0  0  0  0  0  0
    1.3903   -1.0834    0.2338 C   0  0  0  0  0  0  0  0  0  0  0  0
    0.7127    0.1235    0.1355 C   0  0  0  0  0  0  0  0  0  0  0  0
   -1.7592    0.6531    0.0063 C   0  0  0  0  0  0  0  0  0  0  0  0
   -2.1050   -2.1755    0.1478 C   0  0  0  0  0  0  0  0  0  0  0  0
   -4.5476    1.3722   -1.6084 C   0  0  0  0  0  0  0  0  0  0  0  0
   -4.6501   -1.8360   -0.0067 C   0  0  0  0  0  0  0  0  0  0  0  0
   -5.5531    0.4140    0.4588 C   0  0  0  0  0  0  0  0  0  0  0  0
    2.7639   -1.0610    0.2849 C   0  0  0  0  0  0  0  0  0  0  0  0
    3.4100    0.1854    0.2345 C   0  0  0  0  0  0  0  0  0  0  0  0
    2.6226    1.3674    0.1331 C   0  0  0  0  0  0  0  0  0  0  0  0
   -5.7224    2.3209   -1.7345 C   0  0  0  0  0  0  0  0  0  0  0  0
    4.8101    0.2742    0.2829 C   0  0  0  0  0  0  0  0  0  0  0  0
    3.2845    2.5898    0.0843 C   0  0  0  0  0  0  0  0  0  0  0  0
    5.4412    1.5141    0.2319 C   0  0  0  0  0  0  0  0  0  0  0  0
    5.6676   -0.9513    0.3898 C   0  0  0  0  0  0  0  0  0  0  0  0
    4.6783    2.6713    0.1325 C   0  0  0  0  0  0  0  0  0  0  0  0
    6.0533   -1.5102   -0.9518 C   0  0  0  0  0  0  0  0  0  0  0  0
    5.7102   -2.7293   -1.3827 C   0  0  0  0  0  0  0  0  0  0  0  0
    0.4727   -2.7897    1.2033 H   0  0  0  0  0  0  0  0  0  0  0  0
    0.5435   -2.8979   -0.5931 H   0  0  0  0  0  0  0  0  0  0  0  0
   -1.6274    1.7268   -0.0653 H   0  0  0  0  0  0  0  0  0  0  0  0
   -3.6668    1.8721   -2.0315 H   0  0  0  0  0  0  0  0  0  0  0  0
   -4.7392    0.4783   -2.2148 H   0  0  0  0  0  0  0  0  0  0  0  0
   -4.7203   -2.6908    0.6738 H   0  0  0  0  0  0  0  0  0  0  0  0
   -4.8804   -2.1913   -1.0165 H   0  0  0  0  0  0  0  0  0  0  0  0
    3.2822   -2.0087    0.3555 H   0  0  0  0  0  0  0  0  0  0  0  0
   -5.7965    2.6707   -2.7704 H   0  0  0  0  0  0  0  0  0  0  0  0
   -5.6159    3.2081   -1.1030 H   0  0  0  0  0  0  0  0  0  0  0  0
   -6.6744    1.8338   -1.5038 H   0  0  0  0  0  0  0  0  0  0  0  0
   -3.8352    1.9577    1.5137 H   0  0  0  0  0  0  0  0  0  0  0  0
    2.7120    3.5124    0.0066 H   0  0  0  0  0  0  0  0  0  0  0  0
    6.5960   -0.7138    0.9269 H   0  0  0  0  0  0  0  0  0  0  0  0
    5.2126   -1.7118    1.0344 H   0  0  0  0  0  0  0  0  0  0  0  0
    5.1516    3.6488    0.0914 H   0  0  0  0  0  0  0  0  0  0  0  0
    6.6592   -0.8834   -1.6019 H   0  0  0  0  0  0  0  0  0  0  0  0
    7.0496    2.5543    0.2299 H   0  0  0  0  0  0  0  0  0  0  0  0
    6.0263   -3.0746   -2.3609 H   0  0  0  0  0  0  0  0  0  0  0  0
    5.1155   -3.4010   -0.7739 H   0  0  0  0  0  0  0  0  0  0  0  0
  1 18  1  0  0  0  0
  1 19  1  0  0  0  0
  2  8  1  0  0  0  0
  2 42  1  0  0  0  0
  3 16  2  0  0  0  0
  4 19  2  0  0  0  0
  5 26  1  0  0  0  0
  5 48  1  0  0  0  0
  6 10  1  0  0  0  0
  6 12  1  0  0  0  0
  6 16  1  0  0  0  0
  7 14  2  0  0  0  0
  7 22  1  0  0  0  0
  8  9  1  0  0  0  0
  8 17  1  0  0  0  0
  8 19  1  0  0  0  0
  9 11  2  0  0  0  0
  9 15  1  0  0  0  0
 10 14  1  0  0  0  0
 10 15  2  0  0  0  0
 11 16  1  0  0  0  0
 11 18  1  0  0  0  0
 12 13  1  0  0  0  0
 12 31  1  0  0  0  0
 12 32  1  0  0  0  0
 13 14  1  0  0  0  0
 13 20  2  0  0  0  0
 15 33  1  0  0  0  0
 17 23  1  0  0  0  0
 17 34  1  0  0  0  0
 17 35  1  0  0  0  0
 18 36  1  0  0  0  0
 18 37  1  0  0  0  0
 20 21  1  0  0  0  0
 20 38  1  0  0  0  0
 21 22  2  0  0  0  0
 21 24  1  0  0  0  0
 22 25  1  0  0  0  0
 23 39  1  0  0  0  0
 23 40  1  0  0  0  0
 23 41  1  0  0  0  0
 24 26  2  0  0  0  0
 24 27  1  0  0  0  0
 25 28  2  0  0  0  0
 25 43  1  0  0  0  0
 26 28  1  0  0  0  0
 27 29  1  0  0  0  0
 27 44  1  0  0  0  0
 27 45  1  0  0  0  0
 28 46  1  0  0  0  0
 29 30  2  0  0  0  0
 29 47  1  0  0  0  0
 30 49  1  0  0  0  0
 30 50  1  0  0  0  0
M  END
> <PUBCHEM_COMPOUND_CID>
11603813

> <PUBCHEM_CONFORMER_RMSD>
0.8

> <PUBCHEM_CONFORMER_DIVERSEORDER>
1
2

> <PUBCHEM_MMFF94_PARTIAL_CHARGES>
36
1 -0.43
10 0.08
11 -0.12
12 0.44
13 -0.14
14 0.34
15 -0.15
16 0.62
18 0.42
19 0.66
2 -0.68
20 -0.15
22 0.31
24 -0.14
25 -0.15
26 0.08
27 0.28
28 -0.15
29 -0.29
3 -0.57
30 -0.3
33 0.15
38 0.15
4 -0.57
42 0.4
43 0.15
46 0.15
47 0.15
48 0.45
49 0.15
5 -0.53
50 0.15
6 -0.47
7 -0.62
8 0.48
9 -0.14

> <PUBCHEM_EFFECTIVE_ROTOR_COUNT>
3.8

> <PUBCHEM_PHARMACOPHORE_FEATURES>
13
1 2 acceptor
1 2 donor
1 23 hydrophobe
1 3 acceptor
1 30 hydrophobe
1 4 acceptor
1 5 donor
1 7 acceptor
5 6 10 12 13 14 rings
6 1 8 9 11 18 19 rings
6 21 22 24 25 26 28 rings
6 6 9 10 11 15 16 rings
6 7 13 14 20 21 22 rings

> <PUBCHEM_HEAVY_ATOM_COUNT>
30

> <PUBCHEM_ATOM_DEF_STEREO_COUNT>
1

> <PUBCHEM_ATOM_UDEF_STEREO_COUNT>
0

> <PUBCHEM_BOND_DEF_STEREO_COUNT>
0

> <PUBCHEM_BOND_UDEF_STEREO_COUNT>
0

> <PUBCHEM_ISOTOPIC_ATOM_COUNT>
0

> <PUBCHEM_COMPONENT_COUNT>
1

> <PUBCHEM_CACTVS_TAUTO_COUNT>
3

> <PUBCHEM_CONFORMER_ID>
00B10F6500000001

> <PUBCHEM_MMFF94_ENERGY>
87.7146

> <PUBCHEM_FEATURE_SELFOVERLAP>
66.221

> <PUBCHEM_SHAPE_FINGERPRINT>
10 15 18040435495253771737
10411042 1 17906734701276490130
10835480 77 18343014528249914344
11497681 19 18271238452433983943
11578080 2 16807559570922811735
12107183 9 18263916636425444450
12236239 1 17988925573977417449
12403259 415 18259701177453075805
12788726 201 17417821603902253769
13533116 47 17847061061209236386
13785724 45 18050282571232555770
14341114 176 18410578396336221224
14790565 3 18408886251998547552
14856354 85 15647061468758492491
14904525 67 15647051564732558238
14933364 13 18409732867509823384
15183329 4 18343025471578138386
15196674 1 18410292549109073098
15927050 60 18335419058791747811
17844677 252 18411426124243870914
18608769 82 18337111289180747739
19611394 137 17969799660335171275
21033648 29 18262502767557087929
21236236 1 18339358682094034863
21267235 1 18409455799222585363
21279426 13 18411138009284598574
21315764 268 18336260262295083293
21709351 56 18410005537930054719
21859007 373 18041547032399872668
22393880 68 18334571330608719126
23559900 14 18343300362623419330
249057 3 18412826855177332566
2747138 104 17822304530397021139
3004659 81 18408325480622290706
335352 9 18410856543219725334
350125 39 18410012164779950481
3545911 37 18410856598363346504
4015057 19 18202273736621344745
404807 14 17194626060776370614
4073 2 18115592689990672506
4093350 32 17489872618577583214
4144715 1 18336274512811870826
4214541 1 18337389439013721593
460360 51 18265918976096206026
5104073 3 18335415824484857282
59755656 215 18263360304810683166
9995097 60 18412547634683795290
9996256 80 18410854412520515259

> <PUBCHEM_SHAPE_MULTIPOLES>
578.08
17.36
3.19
0.96
1.91
0.49
0.4
-4.36
1.99
1.07
0.41
-0.56
-0.14
2.18

> <PUBCHEM_SHAPE_SELFOVERLAP>
1302.272

> <PUBCHEM_SHAPE_VOLUME>
303

> <PUBCHEM_COORDINATE_TYPE>
2
5
10

$$$$
