REMARK  Name = 11603813
REMARK  5 active torsions:
REMARK  status: ('A' for Active; 'I' for Inactive)
REMARK    1  A    between atoms: C_6  and  O_24
REMARK    2  A    between atoms: C_6  and  C_28
REMARK    3  A    between atoms: C_20  and  C_30
REMARK    4  A    between atoms: C_22  and  O_26
REMARK    5  A    between atoms: C_30  and  C_31
REMARK                            x       y       z     vdW  Elec       q    Type
REMARK                         _______ _______ _______ _____ _____    ______ ____
ROOT
ATOM      1  O   UNL     1      -5.700  -0.930   0.397  0.00  0.00    -0.442 OA
ATOM      2  O   UNL     1      -2.264  -3.393   0.197  0.00  0.00    -0.270 OA
ATOM      3  O   UNL     1      -6.436   1.119   0.945  0.00  0.00    -0.247 OA
ATOM      4  N   UNL     1      -0.874  -1.545   0.173  0.00  0.00    -0.249 N 
ATOM      5  N   UNL     1       1.275   1.339   0.084  0.00  0.00    -0.405 NA
ATOM      6  C   UNL     1      -4.285   1.005  -0.146  0.00  0.00    +0.196 C 
ATOM      7  C   UNL     1      -3.100   0.089  -0.009  0.00  0.00    +0.017 C 
ATOM      8  C   UNL     1      -0.713  -0.171   0.099  0.00  0.00    +0.084 C 
ATOM      9  C   UNL     1      -3.284  -1.243   0.046  0.00  0.00    +0.074 C 
ATOM     10  C   UNL     1       0.432  -2.228   0.265  0.00  0.00    +0.127 C 
ATOM     11  C   UNL     1       1.390  -1.083   0.234  0.00  0.00    +0.025 C 
ATOM     12  C   UNL     1       0.713   0.123   0.136  0.00  0.00    +0.142 C 
ATOM     13  C   UNL     1      -1.759   0.653   0.006  0.00  0.00    +0.016 C 
ATOM     14  C   UNL     1      -2.105  -2.175   0.148  0.00  0.00    +0.252 C 
ATOM     15  C   UNL     1      -4.650  -1.836  -0.007  0.00  0.00    +0.239 C 
ATOM     16  C   UNL     1      -5.553   0.414   0.459  0.00  0.00    +0.346 C 
ATOM     17  C   UNL     1       2.764  -1.061   0.285  0.00  0.00    -0.015 C 
ATOM     18  C   UNL     1       3.410   0.185   0.234  0.00  0.00    +0.096 C 
ATOM     19  C   UNL     1       2.623   1.367   0.133  0.00  0.00    +0.117 C 
ATOM     20  C   UNL     1       4.810   0.274   0.283  0.00  0.00    +0.004 C 
ATOM     21  C   UNL     1       3.284   2.590   0.084  0.00  0.00    +0.031 C 
ATOM     22  C   UNL     1       5.441   1.514   0.232  0.00  0.00    +0.127 C 
ATOM     23  C   UNL     1       4.678   2.671   0.133  0.00  0.00    +0.038 C 
ENDROOT
BRANCH   6  24
ATOM     24  O   UNL     1      -4.057   2.204   0.599  0.00  0.00    -0.373 OA
ATOM     25  H   UNL     1      -3.258   2.642   0.269  0.00  0.00    +0.211 HD
ENDBRANCH   6  24
BRANCH  22  26
ATOM     26  O   UNL     1       6.799   1.616   0.278  0.00  0.00    -0.506 OA
ATOM     27  H   UNL     1       7.324   0.843   0.345  0.00  0.00    +0.292 HD
ENDBRANCH  22  26
BRANCH   6  28
ATOM     28  C   UNL     1      -4.548   1.372  -1.608  0.00  0.00    +0.042 C 
ATOM     29  C   UNL     1      -5.722   2.321  -1.734  0.00  0.00    +0.003 C 
ENDBRANCH   6  28
BRANCH  20  30
ATOM     30  C   UNL     1       5.668  -0.951   0.390  0.00  0.00    +0.052 C 
BRANCH  30  31
ATOM     31  C   UNL     1       6.053  -1.510  -0.952  0.00  0.00    -0.022 C 
ATOM     32  C   UNL     1       5.710  -2.729  -1.383  0.00  0.00    -0.005 C 
ENDBRANCH  30  31
ENDBRANCH  20  30
TORSDOF 5
