11606263
  -OEChem-03292013303D

 67 66  0     0  0  0  0  0  0999 V2000
    1.8411   -1.1523    1.8806 P   0  0  0  0  0  0  0  0  0  0  0  0
    1.6930   -3.1184   -0.6732 P   0  0  0  0  0  0  0  0  0  0  0  0
    0.6909   -2.0958    2.5109 O   0  0  0  0  0  0  0  0  0  0  0  0
    3.1946   -1.9818    2.1859 O   0  0  0  0  0  0  0  0  0  0  0  0
    0.6176   -3.9418    0.2054 O   0  0  0  0  0  0  0  0  0  0  0  0
    3.1121   -3.6611   -0.1202 O   0  0  0  0  0  0  0  0  0  0  0  0
    1.8334    0.2662    2.3686 O   0  0  0  0  0  0  0  0  0  0  0  0
    1.5110   -3.2017   -2.1598 O   0  0  0  0  0  0  0  0  0  0  0  0
    1.6181   -1.3454    0.0215 C   0  0  0  0  0  0  0  0  0  0  0  0
    0.2671   -0.6959   -0.4212 C   0  0  0  0  0  0  0  0  0  0  0  0
    2.7939   -0.5945   -0.7085 C   0  0  0  0  0  0  0  0  0  0  0  0
   -0.9595   -1.3074    0.1947 C   0  0  0  0  0  0  0  0  0  0  0  0
    2.9105    0.8784   -0.4296 C   0  0  0  0  0  0  0  0  0  0  0  0
   -2.0394   -1.8239   -0.4244 C   0  0  0  0  0  0  0  0  0  0  0  0
    2.8201    1.8990   -1.3050 C   0  0  0  0  0  0  0  0  0  0  0  0
   -3.1603   -2.4336    0.3985 C   0  0  0  0  0  0  0  0  0  0  0  0
    2.9265    3.3307   -0.8118 C   0  0  0  0  0  0  0  0  0  0  0  0
   -2.2331   -1.8904   -1.9140 C   0  0  0  0  0  0  0  0  0  0  0  0
    2.5760    1.7427   -2.7808 C   0  0  0  0  0  0  0  0  0  0  0  0
   -4.5089   -1.7222    0.2260 C   0  0  0  0  0  0  0  0  0  0  0  0
    1.6598    4.1692   -1.0239 C   0  0  0  0  0  0  0  0  0  0  0  0
   -4.4398   -0.2667    0.6002 C   0  0  0  0  0  0  0  0  0  0  0  0
    0.4352    3.5519   -0.4063 C   0  0  0  0  0  0  0  0  0  0  0  0
   -4.7103    0.8045   -0.1696 C   0  0  0  0  0  0  0  0  0  0  0  0
   -0.0629    3.7788    0.8238 C   0  0  0  0  0  0  0  0  0  0  0  0
   -4.5850    2.1957    0.3929 C   0  0  0  0  0  0  0  0  0  0  0  0
   -5.1327    0.7568   -1.6102 C   0  0  0  0  0  0  0  0  0  0  0  0
    0.6260    4.7308    1.7641 C   0  0  0  0  0  0  0  0  0  0  0  0
   -1.2951    3.1282    1.3854 C   0  0  0  0  0  0  0  0  0  0  0  0
    0.2609    0.3570   -0.1162 H   0  0  0  0  0  0  0  0  0  0  0  0
    0.2136   -0.6993   -1.5130 H   0  0  0  0  0  0  0  0  0  0  0  0
    2.7189   -0.7957   -1.7800 H   0  0  0  0  0  0  0  0  0  0  0  0
    3.7389   -1.0543   -0.3935 H   0  0  0  0  0  0  0  0  0  0  0  0
   -1.0104   -1.2526    1.2766 H   0  0  0  0  0  0  0  0  0  0  0  0
    3.1426    1.1353    0.5992 H   0  0  0  0  0  0  0  0  0  0  0  0
    0.5867   -2.1316    3.4855 H   0  0  0  0  0  0  0  0  0  0  0  0
    3.5449   -1.9980    3.1018 H   0  0  0  0  0  0  0  0  0  0  0  0
    0.4606   -4.8881    0.0010 H   0  0  0  0  0  0  0  0  0  0  0  0
    3.4126   -4.5570   -0.3830 H   0  0  0  0  0  0  0  0  0  0  0  0
   -3.2737   -3.4871    0.1122 H   0  0  0  0  0  0  0  0  0  0  0  0
   -2.8988   -2.4444    1.4651 H   0  0  0  0  0  0  0  0  0  0  0  0
    3.7625    3.8155   -1.3322 H   0  0  0  0  0  0  0  0  0  0  0  0
    3.1897    3.3535    0.2539 H   0  0  0  0  0  0  0  0  0  0  0  0
   -2.5893   -2.8848   -2.2044 H   0  0  0  0  0  0  0  0  0  0  0  0
   -1.3135   -1.7179   -2.4769 H   0  0  0  0  0  0  0  0  0  0  0  0
   -2.9679   -1.1519   -2.2432 H   0  0  0  0  0  0  0  0  0  0  0  0
    2.7599    0.7318   -3.1493 H   0  0  0  0  0  0  0  0  0  0  0  0
    1.5439    2.0071   -3.0301 H   0  0  0  0  0  0  0  0  0  0  0  0
    3.2459    2.4019   -3.3437 H   0  0  0  0  0  0  0  0  0  0  0  0
   -5.2417   -2.2046    0.8850 H   0  0  0  0  0  0  0  0  0  0  0  0
   -4.8782   -1.8781   -0.7906 H   0  0  0  0  0  0  0  0  0  0  0  0
    1.8269    5.1873   -0.6564 H   0  0  0  0  0  0  0  0  0  0  0  0
    1.4698    4.2921   -2.0980 H   0  0  0  0  0  0  0  0  0  0  0  0
   -4.1444   -0.0883    1.6338 H   0  0  0  0  0  0  0  0  0  0  0  0
   -0.0955    2.8454   -1.0429 H   0  0  0  0  0  0  0  0  0  0  0  0
   -5.5608    2.6926    0.3853 H   0  0  0  0  0  0  0  0  0  0  0  0
   -3.8937    2.7898   -0.2129 H   0  0  0  0  0  0  0  0  0  0  0  0
   -4.2207    2.1988    1.4252 H   0  0  0  0  0  0  0  0  0  0  0  0
   -5.2907   -0.2526   -1.9930 H   0  0  0  0  0  0  0  0  0  0  0  0
   -6.0759    1.2982   -1.7411 H   0  0  0  0  0  0  0  0  0  0  0  0
   -4.3740    1.2342   -2.2392 H   0  0  0  0  0  0  0  0  0  0  0  0
    0.7608    4.2543    2.7419 H   0  0  0  0  0  0  0  0  0  0  0  0
    0.0109    5.6257    1.9052 H   0  0  0  0  0  0  0  0  0  0  0  0
    1.6192    5.0506    1.4427 H   0  0  0  0  0  0  0  0  0  0  0  0
   -2.0709    3.8766    1.5726 H   0  0  0  0  0  0  0  0  0  0  0  0
   -1.6937    2.3789    0.6951 H   0  0  0  0  0  0  0  0  0  0  0  0
   -1.0650    2.6159    2.3251 H   0  0  0  0  0  0  0  0  0  0  0  0
  1  3  1  0  0  0  0
  1  4  1  0  0  0  0
  1  7  2  0  0  0  0
  1  9  1  0  0  0  0
  2  5  1  0  0  0  0
  2  6  1  0  0  0  0
  2  8  2  0  0  0  0
  2  9  1  0  0  0  0
  3 36  1  0  0  0  0
  4 37  1  0  0  0  0
  5 38  1  0  0  0  0
  6 39  1  0  0  0  0
  9 10  1  0  0  0  0
  9 11  1  0  0  0  0
 10 12  1  0  0  0  0
 10 30  1  0  0  0  0
 10 31  1  0  0  0  0
 11 13  1  0  0  0  0
 11 32  1  0  0  0  0
 11 33  1  0  0  0  0
 12 14  2  0  0  0  0
 12 34  1  0  0  0  0
 13 15  2  0  0  0  0
 13 35  1  0  0  0  0
 14 16  1  0  0  0  0
 14 18  1  0  0  0  0
 15 17  1  0  0  0  0
 15 19  1  0  0  0  0
 16 20  1  0  0  0  0
 16 40  1  0  0  0  0
 16 41  1  0  0  0  0
 17 21  1  0  0  0  0
 17 42  1  0  0  0  0
 17 43  1  0  0  0  0
 18 44  1  0  0  0  0
 18 45  1  0  0  0  0
 18 46  1  0  0  0  0
 19 47  1  0  0  0  0
 19 48  1  0  0  0  0
 19 49  1  0  0  0  0
 20 22  1  0  0  0  0
 20 50  1  0  0  0  0
 20 51  1  0  0  0  0
 21 23  1  0  0  0  0
 21 52  1  0  0  0  0
 21 53  1  0  0  0  0
 22 24  2  0  0  0  0
 22 54  1  0  0  0  0
 23 25  2  0  0  0  0
 23 55  1  0  0  0  0
 24 26  1  0  0  0  0
 24 27  1  0  0  0  0
 25 28  1  0  0  0  0
 25 29  1  0  0  0  0
 26 56  1  0  0  0  0
 26 57  1  0  0  0  0
 26 58  1  0  0  0  0
 27 59  1  0  0  0  0
 27 60  1  0  0  0  0
 27 61  1  0  0  0  0
 28 62  1  0  0  0  0
 28 63  1  0  0  0  0
 28 64  1  0  0  0  0
 29 65  1  0  0  0  0
 29 66  1  0  0  0  0
 29 67  1  0  0  0  0
M  END
> <PUBCHEM_COMPOUND_CID>
11606263

> <PUBCHEM_CONFORMER_RMSD>
1.4

> <PUBCHEM_CONFORMER_DIVERSEORDER>
1
15
77
63
111
52
28
33
60
51
91
103
45
43
110
70
41
79
65
83
6
36
39
76
31
38
92
14
87
25
19
23
108
84
75
86
61
5
104
22
34
85
90
56
98
48
40
46
58
54
107
32
17
62
99
9
66
24
44
11
4
12
64
30
29
55
81
16
78
97
8
89
105
50
26
53
21
67
100
94
73
7
20
101
68
82
96
69
88
71
106
93
47
109
74
102
80
59
72
37
42
3
95
35
10
27
18
2
49
57
13

> <PUBCHEM_MMFF94_PARTIAL_CHARGES>
36
1 1.24
10 0.14
11 0.14
12 -0.29
13 -0.29
14 -0.28
15 -0.28
16 0.14
17 0.14
18 0.14
19 0.14
2 1.24
20 0.14
21 0.14
22 -0.29
23 -0.29
24 -0.28
25 -0.28
26 0.14
27 0.14
28 0.14
29 0.14
3 -0.77
34 0.15
35 0.15
36 0.5
37 0.5
38 0.5
39 0.5
4 -0.77
5 -0.77
54 0.15
55 0.15
6 -0.77
7 -0.7
8 -0.7

> <PUBCHEM_EFFECTIVE_ROTOR_COUNT>
12

> <PUBCHEM_PHARMACOPHORE_FEATURES>
14
1 18 hydrophobe
1 19 hydrophobe
1 3 acceptor
1 4 acceptor
1 5 acceptor
1 6 acceptor
1 7 acceptor
1 8 acceptor
3 24 26 27 hydrophobe
3 25 28 29 hydrophobe
4 1 3 4 7 anion
4 14 16 20 22 hydrophobe
4 15 17 21 23 hydrophobe
4 2 5 6 8 anion

> <PUBCHEM_HEAVY_ATOM_COUNT>
29

> <PUBCHEM_ATOM_DEF_STEREO_COUNT>
0

> <PUBCHEM_ATOM_UDEF_STEREO_COUNT>
0

> <PUBCHEM_BOND_DEF_STEREO_COUNT>
2

> <PUBCHEM_BOND_UDEF_STEREO_COUNT>
0

> <PUBCHEM_ISOTOPIC_ATOM_COUNT>
0

> <PUBCHEM_COMPONENT_COUNT>
1

> <PUBCHEM_CACTVS_TAUTO_COUNT>
1

> <PUBCHEM_CONFORMER_ID>
00B118F700000001

> <PUBCHEM_MMFF94_ENERGY>
-23.8419

> <PUBCHEM_FEATURE_SELFOVERLAP>
71.167

> <PUBCHEM_SHAPE_FINGERPRINT>
11513181 2 17987519200217098253
12769317 202 18337953514433295053
14117953 113 17545887032064800973
14251757 17 17842298118050086997
14466204 15 18339079418609029648
15082195 135 18272078457853077479
15297060 5 17558850411320563273
17977149 70 17044591041523122031
17980427 23 18193808583682722146
20600515 1 17973414660333550441
20764821 26 17545331774244540101
23559900 14 18338518539019853175
35225 105 16897590803629078553
5895379 119 18340487742653462115

> <PUBCHEM_SHAPE_MULTIPOLES>
569.29
7.98
6.63
2.23
11.18
2.26
-0.26
3.13
2.18
-3.98
-1.05
-1.52
-0.16
-0.98

> <PUBCHEM_SHAPE_SELFOVERLAP>
1068.161

> <PUBCHEM_SHAPE_VOLUME>
354.5

> <PUBCHEM_COORDINATE_TYPE>
2
5
10

$$$$
