11602942
  -OEChem-03292013303D

 39 40  0     1  0  0  0  0  0999 V2000
   -3.8762   -0.9515   -0.2285 S   0  0  0  0  0  0  0  0  0  0  0  0
    4.0116   -0.8490    2.3920 F   0  0  0  0  0  0  0  0  0  0  0  0
    4.5978   -1.8232    0.5451 F   0  0  0  0  0  0  0  0  0  0  0  0
    5.1874    0.2362    0.9193 F   0  0  0  0  0  0  0  0  0  0  0  0
   -3.5539    2.0719   -0.7656 O   0  0  0  0  0  0  0  0  0  0  0  0
   -4.5360   -0.4579   -1.4238 O   0  0  0  0  0  0  0  0  0  0  0  0
   -2.5715   -1.5833   -0.3075 O   0  0  0  0  0  0  0  0  0  0  0  0
   -0.6389    0.7673    1.1034 N   0  0  0  0  0  0  0  0  0  0  0  0
    4.9616   -0.2253   -2.4513 N   0  0  0  0  0  0  0  0  0  0  0  0
   -2.8860    1.5590    0.4184 C   0  0  1  0  0  0  0  0  0  0  0  0
   -3.7716    0.3809    0.9310 C   0  0  0  0  0  0  0  0  0  0  0  0
   -1.4870    1.2011    0.1200 C   0  0  0  0  0  0  0  0  0  0  0  0
   -2.9940    2.7192    1.4521 C   0  0  0  0  0  0  0  0  0  0  0  0
   -0.7888    1.2161   -1.0653 C   0  0  0  0  0  0  0  0  0  0  0  0
    0.6035    0.4990    0.5745 C   0  0  0  0  0  0  0  0  0  0  0  0
    0.5363    0.7743   -0.7930 C   0  0  0  0  0  0  0  0  0  0  0  0
   -4.9819   -2.0949    0.5648 C   0  0  0  0  0  0  0  0  0  0  0  0
    1.7700    0.0387    1.1957 C   0  0  0  0  0  0  0  0  0  0  0  0
    1.6883    0.5815   -1.5811 C   0  0  0  0  0  0  0  0  0  0  0  0
    2.9001   -0.1452    0.3938 C   0  0  0  0  0  0  0  0  0  0  0  0
   -5.2066   -3.3274   -0.2823 C   0  0  0  0  0  0  0  0  0  0  0  0
    2.8621    0.1214   -0.9733 C   0  0  0  0  0  0  0  0  0  0  0  0
    4.1511   -0.6387    1.0519 C   0  0  0  0  0  0  0  0  0  0  0  0
    4.0227   -0.0702   -1.7903 C   0  0  0  0  0  0  0  0  0  0  0  0
   -3.3787   -0.0299    1.8670 H   0  0  0  0  0  0  0  0  0  0  0  0
   -4.8005    0.7230    1.0917 H   0  0  0  0  0  0  0  0  0  0  0  0
   -2.5940    2.4295    2.4295 H   0  0  0  0  0  0  0  0  0  0  0  0
   -4.0361    3.0340    1.5796 H   0  0  0  0  0  0  0  0  0  0  0  0
   -2.4404    3.5984    1.1015 H   0  0  0  0  0  0  0  0  0  0  0  0
   -0.8844    0.6554    2.0775 H   0  0  0  0  0  0  0  0  0  0  0  0
   -1.1793    1.5113   -2.0298 H   0  0  0  0  0  0  0  0  0  0  0  0
   -4.5400   -2.3676    1.5276 H   0  0  0  0  0  0  0  0  0  0  0  0
   -5.9276   -1.5735    0.7392 H   0  0  0  0  0  0  0  0  0  0  0  0
   -3.5233    1.3894   -1.4566 H   0  0  0  0  0  0  0  0  0  0  0  0
    1.7788   -0.1632    2.2617 H   0  0  0  0  0  0  0  0  0  0  0  0
    1.6547    0.7903   -2.6476 H   0  0  0  0  0  0  0  0  0  0  0  0
   -5.8890   -4.0174    0.2233 H   0  0  0  0  0  0  0  0  0  0  0  0
   -5.6426   -3.0673   -1.2522 H   0  0  0  0  0  0  0  0  0  0  0  0
   -4.2663   -3.8554   -0.4705 H   0  0  0  0  0  0  0  0  0  0  0  0
  1  6  2  0  0  0  0
  1  7  2  0  0  0  0
  1 11  1  0  0  0  0
  1 17  1  0  0  0  0
  2 23  1  0  0  0  0
  3 23  1  0  0  0  0
  4 23  1  0  0  0  0
  5 10  1  0  0  0  0
  5 34  1  0  0  0  0
  8 12  1  0  0  0  0
  8 15  1  0  0  0  0
  8 30  1  0  0  0  0
  9 24  3  0  0  0  0
 10 11  1  0  0  0  0
 10 12  1  0  0  0  0
 10 13  1  0  0  0  0
 11 25  1  0  0  0  0
 11 26  1  0  0  0  0
 12 14  2  0  0  0  0
 13 27  1  0  0  0  0
 13 28  1  0  0  0  0
 13 29  1  0  0  0  0
 14 16  1  0  0  0  0
 14 31  1  0  0  0  0
 15 16  1  0  0  0  0
 15 18  2  0  0  0  0
 16 19  2  0  0  0  0
 17 21  1  0  0  0  0
 17 32  1  0  0  0  0
 17 33  1  0  0  0  0
 18 20  1  0  0  0  0
 18 35  1  0  0  0  0
 19 22  1  0  0  0  0
 19 36  1  0  0  0  0
 20 22  2  0  0  0  0
 20 23  1  0  0  0  0
 21 37  1  0  0  0  0
 21 38  1  0  0  0  0
 21 39  1  0  0  0  0
 22 24  1  0  0  0  0
M  END
> <PUBCHEM_COMPOUND_CID>
11602942

> <PUBCHEM_CONFORMER_RMSD>
0.8

> <PUBCHEM_CONFORMER_DIVERSEORDER>
1
12
5
3
9
7
11
6
13
8
16
10
4
14
15
2

> <PUBCHEM_MMFF94_PARTIAL_CHARGES>
26
1 1.09
10 0.46
11 0.11
12 -0.33
14 -0.15
15 -0.15
17 0.11
18 -0.15
19 -0.15
2 -0.34
20 -0.14
22 0.07
23 1.16
24 0.48
3 -0.34
30 0.27
31 0.15
34 0.4
35 0.15
36 0.15
4 -0.34
5 -0.68
6 -0.65
7 -0.65
8 0.03
9 -0.56

> <PUBCHEM_EFFECTIVE_ROTOR_COUNT>
5

> <PUBCHEM_PHARMACOPHORE_FEATURES>
9
1 5 acceptor
1 5 donor
1 6 acceptor
1 7 acceptor
1 8 cation
1 8 donor
1 9 acceptor
5 8 12 14 15 16 rings
6 15 16 18 19 20 22 rings

> <PUBCHEM_HEAVY_ATOM_COUNT>
24

> <PUBCHEM_ATOM_DEF_STEREO_COUNT>
1

> <PUBCHEM_ATOM_UDEF_STEREO_COUNT>
0

> <PUBCHEM_BOND_DEF_STEREO_COUNT>
0

> <PUBCHEM_BOND_UDEF_STEREO_COUNT>
0

> <PUBCHEM_ISOTOPIC_ATOM_COUNT>
0

> <PUBCHEM_COMPONENT_COUNT>
1

> <PUBCHEM_CACTVS_TAUTO_COUNT>
1

> <PUBCHEM_CONFORMER_ID>
00B10BFE00000001

> <PUBCHEM_MMFF94_ENERGY>
33.9638

> <PUBCHEM_FEATURE_SELFOVERLAP>
45.784

> <PUBCHEM_SHAPE_FINGERPRINT>
10062212 137 17822292336373067505
10622 236 17823675569372739787
11370993 144 16200164179067255827
11545043 162 17631743672855041988
12236239 1 18040436576941808896
12390115 104 11386631998425946223
12616971 3 17603873251734757392
12633257 1 16558186158955861859
12644460 14 15339115720018871302
12788726 201 18337403741534431195
13583140 156 17560222644612414712
13675066 3 16845287203284445576
13760787 5 16877952607045020180
14178342 30 18271535178290364225
14576447 43 17968383458275601870
14848178 5 18335691758869891835
14950920 106 15051464820554757359
15788980 27 17822294530958839816
17349148 13 17749389256299841138
193927 3 18270687588175180375
200 152 17167858656012864177
20645477 70 16008755688782271456
20739085 24 14620526631225930448
20775530 9 17829617506629888867
21033648 29 16558460881842927072
21065201 7 18130794391157501276
21728266 224 18335976528254875515
23402539 116 17095802114421304456
23557571 272 17917427579724137320
23559900 14 17845102774849250556
23598288 3 17750523866743933413
268830 7 15864360099166028476
2838139 119 14116409221904353305
3004659 81 18335990882278334583
314173 85 18060140977080033027
463206 1 18193833984673841947
5104073 3 13614233768063721030
59682541 52 16009290094452121843
602551 16 18272374182729234110
7970288 3 18265892639447366107
8863177 126 17131841975387020830
90127 26 16702021911821568328

> <PUBCHEM_SHAPE_MULTIPOLES>
448.37
12.03
2.38
1.81
1.75
0.55
0.16
7.45
-0.06
-5.01
-0.41
2.43
0
-0.66

> <PUBCHEM_SHAPE_SELFOVERLAP>
948.556

> <PUBCHEM_SHAPE_VOLUME>
256.1

> <PUBCHEM_COORDINATE_TYPE>
2
5
10

$$$$
