REMARK  Name = 11602942
REMARK  7 active torsions:
REMARK  status: ('A' for Active; 'I' for Inactive)
REMARK    1  A    between atoms: C_2  and  C_17
REMARK    2  A    between atoms: C_8  and  C_14
REMARK    3  A    between atoms: C_9  and  C_16
REMARK    4  A    between atoms: C_17  and  O_19
REMARK    5  A    between atoms: C_17  and  C_21
REMARK    6  A    between atoms: C_21  and  S_22
REMARK    7  A    between atoms: S_22  and  C_25
REMARK                            x       y       z     vdW  Elec       q    Type
REMARK                         _______ _______ _______ _____ _____    ______ ____
ROOT
ATOM      1  N   UNL     1      -0.639   0.767   1.103  0.00  0.00    -0.314 N 
ATOM      2  C   UNL     1      -1.487   1.201   0.120  0.00  0.00    +0.052 C 
ATOM      3  C   UNL     1      -0.789   1.216  -1.065  0.00  0.00    +0.014 C 
ATOM      4  C   UNL     1       0.604   0.499   0.575  0.00  0.00    +0.048 C 
ATOM      5  C   UNL     1       0.536   0.774  -0.793  0.00  0.00    +0.015 C 
ATOM      6  C   UNL     1       1.770   0.039   1.196  0.00  0.00    +0.019 C 
ATOM      7  C   UNL     1       1.688   0.582  -1.581  0.00  0.00    +0.011 C 
ATOM      8  C   UNL     1       2.900  -0.145   0.394  0.00  0.00    +0.082 C 
ATOM      9  C   UNL     1       2.862   0.121  -0.973  0.00  0.00    +0.072 C 
ATOM     10  H   UNL     1      -0.882   0.662   2.052  0.00  0.00    +0.152 HD
ENDROOT
BRANCH   8  14
ATOM     11  F   UNL     1       4.012  -0.849   2.392  0.00  0.00    -0.166 F 
ATOM     12  F   UNL     1       4.598  -1.823   0.545  0.00  0.00    -0.166 F 
ATOM     13  F   UNL     1       5.187   0.236   0.919  0.00  0.00    -0.166 F 
ATOM     14  C   UNL     1       4.151  -0.639   1.052  0.00  0.00    +0.419 C 
ENDBRANCH   8  14
BRANCH   9  16
ATOM     15  N   UNL     1       4.962  -0.225  -2.451  0.00  0.00    -0.191 NA
ATOM     16  C   UNL     1       4.023  -0.070  -1.790  0.00  0.00    +0.100 C 
ENDBRANCH   9  16
BRANCH   2  17
ATOM     17  C   UNL     1      -2.886   1.559   0.418  0.00  0.00    +0.141 C 
ATOM     18  C   UNL     1      -2.994   2.719   1.452  0.00  0.00    +0.037 C 
BRANCH  17  19
ATOM     19  O   UNL     1      -3.554   2.072  -0.766  0.00  0.00    -0.380 OA
ATOM     20  H   UNL     1      -3.530   1.401  -1.466  0.00  0.00    +0.211 HD
ENDBRANCH  17  19
BRANCH  17  21
ATOM     21  C   UNL     1      -3.772   0.381   0.931  0.00  0.00    +0.183 C 
BRANCH  21  22
ATOM     22  S   UNL     1      -3.876  -0.952  -0.229  0.00  0.00    -0.007 S 
ATOM     23  O   UNL     1      -4.536  -0.458  -1.424  0.00  0.00    -0.173 OA
ATOM     24  O   UNL     1      -2.571  -1.583  -0.307  0.00  0.00    -0.173 OA
BRANCH  22  25
ATOM     25  C   UNL     1      -4.982  -2.095   0.565  0.00  0.00    +0.151 C 
ATOM     26  C   UNL     1      -5.207  -3.327  -0.282  0.00  0.00    +0.027 C 
ENDBRANCH  22  25
ENDBRANCH  21  22
ENDBRANCH  17  21
ENDBRANCH   2  17
TORSDOF 7
