REMARK  Name = 11608649
REMARK  3 active torsions:
REMARK  status: ('A' for Active; 'I' for Inactive)
REMARK    1  A    between atoms: N_3  and  O_15
REMARK    2  A    between atoms: C_7  and  C_12
REMARK    3  A    between atoms: O_15  and  S_16
REMARK                            x       y       z     vdW  Elec       q    Type
REMARK                         _______ _______ _______ _____ _____    ______ ____
ROOT
ATOM      1  O   UNL     1       0.239   2.144   0.847  0.00  0.00    -0.250 OA
ATOM      2  N   UNL     1      -1.253   0.746  -0.436  0.00  0.00    -0.254 N 
ATOM      3  N   UNL     1       0.885   0.090  -0.141  0.00  0.00    -0.126 N 
ATOM      4  C   UNL     1       0.120  -1.043  -0.642  0.00  0.00    +0.127 C 
ATOM      5  C   UNL     1      -0.922  -0.272  -1.432  0.00  0.00    +0.118 C 
ATOM      6  C   UNL     1      -0.636  -1.801   0.481  0.00  0.00    +0.026 C 
ATOM      7  C   UNL     1      -2.180   0.313   0.602  0.00  0.00    +0.153 C 
ATOM      8  C   UNL     1      -1.584  -0.911   1.341  0.00  0.00    +0.031 C 
ATOM      9  C   UNL     1       0.032   1.176   0.131  0.00  0.00    +0.332 C 
ENDROOT
BRANCH   7  12
ATOM     10  O   UNL     1      -4.048  -1.083   0.084  0.00  0.00    -0.274 OA
ATOM     11  N   UNL     1      -4.069   1.091  -0.671  0.00  0.00    -0.327 N 
ATOM     12  C   UNL     1      -3.518   0.022  -0.004  0.00  0.00    +0.238 C 
ATOM     13  H   UNL     1      -4.949   1.000  -1.104  0.00  0.00    +0.145 HD
ATOM     14  H   UNL     1      -3.585   1.947  -0.714  0.00  0.00    +0.145 HD
ENDBRANCH   7  12
BRANCH   3  15
ATOM     15  O   UNL     1       1.983  -0.146   0.676  0.00  0.00    -0.094 OA
BRANCH  15  16
ATOM     16  S   UNL     1       3.401  -0.082  -0.149  0.00  0.00    +0.258 S 
ATOM     17  O   UNL     1       4.527  -0.219   1.022  0.00  0.00    -0.020 OA
ATOM     18  O   UNL     1       3.530   1.242  -0.727  0.00  0.00    -0.114 OA
ATOM     19  O   UNL     1       3.492  -1.266  -0.983  0.00  0.00    -0.114 OA
ENDBRANCH  15  16
ENDBRANCH   3  15
TORSDOF 3
