REMARK  Name = 11606263
REMARK  16 active torsions:
REMARK  status: ('A' for Active; 'I' for Inactive)
REMARK    1  A    between atoms: C_1  and  P_2
REMARK    2  A    between atoms: C_1  and  P_8
REMARK    3  A    between atoms: C_1  and  C_14
REMARK    4  A    between atoms: C_1  and  C_24
REMARK    5  A    between atoms: P_2  and  O_4
REMARK    6  A    between atoms: P_2  and  O_6
REMARK    7  A    between atoms: P_8  and  O_10
REMARK    8  A    between atoms: P_8  and  O_12
REMARK    9  A    between atoms: C_14  and  C_15
REMARK   10  A    between atoms: C_16  and  C_18
REMARK   11  A    between atoms: C_18  and  C_19
REMARK   12  A    between atoms: C_19  and  C_20
REMARK   13  A    between atoms: C_24  and  C_25
REMARK   14  A    between atoms: C_26  and  C_28
REMARK   15  A    between atoms: C_28  and  C_29
REMARK   16  A    between atoms: C_29  and  C_30
REMARK                            x       y       z     vdW  Elec       q    Type
REMARK                         _______ _______ _______ _____ _____    ______ ____
ROOT
ATOM      1  C   UNL     1       1.618  -1.345   0.021  0.00  0.00    +0.194 C 
ENDROOT
BRANCH   1   2
ATOM      2  P   UNL     1       1.841  -1.152   1.881  0.00  0.00    +0.347 P 
ATOM      3  O   UNL     1       1.833   0.266   2.369  0.00  0.00    -0.258 OA
BRANCH   2   4
ATOM      4  O   UNL     1       0.691  -2.096   2.511  0.00  0.00    -0.323 OA
ATOM      5  H   UNL     1       0.734  -2.055   3.479  0.00  0.00    +0.220 HD
ENDBRANCH   2   4
BRANCH   2   6
ATOM      6  O   UNL     1       3.195  -1.982   2.186  0.00  0.00    -0.323 OA
ATOM      7  H   UNL     1       3.393  -1.939   3.134  0.00  0.00    +0.220 HD
ENDBRANCH   2   6
ENDBRANCH   1   2
BRANCH   1   8
ATOM      8  P   UNL     1       1.693  -3.118  -0.673  0.00  0.00    +0.347 P 
ATOM      9  O   UNL     1       1.511  -3.202  -2.160  0.00  0.00    -0.258 OA
BRANCH   8  10
ATOM     10  O   UNL     1       0.618  -3.942   0.205  0.00  0.00    -0.323 OA
ATOM     11  H   UNL     1       0.597  -4.865  -0.091  0.00  0.00    +0.220 HD
ENDBRANCH   8  10
BRANCH   8  12
ATOM     12  O   UNL     1       3.112  -3.661  -0.120  0.00  0.00    -0.323 OA
ATOM     13  H   UNL     1       3.250  -4.572  -0.423  0.00  0.00    +0.220 HD
ENDBRANCH   8  12
ENDBRANCH   1   8
BRANCH   1  14
ATOM     14  C   UNL     1       0.267  -0.696  -0.421  0.00  0.00    +0.049 C 
BRANCH  14  15
ATOM     15  C   UNL     1      -0.960  -1.307   0.195  0.00  0.00    -0.033 C 
ATOM     16  C   UNL     1      -2.039  -1.824  -0.424  0.00  0.00    -0.048 C 
ATOM     17  C   UNL     1      -2.233  -1.890  -1.914  0.00  0.00    +0.026 C 
BRANCH  16  18
ATOM     18  C   UNL     1      -3.160  -2.434   0.399  0.00  0.00    +0.026 C 
BRANCH  18  19
ATOM     19  C   UNL     1      -4.509  -1.722   0.226  0.00  0.00    +0.030 C 
BRANCH  19  20
ATOM     20  C   UNL     1      -4.440  -0.267   0.600  0.00  0.00    -0.034 C 
ATOM     21  C   UNL     1      -4.710   0.804  -0.170  0.00  0.00    -0.048 C 
ATOM     22  C   UNL     1      -4.585   2.196   0.393  0.00  0.00    +0.026 C 
ATOM     23  C   UNL     1      -5.133   0.757  -1.610  0.00  0.00    +0.026 C 
ENDBRANCH  19  20
ENDBRANCH  18  19
ENDBRANCH  16  18
ENDBRANCH  14  15
ENDBRANCH   1  14
BRANCH   1  24
ATOM     24  C   UNL     1       2.794  -0.595  -0.709  0.00  0.00    +0.049 C 
BRANCH  24  25
ATOM     25  C   UNL     1       2.910   0.878  -0.430  0.00  0.00    -0.033 C 
ATOM     26  C   UNL     1       2.820   1.899  -1.305  0.00  0.00    -0.048 C 
ATOM     27  C   UNL     1       2.576   1.743  -2.781  0.00  0.00    +0.026 C 
BRANCH  26  28
ATOM     28  C   UNL     1       2.926   3.331  -0.812  0.00  0.00    +0.026 C 
BRANCH  28  29
ATOM     29  C   UNL     1       1.660   4.169  -1.024  0.00  0.00    +0.030 C 
BRANCH  29  30
ATOM     30  C   UNL     1       0.435   3.552  -0.406  0.00  0.00    -0.034 C 
ATOM     31  C   UNL     1      -0.063   3.779   0.824  0.00  0.00    -0.048 C 
ATOM     32  C   UNL     1       0.626   4.731   1.764  0.00  0.00    +0.026 C 
ATOM     33  C   UNL     1      -1.295   3.128   1.385  0.00  0.00    +0.026 C 
ENDBRANCH  29  30
ENDBRANCH  28  29
ENDBRANCH  26  28
ENDBRANCH  24  25
ENDBRANCH   1  24
TORSDOF 16
