REMARK  Name = 11612643
REMARK  8 active torsions:
REMARK  status: ('A' for Active; 'I' for Inactive)
REMARK    1  A    between atoms: C_1  and  O_17
REMARK    2  A    between atoms: C_2  and  O_23
REMARK    3  A    between atoms: C_3  and  C_12
REMARK    4  A    between atoms: O_17  and  C_18
REMARK    5  A    between atoms: C_18  and  C_20
REMARK    6  A    between atoms: C_20  and  O_21
REMARK    7  A    between atoms: O_23  and  C_25
REMARK    8  A    between atoms: C_24  and  S_30
REMARK                            x       y       z     vdW  Elec       q    Type
REMARK                         _______ _______ _______ _____ _____    ______ ____
ROOT
ATOM      1  C   UNL     1      -3.261  -0.780   0.787  0.00  0.00    +0.142 C 
ATOM      2  C   UNL     1      -1.016  -1.473   1.349  0.00  0.00    +0.148 C 
ATOM      3  C   UNL     1      -1.476   0.847   0.855  0.00  0.00    +0.060 C 
ATOM      4  C   UNL     1      -2.359  -1.784   1.139  0.00  0.00    +0.074 C 
ATOM      5  C   UNL     1      -2.820   0.535   0.645  0.00  0.00    +0.042 C 
ATOM      6  C   UNL     1      -0.574  -0.157   1.207  0.00  0.00    +0.042 C 
ENDROOT
BRANCH   3  12
ATOM      7  S   UNL     1       2.672   3.473  -0.301  0.00  0.00    +0.073 S 
ATOM      8  O   UNL     1      -1.826   3.143   0.875  0.00  0.00    -0.270 OA
ATOM      9  N   UNL     1       0.331   2.370   0.352  0.00  0.00    -0.249 N 
ATOM     10  N   UNL     1       0.573   4.808   0.181  0.00  0.00    -0.331 NA
ATOM     11  N   UNL     1       2.836   5.134  -0.417  0.00  0.00    -0.146 NA
ATOM     12  C   UNL     1      -1.016   2.218   0.707  0.00  0.00    +0.252 C 
ATOM     13  C   UNL     1       1.012   3.570   0.123  0.00  0.00    +0.246 C 
ATOM     14  C   UNL     1       1.635   5.639  -0.130  0.00  0.00    +0.074 C 
ATOM     15  C   UNL     1       1.435   7.098  -0.142  0.00  0.00    +0.130 C 
ATOM     16  H   UNL     1       0.855   1.542   0.254  0.00  0.00    +0.158 HD
ENDBRANCH   3  12
BRANCH   1  17
ATOM     17  O   UNL     1      -4.578  -1.086   0.579  0.00  0.00    -0.476 OA
BRANCH  17  18
ATOM     18  C   UNL     1      -4.860  -2.028  -0.455  0.00  0.00    +0.195 C 
ATOM     19  C   UNL     1      -5.568  -3.229   0.153  0.00  0.00    +0.050 C 
BRANCH  18  20
ATOM     20  C   UNL     1      -5.727  -1.341  -1.503  0.00  0.00    +0.185 C 
BRANCH  20  21
ATOM     21  O   UNL     1      -5.005  -0.246  -2.055  0.00  0.00    -0.347 OA
ATOM     22  C   UNL     1      -5.775   0.446  -3.028  0.00  0.00    +0.174 C 
ENDBRANCH  20  21
ENDBRANCH  18  20
ENDBRANCH  17  18
ENDBRANCH   1  17
BRANCH   2  23
ATOM     23  O   UNL     1      -0.136  -2.453   1.693  0.00  0.00    -0.453 OA
BRANCH  23  25
ATOM     24  C   UNL     1       3.547  -2.529  -0.271  0.00  0.00    +0.106 C 
ATOM     25  C   UNL     1       1.086  -2.478   1.042  0.00  0.00    +0.145 C 
ATOM     26  C   UNL     1       3.491  -2.695   1.113  0.00  0.00    +0.021 C 
ATOM     27  C   UNL     1       2.372  -2.339  -0.998  0.00  0.00    +0.021 C 
ATOM     28  C   UNL     1       2.260  -2.669   1.770  0.00  0.00    +0.039 C 
ATOM     29  C   UNL     1       1.142  -2.313  -0.342  0.00  0.00    +0.039 C 
BRANCH  24  30
ATOM     30  S   UNL     1       5.088  -2.559  -1.090  0.00  0.00    +0.010 S 
ATOM     31  O   UNL     1       6.018  -3.324  -0.270  0.00  0.00    -0.169 OA
ATOM     32  O   UNL     1       4.876  -2.933  -2.482  0.00  0.00    -0.169 OA
ATOM     33  C   UNL     1       5.623  -0.863  -1.085  0.00  0.00    +0.182 C 
ENDBRANCH  24  30
ENDBRANCH  23  25
ENDBRANCH   2  23
TORSDOF 8
