11618368
  -OEChem-03292013303D

 54 57  0     0  0  0  0  0  0999 V2000
    0.9756   -0.9045   -0.1716 S   0  0  0  0  0  0  0  0  0  0  0  0
   -7.0068   -1.4465   -0.9680 O   0  0  0  0  0  0  0  0  0  0  0  0
    5.6468   -3.5436   -0.0914 O   0  0  0  0  0  0  0  0  0  0  0  0
   -2.6036    1.9590   -0.2172 O   0  0  0  0  0  0  0  0  0  0  0  0
    1.8888    3.9244    0.5088 O   0  0  0  0  0  0  0  0  0  0  0  0
   -3.8786    0.0460   -0.4702 N   0  0  0  0  0  0  0  0  0  0  0  0
    4.2046   -1.1334    0.0097 N   0  0  0  0  0  0  0  0  0  0  0  0
   -1.5369   -0.1049   -0.2330 N   0  0  0  0  0  0  0  0  0  0  0  0
    0.2164    1.5460    0.0936 N   0  0  0  0  0  0  0  0  0  0  0  0
   -6.4305   -1.1457    0.3057 C   0  0  0  0  0  0  0  0  0  0  0  0
   -5.1056   -1.9132    0.4235 C   0  0  0  0  0  0  0  0  0  0  0  0
   -6.1714    0.3661    0.4006 C   0  0  0  0  0  0  0  0  0  0  0  0
   -4.0497   -1.4121   -0.5674 C   0  0  0  0  0  0  0  0  0  0  0  0
   -5.1161    0.8191   -0.6069 C   0  0  0  0  0  0  0  0  0  0  0  0
   -7.4140   -1.5996    1.3847 C   0  0  0  0  0  0  0  0  0  0  0  0
   -2.6539    0.7283   -0.2879 C   0  0  0  0  0  0  0  0  0  0  0  0
    4.4239   -1.9195    1.2315 C   0  0  0  0  0  0  0  0  0  0  0  0
    5.1675   -1.3760   -1.0702 C   0  0  0  0  0  0  0  0  0  0  0  0
    3.5937    0.1190    0.1312 C   0  0  0  0  0  0  0  0  0  0  0  0
    2.2013    0.2854    0.0613 C   0  0  0  0  0  0  0  0  0  0  0  0
    4.6049   -3.3899    0.8721 C   0  0  0  0  0  0  0  0  0  0  0  0
    5.3093   -2.8755   -1.3066 C   0  0  0  0  0  0  0  0  0  0  0  0
   -0.2123    0.3216   -0.0917 C   0  0  0  0  0  0  0  0  0  0  0  0
    1.6009    1.5422    0.1838 C   0  0  0  0  0  0  0  0  0  0  0  0
    4.3871    1.2520    0.3290 C   0  0  0  0  0  0  0  0  0  0  0  0
    2.4256    2.6706    0.3828 C   0  0  0  0  0  0  0  0  0  0  0  0
    3.8127    2.5122    0.4534 C   0  0  0  0  0  0  0  0  0  0  0  0
    1.7201    4.6725   -0.6898 C   0  0  0  0  0  0  0  0  0  0  0  0
   -5.2666   -2.9835    0.2452 H   0  0  0  0  0  0  0  0  0  0  0  0
   -4.7097   -1.8062    1.4419 H   0  0  0  0  0  0  0  0  0  0  0  0
   -5.8350    0.6227    1.4132 H   0  0  0  0  0  0  0  0  0  0  0  0
   -7.0973    0.9209    0.2066 H   0  0  0  0  0  0  0  0  0  0  0  0
   -3.1386   -1.9795   -0.3928 H   0  0  0  0  0  0  0  0  0  0  0  0
   -4.3623   -1.6254   -1.5966 H   0  0  0  0  0  0  0  0  0  0  0  0
   -5.4743    0.6788   -1.6337 H   0  0  0  0  0  0  0  0  0  0  0  0
   -4.9279    1.8895   -0.4777 H   0  0  0  0  0  0  0  0  0  0  0  0
   -7.0339   -1.3945    2.3907 H   0  0  0  0  0  0  0  0  0  0  0  0
   -8.3783   -1.0922    1.2679 H   0  0  0  0  0  0  0  0  0  0  0  0
   -7.6165   -2.6737    1.3041 H   0  0  0  0  0  0  0  0  0  0  0  0
   -7.1575   -2.4061   -1.0121 H   0  0  0  0  0  0  0  0  0  0  0  0
    3.5808   -1.8178    1.9248 H   0  0  0  0  0  0  0  0  0  0  0  0
    5.3244   -1.5452    1.7339 H   0  0  0  0  0  0  0  0  0  0  0  0
    6.1395   -0.9554   -0.7852 H   0  0  0  0  0  0  0  0  0  0  0  0
    4.8423   -0.8920   -1.9984 H   0  0  0  0  0  0  0  0  0  0  0  0
   -1.6108   -1.1036   -0.3622 H   0  0  0  0  0  0  0  0  0  0  0  0
    4.8835   -3.9606    1.7635 H   0  0  0  0  0  0  0  0  0  0  0  0
    3.6770   -3.8217    0.4776 H   0  0  0  0  0  0  0  0  0  0  0  0
    4.3855   -3.3043   -1.7137 H   0  0  0  0  0  0  0  0  0  0  0  0
    6.1093   -3.0655   -2.0291 H   0  0  0  0  0  0  0  0  0  0  0  0
    5.4693    1.1639    0.3949 H   0  0  0  0  0  0  0  0  0  0  0  0
    4.4519    3.3777    0.6088 H   0  0  0  0  0  0  0  0  0  0  0  0
    1.2795    5.6396   -0.4324 H   0  0  0  0  0  0  0  0  0  0  0  0
    1.0444    4.1528   -1.3765 H   0  0  0  0  0  0  0  0  0  0  0  0
    2.6862    4.8468   -1.1740 H   0  0  0  0  0  0  0  0  0  0  0  0
  1 20  1  0  0  0  0
  1 23  1  0  0  0  0
  2 10  1  0  0  0  0
  2 40  1  0  0  0  0
  3 21  1  0  0  0  0
  3 22  1  0  0  0  0
  4 16  2  0  0  0  0
  5 26  1  0  0  0  0
  5 28  1  0  0  0  0
  6 13  1  0  0  0  0
  6 14  1  0  0  0  0
  6 16  1  0  0  0  0
  7 17  1  0  0  0  0
  7 18  1  0  0  0  0
  7 19  1  0  0  0  0
  8 16  1  0  0  0  0
  8 23  1  0  0  0  0
  8 45  1  0  0  0  0
  9 23  2  0  0  0  0
  9 24  1  0  0  0  0
 10 11  1  0  0  0  0
 10 12  1  0  0  0  0
 10 15  1  0  0  0  0
 11 13  1  0  0  0  0
 11 29  1  0  0  0  0
 11 30  1  0  0  0  0
 12 14  1  0  0  0  0
 12 31  1  0  0  0  0
 12 32  1  0  0  0  0
 13 33  1  0  0  0  0
 13 34  1  0  0  0  0
 14 35  1  0  0  0  0
 14 36  1  0  0  0  0
 15 37  1  0  0  0  0
 15 38  1  0  0  0  0
 15 39  1  0  0  0  0
 17 21  1  0  0  0  0
 17 41  1  0  0  0  0
 17 42  1  0  0  0  0
 18 22  1  0  0  0  0
 18 43  1  0  0  0  0
 18 44  1  0  0  0  0
 19 20  2  0  0  0  0
 19 25  1  0  0  0  0
 20 24  1  0  0  0  0
 21 46  1  0  0  0  0
 21 47  1  0  0  0  0
 22 48  1  0  0  0  0
 22 49  1  0  0  0  0
 24 26  2  0  0  0  0
 25 27  2  0  0  0  0
 25 50  1  0  0  0  0
 26 27  1  0  0  0  0
 27 51  1  0  0  0  0
 28 52  1  0  0  0  0
 28 53  1  0  0  0  0
 28 54  1  0  0  0  0
M  END
> <PUBCHEM_COMPOUND_CID>
11618368

> <PUBCHEM_CONFORMER_RMSD>
0.8

> <PUBCHEM_CONFORMER_DIVERSEORDER>
1
26
27
38
30
28
41
31
25
11
42
44
13
33
8
16
18
29
17
7
20
21
24
5
45
36
37
4
40
19
35
43
10
39
15
12
22
9
6
23
32
3
14
34
2

> <PUBCHEM_MMFF94_PARTIAL_CHARGES>
29
1 -0.08
10 0.28
13 0.3
14 0.3
16 0.69
17 0.37
18 0.37
19 0.1
2 -0.68
20 0.04
21 0.28
22 0.28
23 0.44
24 0.23
25 -0.15
26 0.08
27 -0.15
28 0.28
3 -0.56
4 -0.57
40 0.4
45 0.37
5 -0.36
50 0.15
51 0.15
6 -0.66
7 -0.84
8 -0.49
9 -0.57

> <PUBCHEM_EFFECTIVE_ROTOR_COUNT>
7.4

> <PUBCHEM_PHARMACOPHORE_FEATURES>
11
1 2 acceptor
1 2 donor
1 3 acceptor
1 4 acceptor
1 5 acceptor
1 7 cation
1 8 donor
5 1 9 20 23 24 rings
6 19 20 24 25 26 27 rings
6 3 7 17 18 21 22 rings
6 6 10 11 12 13 14 rings

> <PUBCHEM_HEAVY_ATOM_COUNT>
28

> <PUBCHEM_ATOM_DEF_STEREO_COUNT>
0

> <PUBCHEM_ATOM_UDEF_STEREO_COUNT>
0

> <PUBCHEM_BOND_DEF_STEREO_COUNT>
0

> <PUBCHEM_BOND_UDEF_STEREO_COUNT>
0

> <PUBCHEM_ISOTOPIC_ATOM_COUNT>
0

> <PUBCHEM_COMPONENT_COUNT>
1

> <PUBCHEM_CACTVS_TAUTO_COUNT>
3

> <PUBCHEM_CONFORMER_ID>
00B1484000000001

> <PUBCHEM_MMFF94_ENERGY>
88.8211

> <PUBCHEM_FEATURE_SELFOVERLAP>
55.894

> <PUBCHEM_SHAPE_FINGERPRINT>
10050765 1 18339923710633000584
10411042 1 18339642214597327218
10673678 19 17751938058210240244
10721379 63 18268723856139833916
117089 54 17912092642592018678
12107183 9 18198350550717256521
12166972 35 18187653478714031381
12403259 226 18335695018607794340
12422481 6 17203041881324239102
12616971 3 17917708033178347013
13009979 54 17916873417600643616
13073987 5 18343301457144072545
13533116 47 18412263968925292499
13673619 4 18187085027049694751
13782708 43 18113615660398589883
13785724 45 18270688562963763294
13955234 65 18269833293014979544
14341114 176 18412828005864336957
14347332 77 18410570644009890285
15183329 4 18412825781219334455
15250474 111 17985814063566950279
15927050 60 18053944232541246054
17492 89 18412260627462283281
17844677 252 18411704300992010513
1979834 28 17275106089881302310
20028762 73 18202281381442319879
20505436 4 17487054724652375436
21049683 271 18409173216941072996
21130935 74 18267591381128470331
21267235 1 18342181046779927246
21279426 13 18334287631276422437
22033318 11 17985576423500983065
2303208 19 18040716965930090615
23081809 10 17632294618865468213
23522609 53 18122097279767766781
23559900 14 18409722976548430241
255183 451 18343028757476059718
3004659 81 18333452015229717182
3421961 26 18412820283755770992
34797466 226 16660649595633770463
4073 2 18116997891151184539
4144715 1 18260271888919069497
46194498 28 17749106725231109740
465052 167 18271527503337105774
5104073 3 18202280273377070441
5912855 24 17911796092195072815
6697151 62 18197189521803355733
7970288 3 18194960730567811914
8863177 126 18334581265079409403
9962374 69 18270952557271118311

> <PUBCHEM_SHAPE_MULTIPOLES>
536.68
18.3
4.57
0.99
28.64
2.73
-0.01
-15.64
-0.97
-8.28
-0.02
-0.13
-0.46
1

> <PUBCHEM_SHAPE_SELFOVERLAP>
1129.022

> <PUBCHEM_SHAPE_VOLUME>
304.9

> <PUBCHEM_COORDINATE_TYPE>
2
5
10

$$$$
