11612119
  -OEChem-03292013303D

 62 63  0     1  0  0  0  0  0999 V2000
    3.8409   -1.5584    1.2516 O   0  0  0  0  0  0  0  0  0  0  0  0
   -1.5289    1.2929    0.6677 O   0  0  0  0  0  0  0  0  0  0  0  0
    3.2844    1.3760   -3.0808 O   0  0  0  0  0  0  0  0  0  0  0  0
   -0.5882   -1.0325   -3.0234 O   0  0  0  0  0  0  0  0  0  0  0  0
   -3.6912   -1.6064   -0.2496 O   0  0  0  0  0  0  0  0  0  0  0  0
   -2.1452   -2.6626   -2.6111 O   0  0  0  0  0  0  0  0  0  0  0  0
    5.5008   -0.0186    1.7098 O   0  0  0  0  0  0  0  0  0  0  0  0
   -0.4826    3.2845    1.1542 O   0  0  0  0  0  0  0  0  0  0  0  0
   -4.4153   -2.5413    1.7350 O   0  0  0  0  0  0  0  0  0  0  0  0
    1.4794   -0.9649    1.4021 C   0  0  2  0  0  0  0  0  0  0  0  0
    2.9109   -0.4899    1.0181 C   0  0  2  0  0  0  0  0  0  0  0  0
    0.4134    0.1538    1.5238 C   0  0  0  0  0  0  0  0  0  0  0  0
    3.0870   -0.1397   -0.4645 C   0  0  0  0  0  0  0  0  0  0  0  0
    2.7430    1.3143   -0.7896 C   0  0  0  0  0  0  0  0  0  0  0  0
   -0.2653    0.7292    0.2635 C   0  0  1  0  0  0  0  0  0  0  0  0
    2.1495    1.5330   -2.1974 C   0  0  2  0  0  0  0  0  0  0  0  0
   -0.5198   -0.2154   -0.8663 C   0  0  0  0  0  0  0  0  0  0  0  0
    1.5128   -1.7110    2.7553 C   0  0  0  0  0  0  0  0  0  0  0  0
    1.0827    0.5807   -2.7104 C   0  0  0  0  0  0  0  0  0  0  0  0
    0.0720   -0.1260   -2.1754 C   0  0  0  0  0  0  0  0  0  0  0  0
    1.6721    2.9829   -2.3522 C   0  0  0  0  0  0  0  0  0  0  0  0
   -1.4246   -1.2000   -0.8683 C   0  0  0  0  0  0  0  0  0  0  0  0
   -1.4448   -1.7377   -2.2325 C   0  0  0  0  0  0  0  0  0  0  0  0
   -2.3402   -1.7219    0.1755 C   0  0  0  0  0  0  0  0  0  0  0  0
    5.1005   -1.1686    1.5899 C   0  0  0  0  0  0  0  0  0  0  0  0
   -1.4809    2.5812    1.0897 C   0  0  0  0  0  0  0  0  0  0  0  0
    5.9553   -2.3811    1.8024 C   0  0  0  0  0  0  0  0  0  0  0  0
   -2.8512    3.0222    1.4725 C   0  0  0  0  0  0  0  0  0  0  0  0
   -4.6342   -2.0571    0.6328 C   0  0  0  0  0  0  0  0  0  0  0  0
   -3.8437    2.0331    2.0022 C   0  0  0  0  0  0  0  0  0  0  0  0
   -3.1439    4.3223    1.3216 C   0  0  0  0  0  0  0  0  0  0  0  0
   -6.0043   -1.8728    0.0542 C   0  0  0  0  0  0  0  0  0  0  0  0
    1.1507   -1.7132    0.6712 H   0  0  0  0  0  0  0  0  0  0  0  0
    3.1656    0.3673    1.6550 H   0  0  0  0  0  0  0  0  0  0  0  0
    0.8412    0.9881    2.0970 H   0  0  0  0  0  0  0  0  0  0  0  0
   -0.3935   -0.2143    2.1735 H   0  0  0  0  0  0  0  0  0  0  0  0
    2.5130   -0.8558   -1.0598 H   0  0  0  0  0  0  0  0  0  0  0  0
    4.1254   -0.3078   -0.7812 H   0  0  0  0  0  0  0  0  0  0  0  0
    2.1486    1.7745   -0.0029 H   0  0  0  0  0  0  0  0  0  0  0  0
    3.6907    1.8724   -0.7312 H   0  0  0  0  0  0  0  0  0  0  0  0
    0.3066    1.5538   -0.1395 H   0  0  0  0  0  0  0  0  0  0  0  0
    1.8776   -1.0573    3.5548 H   0  0  0  0  0  0  0  0  0  0  0  0
    0.5146   -2.0675    3.0328 H   0  0  0  0  0  0  0  0  0  0  0  0
    2.1592   -2.5935    2.7116 H   0  0  0  0  0  0  0  0  0  0  0  0
    1.2014    0.4036   -3.7847 H   0  0  0  0  0  0  0  0  0  0  0  0
    2.4811    3.6858   -2.1210 H   0  0  0  0  0  0  0  0  0  0  0  0
    1.3698    3.1941   -3.3851 H   0  0  0  0  0  0  0  0  0  0  0  0
    0.8236    3.2071   -1.6980 H   0  0  0  0  0  0  0  0  0  0  0  0
    3.0290    1.6837   -3.9675 H   0  0  0  0  0  0  0  0  0  0  0  0
   -2.1069   -2.7783    0.3565 H   0  0  0  0  0  0  0  0  0  0  0  0
   -2.2178   -1.1853    1.1207 H   0  0  0  0  0  0  0  0  0  0  0  0
    5.5447   -2.9865    2.6146 H   0  0  0  0  0  0  0  0  0  0  0  0
    6.9663   -2.0681    2.0783 H   0  0  0  0  0  0  0  0  0  0  0  0
    6.0107   -2.9622    0.8784 H   0  0  0  0  0  0  0  0  0  0  0  0
   -4.7543    2.5205    2.3665 H   0  0  0  0  0  0  0  0  0  0  0  0
   -3.4126    1.4723    2.8381 H   0  0  0  0  0  0  0  0  0  0  0  0
   -4.1353    1.3234    1.2210 H   0  0  0  0  0  0  0  0  0  0  0  0
   -4.1245    4.7081    1.5814 H   0  0  0  0  0  0  0  0  0  0  0  0
   -2.4244    5.0358    0.9331 H   0  0  0  0  0  0  0  0  0  0  0  0
   -6.1903   -0.8108   -0.1244 H   0  0  0  0  0  0  0  0  0  0  0  0
   -6.7505   -2.2436    0.7627 H   0  0  0  0  0  0  0  0  0  0  0  0
   -6.0935   -2.4414   -0.8749 H   0  0  0  0  0  0  0  0  0  0  0  0
  1 11  1  0  0  0  0
  1 25  1  0  0  0  0
  2 15  1  0  0  0  0
  2 26  1  0  0  0  0
  3 16  1  0  0  0  0
  3 49  1  0  0  0  0
  4 20  1  0  0  0  0
  4 23  1  0  0  0  0
  5 24  1  0  0  0  0
  5 29  1  0  0  0  0
  6 23  2  0  0  0  0
  7 25  2  0  0  0  0
  8 26  2  0  0  0  0
  9 29  2  0  0  0  0
 10 11  1  0  0  0  0
 10 12  1  0  0  0  0
 10 18  1  0  0  0  0
 10 33  1  0  0  0  0
 11 13  1  0  0  0  0
 11 34  1  0  0  0  0
 12 15  1  0  0  0  0
 12 35  1  0  0  0  0
 12 36  1  0  0  0  0
 13 14  1  0  0  0  0
 13 37  1  0  0  0  0
 13 38  1  0  0  0  0
 14 16  1  0  0  0  0
 14 39  1  0  0  0  0
 14 40  1  0  0  0  0
 15 17  1  0  0  0  0
 15 41  1  0  0  0  0
 16 19  1  0  0  0  0
 16 21  1  0  0  0  0
 17 20  1  0  0  0  0
 17 22  2  0  0  0  0
 18 42  1  0  0  0  0
 18 43  1  0  0  0  0
 18 44  1  0  0  0  0
 19 20  2  0  0  0  0
 19 45  1  0  0  0  0
 21 46  1  0  0  0  0
 21 47  1  0  0  0  0
 21 48  1  0  0  0  0
 22 23  1  0  0  0  0
 22 24  1  0  0  0  0
 24 50  1  0  0  0  0
 24 51  1  0  0  0  0
 25 27  1  0  0  0  0
 26 28  1  0  0  0  0
 27 52  1  0  0  0  0
 27 53  1  0  0  0  0
 27 54  1  0  0  0  0
 28 30  1  0  0  0  0
 28 31  2  0  0  0  0
 29 32  1  0  0  0  0
 30 55  1  0  0  0  0
 30 56  1  0  0  0  0
 30 57  1  0  0  0  0
 31 58  1  0  0  0  0
 31 59  1  0  0  0  0
 32 60  1  0  0  0  0
 32 61  1  0  0  0  0
 32 62  1  0  0  0  0
M  END
> <PUBCHEM_COMPOUND_CID>
11612119

> <PUBCHEM_CONFORMER_RMSD>
1

> <PUBCHEM_CONFORMER_DIVERSEORDER>
1
18
4
7
17
15
10
9
16
3
8
13
5
14
2
6
11
12

> <PUBCHEM_MMFF94_PARTIAL_CHARGES>
30
1 -0.43
11 0.28
15 0.42
16 0.42
17 -0.14
19 -0.29
2 -0.43
20 0.08
22 -0.12
23 0.71
24 0.42
25 0.66
26 0.71
27 0.06
28 -0.12
29 0.66
3 -0.68
30 0.14
31 -0.3
32 0.06
4 -0.23
45 0.15
49 0.4
5 -0.43
58 0.15
59 0.15
6 -0.57
7 -0.57
8 -0.57
9 -0.57

> <PUBCHEM_EFFECTIVE_ROTOR_COUNT>
9.6

> <PUBCHEM_PHARMACOPHORE_FEATURES>
7
1 3 acceptor
1 3 donor
1 6 acceptor
1 7 acceptor
1 8 acceptor
1 9 acceptor
5 4 17 20 22 23 rings

> <PUBCHEM_HEAVY_ATOM_COUNT>
32

> <PUBCHEM_ATOM_DEF_STEREO_COUNT>
4

> <PUBCHEM_ATOM_UDEF_STEREO_COUNT>
0

> <PUBCHEM_BOND_DEF_STEREO_COUNT>
1

> <PUBCHEM_BOND_UDEF_STEREO_COUNT>
0

> <PUBCHEM_ISOTOPIC_ATOM_COUNT>
0

> <PUBCHEM_COMPONENT_COUNT>
1

> <PUBCHEM_CACTVS_TAUTO_COUNT>
1

> <PUBCHEM_CONFORMER_ID>
00B12FD700000001

> <PUBCHEM_MMFF94_ENERGY>
83.0619

> <PUBCHEM_FEATURE_SELFOVERLAP>
35.524

> <PUBCHEM_SHAPE_FINGERPRINT>
11578080 2 16701476575439220857
11607047 191 17338424589418524648
11763715 3 18055898029974456094
12156800 1 18200610106724698620
12597179 24 16342843327605750540
12633046 712 18048023371021323263
12788726 201 18268166390252357785
133893 2 16806191941391892878
13726171 33 17912399612409825425
14028597 1 18120099630949884748
144659 39 17418083339441354328
19319366 153 17686631542247877085
20691752 17 17560527321171595159
21033648 29 16701760327477021027
21285901 2 17272606973250251925
23352939 185 17603297172213998706
23598288 3 18341326717080171897
3052486 1 18200612349203944897
35225 105 17767083593841435837
469060 322 17313935321725400256
513202 73 18130498639536055795
57527293 21 17203032106601106402
57527573 199 17272568309538357064
6669772 16 16699755737057980494

> <PUBCHEM_SHAPE_MULTIPOLES>
605.72
9.82
4.09
3.4
2.82
2.96
-2.05
-6.73
6.44
-4.15
1.25
1.3
0.34
-4.88

> <PUBCHEM_SHAPE_SELFOVERLAP>
1249.617

> <PUBCHEM_SHAPE_VOLUME>
346.5

> <PUBCHEM_COORDINATE_TYPE>
2
5
10

$$$$
