11612643
  -OEChem-03292013303D

 55 57  0     1  0  0  0  0  0999 V2000
    5.0884   -2.5590   -1.0901 S   0  0  0  0  0  0  0  0  0  0  0  0
    2.6721    3.4729   -0.3014 S   0  0  0  0  0  0  0  0  0  0  0  0
   -4.5782   -1.0862    0.5793 O   0  0  0  0  0  0  0  0  0  0  0  0
   -0.1360   -2.4531    1.6929 O   0  0  0  0  0  0  0  0  0  0  0  0
   -5.0051   -0.2460   -2.0549 O   0  0  0  0  0  0  0  0  0  0  0  0
    6.0175   -3.3236   -0.2703 O   0  0  0  0  0  0  0  0  0  0  0  0
    4.8758   -2.9329   -2.4816 O   0  0  0  0  0  0  0  0  0  0  0  0
   -1.8264    3.1434    0.8745 O   0  0  0  0  0  0  0  0  0  0  0  0
    0.3313    2.3697    0.3521 N   0  0  0  0  0  0  0  0  0  0  0  0
    0.5729    4.8076    0.1809 N   0  0  0  0  0  0  0  0  0  0  0  0
    2.8355    5.1343   -0.4170 N   0  0  0  0  0  0  0  0  0  0  0  0
   -4.8600   -2.0278   -0.4549 C   0  0  2  0  0  0  0  0  0  0  0  0
   -3.2611   -0.7802    0.7870 C   0  0  0  0  0  0  0  0  0  0  0  0
   -5.7273   -1.3415   -1.5026 C   0  0  0  0  0  0  0  0  0  0  0  0
   -1.0158   -1.4729    1.3490 C   0  0  0  0  0  0  0  0  0  0  0  0
   -1.4762    0.8467    0.8550 C   0  0  0  0  0  0  0  0  0  0  0  0
   -2.3591   -1.7843    1.1389 C   0  0  0  0  0  0  0  0  0  0  0  0
   -5.5676   -3.2295    0.1530 C   0  0  0  0  0  0  0  0  0  0  0  0
   -2.8196    0.5354    0.6450 C   0  0  0  0  0  0  0  0  0  0  0  0
    3.5469   -2.5294   -0.2705 C   0  0  0  0  0  0  0  0  0  0  0  0
   -0.5743   -0.1574    1.2071 C   0  0  0  0  0  0  0  0  0  0  0  0
    1.0857   -2.4785    1.0417 C   0  0  0  0  0  0  0  0  0  0  0  0
    3.4909   -2.6947    1.1134 C   0  0  0  0  0  0  0  0  0  0  0  0
    2.3723   -2.3386   -0.9982 C   0  0  0  0  0  0  0  0  0  0  0  0
    2.2603   -2.6693    1.7695 C   0  0  0  0  0  0  0  0  0  0  0  0
    1.1417   -2.3134   -0.3421 C   0  0  0  0  0  0  0  0  0  0  0  0
   -1.0157    2.2184    0.7066 C   0  0  0  0  0  0  0  0  0  0  0  0
    5.6235   -0.8628   -1.0854 C   0  0  0  0  0  0  0  0  0  0  0  0
   -5.7748    0.4460   -3.0276 C   0  0  0  0  0  0  0  0  0  0  0  0
    1.0119    3.5695    0.1229 C   0  0  0  0  0  0  0  0  0  0  0  0
    1.6355    5.6390   -0.1301 C   0  0  0  0  0  0  0  0  0  0  0  0
    1.4350    7.0981   -0.1420 C   0  0  0  0  0  0  0  0  0  0  0  0
   -3.9367   -2.3639   -0.9464 H   0  0  0  0  0  0  0  0  0  0  0  0
   -6.6450   -0.9590   -1.0393 H   0  0  0  0  0  0  0  0  0  0  0  0
   -5.9929   -2.0459   -2.2994 H   0  0  0  0  0  0  0  0  0  0  0  0
   -2.6929   -2.8111    1.2614 H   0  0  0  0  0  0  0  0  0  0  0  0
   -6.4909   -2.9254    0.6584 H   0  0  0  0  0  0  0  0  0  0  0  0
   -5.8156   -3.9727   -0.6110 H   0  0  0  0  0  0  0  0  0  0  0  0
   -4.9397   -3.7082    0.9112 H   0  0  0  0  0  0  0  0  0  0  0  0
   -3.5344    1.3052    0.3642 H   0  0  0  0  0  0  0  0  0  0  0  0
    0.4608    0.0754    1.4404 H   0  0  0  0  0  0  0  0  0  0  0  0
    4.3932   -2.8369    1.7014 H   0  0  0  0  0  0  0  0  0  0  0  0
    2.3935   -2.2057   -2.0762 H   0  0  0  0  0  0  0  0  0  0  0  0
    2.2222   -2.7962    2.8479 H   0  0  0  0  0  0  0  0  0  0  0  0
    0.2408   -2.1834   -0.9359 H   0  0  0  0  0  0  0  0  0  0  0  0
    6.5934   -0.8120   -1.5849 H   0  0  0  0  0  0  0  0  0  0  0  0
    4.8936   -0.2582   -1.6270 H   0  0  0  0  0  0  0  0  0  0  0  0
    5.7189   -0.5234   -0.0523 H   0  0  0  0  0  0  0  0  0  0  0  0
    0.9102    1.5514    0.1902 H   0  0  0  0  0  0  0  0  0  0  0  0
   -5.1732    1.2707   -3.4191 H   0  0  0  0  0  0  0  0  0  0  0  0
   -6.6818    0.8599   -2.5764 H   0  0  0  0  0  0  0  0  0  0  0  0
   -6.0353   -0.2197   -3.8560 H   0  0  0  0  0  0  0  0  0  0  0  0
    0.4014    7.3563    0.1093 H   0  0  0  0  0  0  0  0  0  0  0  0
    1.6531    7.5106   -1.1322 H   0  0  0  0  0  0  0  0  0  0  0  0
    2.0900    7.5845    0.5878 H   0  0  0  0  0  0  0  0  0  0  0  0
  1  6  2  0  0  0  0
  1  7  2  0  0  0  0
  1 20  1  0  0  0  0
  1 28  1  0  0  0  0
  2 11  1  0  0  0  0
  2 30  1  0  0  0  0
  3 12  1  0  0  0  0
  3 13  1  0  0  0  0
  4 15  1  0  0  0  0
  4 22  1  0  0  0  0
  5 14  1  0  0  0  0
  5 29  1  0  0  0  0
  8 27  2  0  0  0  0
  9 27  1  0  0  0  0
  9 30  1  0  0  0  0
  9 49  1  0  0  0  0
 10 30  2  0  0  0  0
 10 31  1  0  0  0  0
 11 31  2  0  0  0  0
 12 14  1  0  0  0  0
 12 18  1  0  0  0  0
 12 33  1  0  0  0  0
 13 17  1  0  0  0  0
 13 19  2  0  0  0  0
 14 34  1  0  0  0  0
 14 35  1  0  0  0  0
 15 17  2  0  0  0  0
 15 21  1  0  0  0  0
 16 19  1  0  0  0  0
 16 21  2  0  0  0  0
 16 27  1  0  0  0  0
 17 36  1  0  0  0  0
 18 37  1  0  0  0  0
 18 38  1  0  0  0  0
 18 39  1  0  0  0  0
 19 40  1  0  0  0  0
 20 23  2  0  0  0  0
 20 24  1  0  0  0  0
 21 41  1  0  0  0  0
 22 25  2  0  0  0  0
 22 26  1  0  0  0  0
 23 25  1  0  0  0  0
 23 42  1  0  0  0  0
 24 26  2  0  0  0  0
 24 43  1  0  0  0  0
 25 44  1  0  0  0  0
 26 45  1  0  0  0  0
 28 46  1  0  0  0  0
 28 47  1  0  0  0  0
 28 48  1  0  0  0  0
 29 50  1  0  0  0  0
 29 51  1  0  0  0  0
 29 52  1  0  0  0  0
 31 32  1  0  0  0  0
 32 53  1  0  0  0  0
 32 54  1  0  0  0  0
 32 55  1  0  0  0  0
M  END
> <PUBCHEM_COMPOUND_CID>
11612643

> <PUBCHEM_CONFORMER_RMSD>
1

> <PUBCHEM_CONFORMER_DIVERSEORDER>
1
74
69
103
120
84
114
95
129
116
56
92
78
66
138
117
68
18
43
148
105
30
131
22
147
121
75
90
45
15
79
65
125
87
9
41
34
48
63
113
35
112
36
89
61
127
23
145
118
4
51
13
128
50
144
29
98
53
109
47
111
104
149
88
126
96
139
59
99
110
8
49
28
115
143
73
37
76
32
39
86
40
124
142
102
46
132
2
54
16
93
19
141
136
7
38
12
123
24
21
25
133
122
97
57
5
26
62
14
101
33
58
137
134
85
100
64
82
80
146
119
91
55
107
10
17
31
20
70
140
42
60
135
6
27
81
71
3
150
106
72
11
67
83
94
77
108
52
44
130

> <PUBCHEM_MMFF94_PARTIAL_CHARGES>
39
1 1.2
10 -0.57
11 -0.51
12 0.28
13 0.08
14 0.28
15 0.08
16 0.09
17 -0.15
19 -0.15
2 0.18
20 -0.01
21 -0.15
22 0.08
23 -0.15
24 -0.15
25 -0.15
26 -0.15
27 0.54
28 0.11
29 0.28
3 -0.36
30 0.44
31 0.34
32 0.18
36 0.15
4 -0.17
40 0.15
41 0.15
42 0.15
43 0.15
44 0.15
45 0.15
49 0.37
5 -0.56
6 -0.65
7 -0.65
8 -0.57
9 -0.49

> <PUBCHEM_EFFECTIVE_ROTOR_COUNT>
10

> <PUBCHEM_PHARMACOPHORE_FEATURES>
11
1 3 acceptor
1 4 acceptor
1 5 acceptor
1 6 acceptor
1 7 acceptor
1 8 acceptor
1 9 donor
3 10 11 31 cation
5 2 10 11 30 31 rings
6 13 15 16 17 19 21 rings
6 20 22 23 24 25 26 rings

> <PUBCHEM_HEAVY_ATOM_COUNT>
32

> <PUBCHEM_ATOM_DEF_STEREO_COUNT>
1

> <PUBCHEM_ATOM_UDEF_STEREO_COUNT>
0

> <PUBCHEM_BOND_DEF_STEREO_COUNT>
0

> <PUBCHEM_BOND_UDEF_STEREO_COUNT>
0

> <PUBCHEM_ISOTOPIC_ATOM_COUNT>
0

> <PUBCHEM_COMPONENT_COUNT>
1

> <PUBCHEM_CACTVS_TAUTO_COUNT>
4

> <PUBCHEM_CONFORMER_ID>
00B131E300000001

> <PUBCHEM_MMFF94_ENERGY>
89.9055

> <PUBCHEM_FEATURE_SELFOVERLAP>
55.846

> <PUBCHEM_SHAPE_FINGERPRINT>
10290309 65 17257955100231512392
10556698 54 17610296586597092773
10675989 125 18194405721708104417
11093857 51 17982441896127965168
11477941 20 18270694052127458774
12293681 160 17969222244225391651
12788726 201 17830739755128032728
13757389 114 17766008203045848105
14020679 6 11963978968968700095
14508225 48 18339917117746580427
15198563 99 18196936565192842932
15439362 3 18194123147440720905
15961568 22 18411418428226933826
20642791 239 18189606165006284723
20771845 165 17898848221654285525
21344244 246 18124597745550518447
23559900 14 18410009974642191275
24893989 43 15748857407691229469
3298306 158 18048313645968388929
3388396 114 18338252496424613804
3882209 13 18337657634584815516
4017518 198 17840017787327849984
44802255 64 17251175502543979189
46194498 28 18192691540784661687
5085150 59 17548973812043256480
6608658 132 18050284769437178534
6669772 16 17835528489038799735
6700243 42 17770810938803345110
7808743 9 17688601459600983538

> <PUBCHEM_SHAPE_MULTIPOLES>
616.09
12.25
9.01
1.88
8.52
20.33
1.13
-13.04
8.95
-13.06
0.19
1.44
-1.27
1.34

> <PUBCHEM_SHAPE_SELFOVERLAP>
1281.922

> <PUBCHEM_SHAPE_VOLUME>
353.6

> <PUBCHEM_COORDINATE_TYPE>
2
5
10

$$$$
