REMARK  Name = 11612119
REMARK  9 active torsions:
REMARK  status: ('A' for Active; 'I' for Inactive)
REMARK    1  A    between atoms: C_4  and  O_19
REMARK    2  A    between atoms: C_8  and  O_23
REMARK    3  A    between atoms: C_9  and  O_17
REMARK    4  A    between atoms: C_15  and  C_29
REMARK    5  A    between atoms: O_19  and  C_21
REMARK    6  A    between atoms: O_23  and  C_25
REMARK    7  A    between atoms: C_25  and  C_26
REMARK    8  A    between atoms: C_29  and  O_30
REMARK    9  A    between atoms: O_30  and  C_32
REMARK                            x       y       z     vdW  Elec       q    Type
REMARK                         _______ _______ _______ _____ _____    ______ ____
ROOT
ATOM      1  O   UNL     1      -0.588  -1.032  -3.023  0.00  0.00    -0.422 OA
ATOM      2  O   UNL     1      -2.145  -2.663  -2.611  0.00  0.00    -0.245 OA
ATOM      3  C   UNL     1       1.479  -0.965   1.402  0.00  0.00    +0.044 C 
ATOM      4  C   UNL     1       2.911  -0.490   1.018  0.00  0.00    +0.169 C 
ATOM      5  C   UNL     1       0.413   0.154   1.524  0.00  0.00    +0.052 C 
ATOM      6  C   UNL     1       3.087  -0.140  -0.465  0.00  0.00    +0.046 C 
ATOM      7  C   UNL     1       2.743   1.314  -0.790  0.00  0.00    +0.035 C 
ATOM      8  C   UNL     1      -0.265   0.729   0.264  0.00  0.00    +0.194 C 
ATOM      9  C   UNL     1       2.150   1.533  -2.197  0.00  0.00    +0.110 C 
ATOM     10  C   UNL     1      -0.520  -0.215  -0.866  0.00  0.00    +0.057 C 
ATOM     11  C   UNL     1       1.513  -1.711   2.755  0.00  0.00    +0.004 C 
ATOM     12  C   UNL     1       1.083   0.581  -2.710  0.00  0.00    +0.037 C 
ATOM     13  C   UNL     1       0.072  -0.126  -2.175  0.00  0.00    +0.146 C 
ATOM     14  C   UNL     1       1.672   2.983  -2.352  0.00  0.00    +0.034 C 
ATOM     15  C   UNL     1      -1.425  -1.200  -0.868  0.00  0.00    +0.100 C 
ATOM     16  C   UNL     1      -1.445  -1.738  -2.232  0.00  0.00    +0.345 C 
ENDROOT
BRANCH   9  17
ATOM     17  O   UNL     1       3.284   1.376  -3.081  0.00  0.00    -0.383 OA
ATOM     18  H   UNL     1       3.622   0.469  -3.016  0.00  0.00    +0.211 HD
ENDBRANCH   9  17
BRANCH   4  19
ATOM     19  O   UNL     1       3.841  -1.558   1.252  0.00  0.00    -0.452 OA
BRANCH  19  21
ATOM     20  O   UNL     1       5.501  -0.019   1.710  0.00  0.00    -0.250 OA
ATOM     21  C   UNL     1       5.101  -1.169   1.590  0.00  0.00    +0.317 C 
ATOM     22  C   UNL     1       5.955  -2.381   1.802  0.00  0.00    +0.121 C 
ENDBRANCH  19  21
ENDBRANCH   4  19
BRANCH   8  23
ATOM     23  O   UNL     1      -1.529   1.293   0.668  0.00  0.00    -0.445 OA
BRANCH  23  25
ATOM     24  O   UNL     1      -0.483   3.284   1.154  0.00  0.00    -0.245 OA
ATOM     25  C   UNL     1      -1.481   2.581   1.090  0.00  0.00    +0.337 C 
BRANCH  25  26
ATOM     26  C   UNL     1      -2.851   3.022   1.472  0.00  0.00    +0.054 C 
ATOM     27  C   UNL     1      -3.844   2.033   2.002  0.00  0.00    +0.038 C 
ATOM     28  C   UNL     1      -3.144   4.322   1.322  0.00  0.00    +0.002 C 
ENDBRANCH  25  26
ENDBRANCH  23  25
ENDBRANCH   8  23
BRANCH  15  29
ATOM     29  C   UNL     1      -2.340  -1.722   0.175  0.00  0.00    +0.241 C 
BRANCH  29  30
ATOM     30  O   UNL     1      -3.691  -1.606  -0.250  0.00  0.00    -0.443 OA
BRANCH  30  32
ATOM     31  O   UNL     1      -4.415  -2.541   1.735  0.00  0.00    -0.250 OA
ATOM     32  C   UNL     1      -4.634  -2.057   0.633  0.00  0.00    +0.318 C 
ATOM     33  C   UNL     1      -6.004  -1.873   0.054  0.00  0.00    +0.121 C 
ENDBRANCH  30  32
ENDBRANCH  29  30
ENDBRANCH  15  29
TORSDOF 9
