REMARK  Name = 11612883
REMARK  5 active torsions:
REMARK  status: ('A' for Active; 'I' for Inactive)
REMARK    1  A    between atoms: N_1  and  C_19
REMARK    2  A    between atoms: N_2  and  C_27
REMARK    3  A    between atoms: C_7  and  C_26
REMARK    4  A    between atoms: C_27  and  C_28
REMARK    5  A    between atoms: C_29  and  S_34
REMARK                            x       y       z     vdW  Elec       q    Type
REMARK                         _______ _______ _______ _____ _____    ______ ____
ROOT
ATOM      1  N   UNL     1       0.135  -2.567  -1.317  0.00  0.00    -0.247 N 
ATOM      2  N   UNL     1       2.730   0.249   1.439  0.00  0.00    -0.304 N 
ATOM      3  N   UNL     1       1.414  -1.161   0.059  0.00  0.00    -0.322 NA
ATOM      4  N   UNL     1       2.473  -2.710  -1.454  0.00  0.00    -0.170 NA
ATOM      5  C   UNL     1       2.642  -0.761   0.450  0.00  0.00    +0.199 C 
ATOM      6  C   UNL     1       1.400  -2.125  -0.884  0.00  0.00    +0.150 C 
ATOM      7  C   UNL     1       3.816  -1.281  -0.057  0.00  0.00    +0.136 C 
ATOM      8  C   UNL     1       3.668  -2.263  -1.016  0.00  0.00    +0.119 C 
ATOM      9  H   UNL     1       0.175  -3.271  -2.004  0.00  0.00    +0.165 HD
ATOM     10  H   UNL     1       3.621   0.548   1.731  0.00  0.00    +0.149 HD
ENDROOT
BRANCH   1  19
ATOM     11  O   UNL     1      -6.619  -0.382   1.643  0.00  0.00    -0.275 OA
ATOM     12  N   UNL     1      -5.087  -1.094   0.086  0.00  0.00    -0.284 N 
ATOM     13  C   UNL     1      -3.043  -0.777   2.037  0.00  0.00    +0.037 C 
ATOM     14  C   UNL     1      -2.748  -1.372   0.690  0.00  0.00    -0.007 C 
ATOM     15  C   UNL     1      -4.474  -1.076   2.460  0.00  0.00    +0.090 C 
ATOM     16  C   UNL     1      -3.776  -1.473  -0.255  0.00  0.00    +0.046 C 
ATOM     17  C   UNL     1      -1.446  -1.731   0.328  0.00  0.00    +0.012 C 
ATOM     18  C   UNL     1      -5.486  -0.782   1.371  0.00  0.00    +0.226 C 
ATOM     19  C   UNL     1      -1.179  -2.199  -0.960  0.00  0.00    +0.057 C 
ATOM     20  C   UNL     1      -3.507  -1.922  -1.550  0.00  0.00    +0.016 C 
ATOM     21  C   UNL     1      -2.208  -2.292  -1.897  0.00  0.00    +0.017 C 
ATOM     22  H   UNL     1      -5.758  -1.047  -0.633  0.00  0.00    +0.155 HD
ENDBRANCH   1  19
BRANCH   7  26
ATOM     23  F   UNL     1       6.191  -1.488  -0.256  0.00  0.00    -0.166 F 
ATOM     24  F   UNL     1       5.407   0.491   0.162  0.00  0.00    -0.166 F 
ATOM     25  F   UNL     1       5.385  -1.034   1.712  0.00  0.00    -0.166 F 
ATOM     26  C   UNL     1       5.166  -0.838   0.377  0.00  0.00    +0.424 C 
ENDBRANCH   7  26
BRANCH   2  27
ATOM     27  C   UNL     1       1.579   0.853   2.027  0.00  0.00    +0.116 C 
BRANCH  27  28
ATOM     28  C   UNL     1       1.133   2.039   1.218  0.00  0.00    -0.001 C 
ATOM     29  C   UNL     1      -0.199   2.963  -0.559  0.00  0.00    +0.105 C 
ATOM     30  C   UNL     1       0.215   1.862   0.191  0.00  0.00    +0.016 C 
ATOM     31  C   UNL     1       1.643   3.297   1.508  0.00  0.00    -0.003 C 
ATOM     32  C   UNL     1       0.308   4.231  -0.276  0.00  0.00    +0.018 C 
ATOM     33  C   UNL     1       1.229   4.398   0.758  0.00  0.00    +0.001 C 
BRANCH  29  34
ATOM     34  S   UNL     1      -1.355   2.754  -1.851  0.00  0.00    +0.010 S 
ATOM     35  O   UNL     1      -1.172   3.846  -2.797  0.00  0.00    -0.169 OA
ATOM     36  O   UNL     1      -1.296   1.376  -2.319  0.00  0.00    -0.169 OA
ATOM     37  C   UNL     1      -2.937   2.969  -1.068  0.00  0.00    +0.182 C 
ENDBRANCH  29  34
ENDBRANCH  27  28
ENDBRANCH   2  27
TORSDOF 5
