REMARK  Name = 11617559
REMARK  7 active torsions:
REMARK  status: ('A' for Active; 'I' for Inactive)
REMARK    1  A    between atoms: C_1  and  C_19
REMARK    2  A    between atoms: C_3  and  O_9
REMARK    3  A    between atoms: C_5  and  O_7
REMARK    4  A    between atoms: O_9  and  C_10
REMARK    5  A    between atoms: C_10  and  C_11
REMARK    6  A    between atoms: C_16  and  O_17
REMARK    7  A    between atoms: C_19  and  C_24
REMARK                            x       y       z     vdW  Elec       q    Type
REMARK                         _______ _______ _______ _____ _____    ______ ____
ROOT
ATOM      1  C   UNL     1       2.106   0.421  -1.165  0.00  0.00    -0.014 C 
ATOM      2  C   UNL     1       1.363  -0.741  -0.952  0.00  0.00    +0.036 C 
ATOM      3  C   UNL     1      -0.460   0.584  -0.101  0.00  0.00    +0.173 C 
ATOM      4  C   UNL     1       1.562   1.664  -0.843  0.00  0.00    -0.001 C 
ATOM      5  C   UNL     1       0.077  -0.659  -0.419  0.00  0.00    +0.172 C 
ATOM      6  C   UNL     1       0.276   1.746  -0.310  0.00  0.00    +0.040 C 
ENDROOT
BRANCH   5   7
ATOM      7  O   UNL     1      -0.639  -1.801  -0.218  0.00  0.00    -0.468 OA
ATOM      8  C   UNL     1      -0.501  -2.437   1.051  0.00  0.00    +0.253 C 
ENDBRANCH   5   7
BRANCH   3   9
ATOM      9  O   UNL     1      -1.722   0.677   0.424  0.00  0.00    -0.468 OA
BRANCH   9  10
ATOM     10  C   UNL     1      -2.670   1.433  -0.320  0.00  0.00    +0.232 C 
BRANCH  10  11
ATOM     11  C   UNL     1      -4.040   0.911  -0.051  0.00  0.00    +0.021 C 
ATOM     12  C   UNL     1      -4.793   1.436   1.000  0.00  0.00    +0.002 C 
ATOM     13  C   UNL     1      -4.570  -0.102  -0.850  0.00  0.00    +0.002 C 
ATOM     14  C   UNL     1      -6.075   0.948   1.252  0.00  0.00    +0.037 C 
ATOM     15  C   UNL     1      -5.853  -0.590  -0.598  0.00  0.00    +0.037 C 
ATOM     16  C   UNL     1      -6.605  -0.066   0.453  0.00  0.00    +0.139 C 
BRANCH  16  17
ATOM     17  O   UNL     1      -7.856  -0.542   0.699  0.00  0.00    -0.471 OA
ATOM     18  C   UNL     1      -8.336  -1.578  -0.157  0.00  0.00    +0.252 C 
ENDBRANCH  16  17
ENDBRANCH  10  11
ENDBRANCH   9  10
ENDBRANCH   3   9
BRANCH   1  19
ATOM     19  C   UNL     1       3.481   0.333  -1.735  0.00  0.00    +0.058 C 
BRANCH  19  24
ATOM     20  N   UNL     1       5.976  -1.142   0.690  0.00  0.00    -0.323 NA
ATOM     21  N   UNL     1       6.132   1.262   0.758  0.00  0.00    -0.170 NA
ATOM     22  N   UNL     1       4.420  -2.198  -0.755  0.00  0.00    -0.332 N 
ATOM     23  N   UNL     1       7.507  -0.073   2.111  0.00  0.00    -0.293 N 
ATOM     24  C   UNL     1       4.572   0.196  -0.692  0.00  0.00    +0.047 C 
ATOM     25  C   UNL     1       5.005  -1.015  -0.238  0.00  0.00    +0.188 C 
ATOM     26  C   UNL     1       5.157   1.315  -0.173  0.00  0.00    +0.112 C 
ATOM     27  C   UNL     1       6.488   0.020   1.138  0.00  0.00    +0.143 C 
ATOM     28  H   UNL     1       4.724  -3.078  -0.435  0.00  0.00    +0.145 HD
ATOM     29  H   UNL     1       3.709  -2.139  -1.433  0.00  0.00    +0.145 HD
ATOM     30  H   UNL     1       7.807  -0.956   2.427  0.00  0.00    +0.155 HD
ATOM     31  H   UNL     1       7.918   0.745   2.474  0.00  0.00    +0.155 HD
ENDBRANCH  19  24
ENDBRANCH   1  19
TORSDOF 7
