REMARK  Name = 11611800
REMARK  12 active torsions:
REMARK  status: ('A' for Active; 'I' for Inactive)
REMARK    1  A    between atoms: C_1  and  C_7
REMARK    2  A    between atoms: C_2  and  C_20
REMARK    3  A    between atoms: C_7  and  C_8
REMARK    4  A    between atoms: C_7  and  O_18
REMARK    5  A    between atoms: C_11  and  C_15
REMARK    6  A    between atoms: C_15  and  O_16
REMARK    7  A    between atoms: C_20  and  O_21
REMARK    8  A    between atoms: O_21  and  C_23
REMARK    9  A    between atoms: C_22  and  C_33
REMARK   10  A    between atoms: C_24  and  O_31
REMARK   11  A    between atoms: C_25  and  C_29
REMARK   12  A    between atoms: C_33  and  C_34
REMARK                            x       y       z     vdW  Elec       q    Type
REMARK                         _______ _______ _______ _____ _____    ______ ____
ROOT
ATOM      1  C   UNL     1      -2.604   2.010  -0.579  0.00  0.00    +0.008 C 
ATOM      2  C   UNL     1       0.132   2.149  -0.278  0.00  0.00    +0.021 C 
ATOM      3  C   UNL     1      -2.088   2.709   0.491  0.00  0.00    -0.002 C 
ATOM      4  C   UNL     1      -1.802   1.378  -1.504  0.00  0.00    -0.002 C 
ATOM      5  C   UNL     1      -0.703   2.779   0.643  0.00  0.00    -0.001 C 
ATOM      6  C   UNL     1      -0.417   1.448  -1.352  0.00  0.00    -0.001 C 
ENDROOT
BRANCH   1   7
ATOM      7  C   UNL     1      -4.118   1.934  -0.745  0.00  0.00    +0.155 C 
BRANCH   7   8
ATOM      8  C   UNL     1      -4.746   0.793  -0.018  0.00  0.00    +0.009 C 
ATOM      9  C   UNL     1      -4.908  -0.436  -0.658  0.00  0.00    +0.005 C 
ATOM     10  C   UNL     1      -5.171   0.955   1.300  0.00  0.00    -0.002 C 
ATOM     11  C   UNL     1      -5.496  -1.503   0.022  0.00  0.00    +0.075 C 
ATOM     12  C   UNL     1      -5.759  -0.112   1.979  0.00  0.00    -0.000 C 
ATOM     13  C   UNL     1      -5.922  -1.341   1.340  0.00  0.00    +0.006 C 
BRANCH  11  15
ATOM     14  O   UNL     1      -6.173  -3.792  -0.139  0.00  0.00    -0.245 OA
ATOM     15  C   UNL     1      -5.667  -2.785  -0.644  0.00  0.00    +0.338 C 
BRANCH  15  16
ATOM     16  O   UNL     1      -5.201  -2.773  -1.923  0.00  0.00    -0.477 OA
ATOM     17  H   UNL     1      -4.822  -1.993  -2.277  0.00  0.00    +0.295 HD
ENDBRANCH  15  16
ENDBRANCH  11  15
ENDBRANCH   7   8
BRANCH   7  18
ATOM     18  O   UNL     1      -4.694   3.204  -0.388  0.00  0.00    -0.376 OA
ATOM     19  H   UNL     1      -4.253   3.911  -0.886  0.00  0.00    +0.211 HD
ENDBRANCH   7  18
ENDBRANCH   1   7
BRANCH   2  20
ATOM     20  C   UNL     1       1.613   2.224  -0.116  0.00  0.00    +0.232 C 
BRANCH  20  21
ATOM     21  O   UNL     1       2.057   1.130   0.677  0.00  0.00    -0.471 OA
BRANCH  21  23
ATOM     22  C   UNL     1       3.569  -0.623   0.051  0.00  0.00    +0.045 C 
ATOM     23  C   UNL     1       3.335   0.687   0.457  0.00  0.00    +0.138 C 
ATOM     24  C   UNL     1       4.876  -1.057  -0.168  0.00  0.00    +0.135 C 
ATOM     25  C   UNL     1       5.943  -0.178   0.020  0.00  0.00    +0.068 C 
ATOM     26  C   UNL     1       4.394   1.568   0.646  0.00  0.00    +0.037 C 
ATOM     27  C   UNL     1       5.702   1.134   0.427  0.00  0.00    +0.009 C 
BRANCH  25  29
ATOM     28  O   UNL     1       7.663  -1.791  -0.022  0.00  0.00    -0.291 OA
ATOM     29  C   UNL     1       7.316  -0.608  -0.203  0.00  0.00    +0.176 C 
ATOM     30  C   UNL     1       8.367   0.394  -0.666  0.00  0.00    +0.077 C 
ENDBRANCH  25  29
BRANCH  24  31
ATOM     31  O   UNL     1       5.110  -2.341  -0.566  0.00  0.00    -0.506 OA
ATOM     32  H   UNL     1       4.393  -2.930  -0.692  0.00  0.00    +0.292 HD
ENDBRANCH  24  31
BRANCH  22  33
ATOM     33  C   UNL     1       2.424  -1.564  -0.149  0.00  0.00    +0.033 C 
BRANCH  33  34
ATOM     34  C   UNL     1       2.076  -2.331   1.133  0.00  0.00    +0.005 C 
ATOM     35  C   UNL     1       0.890  -3.261   0.930  0.00  0.00    +0.000 C 
ENDBRANCH  33  34
ENDBRANCH  22  33
ENDBRANCH  21  23
ENDBRANCH  20  21
ENDBRANCH   2  20
TORSDOF 12
