REMARK  Name = 11619470
REMARK  10 active torsions:
REMARK  status: ('A' for Active; 'I' for Inactive)
REMARK    1  A    between atoms: N_2  and  C_22
REMARK    2  A    between atoms: C_3  and  C_8
REMARK    3  A    between atoms: C_11  and  O_15
REMARK    4  A    between atoms: O_15  and  C_16
REMARK    5  A    between atoms: C_16  and  C_17
REMARK    6  A    between atoms: C_17  and  N_18
REMARK    7  A    between atoms: C_22  and  C_23
REMARK    8  A    between atoms: C_24  and  C_25
REMARK    9  A    between atoms: C_26  and  C_33
REMARK   10  A    between atoms: N_32  and  O_35
REMARK                            x       y       z     vdW  Elec       q    Type
REMARK                         _______ _______ _______ _____ _____    ______ ____
ROOT
ATOM      1  O   UNL     1       0.348   3.380  -1.732  0.00  0.00    -0.269 OA
ATOM      2  N   UNL     1      -0.591   2.712   0.255  0.00  0.00    -0.289 N 
ATOM      3  C   UNL     1       0.487   2.753  -0.654  0.00  0.00    +0.260 C 
ATOM      4  H   UNL     1      -0.470   2.217   1.098  0.00  0.00    +0.151 HD
ENDROOT
BRANCH   3   8
ATOM      5  N   UNL     1       1.851   1.433   0.922  0.00  0.00    -0.309 N 
ATOM      6  C   UNL     1       3.784   1.238  -0.175  0.00  0.00    +0.018 C 
ATOM      7  C   UNL     1       3.118   0.901   1.005  0.00  0.00    +0.049 C 
ATOM      8  C   UNL     1       1.694   2.093  -0.267  0.00  0.00    +0.102 C 
ATOM      9  C   UNL     1       2.873   1.991  -0.968  0.00  0.00    +0.021 C 
ATOM     10  C   UNL     1       5.116   0.811  -0.348  0.00  0.00    +0.038 C 
ATOM     11  C   UNL     1       5.730   0.064   0.663  0.00  0.00    +0.139 C 
ATOM     12  C   UNL     1       3.720   0.154   2.025  0.00  0.00    +0.018 C 
ATOM     13  C   UNL     1       5.041  -0.258   1.831  0.00  0.00    +0.038 C 
ATOM     14  H   UNL     1       1.159   1.350   1.616  0.00  0.00    +0.152 HD
BRANCH  11  15
ATOM     15  O   UNL     1       7.017  -0.355   0.502  0.00  0.00    -0.478 OA
BRANCH  15  16
ATOM     16  C   UNL     1       7.455  -0.604  -0.832  0.00  0.00    +0.183 C 
BRANCH  16  17
ATOM     17  C   UNL     1       8.531  -1.677  -0.801  0.00  0.00    -0.029 C 
BRANCH  17  18
ATOM     18  N   UNL     1       8.017  -2.904  -0.213  0.00  0.00    +0.387 N 
ATOM     19  C   UNL     1       6.873  -3.406  -0.978  0.00  0.00    -0.101 C 
ATOM     20  C   UNL     1       9.066  -3.925  -0.144  0.00  0.00    -0.101 C 
ATOM     21  H   UNL     1       7.706  -2.693   0.735  0.00  0.00    -0.080 HD
ENDBRANCH  17  18
ENDBRANCH  16  17
ENDBRANCH  15  16
ENDBRANCH  11  15
ENDBRANCH   3   8
BRANCH   2  22
ATOM     22  C   UNL     1      -1.863   3.356   0.018  0.00  0.00    +0.168 C 
BRANCH  22  23
ATOM     23  C   UNL     1      -2.954   2.382   0.015  0.00  0.00    -0.064 C 
ATOM     24  C   UNL     1      -3.851   1.584   0.012  0.00  0.00    -0.063 C 
BRANCH  24  25
ATOM     25  C   UNL     1      -4.919   0.632   0.010  0.00  0.00    +0.042 C 
ATOM     26  C   UNL     1      -6.998  -1.225   0.010  0.00  0.00    +0.055 C 
ATOM     27  C   UNL     1      -4.675  -0.685  -0.376  0.00  0.00    +0.008 C 
ATOM     28  C   UNL     1      -6.200   1.022   0.396  0.00  0.00    +0.008 C 
ATOM     29  C   UNL     1      -5.716  -1.614  -0.376  0.00  0.00    +0.005 C 
ATOM     30  C   UNL     1      -7.240   0.093   0.396  0.00  0.00    +0.005 C 
BRANCH  26  33
ATOM     31  O   UNL     1      -7.853  -3.408   0.153  0.00  0.00    -0.268 OA
ATOM     32  N   UNL     1      -9.369  -1.703  -0.172  0.00  0.00    -0.193 N 
ATOM     33  C   UNL     1      -8.084  -2.193   0.009  0.00  0.00    +0.268 C 
ATOM     34  H   UNL     1      -9.543  -0.740  -0.285  0.00  0.00    +0.183 HD
BRANCH  32  35
ATOM     35  O   UNL     1     -10.409  -2.644  -0.185  0.00  0.00    -0.295 OA
ATOM     36  H   UNL     1     -11.255  -2.188  -0.318  0.00  0.00    +0.241 HD
ENDBRANCH  32  35
ENDBRANCH  26  33
ENDBRANCH  24  25
ENDBRANCH  22  23
ENDBRANCH   2  22
TORSDOF 10
