11612883
  -OEChem-03292013303D

 54 57  0     0  0  0  0  0  0999 V2000
   -1.3545    2.7543   -1.8513 S   0  0  0  0  0  0  0  0  0  0  0  0
    6.1906   -1.4875   -0.2560 F   0  0  0  0  0  0  0  0  0  0  0  0
    5.4066    0.4909    0.1623 F   0  0  0  0  0  0  0  0  0  0  0  0
    5.3846   -1.0343    1.7121 F   0  0  0  0  0  0  0  0  0  0  0  0
   -6.6185   -0.3819    1.6427 O   0  0  0  0  0  0  0  0  0  0  0  0
   -1.1719    3.8464   -2.7971 O   0  0  0  0  0  0  0  0  0  0  0  0
   -1.2964    1.3762   -2.3194 O   0  0  0  0  0  0  0  0  0  0  0  0
   -5.0869   -1.0936    0.0857 N   0  0  0  0  0  0  0  0  0  0  0  0
    0.1348   -2.5669   -1.3168 N   0  0  0  0  0  0  0  0  0  0  0  0
    2.7296    0.2494    1.4387 N   0  0  0  0  0  0  0  0  0  0  0  0
    1.4142   -1.1610    0.0586 N   0  0  0  0  0  0  0  0  0  0  0  0
    2.4729   -2.7096   -1.4541 N   0  0  0  0  0  0  0  0  0  0  0  0
   -3.0433   -0.7771    2.0370 C   0  0  0  0  0  0  0  0  0  0  0  0
   -2.7482   -1.3718    0.6903 C   0  0  0  0  0  0  0  0  0  0  0  0
   -4.4736   -1.0764    2.4604 C   0  0  0  0  0  0  0  0  0  0  0  0
   -3.7763   -1.4730   -0.2554 C   0  0  0  0  0  0  0  0  0  0  0  0
   -1.4457   -1.7314    0.3283 C   0  0  0  0  0  0  0  0  0  0  0  0
   -5.4864   -0.7819    1.3712 C   0  0  0  0  0  0  0  0  0  0  0  0
   -1.1793   -2.1989   -0.9595 C   0  0  0  0  0  0  0  0  0  0  0  0
   -3.5067   -1.9222   -1.5502 C   0  0  0  0  0  0  0  0  0  0  0  0
   -2.2075   -2.2917   -1.8973 C   0  0  0  0  0  0  0  0  0  0  0  0
    1.1326    2.0388    1.2181 C   0  0  0  0  0  0  0  0  0  0  0  0
    1.5786    0.8528    2.0275 C   0  0  0  0  0  0  0  0  0  0  0  0
   -0.1993    2.9626   -0.5594 C   0  0  0  0  0  0  0  0  0  0  0  0
    0.2150    1.8619    0.1906 C   0  0  0  0  0  0  0  0  0  0  0  0
    2.6421   -0.7615    0.4500 C   0  0  0  0  0  0  0  0  0  0  0  0
    1.3999   -2.1252   -0.8838 C   0  0  0  0  0  0  0  0  0  0  0  0
    1.6432    3.2974    1.5085 C   0  0  0  0  0  0  0  0  0  0  0  0
    3.8155   -1.2813   -0.0573 C   0  0  0  0  0  0  0  0  0  0  0  0
    0.3078    4.2306   -0.2755 C   0  0  0  0  0  0  0  0  0  0  0  0
    1.2290    4.3979    0.7585 C   0  0  0  0  0  0  0  0  0  0  0  0
    3.6683   -2.2625   -1.0163 C   0  0  0  0  0  0  0  0  0  0  0  0
   -2.9369    2.9689   -1.0681 C   0  0  0  0  0  0  0  0  0  0  0  0
    5.1663   -0.8384    0.3771 C   0  0  0  0  0  0  0  0  0  0  0  0
   -2.8895    0.3073    1.9742 H   0  0  0  0  0  0  0  0  0  0  0  0
   -2.3543   -1.1703    2.7933 H   0  0  0  0  0  0  0  0  0  0  0  0
   -4.5787   -2.1372    2.7204 H   0  0  0  0  0  0  0  0  0  0  0  0
   -4.7259   -0.4873    3.3489 H   0  0  0  0  0  0  0  0  0  0  0  0
   -0.6738   -1.6708    1.0881 H   0  0  0  0  0  0  0  0  0  0  0  0
   -5.7753   -1.0434   -0.6600 H   0  0  0  0  0  0  0  0  0  0  0  0
   -4.2982   -1.9939   -2.2915 H   0  0  0  0  0  0  0  0  0  0  0  0
   -2.0078   -2.6460   -2.9055 H   0  0  0  0  0  0  0  0  0  0  0  0
    0.7548    0.1429    2.1736 H   0  0  0  0  0  0  0  0  0  0  0  0
    1.8371    1.1884    3.0400 H   0  0  0  0  0  0  0  0  0  0  0  0
    0.1918   -3.1929   -2.1146 H   0  0  0  0  0  0  0  0  0  0  0  0
   -0.1967    0.8812   -0.0144 H   0  0  0  0  0  0  0  0  0  0  0  0
    3.6144    0.7379    1.5244 H   0  0  0  0  0  0  0  0  0  0  0  0
    2.3624    3.4394    2.3104 H   0  0  0  0  0  0  0  0  0  0  0  0
   -0.0061    5.1032   -0.8415 H   0  0  0  0  0  0  0  0  0  0  0  0
    1.6228    5.3854    0.9805 H   0  0  0  0  0  0  0  0  0  0  0  0
    4.5235   -2.7406   -1.4828 H   0  0  0  0  0  0  0  0  0  0  0  0
   -3.7106    2.8538   -1.8302 H   0  0  0  0  0  0  0  0  0  0  0  0
   -2.9865    3.9698   -0.6353 H   0  0  0  0  0  0  0  0  0  0  0  0
   -3.0580    2.2053   -0.2972 H   0  0  0  0  0  0  0  0  0  0  0  0
  1  6  2  0  0  0  0
  1  7  2  0  0  0  0
  1 24  1  0  0  0  0
  1 33  1  0  0  0  0
  2 34  1  0  0  0  0
  3 34  1  0  0  0  0
  4 34  1  0  0  0  0
  5 18  2  0  0  0  0
  8 16  1  0  0  0  0
  8 18  1  0  0  0  0
  8 40  1  0  0  0  0
  9 19  1  0  0  0  0
  9 27  1  0  0  0  0
  9 45  1  0  0  0  0
 10 23  1  0  0  0  0
 10 26  1  0  0  0  0
 10 47  1  0  0  0  0
 11 26  2  0  0  0  0
 11 27  1  0  0  0  0
 12 27  2  0  0  0  0
 12 32  1  0  0  0  0
 13 14  1  0  0  0  0
 13 15  1  0  0  0  0
 13 35  1  0  0  0  0
 13 36  1  0  0  0  0
 14 16  2  0  0  0  0
 14 17  1  0  0  0  0
 15 18  1  0  0  0  0
 15 37  1  0  0  0  0
 15 38  1  0  0  0  0
 16 20  1  0  0  0  0
 17 19  2  0  0  0  0
 17 39  1  0  0  0  0
 19 21  1  0  0  0  0
 20 21  2  0  0  0  0
 20 41  1  0  0  0  0
 21 42  1  0  0  0  0
 22 23  1  0  0  0  0
 22 25  2  0  0  0  0
 22 28  1  0  0  0  0
 23 43  1  0  0  0  0
 23 44  1  0  0  0  0
 24 25  1  0  0  0  0
 24 30  2  0  0  0  0
 25 46  1  0  0  0  0
 26 29  1  0  0  0  0
 28 31  2  0  0  0  0
 28 48  1  0  0  0  0
 29 32  2  0  0  0  0
 29 34  1  0  0  0  0
 30 31  1  0  0  0  0
 30 49  1  0  0  0  0
 31 50  1  0  0  0  0
 32 51  1  0  0  0  0
 33 52  1  0  0  0  0
 33 53  1  0  0  0  0
 33 54  1  0  0  0  0
M  END
> <PUBCHEM_COMPOUND_CID>
11612883

> <PUBCHEM_CONFORMER_RMSD>
1

> <PUBCHEM_CONFORMER_DIVERSEORDER>
1
274
299
26
282
323
138
144
230
385
141
280
291
89
122
319
64
172
377
107
93
346
269
100
168
372
60
185
238
218
297
182
279
155
339
317
196
386
87
229
316
304
371
106
329
251
38
34
109
324
121
74
16
355
312
236
113
320
354
237
286
326
10
207
46
239
156
102
170
300
200
267
18
81
181
252
380
233
43
175
361
313
194
178
343
9
67
220
224
203
129
336
40
333
140
130
2
308
55
183
357
76
321
157
152
311
75
134
169
318
4
91
212
322
259
255
27
115
173
328
179
139
150
191
158
275
360
119
30
204
243
375
136
112
167
146
41
353
51
241
266
62
31
120
88
187
342
332
376
24
226
95
103
163
151
234
363
65
11
98
215
131
142
171
124
290
97
101
245
253
201
219
283
164
310
247
216
7
44
261
349
48
123
273
227
166
352
13
362
126
368
284
94
373
145
125
262
301
208
66
105
345
147
213
240
305
33
378
197
214
116
22
232
137
61
265
199
210
58
29
249
288
382
250
351
78
114
72
271
86
186
307
135
79
217
278
302
148
52
334
20
23
331
118
154
49
246
379
110
84
222
63
71
374
344
350
3
36
248
292
337
365
177
387
184
242
315
335
174
383
263
37
270
85
77
143
276
347
12
254
57
160
381
340
80
190
268
327
359
8
189
206
264
15
56
367
338
25
39
298
211
47
165
99
96
257
225
59
294
309
221
303
153
108
205
295
50
209
296
277
32
341
314
161
223
287
293
348
35
198
272
90
17
117
231
111
180
70
54
159
176
14
6
53
127
281
325
228
285
104
19
162
356
330
128
21
45
366
244
370
384
256
235
83
133
258
73
202
5
149
82
369
132
28
358
188
260
42
68
289
195
192
193
306
69
92
364

> <PUBCHEM_MMFF94_PARTIAL_CHARGES>
45
1 1.2
10 -0.87
11 -0.62
12 -0.62
13 0.14
14 -0.14
15 0.06
16 0.12
17 -0.15
18 0.57
19 0.1
2 -0.34
20 -0.15
21 -0.15
22 -0.14
23 0.51
24 -0.01
25 -0.15
26 0.41
27 0.72
28 -0.15
29 -0.14
3 -0.34
30 -0.15
31 -0.15
32 0.16
33 0.11
34 1.16
39 0.15
4 -0.34
40 0.37
41 0.15
42 0.15
45 0.4
46 0.15
47 0.4
48 0.15
49 0.15
5 -0.57
50 0.15
51 0.15
6 -0.65
7 -0.65
8 -0.55
9 -0.6

> <PUBCHEM_EFFECTIVE_ROTOR_COUNT>
7.6

> <PUBCHEM_PHARMACOPHORE_FEATURES>
11
1 10 donor
1 5 acceptor
1 6 acceptor
1 7 acceptor
1 8 donor
1 9 donor
4 9 11 12 27 cation
6 11 12 26 27 29 32 rings
6 14 16 17 19 20 21 rings
6 22 24 25 28 30 31 rings
6 8 13 14 15 16 18 rings

> <PUBCHEM_HEAVY_ATOM_COUNT>
34

> <PUBCHEM_ATOM_DEF_STEREO_COUNT>
0

> <PUBCHEM_ATOM_UDEF_STEREO_COUNT>
0

> <PUBCHEM_BOND_DEF_STEREO_COUNT>
0

> <PUBCHEM_BOND_UDEF_STEREO_COUNT>
0

> <PUBCHEM_ISOTOPIC_ATOM_COUNT>
0

> <PUBCHEM_COMPONENT_COUNT>
1

> <PUBCHEM_CACTVS_TAUTO_COUNT>
12

> <PUBCHEM_CONFORMER_ID>
00B132D300000001

> <PUBCHEM_MMFF94_ENERGY>
92.4489

> <PUBCHEM_FEATURE_SELFOVERLAP>
55.865

> <PUBCHEM_SHAPE_FINGERPRINT>
10675989 125 16680891252514932172
10688039 33 18261117343939576414
11421498 54 17676204632937388802
11513181 2 17341814778935266566
11607047 403 16020332734405791307
12156800 1 17338485161199770869
12422481 6 18413106186300373601
12633257 1 18060143184250189427
12788726 201 18261673680339941482
13165054 342 17168696415671042253
133893 2 17976541929365019671
13402501 40 18268138778208454733
13965767 371 18053364772279767665
14363568 33 18192434288568775820
14840074 17 18339370780705398844
15721738 202 15285357310549285497
16993438 75 18122621648087269129
17980427 23 17704077313316342487
18336668 15 18060423533845495851
20739085 24 18270682090474318210
20764821 26 18269815615050486140
238 59 17114937791183773668
3380486 145 18271241629844138583
35225 105 17826776054744264549
4409770 3 18124585397740822294
44802255 64 13183018527796479186
469060 322 17824000960046243961
5081480 168 18188492492444214853
513202 73 18195533597584746234
6376802 137 16048402751035895178

> <PUBCHEM_SHAPE_MULTIPOLES>
639.22
10.62
5.27
2.32
0.04
6.54
0.17
-8.09
-5.19
-1.47
2.43
1.91
0.68
1.78

> <PUBCHEM_SHAPE_SELFOVERLAP>
1380.438

> <PUBCHEM_SHAPE_VOLUME>
353.9

> <PUBCHEM_COORDINATE_TYPE>
2
5
10

$$$$
