REMARK  Name = 11627443
REMARK  9 active torsions:
REMARK  status: ('A' for Active; 'I' for Inactive)
REMARK    1  A    between atoms: N_1  and  C_14
REMARK    2  A    between atoms: C_9  and  C_30
REMARK    3  A    between atoms: C_11  and  C_17
REMARK    4  A    between atoms: C_12  and  O_22
REMARK    5  A    between atoms: C_13  and  O_24
REMARK    6  A    between atoms: N_16  and  C_19
REMARK    7  A    between atoms: C_29  and  C_31
REMARK    8  A    between atoms: C_31  and  C_34
REMARK    9  A    between atoms: C_39  and  O_40
REMARK                            x       y       z     vdW  Elec       q    Type
REMARK                         _______ _______ _______ _____ _____    ______ ____
ROOT
ATOM      1  N   UNL     1       4.410  -0.157   0.445  0.00  0.00    -0.236 N 
ATOM      2  N   UNL     1       5.286  -2.106   1.082  0.00  0.00    -0.240 NA
ATOM      3  N   UNL     1       2.224  -0.907  -0.302  0.00  0.00    -0.316 NA
ATOM      4  N   UNL     1       1.976  -3.321  -0.036  0.00  0.00    -0.317 NA
ATOM      5  C   UNL     1       3.450  -1.099   0.209  0.00  0.00    +0.221 C 
ATOM      6  C   UNL     1       5.495  -0.811   0.968  0.00  0.00    +0.224 C 
ATOM      7  C   UNL     1       4.012  -2.300   0.611  0.00  0.00    +0.167 C 
ATOM      8  C   UNL     1       3.226  -3.440   0.474  0.00  0.00    +0.211 C 
ATOM      9  C   UNL     1       1.559  -2.080  -0.387  0.00  0.00    +0.188 C 
ATOM     10  N   UNL     1       3.716  -4.700   0.856  0.00  0.00    -0.331 N 
ATOM     11  H   UNL     1       3.150  -5.499   0.755  0.00  0.00    +0.145 HD
ATOM     12  H   UNL     1       4.624  -4.784   1.226  0.00  0.00    +0.145 HD
ENDROOT
BRANCH   1  17
ATOM     13  O   UNL     1       3.264   1.836   1.004  0.00  0.00    -0.326 OA
ATOM     14  C   UNL     1       2.582   2.846   0.245  0.00  0.00    +0.222 C 
ATOM     15  C   UNL     1       3.307   2.987  -1.085  0.00  0.00    +0.178 C 
ATOM     16  C   UNL     1       3.961   1.629  -1.247  0.00  0.00    +0.187 C 
ATOM     17  C   UNL     1       4.312   1.278   0.191  0.00  0.00    +0.226 C 
BRANCH  14  20
ATOM     18  O   UNL     1       0.657   2.235  -1.022  0.00  0.00    -0.272 OA
ATOM     19  N   UNL     1       0.550   2.139   1.298  0.00  0.00    -0.304 N 
ATOM     20  C   UNL     1       1.175   2.370   0.083  0.00  0.00    +0.252 C 
ATOM     21  H   UNL     1       1.061   2.279   2.127  0.00  0.00    +0.149 HD
BRANCH  19  22
ATOM     22  C   UNL     1      -0.814   1.703   1.392  0.00  0.00    +0.072 C 
ATOM     23  C   UNL     1      -1.627   1.964   2.626  0.00  0.00    +0.021 C 
ATOM     24  C   UNL     1      -1.948   2.685   1.349  0.00  0.00    +0.021 C 
ENDBRANCH  19  22
ENDBRANCH  14  20
BRANCH  15  25
ATOM     25  O   UNL     1       4.303   4.000  -0.961  0.00  0.00    -0.379 OA
ATOM     26  H   UNL     1       3.874   4.864  -0.857  0.00  0.00    +0.211 HD
ENDBRANCH  15  25
BRANCH  16  27
ATOM     27  O   UNL     1       5.104   1.659  -2.077  0.00  0.00    -0.378 OA
ATOM     28  H   UNL     1       4.841   1.885  -2.983  0.00  0.00    +0.211 HD
ENDBRANCH  16  27
ENDBRANCH   1  17
BRANCH   9  30
ATOM     29  C   UNL     1      -0.880  -1.936  -1.365  0.00  0.00    -0.074 C 
ATOM     30  C   UNL     1       0.234  -2.003  -0.919  0.00  0.00    +0.032 C 
BRANCH  29  31
ATOM     31  C   UNL     1      -2.236  -1.861  -1.914  0.00  0.00    +0.077 C 
BRANCH  31  34
ATOM     32  O   UNL     1      -7.253  -0.623   1.568  0.00  0.00    -0.226 OA
ATOM     33  N   UNL     1      -5.579  -0.022   0.072  0.00  0.00    -0.246 N 
ATOM     34  C   UNL     1      -3.084  -0.853  -1.142  0.00  0.00    +0.016 C 
ATOM     35  C   UNL     1      -3.580  -1.456   0.181  0.00  0.00    +0.023 C 
ATOM     36  C   UNL     1      -4.275  -0.379  -1.989  0.00  0.00    +0.023 C 
ATOM     37  C   UNL     1      -4.486  -0.481   0.928  0.00  0.00    +0.097 C 
ATOM     38  C   UNL     1      -5.169   0.577  -1.202  0.00  0.00    +0.097 C 
ATOM     39  C   UNL     1      -6.905  -0.121   0.501  0.00  0.00    +0.405 C 
BRANCH  39  40
ATOM     40  O   UNL     1      -7.793   0.405  -0.400  0.00  0.00    -0.430 OA
ATOM     41  C   UNL     1      -9.176   0.343  -0.034  0.00  0.00    +0.257 C 
ENDBRANCH  39  40
ENDBRANCH  31  34
ENDBRANCH  29  31
ENDBRANCH   9  30
TORSDOF 9
