REMARK  Name = 11624303
REMARK  5 active torsions:
REMARK  status: ('A' for Active; 'I' for Inactive)
REMARK    1  A    between atoms: N_4  and  C_12
REMARK    2  A    between atoms: N_5  and  C_28
REMARK    3  A    between atoms: C_8  and  C_20
REMARK    4  A    between atoms: C_10  and  O_26
REMARK    5  A    between atoms: C_23  and  O_24
REMARK                            x       y       z     vdW  Elec       q    Type
REMARK                         _______ _______ _______ _____ _____    ______ ____
ROOT
ATOM      1  N   UNL     1       1.878   1.420  -0.089  0.00  0.00    -0.302 N 
ATOM      2  N   UNL     1       2.616  -0.667   0.100  0.00  0.00    -0.302 N 
ATOM      3  C   UNL     1       0.754   0.643   0.018  0.00  0.00    +0.060 C 
ATOM      4  C   UNL     1       1.241  -0.656   0.135  0.00  0.00    +0.063 C 
ATOM      5  C   UNL     1      -1.497  -0.116   0.151  0.00  0.00    +0.035 C 
ATOM      6  C   UNL     1      -0.606   0.954   0.022  0.00  0.00    +0.018 C 
ATOM      7  C   UNL     1      -1.039  -1.430   0.271  0.00  0.00    +0.140 C 
ATOM      8  C   UNL     1       0.332  -1.720   0.264  0.00  0.00    +0.052 C 
ATOM      9  C   UNL     1       2.965   0.593  -0.034  0.00  0.00    +0.228 C 
ATOM     10  H   UNL     1       1.899   2.400  -0.187  0.00  0.00    +0.150 HD
ATOM     11  H   UNL     1       3.211  -1.450   0.163  0.00  0.00    +0.150 HD
ENDROOT
BRANCH   9  13
ATOM     12  O   UNL     1       5.573  -0.827   0.041  0.00  0.00    -0.253 OA
ATOM     13  N   UNL     1       4.233   1.106  -0.116  0.00  0.00    -0.259 N 
ATOM     14  N   UNL     1       6.543   1.256  -0.187  0.00  0.00    -0.289 N 
ATOM     15  C   UNL     1       5.449   0.390  -0.076  0.00  0.00    +0.303 C 
ATOM     16  H   UNL     1       4.303   2.083  -0.214  0.00  0.00    +0.154 HD
ATOM     17  H   UNL     1       6.371   2.221  -0.278  0.00  0.00    +0.151 HD
BRANCH  14  18
ATOM     18  C   UNL     1       7.913   0.798  -0.176  0.00  0.00    +0.091 C 
ATOM     19  C   UNL     1       7.995  -0.707  -0.030  0.00  0.00    +0.023 C 
ENDBRANCH  14  18
ENDBRANCH   9  13
BRANCH   5  22
ATOM     20  N   UNL     1      -4.923   0.691   1.371  0.00  0.00    -0.185 NA
ATOM     21  N   UNL     1      -4.985   0.451  -1.026  0.00  0.00    -0.163 NA
ATOM     22  C   UNL     1      -2.919   0.167   0.160  0.00  0.00    +0.026 C 
ATOM     23  C   UNL     1      -3.601   0.424   1.326  0.00  0.00    +0.167 C 
ATOM     24  C   UNL     1      -3.661   0.192  -0.997  0.00  0.00    +0.110 C 
ATOM     25  C   UNL     1      -5.544   0.688   0.176  0.00  0.00    +0.192 C 
BRANCH  25  26
ATOM     26  O   UNL     1      -6.893   0.956   0.184  0.00  0.00    -0.412 OA
ATOM     27  C   UNL     1      -7.549   0.953  -1.075  0.00  0.00    +0.269 C 
ENDBRANCH  25  26
ENDBRANCH   5  22
BRANCH   7  28
ATOM     28  O   UNL     1      -1.915  -2.471   0.396  0.00  0.00    -0.471 OA
ATOM     29  C   UNL     1      -2.360  -3.087  -0.809  0.00  0.00    +0.252 C 
ENDBRANCH   7  28
TORSDOF 5
