REMARK  Name = 11625932
REMARK  12 active torsions:
REMARK  status: ('A' for Active; 'I' for Inactive)
REMARK    1  A    between atoms: C_1  and  O_10
REMARK    2  A    between atoms: C_4  and  C_26
REMARK    3  A    between atoms: C_5  and  O_8
REMARK    4  A    between atoms: O_10  and  C_16
REMARK    5  A    between atoms: C_12  and  O_17
REMARK    6  A    between atoms: C_13  and  O_19
REMARK    7  A    between atoms: C_14  and  O_21
REMARK    8  A    between atoms: C_15  and  C_23
REMARK    9  A    between atoms: C_23  and  O_24
REMARK   10  A    between atoms: C_26  and  C_27
REMARK   11  A    between atoms: C_27  and  C_28
REMARK   12  A    between atoms: C_33  and  O_34
REMARK                            x       y       z     vdW  Elec       q    Type
REMARK                         _______ _______ _______ _____ _____    ______ ____
ROOT
ATOM      1  C   UNL     1       1.925  -1.383   0.201  0.00  0.00    +0.140 C 
ATOM      2  C   UNL     1       3.156  -1.773  -0.320  0.00  0.00    +0.046 C 
ATOM      3  C   UNL     1       1.773  -0.129   0.785  0.00  0.00    +0.033 C 
ATOM      4  C   UNL     1       2.860   0.743   0.848  0.00  0.00    -0.016 C 
ATOM      5  C   UNL     1       4.243  -0.901  -0.257  0.00  0.00    +0.132 C 
ATOM      6  C   UNL     1       4.095   0.357   0.327  0.00  0.00    +0.032 C 
ATOM      7  C   UNL     1       3.315  -3.121  -0.946  0.00  0.00    +0.037 C 
ENDROOT
BRANCH   5   8
ATOM      8  O   UNL     1       5.456  -1.261  -0.761  0.00  0.00    -0.506 OA
ATOM      9  H   UNL     1       5.569  -2.103  -1.156  0.00  0.00    +0.292 HD
ENDBRANCH   5   8
BRANCH   1  10
ATOM     10  O   UNL     1       0.849  -2.226   0.149  0.00  0.00    -0.451 OA
BRANCH  10  16
ATOM     11  O   UNL     1      -0.943  -1.372   1.375  0.00  0.00    -0.316 OA
ATOM     12  C   UNL     1      -2.802  -2.052  -0.706  0.00  0.00    +0.173 C 
ATOM     13  C   UNL     1      -3.254  -1.652   0.699  0.00  0.00    +0.169 C 
ATOM     14  C   UNL     1      -1.362  -2.563  -0.699  0.00  0.00    +0.210 C 
ATOM     15  C   UNL     1      -2.222  -0.736   1.361  0.00  0.00    +0.177 C 
ATOM     16  C   UNL     1      -0.438  -1.614   0.064  0.00  0.00    +0.318 C 
BRANCH  12  17
ATOM     17  O   UNL     1      -3.671  -3.085  -1.173  0.00  0.00    -0.379 OA
ATOM     18  H   UNL     1      -4.586  -2.761  -1.177  0.00  0.00    +0.211 HD
ENDBRANCH  12  17
BRANCH  13  19
ATOM     19  O   UNL     1      -4.504  -0.972   0.616  0.00  0.00    -0.379 OA
ATOM     20  H   UNL     1      -5.160  -1.551   0.197  0.00  0.00    +0.211 HD
ENDBRANCH  13  19
BRANCH  14  21
ATOM     21  O   UNL     1      -0.888  -2.663  -2.042  0.00  0.00    -0.377 OA
ATOM     22  H   UNL     1      -1.463  -3.263  -2.544  0.00  0.00    +0.211 HD
ENDBRANCH  14  21
BRANCH  15  23
ATOM     23  C   UNL     1      -2.594  -0.418   2.806  0.00  0.00    +0.169 C 
BRANCH  23  24
ATOM     24  O   UNL     1      -1.594   0.420   3.355  0.00  0.00    -0.379 OA
ATOM     25  H   UNL     1      -1.818   0.631   4.275  0.00  0.00    +0.211 HD
ENDBRANCH  23  24
ENDBRANCH  15  23
ENDBRANCH  10  16
ENDBRANCH   1  10
BRANCH   4  26
ATOM     26  C   UNL     1       2.701   2.089   1.472  0.00  0.00    +0.031 C 
BRANCH  26  27
ATOM     27  C   UNL     1       2.276   3.193   0.483  0.00  0.00    +0.031 C 
BRANCH  27  28
ATOM     28  C   UNL     1       0.935   2.932  -0.159  0.00  0.00    -0.022 C 
ATOM     29  C   UNL     1       0.877   2.221  -1.347  0.00  0.00    -0.001 C 
ATOM     30  C   UNL     1      -0.214   3.409   0.452  0.00  0.00    -0.001 C 
ATOM     31  C   UNL     1      -0.362   1.981  -1.940  0.00  0.00    +0.037 C 
ATOM     32  C   UNL     1      -1.454   3.169  -0.141  0.00  0.00    +0.037 C 
ATOM     33  C   UNL     1      -1.528   2.455  -1.337  0.00  0.00    +0.139 C 
BRANCH  33  34
ATOM     34  O   UNL     1      -2.737   2.219  -1.917  0.00  0.00    -0.471 OA
ATOM     35  C   UNL     1      -3.888   2.732  -1.248  0.00  0.00    +0.252 C 
ENDBRANCH  33  34
ENDBRANCH  27  28
ENDBRANCH  26  27
ENDBRANCH   4  26
TORSDOF 12
