REMARK  Name = 11622683
REMARK  8 active torsions:
REMARK  status: ('A' for Active; 'I' for Inactive)
REMARK    1  A    between atoms: C_1  and  C_3
REMARK    2  A    between atoms: C_1  and  C_6
REMARK    3  A    between atoms: C_1  and  CA_13
REMARK    4  A    between atoms: C_3  and  O_4
REMARK    5  A    between atoms: C_6  and  C_7
REMARK    6  A    between atoms: CA_13  and  N_14
REMARK    7  A    between atoms: CA_13  and  C_19
REMARK    8  A    between atoms: C_19  and  O_20
REMARK                            x       y       z     vdW  Elec       q    Type
REMARK                         _______ _______ _______ _____ _____    ______ ____
ROOT
ATOM      1  C   UNL     1      -0.906  -0.398   0.281  0.00  0.00    +0.094 C 
ENDROOT
BRANCH   1   3
ATOM      2  O   UNL     1      -0.371  -2.620  -0.542  0.00  0.00    -0.250 OA
ATOM      3  C   UNL     1      -0.636  -1.890   0.404  0.00  0.00    +0.312 C 
BRANCH   3   4
ATOM      4  O   UNL     1      -0.675  -2.315   1.690  0.00  0.00    -0.480 OA
ATOM      5  H   UNL     1      -0.884  -1.712   2.376  0.00  0.00    +0.295 HD
ENDBRANCH   3   4
ENDBRANCH   1   3
BRANCH   1   6
ATOM      6  C   UNL     1      -0.014   0.228  -0.816  0.00  0.00    +0.036 C 
BRANCH   6   7
ATOM      7  C   UNL     1       1.443   0.359  -0.447  0.00  0.00    -0.022 C 
ATOM      8  C   UNL     1       1.885   1.518   0.172  0.00  0.00    -0.004 C 
ATOM      9  C   UNL     1       2.314  -0.680  -0.734  0.00  0.00    -0.004 C 
ATOM     10  C   UNL     1       3.232   1.640   0.513  0.00  0.00    -0.000 C 
ATOM     11  C   UNL     1       3.661  -0.558  -0.393  0.00  0.00    -0.000 C 
ATOM     12  C   UNL     1       4.120   0.602   0.231  0.00  0.00    -0.000 C 
ENDBRANCH   6   7
ENDBRANCH   1   6
BRANCH   1  13
ATOM     13  CA  UNL     1      -2.432  -0.168   0.167  0.00  0.00    +0.047 C 
BRANCH  13  14
ATOM     14  N   UNL     1      -3.043  -0.858  -0.970  0.00  0.00    +0.389 N 
ATOM     15  H1  UNL     1      -2.808  -1.850  -0.932  0.00  0.00    -0.088 HD
ATOM     16  H2  UNL     1      -2.690  -0.459  -1.840  0.00  0.00    -0.088 HD
ATOM     17  H3  UNL     1      -4.056  -0.747  -0.931  0.00  0.00    -0.088 HD
ENDBRANCH  13  14
BRANCH  13  19
ATOM     18  OXT UNL     1      -3.390   1.843  -0.837  0.00  0.00    -0.253 OA
ATOM     19  C   UNL     1      -2.795   1.307   0.089  0.00  0.00    +0.293 C 
BRANCH  19  20
ATOM     20  O   UNL     1      -2.393   1.991   1.192  0.00  0.00    -0.482 OA
ATOM     21  H   UNL     1      -1.939   1.545   1.881  0.00  0.00    +0.295 HD
ENDBRANCH  19  20
ENDBRANCH  13  19
ENDBRANCH   1  13
TORSDOF 8
