11627443
  -OEChem-03292013303D

 65 69  0     1  0  0  0  0  0999 V2000
    3.2638    1.8364    1.0042 O   0  0  0  0  0  0  0  0  0  0  0  0
    4.3026    3.9996   -0.9608 O   0  0  0  0  0  0  0  0  0  0  0  0
    5.1045    1.6588   -2.0771 O   0  0  0  0  0  0  0  0  0  0  0  0
    0.6569    2.2347   -1.0225 O   0  0  0  0  0  0  0  0  0  0  0  0
   -7.7925    0.4053   -0.4002 O   0  0  0  0  0  0  0  0  0  0  0  0
   -7.2527   -0.6229    1.5684 O   0  0  0  0  0  0  0  0  0  0  0  0
    0.5502    2.1390    1.2976 N   0  0  0  0  0  0  0  0  0  0  0  0
    4.4104   -0.1572    0.4447 N   0  0  0  0  0  0  0  0  0  0  0  0
   -5.5787   -0.0221    0.0720 N   0  0  0  0  0  0  0  0  0  0  0  0
    5.2862   -2.1057    1.0821 N   0  0  0  0  0  0  0  0  0  0  0  0
    2.2242   -0.9074   -0.3023 N   0  0  0  0  0  0  0  0  0  0  0  0
    1.9765   -3.3206   -0.0360 N   0  0  0  0  0  0  0  0  0  0  0  0
    3.7156   -4.7001    0.8564 N   0  0  0  0  0  0  0  0  0  0  0  0
   -0.8137    1.7032    1.3923 C   0  0  0  0  0  0  0  0  0  0  0  0
   -1.6271    1.9641    2.6260 C   0  0  0  0  0  0  0  0  0  0  0  0
   -1.9478    2.6848    1.3495 C   0  0  0  0  0  0  0  0  0  0  0  0
    2.5823    2.8464    0.2447 C   0  0  1  0  0  0  0  0  0  0  0  0
    3.3065    2.9869   -1.0847 C   0  0  2  0  0  0  0  0  0  0  0  0
    3.9613    1.6287   -1.2472 C   0  0  2  0  0  0  0  0  0  0  0  0
    4.3119    1.2779    0.1905 C   0  0  1  0  0  0  0  0  0  0  0  0
    1.1748    2.3698    0.0834 C   0  0  0  0  0  0  0  0  0  0  0  0
   -3.0837   -0.8531   -1.1422 C   0  0  0  0  0  0  0  0  0  0  0  0
   -3.5798   -1.4565    0.1809 C   0  0  0  0  0  0  0  0  0  0  0  0
   -4.2749   -0.3787   -1.9887 C   0  0  0  0  0  0  0  0  0  0  0  0
   -4.4860   -0.4815    0.9282 C   0  0  0  0  0  0  0  0  0  0  0  0
   -5.1693    0.5772   -1.2019 C   0  0  0  0  0  0  0  0  0  0  0  0
   -2.2359   -1.8609   -1.9144 C   0  0  0  0  0  0  0  0  0  0  0  0
    3.4496   -1.0988    0.2087 C   0  0  0  0  0  0  0  0  0  0  0  0
    5.4945   -0.8106    0.9684 C   0  0  0  0  0  0  0  0  0  0  0  0
    4.0120   -2.2998    0.6110 C   0  0  0  0  0  0  0  0  0  0  0  0
   -6.9053   -0.1210    0.5008 C   0  0  0  0  0  0  0  0  0  0  0  0
   -0.8797   -1.9364   -1.3650 C   0  0  0  0  0  0  0  0  0  0  0  0
    3.2261   -3.4396    0.4738 C   0  0  0  0  0  0  0  0  0  0  0  0
    1.5593   -2.0802   -0.3872 C   0  0  0  0  0  0  0  0  0  0  0  0
    0.2338   -2.0030   -0.9193 C   0  0  0  0  0  0  0  0  0  0  0  0
   -9.1758    0.3433   -0.0342 C   0  0  0  0  0  0  0  0  0  0  0  0
   -0.9707    0.7411    0.9159 H   0  0  0  0  0  0  0  0  0  0  0  0
   -2.3068    1.1888    2.9566 H   0  0  0  0  0  0  0  0  0  0  0  0
   -1.1802    2.5386    3.4284 H   0  0  0  0  0  0  0  0  0  0  0  0
   -1.7136    3.7414    1.2976 H   0  0  0  0  0  0  0  0  0  0  0  0
   -2.8412    2.4022    0.8088 H   0  0  0  0  0  0  0  0  0  0  0  0
    2.5819    3.7760    0.8246 H   0  0  0  0  0  0  0  0  0  0  0  0
    2.6823    3.2570   -1.9412 H   0  0  0  0  0  0  0  0  0  0  0  0
    3.2412    0.9314   -1.6850 H   0  0  0  0  0  0  0  0  0  0  0  0
    1.0668    2.2734    2.1628 H   0  0  0  0  0  0  0  0  0  0  0  0
    5.2638    1.7291    0.4971 H   0  0  0  0  0  0  0  0  0  0  0  0
   -2.4751    0.0327   -0.9120 H   0  0  0  0  0  0  0  0  0  0  0  0
   -2.7338   -1.7242    0.8242 H   0  0  0  0  0  0  0  0  0  0  0  0
   -4.1384   -2.3800   -0.0203 H   0  0  0  0  0  0  0  0  0  0  0  0
   -4.8669   -1.2464   -2.3078 H   0  0  0  0  0  0  0  0  0  0  0  0
   -3.9193    0.1220   -2.8968 H   0  0  0  0  0  0  0  0  0  0  0  0
   -4.8778   -0.9594    1.8317 H   0  0  0  0  0  0  0  0  0  0  0  0
   -3.9264    0.4022    1.2446 H   0  0  0  0  0  0  0  0  0  0  0  0
   -4.6284    1.5014   -0.9668 H   0  0  0  0  0  0  0  0  0  0  0  0
   -6.0345    0.8522   -1.8112 H   0  0  0  0  0  0  0  0  0  0  0  0
    3.8423    4.8448   -0.8211 H   0  0  0  0  0  0  0  0  0  0  0  0
   -2.7051   -2.8517   -1.9141 H   0  0  0  0  0  0  0  0  0  0  0  0
   -2.1577   -1.5533   -2.9646 H   0  0  0  0  0  0  0  0  0  0  0  0
    4.8291    2.0122   -2.9400 H   0  0  0  0  0  0  0  0  0  0  0  0
    6.4034   -0.2952    1.2476 H   0  0  0  0  0  0  0  0  0  0  0  0
    3.1249   -5.5131    0.7468 H   0  0  0  0  0  0  0  0  0  0  0  0
    4.6476   -4.7921    1.2373 H   0  0  0  0  0  0  0  0  0  0  0  0
   -9.4892   -0.6981    0.0851 H   0  0  0  0  0  0  0  0  0  0  0  0
   -9.3493    0.9089    0.8862 H   0  0  0  0  0  0  0  0  0  0  0  0
   -9.7604    0.7956   -0.8396 H   0  0  0  0  0  0  0  0  0  0  0  0
  1 17  1  0  0  0  0
  1 20  1  0  0  0  0
  2 18  1  0  0  0  0
  2 56  1  0  0  0  0
  3 19  1  0  0  0  0
  3 59  1  0  0  0  0
  4 21  2  0  0  0  0
  5 31  1  0  0  0  0
  5 36  1  0  0  0  0
  6 31  2  0  0  0  0
  7 14  1  0  0  0  0
  7 21  1  0  0  0  0
  7 45  1  0  0  0  0
  8 20  1  0  0  0  0
  8 28  1  0  0  0  0
  8 29  1  0  0  0  0
  9 25  1  0  0  0  0
  9 26  1  0  0  0  0
  9 31  1  0  0  0  0
 10 29  2  0  0  0  0
 10 30  1  0  0  0  0
 11 28  2  0  0  0  0
 11 34  1  0  0  0  0
 12 33  1  0  0  0  0
 12 34  2  0  0  0  0
 13 33  1  0  0  0  0
 13 61  1  0  0  0  0
 13 62  1  0  0  0  0
 14 15  1  0  0  0  0
 14 16  1  0  0  0  0
 14 37  1  0  0  0  0
 15 16  1  0  0  0  0
 15 38  1  0  0  0  0
 15 39  1  0  0  0  0
 16 40  1  0  0  0  0
 16 41  1  0  0  0  0
 17 18  1  0  0  0  0
 17 21  1  0  0  0  0
 17 42  1  0  0  0  0
 18 19  1  0  0  0  0
 18 43  1  0  0  0  0
 19 20  1  0  0  0  0
 19 44  1  0  0  0  0
 20 46  1  0  0  0  0
 22 23  1  0  0  0  0
 22 24  1  0  0  0  0
 22 27  1  0  0  0  0
 22 47  1  0  0  0  0
 23 25  1  0  0  0  0
 23 48  1  0  0  0  0
 23 49  1  0  0  0  0
 24 26  1  0  0  0  0
 24 50  1  0  0  0  0
 24 51  1  0  0  0  0
 25 52  1  0  0  0  0
 25 53  1  0  0  0  0
 26 54  1  0  0  0  0
 26 55  1  0  0  0  0
 27 32  1  0  0  0  0
 27 57  1  0  0  0  0
 27 58  1  0  0  0  0
 28 30  1  0  0  0  0
 29 60  1  0  0  0  0
 30 33  2  0  0  0  0
 32 35  3  0  0  0  0
 34 35  1  0  0  0  0
 36 63  1  0  0  0  0
 36 64  1  0  0  0  0
 36 65  1  0  0  0  0
M  END
> <PUBCHEM_COMPOUND_CID>
11627443

> <PUBCHEM_CONFORMER_RMSD>
1

> <PUBCHEM_CONFORMER_DIVERSEORDER>
1
114
131
66
68
42
98
52
133
143
40
64
148
77
92
59
96
108
48
94
44
50
116
146
91
87
149
112
21
60
119
35
111
115
107
100
51
73
134
103
19
69
127
23
104
58
117
70
123
53
78
86
144
15
145
85
57
139
83
132
128
120
135
54
113
105
31
80
130
138
36
37
79
141
121
67
101
126
71
43
61
49
88
97
125
106
74
65
137
89
29
151
32
76
109
99
150
110
14
81
140
27
47
46
136
122
147
72
26
12
142
6
33
118
84
93
7
38
9
102
8
17
129
11
28
16
63
90
39
95
82
34
124
4
55
13
20
45
41
75
18
25
152
10
22
30
62
3
56
5
24
2

> <PUBCHEM_MMFF94_PARTIAL_CHARGES>
44
1 -0.56
10 -0.57
11 -0.57
12 -0.62
13 -0.9
14 0.05
15 -0.2
16 -0.2
17 0.34
18 0.28
19 0.28
2 -0.68
20 0.54
21 0.57
25 0.3
26 0.3
27 0.2
28 0.11
29 0.04
3 -0.68
30 0.23
31 0.78
32 -0.2
33 0.41
34 0.69
35 -0.07
36 0.28
37 0.1
38 0.1
39 0.1
4 -0.57
40 0.1
41 0.1
45 0.37
5 -0.43
56 0.4
59 0.4
6 -0.57
60 0.15
61 0.4
62 0.4
7 -0.58
8 0.05
9 -0.66

> <PUBCHEM_EFFECTIVE_ROTOR_COUNT>
9.8

> <PUBCHEM_PHARMACOPHORE_FEATURES>
17
1 1 acceptor
1 13 cation
1 13 donor
1 2 acceptor
1 2 donor
1 3 acceptor
1 3 donor
1 4 acceptor
1 6 acceptor
1 7 donor
3 11 12 34 cation
3 8 10 29 cation
3 8 11 28 cation
5 1 17 18 19 20 rings
5 8 10 28 29 30 rings
6 11 12 28 30 33 34 rings
6 9 22 23 24 25 26 rings

> <PUBCHEM_HEAVY_ATOM_COUNT>
36

> <PUBCHEM_ATOM_DEF_STEREO_COUNT>
4

> <PUBCHEM_ATOM_UDEF_STEREO_COUNT>
0

> <PUBCHEM_BOND_DEF_STEREO_COUNT>
0

> <PUBCHEM_BOND_UDEF_STEREO_COUNT>
0

> <PUBCHEM_ISOTOPIC_ATOM_COUNT>
0

> <PUBCHEM_COMPONENT_COUNT>
1

> <PUBCHEM_CACTVS_TAUTO_COUNT>
6

> <PUBCHEM_CONFORMER_ID>
00B16BB300000001

> <PUBCHEM_MMFF94_ENERGY>
66.6101

> <PUBCHEM_FEATURE_SELFOVERLAP>
86.892

> <PUBCHEM_SHAPE_FINGERPRINT>
10675989 125 18270392931633134752
11578080 2 16443641198084671600
11828532 37 15841262766165839119
12788726 201 17775298152956186721
13111901 25 18058740096493454913
13782708 43 17748830709522088731
14114211 68 18188510050428757918
14394314 77 17988357174185888473
14464042 87 18131630079949937112
14840074 17 17989214746094652851
15001296 14 18130221674580408841
15119646 104 18341900662836004897
15183329 4 17917719028569476705
15264996 151 18263078829992455473
15297060 5 17275103955182484526
15406563 185 16916798413047380905
19319366 153 18341047514326082390
22033318 11 18055930787964187147
22122407 14 18341341028676073939
3178227 256 18187078452183284274
338550 245 18341611495108727288
3680242 22 18343863320681387543
397830 11 18041005089843639147
4098825 35 18261391118968749377
463206 1 18129938000543233649

> <PUBCHEM_SHAPE_MULTIPOLES>
670.78
17.58
4.62
1.79
37.07
0.74
-0.04
0.7
1.08
-8.29
0.39
0.53
-0.6
-3.09

> <PUBCHEM_SHAPE_SELFOVERLAP>
1433.282

> <PUBCHEM_SHAPE_VOLUME>
365.6

> <PUBCHEM_COORDINATE_TYPE>
2
5
10

$$$$
