11622683
  -OEChem-03292013303D

 29 29  0     1  0  0  0  0  0999 V2000
   -0.6752   -2.3147    1.6898 O   0  0  0  0  0  0  0  0  0  0  0  0
   -0.3708   -2.6205   -0.5417 O   0  0  0  0  0  0  0  0  0  0  0  0
   -2.3926    1.9908    1.1923 O   0  0  0  0  0  0  0  0  0  0  0  0
   -3.3899    1.8429   -0.8371 O   0  0  0  0  0  0  0  0  0  0  0  0
   -3.0430   -0.8584   -0.9703 N   0  0  0  0  0  0  0  0  0  0  0  0
   -0.9064   -0.3984    0.2805 C   0  0  1  0  0  0  0  0  0  0  0  0
   -0.0143    0.2276   -0.8160 C   0  0  0  0  0  0  0  0  0  0  0  0
   -2.4323   -0.1682    0.1667 C   0  0  1  0  0  0  0  0  0  0  0  0
    1.4430    0.3595   -0.4468 C   0  0  0  0  0  0  0  0  0  0  0  0
   -0.6361   -1.8896    0.4036 C   0  0  0  0  0  0  0  0  0  0  0  0
   -2.7951    1.3067    0.0888 C   0  0  0  0  0  0  0  0  0  0  0  0
    1.8854    1.5182    0.1724 C   0  0  0  0  0  0  0  0  0  0  0  0
    2.3138   -0.6801   -0.7336 C   0  0  0  0  0  0  0  0  0  0  0  0
    3.2325    1.6403    0.5134 C   0  0  0  0  0  0  0  0  0  0  0  0
    3.6609   -0.5581   -0.3926 C   0  0  0  0  0  0  0  0  0  0  0  0
    4.1202    0.6021    0.2307 C   0  0  0  0  0  0  0  0  0  0  0  0
   -0.5840    0.0520    1.2313 H   0  0  0  0  0  0  0  0  0  0  0  0
   -0.3867    1.2292   -1.0671 H   0  0  0  0  0  0  0  0  0  0  0  0
   -0.0988   -0.3418   -1.7513 H   0  0  0  0  0  0  0  0  0  0  0  0
   -2.9210   -0.5654    1.0656 H   0  0  0  0  0  0  0  0  0  0  0  0
   -2.6562   -0.4998   -1.8423 H   0  0  0  0  0  0  0  0  0  0  0  0
   -4.0439   -0.6684   -0.9956 H   0  0  0  0  0  0  0  0  0  0  0  0
    1.2013    2.3309    0.3991 H   0  0  0  0  0  0  0  0  0  0  0  0
    1.9747   -1.5842   -1.2294 H   0  0  0  0  0  0  0  0  0  0  0  0
    3.5901    2.5433    0.9993 H   0  0  0  0  0  0  0  0  0  0  0  0
    4.3527   -1.3653   -0.6150 H   0  0  0  0  0  0  0  0  0  0  0  0
    5.1691    0.6973    0.4957 H   0  0  0  0  0  0  0  0  0  0  0  0
   -0.4788   -3.2728    1.7650 H   0  0  0  0  0  0  0  0  0  0  0  0
   -2.6320    2.9407    1.1406 H   0  0  0  0  0  0  0  0  0  0  0  0
  1 10  1  0  0  0  0
  1 28  1  0  0  0  0
  2 10  2  0  0  0  0
  3 11  1  0  0  0  0
  3 29  1  0  0  0  0
  4 11  2  0  0  0  0
  5  8  1  0  0  0  0
  5 21  1  0  0  0  0
  5 22  1  0  0  0  0
  6  7  1  0  0  0  0
  6  8  1  0  0  0  0
  6 10  1  0  0  0  0
  6 17  1  0  0  0  0
  7  9  1  0  0  0  0
  7 18  1  0  0  0  0
  7 19  1  0  0  0  0
  8 11  1  0  0  0  0
  8 20  1  0  0  0  0
  9 12  2  0  0  0  0
  9 13  1  0  0  0  0
 12 14  1  0  0  0  0
 12 23  1  0  0  0  0
 13 15  2  0  0  0  0
 13 24  1  0  0  0  0
 14 16  2  0  0  0  0
 14 25  1  0  0  0  0
 15 16  1  0  0  0  0
 15 26  1  0  0  0  0
 16 27  1  0  0  0  0
M  END
> <PUBCHEM_COMPOUND_CID>
11622683

> <PUBCHEM_CONFORMER_RMSD>
0.6

> <PUBCHEM_CONFORMER_DIVERSEORDER>
1
35
7
30
31
28
34
24
12
25
22
29
36
18
11
16
9
21
15
20
37
14
2
8
19
32
17
26
13
33
5
6
23
10
4
3
27

> <PUBCHEM_MMFF94_PARTIAL_CHARGES>
25
1 -0.65
10 0.66
11 0.66
12 -0.15
13 -0.15
14 -0.15
15 -0.15
16 -0.15
2 -0.57
21 0.36
22 0.36
23 0.15
24 0.15
25 0.15
26 0.15
27 0.15
28 0.5
29 0.5
3 -0.65
4 -0.57
5 -0.99
6 0.06
7 0.14
8 0.33
9 -0.14

> <PUBCHEM_EFFECTIVE_ROTOR_COUNT>
5

> <PUBCHEM_PHARMACOPHORE_FEATURES>
9
1 1 acceptor
1 2 acceptor
1 3 acceptor
1 4 acceptor
1 5 cation
1 5 donor
3 1 2 10 anion
3 3 4 11 anion
6 9 12 13 14 15 16 rings

> <PUBCHEM_HEAVY_ATOM_COUNT>
16

> <PUBCHEM_ATOM_DEF_STEREO_COUNT>
2

> <PUBCHEM_ATOM_UDEF_STEREO_COUNT>
0

> <PUBCHEM_BOND_DEF_STEREO_COUNT>
0

> <PUBCHEM_BOND_UDEF_STEREO_COUNT>
0

> <PUBCHEM_ISOTOPIC_ATOM_COUNT>
0

> <PUBCHEM_COMPONENT_COUNT>
1

> <PUBCHEM_CACTVS_TAUTO_COUNT>
1

> <PUBCHEM_CONFORMER_ID>
00B1591B00000001

> <PUBCHEM_MMFF94_ENERGY>
33.7534

> <PUBCHEM_FEATURE_SELFOVERLAP>
45.788

> <PUBCHEM_SHAPE_FINGERPRINT>
10608611 8 18341893060453720488
12500047 106 18409448115894968076
13380535 76 18413669119342924942
14144814 61 18335138708894780336
15309172 13 17821728308234953861
15375358 24 18273494581373515316
15775835 57 18261109625883332469
16945 1 18195818576763412886
18186145 218 18271531896639970540
19049666 15 18339655481213370898
20510252 161 18339645667128508883
20524608 308 18339643455120481662
21524375 3 18335986380799134535
23402539 116 18270390719850922023
23419403 2 15910214347055454211
23559900 14 18201438044029456478
25 1 18267592307669826212
2748010 2 18339659883227561470
305870 269 18188205386485655011
5706482 22 18408040702145699747
6049 1 18127155149714577046
69090 78 18270960249393787559
6992083 37 17676773161947565948
7364860 26 17979635637199887935
74978 22 18041284386633269804
81228 2 18045225096347077475
9709674 26 18343024440775704398

> <PUBCHEM_SHAPE_MULTIPOLES>
300.81
6.48
2.38
1.04
2.55
0.65
-0.19
-2.81
0.36
-1.23
-0.51
-0.37
0.21
0.4

> <PUBCHEM_SHAPE_SELFOVERLAP>
619.539

> <PUBCHEM_SHAPE_VOLUME>
170.4

> <PUBCHEM_COORDINATE_TYPE>
2
5
10

$$$$
