REMARK  Name = 11630874
REMARK  3 active torsions:
REMARK  status: ('A' for Active; 'I' for Inactive)
REMARK    1  A    between atoms: C_2  and  C_16
REMARK    2  A    between atoms: C_3  and  C_10
REMARK    3  A    between atoms: C_17  and  O_22
REMARK                            x       y       z     vdW  Elec       q    Type
REMARK                         _______ _______ _______ _____ _____    ______ ____
ROOT
ATOM      1  O   UNL     1      -0.063  -0.659  -0.298  0.00  0.00    -0.453 OA
ATOM      2  C   UNL     1       1.151  -1.222  -0.090  0.00  0.00    +0.148 C 
ATOM      3  C   UNL     1      -0.970  -1.667  -0.211  0.00  0.00    +0.146 C 
ATOM      4  C   UNL     1       1.041  -2.569   0.129  0.00  0.00    +0.041 C 
ATOM      5  C   UNL     1      -0.341  -2.862   0.050  0.00  0.00    +0.041 C 
ENDROOT
BRANCH   3  10
ATOM      6  S   UNL     1      -2.267   1.143   0.509  0.00  0.00    -0.025 S 
ATOM      7  O   UNL     1      -5.221  -0.959  -0.708  0.00  0.00    -0.269 OA
ATOM      8  O   UNL     1      -3.899   3.176   0.913  0.00  0.00    -0.262 OA
ATOM      9  N   UNL     1      -4.788   1.185   0.087  0.00  0.00    -0.243 N 
ATOM     10  C   UNL     1      -2.357  -1.446  -0.376  0.00  0.00    +0.049 C 
ATOM     11  C   UNL     1      -2.999  -0.293  -0.100  0.00  0.00    +0.090 C 
ATOM     12  C   UNL     1      -4.456  -0.103  -0.288  0.00  0.00    +0.258 C 
ATOM     13  C   UNL     1      -3.792   2.018   0.540  0.00  0.00    +0.283 C 
ATOM     14  H   UNL     1      -5.719   1.500   0.031  0.00  0.00    +0.159 HD
ENDBRANCH   3  10
BRANCH   2  16
ATOM     15  F   UNL     1       5.426   2.347  -0.335  0.00  0.00    -0.204 F 
ATOM     16  C   UNL     1       2.268  -0.306  -0.142  0.00  0.00    +0.068 C 
ATOM     17  C   UNL     1       3.418  -0.536   0.612  0.00  0.00    +0.139 C 
ATOM     18  C   UNL     1       2.184   0.819  -0.962  0.00  0.00    +0.008 C 
ATOM     19  C   UNL     1       4.485   0.361   0.547  0.00  0.00    +0.066 C 
ATOM     20  C   UNL     1       3.251   1.715  -1.027  0.00  0.00    +0.030 C 
ATOM     21  C   UNL     1       4.401   1.486  -0.272  0.00  0.00    +0.143 C 
BRANCH  17  22
ATOM     22  O   UNL     1       3.528  -1.629   1.421  0.00  0.00    -0.505 OA
ATOM     23  H   UNL     1       2.822  -2.242   1.478  0.00  0.00    +0.292 HD
ENDBRANCH  17  22
ENDBRANCH   2  16
TORSDOF 3
