REMARK  Name = 11631193
REMARK  3 active torsions:
REMARK  status: ('A' for Active; 'I' for Inactive)
REMARK    1  A    between atoms: C_6  and  O_22
REMARK    2  A    between atoms: C_14  and  O_24
REMARK    3  A    between atoms: C_18  and  O_26
REMARK                            x       y       z     vdW  Elec       q    Type
REMARK                         _______ _______ _______ _____ _____    ______ ____
ROOT
ATOM      1  O   UNL     1      -3.805  -0.726  -1.367  0.00  0.00    -0.346 OA
ATOM      2  O   UNL     1      -3.619   2.243   0.201  0.00  0.00    -0.289 OA
ATOM      3  O   UNL     1       0.815  -2.841  -0.081  0.00  0.00    -0.287 OA
ATOM      4  C   UNL     1      -4.023  -0.041  -0.120  0.00  0.00    +0.175 C 
ATOM      5  C   UNL     1      -3.451  -1.420  -0.163  0.00  0.00    +0.178 C 
ATOM      6  C   UNL     1      -1.990  -1.651   0.040  0.00  0.00    +0.163 C 
ATOM      7  C   UNL     1      -3.143   1.123   0.068  0.00  0.00    +0.199 C 
ATOM      8  C   UNL     1      -1.145  -0.403   0.020  0.00  0.00    +0.013 C 
ATOM      9  C   UNL     1      -5.472   0.063   0.224  0.00  0.00    +0.040 C 
ATOM     10  C   UNL     1      -1.677   0.901   0.065  0.00  0.00    +0.039 C 
ATOM     11  C   UNL     1       0.249  -0.481  -0.008  0.00  0.00    +0.040 C 
ATOM     12  C   UNL     1       1.093   0.648   0.010  0.00  0.00    +0.040 C 
ATOM     13  C   UNL     1      -0.841   2.041   0.085  0.00  0.00    +0.039 C 
ATOM     14  C   UNL     1       0.550   1.917   0.058  0.00  0.00    +0.134 C 
ATOM     15  C   UNL     1       1.139  -1.674  -0.054  0.00  0.00    +0.196 C 
ATOM     16  C   UNL     1       2.476   0.224  -0.025  0.00  0.00    +0.040 C 
ATOM     17  C   UNL     1       2.528  -1.176  -0.064  0.00  0.00    +0.042 C 
ATOM     18  C   UNL     1       3.654   0.952  -0.024  0.00  0.00    +0.134 C 
ATOM     19  C   UNL     1       3.709  -1.890  -0.102  0.00  0.00    +0.003 C 
ATOM     20  C   UNL     1       4.867   0.253  -0.063  0.00  0.00    +0.037 C 
ATOM     21  C   UNL     1       4.894  -1.153  -0.101  0.00  0.00    +0.003 C 
ENDROOT
BRANCH   6  22
ATOM     22  O   UNL     1      -1.802  -2.273   1.311  0.00  0.00    -0.377 OA
ATOM     23  H   UNL     1      -2.335  -3.083   1.357  0.00  0.00    +0.211 HD
ENDBRANCH   6  22
BRANCH  14  24
ATOM     24  O   UNL     1       1.278   3.061   0.080  0.00  0.00    -0.506 OA
ATOM     25  H   UNL     1       2.214   3.021   0.063  0.00  0.00    +0.292 HD
ENDBRANCH  14  24
BRANCH  18  26
ATOM     26  O   UNL     1       3.716   2.306   0.010  0.00  0.00    -0.506 OA
ATOM     27  H   UNL     1       2.927   2.810   0.037  0.00  0.00    +0.292 HD
ENDBRANCH  18  26
TORSDOF 3
