11638838
  -OEChem-03292013303D

 52 52  0     1  0  0  0  0  0999 V2000
    1.5357    0.2282    1.4297 O   0  0  0  0  0  0  0  0  0  0  0  0
   -0.8846    1.2266   -1.5871 O   0  0  0  0  0  0  0  0  0  0  0  0
   -4.6601    2.0297    0.1926 O   0  0  0  0  0  0  0  0  0  0  0  0
   -5.6002    0.4088   -1.0720 O   0  0  0  0  0  0  0  0  0  0  0  0
    1.0872    2.0956    0.1250 N   0  0  0  0  0  0  0  0  0  0  0  0
   -2.2853    0.9322    0.2395 N   0  0  0  0  0  0  0  0  0  0  0  0
    4.0330    2.0777    0.9362 N   0  0  0  0  0  0  0  0  0  0  0  0
    4.0063   -0.2305    0.0830 C   0  0  0  0  0  0  0  0  0  0  0  0
    5.4311   -0.2352   -0.5117 C   0  0  0  0  0  0  0  0  0  0  0  0
    3.3139    1.1417    0.0681 C   0  0  1  0  0  0  0  0  0  0  0  0
   -0.2921    2.2676    0.5199 C   0  0  2  0  0  0  0  0  0  0  0  0
    1.8932    1.0801    0.6181 C   0  0  0  0  0  0  0  0  0  0  0  0
    6.0992   -1.6080   -0.4221 C   0  0  0  0  0  0  0  0  0  0  0  0
    5.3811    0.2192   -1.9733 C   0  0  0  0  0  0  0  0  0  0  0  0
   -3.2832    0.1343   -0.4341 C   0  0  1  0  0  0  0  0  0  0  0  0
   -3.4462   -1.2333    0.2417 C   0  0  0  0  0  0  0  0  0  0  0  0
   -1.1551    1.4175   -0.4032 C   0  0  0  0  0  0  0  0  0  0  0  0
   -0.7071    3.7294    0.4582 C   0  0  0  0  0  0  0  0  0  0  0  0
   -2.1613   -2.0249    0.2870 C   0  0  0  0  0  0  0  0  0  0  0  0
   -4.6228    0.8544   -0.4798 C   0  0  0  0  0  0  0  0  0  0  0  0
   -1.8353   -2.8862   -0.7608 C   0  0  0  0  0  0  0  0  0  0  0  0
   -1.2997   -1.8946    1.3763 C   0  0  0  0  0  0  0  0  0  0  0  0
   -0.6482   -3.6173   -0.7191 C   0  0  0  0  0  0  0  0  0  0  0  0
   -0.1126   -2.6258    1.4179 C   0  0  0  0  0  0  0  0  0  0  0  0
    0.2132   -3.4872    0.3701 C   0  0  0  0  0  0  0  0  0  0  0  0
    4.0551   -0.6088    1.1137 H   0  0  0  0  0  0  0  0  0  0  0  0
    3.3811   -0.9492   -0.4644 H   0  0  0  0  0  0  0  0  0  0  0  0
    6.0665    0.4623    0.0460 H   0  0  0  0  0  0  0  0  0  0  0  0
    3.2688    1.5383   -0.9509 H   0  0  0  0  0  0  0  0  0  0  0  0
   -0.3974    1.9051    1.5495 H   0  0  0  0  0  0  0  0  0  0  0  0
    6.1611   -1.9389    0.6199 H   0  0  0  0  0  0  0  0  0  0  0  0
    7.1170   -1.5762   -0.8248 H   0  0  0  0  0  0  0  0  0  0  0  0
    5.5342   -2.3604   -0.9828 H   0  0  0  0  0  0  0  0  0  0  0  0
    5.1144    1.2763   -2.0613 H   0  0  0  0  0  0  0  0  0  0  0  0
    6.3632    0.1051   -2.4459 H   0  0  0  0  0  0  0  0  0  0  0  0
    4.6623   -0.3704   -2.5523 H   0  0  0  0  0  0  0  0  0  0  0  0
   -2.9743   -0.0016   -1.4777 H   0  0  0  0  0  0  0  0  0  0  0  0
    1.4597    2.7212   -0.5837 H   0  0  0  0  0  0  0  0  0  0  0  0
   -3.8249   -1.1054    1.2654 H   0  0  0  0  0  0  0  0  0  0  0  0
   -4.2156   -1.8220   -0.2753 H   0  0  0  0  0  0  0  0  0  0  0  0
   -2.4555    1.1848    1.2088 H   0  0  0  0  0  0  0  0  0  0  0  0
    4.9722    2.2345    0.5743 H   0  0  0  0  0  0  0  0  0  0  0  0
    3.5741    2.9881    0.9084 H   0  0  0  0  0  0  0  0  0  0  0  0
   -0.6205    4.1247   -0.5604 H   0  0  0  0  0  0  0  0  0  0  0  0
   -1.7482    3.8550    0.7736 H   0  0  0  0  0  0  0  0  0  0  0  0
   -0.0742    4.3424    1.1085 H   0  0  0  0  0  0  0  0  0  0  0  0
   -2.4973   -2.9940   -1.6158 H   0  0  0  0  0  0  0  0  0  0  0  0
   -1.5414   -1.2288    2.2006 H   0  0  0  0  0  0  0  0  0  0  0  0
   -0.3939   -4.2871   -1.5354 H   0  0  0  0  0  0  0  0  0  0  0  0
    0.5580   -2.5253    2.2662 H   0  0  0  0  0  0  0  0  0  0  0  0
    1.1380   -4.0556    0.4022 H   0  0  0  0  0  0  0  0  0  0  0  0
   -5.5422    2.4555    0.1385 H   0  0  0  0  0  0  0  0  0  0  0  0
  1 12  2  0  0  0  0
  2 17  2  0  0  0  0
  3 20  1  0  0  0  0
  3 52  1  0  0  0  0
  4 20  2  0  0  0  0
  5 11  1  0  0  0  0
  5 12  1  0  0  0  0
  5 38  1  0  0  0  0
  6 15  1  0  0  0  0
  6 17  1  0  0  0  0
  6 41  1  0  0  0  0
  7 10  1  0  0  0  0
  7 42  1  0  0  0  0
  7 43  1  0  0  0  0
  8  9  1  0  0  0  0
  8 10  1  0  0  0  0
  8 26  1  0  0  0  0
  8 27  1  0  0  0  0
  9 13  1  0  0  0  0
  9 14  1  0  0  0  0
  9 28  1  0  0  0  0
 10 12  1  0  0  0  0
 10 29  1  0  0  0  0
 11 17  1  0  0  0  0
 11 18  1  0  0  0  0
 11 30  1  0  0  0  0
 13 31  1  0  0  0  0
 13 32  1  0  0  0  0
 13 33  1  0  0  0  0
 14 34  1  0  0  0  0
 14 35  1  0  0  0  0
 14 36  1  0  0  0  0
 15 16  1  0  0  0  0
 15 20  1  0  0  0  0
 15 37  1  0  0  0  0
 16 19  1  0  0  0  0
 16 39  1  0  0  0  0
 16 40  1  0  0  0  0
 18 44  1  0  0  0  0
 18 45  1  0  0  0  0
 18 46  1  0  0  0  0
 19 21  2  0  0  0  0
 19 22  1  0  0  0  0
 21 23  1  0  0  0  0
 21 47  1  0  0  0  0
 22 24  2  0  0  0  0
 22 48  1  0  0  0  0
 23 25  2  0  0  0  0
 23 49  1  0  0  0  0
 24 25  1  0  0  0  0
 24 50  1  0  0  0  0
 25 51  1  0  0  0  0
M  END
> <PUBCHEM_COMPOUND_CID>
11638838

> <PUBCHEM_CONFORMER_RMSD>
1

> <PUBCHEM_CONFORMER_DIVERSEORDER>
1
146
18
172
180
65
42
14
108
22
160
43
77
90
52
131
96
176
109
53
88
11
70
67
162
9
139
16
4
170
33
115
173
32
74
178
151
41
72
17
127
133
145
35
47
93
126
166
123
142
79
60
144
116
82
28
165
141
163
81
91
92
102
73
94
59
50
179
29
105
137
61
106
158
86
21
45
128
98
15
7
104
95
99
23
156
80
136
122
51
155
69
85
39
31
174
161
55
62
121
20
154
6
48
143
97
66
168
113
177
140
8
182
110
56
5
49
2
13
112
125
130
83
57
119
124
19
120
164
78
103
40
64
30
118
167
132
24
157
159
63
68
44
148
12
175
111
101
34
75
10
153
129
89
181
58
135
150
84
171
152
71
25
36
107
100
87
3
117
169
147
76
138
149
26
54
114
46
38
27
37
134

> <PUBCHEM_MMFF94_PARTIAL_CHARGES>
30
1 -0.57
10 0.33
11 0.36
12 0.57
15 0.36
16 0.14
17 0.57
19 -0.14
2 -0.57
20 0.66
21 -0.15
22 -0.15
23 -0.15
24 -0.15
25 -0.15
3 -0.65
38 0.37
4 -0.57
41 0.37
42 0.36
43 0.36
47 0.15
48 0.15
49 0.15
5 -0.73
50 0.15
51 0.15
52 0.5
6 -0.73
7 -0.99

> <PUBCHEM_EFFECTIVE_ROTOR_COUNT>
11

> <PUBCHEM_PHARMACOPHORE_FEATURES>
11
1 1 acceptor
1 2 acceptor
1 3 acceptor
1 4 acceptor
1 5 donor
1 6 donor
1 7 cation
1 7 donor
3 3 4 20 anion
3 9 13 14 hydrophobe
6 19 21 22 23 24 25 rings

> <PUBCHEM_HEAVY_ATOM_COUNT>
25

> <PUBCHEM_ATOM_DEF_STEREO_COUNT>
3

> <PUBCHEM_ATOM_UDEF_STEREO_COUNT>
0

> <PUBCHEM_BOND_DEF_STEREO_COUNT>
0

> <PUBCHEM_BOND_UDEF_STEREO_COUNT>
0

> <PUBCHEM_ISOTOPIC_ATOM_COUNT>
0

> <PUBCHEM_COMPONENT_COUNT>
1

> <PUBCHEM_CACTVS_TAUTO_COUNT>
4

> <PUBCHEM_CONFORMER_ID>
00B1983600000001

> <PUBCHEM_MMFF94_ENERGY>
47.1787

> <PUBCHEM_FEATURE_SELFOVERLAP>
55.882

> <PUBCHEM_SHAPE_FINGERPRINT>
107951 10 17748831816916704443
12011746 2 18410288103896984733
12422481 6 18050590713697949051
12596602 18 13183021796324588318
12788726 201 18339083688170142424
13402501 40 18413110546077547726
13544592 145 18342455967341288120
13941206 138 17967538939321030578
14251740 79 18411144597949196490
14251757 5 18262533609927672062
14790565 3 18338520729242274945
14840074 17 17458349628023681413
15927050 60 17622166758926500601
17093844 170 18411978070786355634
17492 54 18188477009271781127
20465049 17 18335418002223420179
20600515 1 18411428327420436021
23559900 14 18341327890276780368
3027735 51 18129390293323328738
3298306 158 18262785281909914637
4058900 60 17750512867632751449
5265222 85 18261684756485630460
5309563 4 16461927454754837362
6138700 20 18411698751345514631
6437827 68 18337393738956882606
9709674 26 18123750017737320736

> <PUBCHEM_SHAPE_MULTIPOLES>
476.07
10.95
4.39
1.28
10.55
1.55
0.14
-1.27
4.23
-1.85
-0.6
0.54
0.21
0.62

> <PUBCHEM_SHAPE_SELFOVERLAP>
958.445

> <PUBCHEM_SHAPE_VOLUME>
277.8

> <PUBCHEM_COORDINATE_TYPE>
2
5
10

$$$$
