REMARK  Name = 11632737
REMARK  5 active torsions:
REMARK  status: ('A' for Active; 'I' for Inactive)
REMARK    1  A    between atoms: N_1  and  C_8
REMARK    2  A    between atoms: N_1  and  C_18
REMARK    3  A    between atoms: C_5  and  C_13
REMARK    4  A    between atoms: N_12  and  C_15
REMARK    5  A    between atoms: C_18  and  C_22
REMARK                            x       y       z     vdW  Elec       q    Type
REMARK                         _______ _______ _______ _____ _____    ______ ____
ROOT
ATOM      1  N   UNL     1      -0.405  -0.858   0.122  0.00  0.00    -0.327 N 
ATOM      2  H   UNL     1       0.194  -1.639   0.137  0.00  0.00    +0.147 HD
ENDROOT
BRANCH   1   8
ATOM      3  F   UNL     1      -5.866  -1.718  -0.246  0.00  0.00    -0.204 F 
ATOM      4  F   UNL     1      -1.465  -3.427  -0.021  0.00  0.00    -0.203 F 
ATOM      5  C   UNL     1      -4.045  -0.202  -0.087  0.00  0.00    +0.082 C 
ATOM      6  C   UNL     1      -2.669   0.011   0.006  0.00  0.00    +0.023 C 
ATOM      7  C   UNL     1      -4.546  -1.502  -0.157  0.00  0.00    +0.147 C 
ATOM      8  C   UNL     1      -1.795  -1.075   0.029  0.00  0.00    +0.073 C 
ATOM      9  C   UNL     1      -3.672  -2.588  -0.135  0.00  0.00    +0.061 C 
ATOM     10  C   UNL     1      -2.296  -2.375  -0.042  0.00  0.00    +0.155 C 
BRANCH   5  13
ATOM     11  O   UNL     1      -4.588   2.028  -0.576  0.00  0.00    -0.270 OA
ATOM     12  N   UNL     1      -6.231   0.739   0.428  0.00  0.00    -0.302 N 
ATOM     13  C   UNL     1      -4.953   0.934  -0.110  0.00  0.00    +0.248 C 
ATOM     14  H   UNL     1      -6.458  -0.151   0.782  0.00  0.00    +0.150 HD
BRANCH  12  15
ATOM     15  C   UNL     1      -7.226   1.773   0.492  0.00  0.00    +0.072 C 
ATOM     16  C   UNL     1      -8.107   2.058  -0.680  0.00  0.00    +0.021 C 
ATOM     17  C   UNL     1      -8.678   1.429   0.557  0.00  0.00    +0.021 C 
ENDBRANCH  12  15
ENDBRANCH   5  13
ENDBRANCH   1   8
BRANCH   1  18
ATOM     18  C   UNL     1       0.174   0.448   0.198  0.00  0.00    +0.123 C 
BRANCH  18  22
ATOM     19  S   UNL     1       2.553   0.534  -1.226  0.00  0.00    -0.054 S 
ATOM     20  N   UNL     1       3.857   0.432   1.003  0.00  0.00    -0.223 NA
ATOM     21  N   UNL     1       5.197   0.535  -0.941  0.00  0.00    -0.278 N 
ATOM     22  C   UNL     1       1.678   0.455   0.230  0.00  0.00    +0.049 C 
ATOM     23  C   UNL     1       2.509   0.409   1.306  0.00  0.00    +0.105 C 
ATOM     24  C   UNL     1       3.998   0.497  -0.302  0.00  0.00    +0.164 C 
ATOM     25  H   UNL     1       5.146   0.691  -1.912  0.00  0.00    +0.155 HD
ATOM     26  N   UNL     1       6.677   0.303   0.911  0.00  0.00    -0.229 NA
ATOM     27  C   UNL     1       6.511   0.385  -0.427  0.00  0.00    +0.134 C 
ATOM     28  C   UNL     1       7.547   0.332  -1.344  0.00  0.00    +0.034 C 
ATOM     29  C   UNL     1       8.840   0.185  -0.855  0.00  0.00    +0.004 C 
ATOM     30  C   UNL     1       9.053   0.097   0.516  0.00  0.00    +0.021 C 
ATOM     31  C   UNL     1       7.948   0.160   1.350  0.00  0.00    +0.100 C 
ENDBRANCH  18  22
ENDBRANCH   1  18
TORSDOF 5
