REMARK  Name = 11632731
REMARK  7 active torsions:
REMARK  status: ('A' for Active; 'I' for Inactive)
REMARK    1  A    between atoms: N_3  and  C_19
REMARK    2  A    between atoms: N_4  and  C_11
REMARK    3  A    between atoms: C_16  and  C_18
REMARK    4  A    between atoms: C_19  and  C_20
REMARK    5  A    between atoms: C_20  and  C_21
REMARK    6  A    between atoms: C_21  and  S_22
REMARK    7  A    between atoms: S_22  and  N_25
REMARK                            x       y       z     vdW  Elec       q    Type
REMARK                         _______ _______ _______ _____ _____    ______ ____
ROOT
ATOM      1  S   UNL     1       0.201  -1.328  -1.688  0.00  0.00    -0.018 S 
ATOM      2  O   UNL     1      -1.161   2.822   0.888  0.00  0.00    -0.272 OA
ATOM      3  N   UNL     1       1.343   0.920  -0.609  0.00  0.00    -0.286 N 
ATOM      4  N   UNL     1      -0.873   0.756  -0.203  0.00  0.00    -0.219 N 
ATOM      5  C   UNL     1       1.015   2.177   0.053  0.00  0.00    +0.129 C 
ATOM      6  C   UNL     1      -0.479   1.989   0.299  0.00  0.00    +0.250 C 
ATOM      7  C   UNL     1       0.209   0.099  -0.802  0.00  0.00    +0.148 C 
ATOM      8  C   UNL     1       1.728   2.337   1.396  0.00  0.00    +0.029 C 
ATOM      9  C   UNL     1       1.224   3.390  -0.853  0.00  0.00    +0.029 C 
ENDROOT
BRANCH   4  11
ATOM     10 CL   UNL     1      -4.053  -3.241   0.218  0.00  0.00    -0.082 Cl
ATOM     11  C   UNL     1      -2.218   0.289  -0.086  0.00  0.00    +0.061 C 
ATOM     12  C   UNL     1      -2.476  -1.079   0.000  0.00  0.00    +0.027 C 
ATOM     13  C   UNL     1      -3.272   1.201  -0.059  0.00  0.00    +0.016 C 
ATOM     14  C   UNL     1      -3.789  -1.535   0.114  0.00  0.00    +0.069 C 
ATOM     15  C   UNL     1      -4.586   0.745   0.055  0.00  0.00    +0.012 C 
ATOM     16  C   UNL     1      -4.844  -0.623   0.141  0.00  0.00    +0.079 C 
BRANCH  16  18
ATOM     17  N   UNL     1      -7.309  -1.392   0.349  0.00  0.00    -0.191 NA
ATOM     18  C   UNL     1      -6.207  -1.048   0.256  0.00  0.00    +0.101 C 
ENDBRANCH  16  18
ENDBRANCH   4  11
BRANCH   3  19
ATOM     19  C   UNL     1       2.701   0.670  -1.092  0.00  0.00    +0.095 C 
BRANCH  19  20
ATOM     20  C   UNL     1       3.519  -0.178  -0.124  0.00  0.00    +0.048 C 
BRANCH  20  21
ATOM     21  C   UNL     1       4.925  -0.457  -0.639  0.00  0.00    +0.170 C 
BRANCH  21  22
ATOM     22  S   UNL     1       5.834  -1.462   0.492  0.00  0.00    +0.038 S 
ATOM     23  O   UNL     1       6.049  -0.696   1.707  0.00  0.00    -0.158 OA
ATOM     24  O   UNL     1       5.209  -2.772   0.538  0.00  0.00    -0.158 OA
BRANCH  22  25
ATOM     25  N   UNL     1       7.311  -1.585  -0.350  0.00  0.00    -0.207 NA
ATOM     26  H   UNL     1       7.964  -2.153   0.189  0.00  0.00    +0.144 HD
ATOM     27  H   UNL     1       7.703  -0.654  -0.487  0.00  0.00    +0.144 HD
ENDBRANCH  22  25
ENDBRANCH  21  22
ENDBRANCH  20  21
ENDBRANCH  19  20
ENDBRANCH   3  19
TORSDOF 7
