REMARK  Name = 11631807
REMARK  9 active torsions:
REMARK  status: ('A' for Active; 'I' for Inactive)
REMARK    1  A    between atoms: O_1  and  C_6
REMARK    2  A    between atoms: O_1  and  C_17
REMARK    3  A    between atoms: C_7  and  O_12
REMARK    4  A    between atoms: C_9  and  C_15
REMARK    5  A    between atoms: C_18  and  O_22
REMARK    6  A    between atoms: C_19  and  O_24
REMARK    7  A    between atoms: C_20  and  O_26
REMARK    8  A    between atoms: C_21  and  C_28
REMARK    9  A    between atoms: C_28  and  O_29
REMARK                            x       y       z     vdW  Elec       q    Type
REMARK                         _______ _______ _______ _____ _____    ______ ____
ROOT
ATOM      1  O   UNL     1       0.370   0.693   0.921  0.00  0.00    -0.293 OA
ENDROOT
BRANCH   1   6
ATOM      2  O   UNL     1      -1.103   2.000  -0.316  0.00  0.00    -0.449 OA
ATOM      3  C   UNL     1      -1.948   0.033   0.944  0.00  0.00    +0.095 C 
ATOM      4  C   UNL     1      -3.297   0.124   0.203  0.00  0.00    +0.041 C 
ATOM      5  C   UNL     1      -3.353  -1.167  -0.625  0.00  0.00    +0.039 C 
ATOM      6  C   UNL     1      -0.809   0.663   0.115  0.00  0.00    +0.294 C 
ATOM      7  C   UNL     1      -2.795  -2.224   0.322  0.00  0.00    +0.129 C 
ATOM      8  C   UNL     1      -1.787  -1.462   1.140  0.00  0.00    -0.012 C 
ATOM      9  C   UNL     1      -3.401   1.364  -0.619  0.00  0.00    +0.057 C 
ATOM     10  C   UNL     1      -2.370   2.195  -0.795  0.00  0.00    +0.174 C 
ATOM     11  C   UNL     1      -0.886  -2.044   1.940  0.00  0.00    -0.007 C 
BRANCH   7  12
ATOM     12  O   UNL     1      -3.825  -2.697   1.180  0.00  0.00    -0.380 OA
ATOM     13  H   UNL     1      -4.479  -3.190   0.659  0.00  0.00    +0.211 HD
ENDBRANCH   7  12
BRANCH   9  15
ATOM     14  O   UNL     1      -5.695   1.049  -1.088  0.00  0.00    -0.283 OA
ATOM     15  C   UNL     1      -4.691   1.745  -1.195  0.00  0.00    +0.233 C 
ENDBRANCH   9  15
ENDBRANCH   1   6
BRANCH   1  17
ATOM     16  O   UNL     1       1.898  -0.769  -0.066  0.00  0.00    -0.326 OA
ATOM     17  C   UNL     1       1.547   0.601   0.119  0.00  0.00    +0.268 C 
ATOM     18  C   UNL     1       2.668   1.348   0.841  0.00  0.00    +0.197 C 
ATOM     19  C   UNL     1       4.006   1.172   0.123  0.00  0.00    +0.172 C 
ATOM     20  C   UNL     1       4.272  -0.298  -0.200  0.00  0.00    +0.169 C 
ATOM     21  C   UNL     1       3.058  -0.932  -0.883  0.00  0.00    +0.176 C 
BRANCH  18  22
ATOM     22  O   UNL     1       2.329   2.734   0.878  0.00  0.00    -0.378 OA
ATOM     23  H   UNL     1       1.480   2.848   1.334  0.00  0.00    +0.211 HD
ENDBRANCH  18  22
BRANCH  19  24
ATOM     24  O   UNL     1       5.062   1.638   0.965  0.00  0.00    -0.379 OA
ATOM     25  H   UNL     1       4.914   2.571   1.183  0.00  0.00    +0.211 HD
ENDBRANCH  19  24
BRANCH  20  26
ATOM     26  O   UNL     1       5.402  -0.395  -1.063  0.00  0.00    -0.379 OA
ATOM     27  H   UNL     1       6.173   0.007  -0.632  0.00  0.00    +0.211 HD
ENDBRANCH  20  26
BRANCH  21  28
ATOM     28  C   UNL     1       3.255  -2.428  -1.109  0.00  0.00    +0.169 C 
BRANCH  28  29
ATOM     29  O   UNL     1       2.093  -2.946  -1.732  0.00  0.00    -0.379 OA
ATOM     30  H   UNL     1       2.204  -3.898  -1.882  0.00  0.00    +0.211 HD
ENDBRANCH  28  29
ENDBRANCH  21  28
ENDBRANCH   1  17
TORSDOF 9
