REMARK  Name = 11638838
REMARK  11 active torsions:
REMARK  status: ('A' for Active; 'I' for Inactive)
REMARK    1  A    between atoms: N_2  and  CA_20
REMARK    2  A    between atoms: C_3  and  CA_5
REMARK    3  A    between atoms: CA_5  and  N_8
REMARK    4  A    between atoms: C_9  and  CA_11
REMARK    5  A    between atoms: CA_11  and  N_12
REMARK    6  A    between atoms: CA_11  and  CB_16
REMARK    7  A    between atoms: CB_16  and  CG_17
REMARK    8  A    between atoms: CA_20  and  C_22
REMARK    9  A    between atoms: CA_20  and  CB_25
REMARK   10  A    between atoms: C_22  and  O_23
REMARK   11  A    between atoms: CB_25  and  CG_26
REMARK                            x       y       z     vdW  Elec       q    Type
REMARK                         _______ _______ _______ _____ _____    ______ ____
ROOT
ATOM      1  O   ALA A   2      -0.885   1.227  -1.587  0.00  0.00    -0.273 OA
ATOM      2  N   PHE A   3      -2.285   0.932   0.239  0.00  0.00    -0.295 N 
ATOM      3  C   ALA A   2      -1.155   1.417  -0.403  0.00  0.00    +0.241 C 
ATOM      4  H   PHE A   3      -2.412   1.140   1.193  0.00  0.00    +0.150 HD
ENDROOT
BRANCH   3   5
ATOM      5  CA  ALA A   2      -0.292   2.268   0.520  0.00  0.00    +0.149 C 
ATOM      6  CB  ALA A   2      -0.707   3.729   0.458  0.00  0.00    +0.031 C 
BRANCH   5   8
ATOM      7  O   LEU A   1       1.536   0.228   1.430  0.00  0.00    -0.277 OA
ATOM      8  N   ALA A   2       1.087   2.096   0.125  0.00  0.00    -0.300 N 
ATOM      9  C   LEU A   1       1.893   1.080   0.618  0.00  0.00    +0.202 C 
ATOM     10  H   ALA A   2       1.472   2.728  -0.524  0.00  0.00    +0.150 HD
BRANCH   9  11
ATOM     11  CA  LEU A   1       3.314   1.142   0.068  0.00  0.00    +0.013 C 
BRANCH  11  12
ATOM     12  N   LEU A   1       4.033   2.078   0.936  0.00  0.00    +0.387 N 
ATOM     13  H1  LEU A   1       4.998   2.163   0.618  0.00  0.00    -0.089 HD
ATOM     14  H2  LEU A   1       4.021   1.730   1.895  0.00  0.00    -0.089 HD
ATOM     15  H3  LEU A   1       3.581   2.991   0.900  0.00  0.00    -0.089 HD
ENDBRANCH  11  12
BRANCH  11  16
ATOM     16  CB  LEU A   1       4.006  -0.231   0.083  0.00  0.00    -0.013 C 
BRANCH  16  17
ATOM     17  CG  LEU A   1       5.431  -0.235  -0.512  0.00  0.00    -0.002 C 
ATOM     18  CD1 LEU A   1       6.099  -1.608  -0.422  0.00  0.00    -0.000 C 
ATOM     19  CD2 LEU A   1       5.381   0.219  -1.973  0.00  0.00    -0.000 C 
ENDBRANCH  16  17
ENDBRANCH  11  16
ENDBRANCH   9  11
ENDBRANCH   5   8
ENDBRANCH   3   5
BRANCH   2  20
ATOM     20  CA  PHE A   3      -3.283   0.134  -0.434  0.00  0.00    +0.176 C 
BRANCH  20  22
ATOM     21  OXT PHE A   3      -5.600   0.409  -1.072  0.00  0.00    -0.248 OA
ATOM     22  C   PHE A   3      -4.623   0.854  -0.480  0.00  0.00    +0.332 C 
BRANCH  22  23
ATOM     23  O   PHE A   3      -4.660   2.030   0.193  0.00  0.00    -0.479 OA
ATOM     24  H   PHE A   3      -3.895   2.341   0.634  0.00  0.00    +0.295 HD
ENDBRANCH  22  23
ENDBRANCH  20  22
BRANCH  20  25
ATOM     25  CB  PHE A   3      -3.446  -1.233   0.242  0.00  0.00    +0.057 C 
BRANCH  25  26
ATOM     26  CG  PHE A   3      -2.161  -2.025   0.287  0.00  0.00    -0.020 C 
ATOM     27  CD1 PHE A   3      -1.835  -2.886  -0.761  0.00  0.00    -0.004 C 
ATOM     28  CD2 PHE A   3      -1.300  -1.895   1.376  0.00  0.00    -0.004 C 
ATOM     29  CE1 PHE A   3      -0.648  -3.617  -0.719  0.00  0.00    -0.000 C 
ATOM     30  CE2 PHE A   3      -0.113  -2.626   1.418  0.00  0.00    -0.000 C 
ATOM     31  CZ  PHE A   3       0.213  -3.487   0.370  0.00  0.00    -0.000 C 
ENDBRANCH  25  26
ENDBRANCH  20  25
ENDBRANCH   2  20
TORSDOF 11
