11646777
  -OEChem-03292013303D

 52 53  0     1  0  0  0  0  0999 V2000
    2.8566    2.2080    0.4260 F   0  0  0  0  0  0  0  0  0  0  0  0
    4.7716    1.7219   -0.4939 F   0  0  0  0  0  0  0  0  0  0  0  0
    3.5011   -1.0405   -0.7409 O   0  0  0  0  0  0  0  0  0  0  0  0
    5.0212    0.7363    1.9783 O   0  0  0  0  0  0  0  0  0  0  0  0
    4.6338   -3.3645    0.3998 O   0  0  0  0  0  0  0  0  0  0  0  0
    1.2689    1.8856   -2.4577 O   0  0  0  0  0  0  0  0  0  0  0  0
   -2.4637   -0.5251    1.7475 O   0  0  0  0  0  0  0  0  0  0  0  0
    1.5574    0.2410   -0.8605 N   0  0  0  0  0  0  0  0  0  0  0  0
   -2.4538    0.1100   -0.4900 N   0  0  0  0  0  0  0  0  0  0  0  0
   -0.6105    1.0320   -1.5065 N   0  0  0  0  0  0  0  0  0  0  0  0
    3.9710    0.2552    1.1666 C   0  0  1  0  0  0  0  0  0  0  0  0
    3.6430    1.1915    0.0335 C   0  0  0  0  0  0  0  0  0  0  0  0
    2.9874    0.2826   -0.9865 C   0  0  1  0  0  0  0  0  0  0  0  0
    4.3776   -0.9893    0.3995 C   0  0  1  0  0  0  0  0  0  0  0  0
    4.2414   -2.2667    1.2077 C   0  0  0  0  0  0  0  0  0  0  0  0
   -4.5922   -0.2828    0.6011 C   0  0  0  0  0  0  0  0  0  0  0  0
   -5.1367    1.1334    0.3160 C   0  0  0  0  0  0  0  0  0  0  0  0
   -5.0769   -1.3092   -0.4392 C   0  0  0  0  0  0  0  0  0  0  0  0
    0.9811   -0.6364    0.0351 C   0  0  0  0  0  0  0  0  0  0  0  0
    0.7665    1.0978   -1.6542 C   0  0  0  0  0  0  0  0  0  0  0  0
   -3.0640   -0.2485    0.7110 C   0  0  0  0  0  0  0  0  0  0  0  0
   -4.7500    2.1884    1.3580 C   0  0  0  0  0  0  0  0  0  0  0  0
   -4.6225   -2.7340   -0.1032 C   0  0  0  0  0  0  0  0  0  0  0  0
   -1.1094    0.1967   -0.6571 C   0  0  0  0  0  0  0  0  0  0  0  0
   -0.3398   -0.7204    0.1964 C   0  0  0  0  0  0  0  0  0  0  0  0
   -5.2646    3.5656    0.9652 C   0  0  0  0  0  0  0  0  0  0  0  0
   -5.0947   -3.7288   -1.1522 C   0  0  0  0  0  0  0  0  0  0  0  0
    3.0961    0.0849    1.8027 H   0  0  0  0  0  0  0  0  0  0  0  0
    3.2723    0.5673   -2.0049 H   0  0  0  0  0  0  0  0  0  0  0  0
    5.4034   -0.9088    0.0170 H   0  0  0  0  0  0  0  0  0  0  0  0
    3.2122   -2.4443    1.5294 H   0  0  0  0  0  0  0  0  0  0  0  0
    4.8872   -2.2367    2.0911 H   0  0  0  0  0  0  0  0  0  0  0  0
   -4.9689   -0.5928    1.5855 H   0  0  0  0  0  0  0  0  0  0  0  0
    4.7422    1.5959    2.3373 H   0  0  0  0  0  0  0  0  0  0  0  0
   -4.8167    1.4732   -0.6763 H   0  0  0  0  0  0  0  0  0  0  0  0
   -6.2326    1.0785    0.2727 H   0  0  0  0  0  0  0  0  0  0  0  0
   -4.7193   -1.0391   -1.4402 H   0  0  0  0  0  0  0  0  0  0  0  0
   -6.1731   -1.2854   -0.4814 H   0  0  0  0  0  0  0  0  0  0  0  0
    1.6103   -1.3056    0.5995 H   0  0  0  0  0  0  0  0  0  0  0  0
   -5.1592    1.9095    2.3357 H   0  0  0  0  0  0  0  0  0  0  0  0
   -3.6614    2.2443    1.4643 H   0  0  0  0  0  0  0  0  0  0  0  0
   -3.5298   -2.7860   -0.0438 H   0  0  0  0  0  0  0  0  0  0  0  0
   -5.0160   -3.0274    0.8769 H   0  0  0  0  0  0  0  0  0  0  0  0
   -0.7477   -1.5086    0.8099 H   0  0  0  0  0  0  0  0  0  0  0  0
    4.5472   -4.1660    0.9436 H   0  0  0  0  0  0  0  0  0  0  0  0
   -3.0260    0.5392   -1.2105 H   0  0  0  0  0  0  0  0  0  0  0  0
   -6.3556    3.5656    0.8754 H   0  0  0  0  0  0  0  0  0  0  0  0
   -4.9862    4.3041    1.7236 H   0  0  0  0  0  0  0  0  0  0  0  0
   -4.8401    3.8852    0.0081 H   0  0  0  0  0  0  0  0  0  0  0  0
   -4.6882   -3.4817   -2.1381 H   0  0  0  0  0  0  0  0  0  0  0  0
   -4.7645   -4.7393   -0.8921 H   0  0  0  0  0  0  0  0  0  0  0  0
   -6.1871   -3.7358   -1.2223 H   0  0  0  0  0  0  0  0  0  0  0  0
  1 12  1  0  0  0  0
  2 12  1  0  0  0  0
  3 13  1  0  0  0  0
  3 14  1  0  0  0  0
  4 11  1  0  0  0  0
  4 34  1  0  0  0  0
  5 15  1  0  0  0  0
  5 45  1  0  0  0  0
  6 20  2  0  0  0  0
  7 21  2  0  0  0  0
  8 13  1  0  0  0  0
  8 19  1  0  0  0  0
  8 20  1  0  0  0  0
  9 21  1  0  0  0  0
  9 24  1  0  0  0  0
  9 46  1  0  0  0  0
 10 20  1  0  0  0  0
 10 24  2  0  0  0  0
 11 12  1  0  0  0  0
 11 14  1  0  0  0  0
 11 28  1  0  0  0  0
 12 13  1  0  0  0  0
 13 29  1  0  0  0  0
 14 15  1  0  0  0  0
 14 30  1  0  0  0  0
 15 31  1  0  0  0  0
 15 32  1  0  0  0  0
 16 17  1  0  0  0  0
 16 18  1  0  0  0  0
 16 21  1  0  0  0  0
 16 33  1  0  0  0  0
 17 22  1  0  0  0  0
 17 35  1  0  0  0  0
 17 36  1  0  0  0  0
 18 23  1  0  0  0  0
 18 37  1  0  0  0  0
 18 38  1  0  0  0  0
 19 25  2  0  0  0  0
 19 39  1  0  0  0  0
 22 26  1  0  0  0  0
 22 40  1  0  0  0  0
 22 41  1  0  0  0  0
 23 27  1  0  0  0  0
 23 42  1  0  0  0  0
 23 43  1  0  0  0  0
 24 25  1  0  0  0  0
 25 44  1  0  0  0  0
 26 47  1  0  0  0  0
 26 48  1  0  0  0  0
 26 49  1  0  0  0  0
 27 50  1  0  0  0  0
 27 51  1  0  0  0  0
 27 52  1  0  0  0  0
M  END
> <PUBCHEM_COMPOUND_CID>
11646777

> <PUBCHEM_CONFORMER_RMSD>
1

> <PUBCHEM_CONFORMER_DIVERSEORDER>
1
19
32
26
21
18
17
20
11
14
29
13
10
8
27
30
33
6
28
25
2
5
16
3
7
12
31
22
15
9
4
24
23

> <PUBCHEM_MMFF94_PARTIAL_CHARGES>
26
1 -0.34
10 -0.66
11 0.28
12 0.68
13 0.58
14 0.28
15 0.28
16 0.06
19 -0.04
2 -0.34
20 0.84
21 0.57
24 0.5
25 -0.14
3 -0.56
34 0.4
39 0.15
4 -0.68
44 0.15
45 0.4
46 0.37
5 -0.68
6 -0.57
7 -0.57
8 -0.47
9 -0.49

> <PUBCHEM_EFFECTIVE_ROTOR_COUNT>
10

> <PUBCHEM_PHARMACOPHORE_FEATURES>
14
1 10 donor
1 26 hydrophobe
1 27 hydrophobe
1 3 acceptor
1 4 acceptor
1 4 donor
1 5 acceptor
1 5 donor
1 6 acceptor
1 7 acceptor
1 9 donor
5 16 17 18 22 23 hydrophobe
5 3 11 12 13 14 rings
6 8 10 19 20 24 25 rings

> <PUBCHEM_HEAVY_ATOM_COUNT>
27

> <PUBCHEM_ATOM_DEF_STEREO_COUNT>
3

> <PUBCHEM_ATOM_UDEF_STEREO_COUNT>
0

> <PUBCHEM_BOND_DEF_STEREO_COUNT>
0

> <PUBCHEM_BOND_UDEF_STEREO_COUNT>
0

> <PUBCHEM_ISOTOPIC_ATOM_COUNT>
0

> <PUBCHEM_COMPONENT_COUNT>
1

> <PUBCHEM_CACTVS_TAUTO_COUNT>
4

> <PUBCHEM_CONFORMER_ID>
00B1B73900000001

> <PUBCHEM_MMFF94_ENERGY>
67.4152

> <PUBCHEM_FEATURE_SELFOVERLAP>
71.103

> <PUBCHEM_SHAPE_FINGERPRINT>
10595046 47 18339643446614631267
10670039 82 15410631280494279600
10906281 52 17169290293852514132
11405975 8 18411421670236113075
12107183 9 18194966227702996715
12422481 6 18263926536214025079
12523318 42 18131067177937955891
12553582 1 16732707125089030345
12596602 18 18059854004265875530
12670546 177 10735871764026936425
13533116 47 18409166636217446315
13583140 156 17489863847763793139
15188451 53 18339913939650506287
17349148 13 18041000699964588471
17818456 19 18338243656838800297
17844677 252 18342463659733067361
1813 80 16226054370438764878
18222031 100 17967248723810981062
20645477 70 16805890717981520775
20775530 9 16881304885255472962
21728266 224 18271241733588264719
22224240 67 18191017010392549152
23522609 53 18043556982937624396
23557571 272 17703244965802617333
23559900 14 17774459173806877982
3117164 225 18268710515495983091
312425 54 18339074895876364842
5104073 3 18411982442577903163
5326457 24 18337666512003083351
5924683 9 18412543249944159815
9841814 1 16443068318061854420
9971528 1 17967818253553975596
9981440 41 18125454008301783225

> <PUBCHEM_SHAPE_MULTIPOLES>
496.81
14.3
3.47
1.61
3.59
1.37
-0.29
1.95
4.43
4.43
0.14
-0.73
-0.55
-2.79

> <PUBCHEM_SHAPE_SELFOVERLAP>
1027.692

> <PUBCHEM_SHAPE_VOLUME>
285.1

> <PUBCHEM_COORDINATE_TYPE>
2
5
10

$$$$
