REMARK  Name = 11644921
REMARK  6 active torsions:
REMARK  status: ('A' for Active; 'I' for Inactive)
REMARK    1  A    between atoms: N_1  and  C1*_13
REMARK    2  A    between atoms: C_5  and  N_23
REMARK    3  A    between atoms: C3*_10  and  O3*_14
REMARK    4  A    between atoms: C2*_11  and  O2*_16
REMARK    5  A    between atoms: C4*_12  and  C5*_18
REMARK    6  A    between atoms: C5*_18  and  O5*_19
REMARK                            x       y       z     vdW  Elec       q    Type
REMARK                         _______ _______ _______ _____ _____    ______ ____
ROOT
ATOM      1  N   UNL     1       0.046   0.038   0.452  0.00  0.00    -0.297 N 
ATOM      2  N   UNL     1      -1.436  -1.801   0.305  0.00  0.00    -0.232 NA
ATOM      3  N   UNL     1      -3.786  -1.449  -0.095  0.00  0.00    -0.232 NA
ATOM      4  C   UNL     1      -1.238  -0.452   0.269  0.00  0.00    +0.139 C 
ATOM      5  C   UNL     1      -2.294   0.434   0.052  0.00  0.00    +0.271 C 
ATOM      6  C   UNL     1      -3.545  -0.122  -0.122  0.00  0.00    +0.134 C 
ATOM      7  C   UNL     1      -2.703  -2.219   0.120  0.00  0.00    +0.253 C 
ATOM      8  H   UNL     1       0.179   1.013   0.423  0.00  0.00    +0.150 HD
ATOM      9  N   UNL     1      -4.648   0.740  -0.346  0.00  0.00    -0.344 N 
ATOM     10  H   UNL     1      -5.549   0.364  -0.473  0.00  0.00    +0.143 HD
ATOM     11  H   UNL     1      -4.513   1.715  -0.374  0.00  0.00    +0.143 HD
ENDROOT
BRANCH   1  16
ATOM     12  O4* UNL     1       2.240  -0.043   1.322  0.00  0.00    -0.333 OA
ATOM     13  C3* UNL     1       2.908  -0.362  -0.922  0.00  0.00    +0.171 C 
ATOM     14  C2* UNL     1       1.763  -1.314  -0.642  0.00  0.00    +0.186 C 
ATOM     15  C4* UNL     1       3.408  -0.052   0.483  0.00  0.00    +0.175 C 
ATOM     16  C1* UNL     1       1.198  -0.801   0.681  0.00  0.00    +0.220 C 
BRANCH  13  17
ATOM     17  O3* UNL     1       2.410   0.813  -1.549  0.00  0.00    -0.379 OA
ATOM     18  H3* UNL     1       2.097   0.596  -2.441  0.00  0.00    +0.211 HD
ENDBRANCH  13  17
BRANCH  14  19
ATOM     19  O2* UNL     1       2.288  -2.626  -0.456  0.00  0.00    -0.378 OA
ATOM     20  H2* UNL     1       2.647  -2.952  -1.296  0.00  0.00    +0.211 HD
ENDBRANCH  14  19
BRANCH  15  21
ATOM     21  C5* UNL     1       4.147   1.264   0.637  0.00  0.00    +0.169 C 
BRANCH  21  22
ATOM     22  O5* UNL     1       5.292   1.248  -0.200  0.00  0.00    -0.379 OA
ATOM     23  H5* UNL     1       5.771   2.086  -0.108  0.00  0.00    +0.211 HD
ENDBRANCH  21  22
ENDBRANCH  15  21
ENDBRANCH   1  16
BRANCH   5  26
ATOM     24  O   UNL     1      -3.058   2.592  -0.186  0.00  0.00    -0.130 OA
ATOM     25  O   UNL     1      -0.914   2.272   0.182  0.00  0.00    -0.130 OA
ATOM     26  N   UNL     1      -2.078   1.839   0.014  0.00  0.00    +0.047 N 
ENDBRANCH   5  26
TORSDOF 6
