REMARK  Name = 11648954
REMARK  11 active torsions:
REMARK  status: ('A' for Active; 'I' for Inactive)
REMARK    1  A    between atoms: C_3  and  C_9
REMARK    2  A    between atoms: C_6  and  C_25
REMARK    3  A    between atoms: N_8  and  C_11
REMARK    4  A    between atoms: C_11  and  C_12
REMARK    5  A    between atoms: C_17  and  C_20
REMARK    6  A    between atoms: N_19  and  C_20
REMARK    7  A    between atoms: N_19  and  O_23
REMARK    8  A    between atoms: C_25  and  C_27
REMARK    9  A    between atoms: C_25  and  O_37
REMARK   10  A    between atoms: C_30  and  O_33
REMARK   11  A    between atoms: O_33  and  C_36
REMARK                            x       y       z     vdW  Elec       q    Type
REMARK                         _______ _______ _______ _____ _____    ______ ____
ROOT
ATOM      1  O   UNL     1       0.148  -0.609   0.454  0.00  0.00    -0.272 OA
ATOM      2  N   UNL     1       1.277  -2.587   0.165  0.00  0.00    -0.271 N 
ATOM      3  C   UNL     1       0.462  -3.345  -0.763  0.00  0.00    +0.154 C 
ATOM      4  C   UNL     1       1.317  -4.559  -0.379  0.00  0.00    +0.051 C 
ATOM      5  C   UNL     1       2.307  -3.598   0.289  0.00  0.00    +0.096 C 
ATOM      6  C   UNL     1       1.116  -1.332   0.683  0.00  0.00    +0.257 C 
ENDROOT
BRANCH   3   9
ATOM      7  O   UNL     1      -1.450  -3.727   0.723  0.00  0.00    -0.273 OA
ATOM      8  N   UNL     1      -1.864  -2.964  -1.423  0.00  0.00    -0.299 N 
ATOM      9  C   UNL     1      -1.038  -3.377  -0.388  0.00  0.00    +0.241 C 
ATOM     10  H   UNL     1      -1.449  -2.702  -2.277  0.00  0.00    +0.150 HD
BRANCH   8  11
ATOM     11  C   UNL     1      -3.303  -2.901  -1.310  0.00  0.00    +0.116 C 
BRANCH  11  12
ATOM     12  C   UNL     1      -3.769  -1.561  -0.817  0.00  0.00    -0.003 C 
ATOM     13  C   UNL     1      -3.910  -1.343   0.549  0.00  0.00    -0.003 C 
ATOM     14  C   UNL     1      -4.054  -0.553  -1.730  0.00  0.00    -0.003 C 
ATOM     15  C   UNL     1      -4.342  -0.099   1.008  0.00  0.00    +0.003 C 
ATOM     16  C   UNL     1      -4.486   0.691  -1.271  0.00  0.00    +0.003 C 
ATOM     17  C   UNL     1      -4.630   0.919   0.097  0.00  0.00    +0.036 C 
BRANCH  17  19
ATOM     18  N   UNL     1      -6.452   2.456   0.739  0.00  0.00    -0.381 N 
ATOM     19  C   UNL     1      -5.082   2.216   0.575  0.00  0.00    +0.160 C 
ATOM     20  H   UNL     1      -6.763   3.333   1.062  0.00  0.00    +0.157 HD
ATOM     21  H   UNL     1      -7.104   1.748   0.532  0.00  0.00    +0.157 HD
BRANCH  19  22
ATOM     22  N   UNL     1      -4.173   3.143   0.840  0.00  0.00    -0.114 NA
BRANCH  22  23
ATOM     23  O   UNL     1      -2.868   2.687   0.601  0.00  0.00    -0.232 OA
ATOM     24  C   UNL     1      -1.970   3.742   0.910  0.00  0.00    +0.211 C 
ENDBRANCH  22  23
ENDBRANCH  19  22
ENDBRANCH  17  19
ENDBRANCH  11  12
ENDBRANCH   8  11
ENDBRANCH   3   9
BRANCH   6  25
ATOM     25  C   UNL     1       2.236  -0.884   1.583  0.00  0.00    +0.210 C 
BRANCH  25  27
ATOM     26 CL   UNL     1       7.184  -0.479   0.037  0.00  0.00    -0.082 Cl
ATOM     27  C   UNL     1       3.283  -0.133   0.810  0.00  0.00    +0.017 C 
ATOM     28  C   UNL     1       2.933   1.027   0.130  0.00  0.00    +0.036 C 
ATOM     29  C   UNL     1       4.589  -0.605   0.787  0.00  0.00    +0.010 C 
ATOM     30  C   UNL     1       3.905   1.726  -0.585  0.00  0.00    +0.145 C 
ATOM     31  C   UNL     1       5.561   0.094   0.071  0.00  0.00    +0.060 C 
ATOM     32  C   UNL     1       5.219   1.259  -0.615  0.00  0.00    +0.048 C 
BRANCH  30  33
ATOM     33  O   UNL     1       3.572   2.864  -1.253  0.00  0.00    -0.424 OA
BRANCH  33  36
ATOM     34  F   UNL     1       2.752   4.943  -1.049  0.00  0.00    -0.155 F 
ATOM     35  F   UNL     1       1.352   3.304  -1.335  0.00  0.00    -0.155 F 
ATOM     36  C   UNL     1       2.510   3.647  -0.720  0.00  0.00    +0.509 C 
ENDBRANCH  33  36
ENDBRANCH  30  33
ENDBRANCH  25  27
BRANCH  25  37
ATOM     37  O   UNL     1       1.667  -0.064   2.587  0.00  0.00    -0.372 OA
ATOM     38  H   UNL     1       0.995  -0.568   3.073  0.00  0.00    +0.211 HD
ENDBRANCH  25  37
ENDBRANCH   6  25
TORSDOF 11
