REMARK  Name = 11644907
REMARK  4 active torsions:
REMARK  status: ('A' for Active; 'I' for Inactive)
REMARK    1  A    between atoms: C_3  and  C_13
REMARK    2  A    between atoms: C_8  and  O_21
REMARK    3  A    between atoms: C_10  and  O_23
REMARK    4  A    between atoms: C_13  and  O_19
REMARK                            x       y       z     vdW  Elec       q    Type
REMARK                         _______ _______ _______ _____ _____    ______ ____
ROOT
ATOM      1  O   UNL     1       0.186  -0.358  -0.026  0.00  0.00    -0.454 OA
ATOM      2  O   UNL     1      -2.297   2.872   0.030  0.00  0.00    -0.286 OA
ATOM      3  C   UNL     1       0.669   0.941  -0.020  0.00  0.00    +0.158 C 
ATOM      4  C   UNL     1      -2.084   0.506   0.005  0.00  0.00    +0.107 C 
ATOM      5  C   UNL     1      -1.172  -0.548  -0.013  0.00  0.00    +0.154 C 
ATOM      6  C   UNL     1      -0.106   2.035  -0.002  0.00  0.00    +0.078 C 
ATOM      7  C   UNL     1      -1.574   1.886   0.012  0.00  0.00    +0.204 C 
ATOM      8  C   UNL     1      -3.458   0.252   0.018  0.00  0.00    +0.143 C 
ATOM      9  C   UNL     1      -1.631  -1.866  -0.020  0.00  0.00    +0.074 C 
ATOM     10  C   UNL     1      -3.002  -2.124  -0.007  0.00  0.00    +0.140 C 
ATOM     11  C   UNL     1      -3.913  -1.067   0.012  0.00  0.00    +0.073 C 
ENDROOT
BRANCH   3  13
ATOM     12  O   UNL     1       4.838  -2.168   0.069  0.00  0.00    -0.287 OA
ATOM     13  C   UNL     1       2.163   1.022  -0.035  0.00  0.00    +0.176 C 
ATOM     14  C   UNL     1       2.741   0.456   1.239  0.00  0.00    +0.015 C 
ATOM     15  C   UNL     1       2.721   0.357  -1.269  0.00  0.00    +0.015 C 
ATOM     16  C   UNL     1       3.602  -0.568   1.285  0.00  0.00    +0.041 C 
ATOM     17  C   UNL     1       3.582  -0.667  -1.249  0.00  0.00    +0.041 C 
ATOM     18  C   UNL     1       4.067  -1.214   0.038  0.00  0.00    +0.195 C 
BRANCH  13  19
ATOM     19  O   UNL     1       2.506   2.412  -0.092  0.00  0.00    -0.372 OA
ATOM     20  H   UNL     1       2.158   2.863   0.692  0.00  0.00    +0.212 HD
ENDBRANCH  13  19
ENDBRANCH   3  13
BRANCH   8  21
ATOM     21  O   UNL     1      -4.388   1.248   0.037  0.00  0.00    -0.505 OA
ATOM     22  H   UNL     1      -4.114   2.144   0.042  0.00  0.00    +0.292 HD
ENDBRANCH   8  21
BRANCH  10  23
ATOM     23  O   UNL     1      -3.452  -3.409  -0.013  0.00  0.00    -0.505 OA
ATOM     24  H   UNL     1      -2.841  -4.119  -0.025  0.00  0.00    +0.292 HD
ENDBRANCH  10  23
TORSDOF 4
