REMARK  Name = 11641515
REMARK  6 active torsions:
REMARK  status: ('A' for Active; 'I' for Inactive)
REMARK    1  A    between atoms: C_1  and  C_9
REMARK    2  A    between atoms: C_1  and  O_18
REMARK    3  A    between atoms: C_1  and  C_20
REMARK    4  A    between atoms: C_4  and  N_11
REMARK    5  A    between atoms: C_20  and  S_21
REMARK    6  A    between atoms: S_21  and  C_25
REMARK                            x       y       z     vdW  Elec       q    Type
REMARK                         _______ _______ _______ _____ _____    ______ ____
ROOT
ATOM      1  C   UNL     1       0.475   3.311  -0.159  0.00  0.00    +0.211 C 
ENDROOT
BRANCH   1   9
ATOM      2  O   UNL     1       1.703   3.624   1.843  0.00  0.00    -0.272 OA
ATOM      3  N   UNL     1       2.696   2.297   0.215  0.00  0.00    -0.277 N 
ATOM      4  C   UNL     1       4.216  -0.136  -0.185  0.00  0.00    +0.080 C 
ATOM      5  C   UNL     1       2.939   0.155  -0.981  0.00  0.00    +0.041 C 
ATOM      6  C   UNL     1       4.181   0.580   1.170  0.00  0.00    +0.041 C 
ATOM      7  C   UNL     1       2.692   1.657  -1.106  0.00  0.00    +0.095 C 
ATOM      8  C   UNL     1       3.911   2.072   1.000  0.00  0.00    +0.095 C 
ATOM      9  C   UNL     1       1.676   3.097   0.728  0.00  0.00    +0.254 C 
BRANCH   4  11
ATOM     10  O   UNL     1       6.382  -1.625  -1.224  0.00  0.00    -0.253 OA
ATOM     11  N   UNL     1       4.399  -1.557  -0.010  0.00  0.00    -0.266 N 
ATOM     12  N   UNL     1       5.646  -3.550  -0.258  0.00  0.00    -0.289 N 
ATOM     13  C   UNL     1       3.441  -2.236   0.864  0.00  0.00    +0.097 C 
ATOM     14  C   UNL     1       3.356  -3.720   0.558  0.00  0.00    +0.043 C 
ATOM     15  C   UNL     1       5.530  -2.196  -0.537  0.00  0.00    +0.304 C 
ATOM     16  C   UNL     1       4.754  -4.297   0.607  0.00  0.00    +0.093 C 
ATOM     17  H   UNL     1       6.389  -4.041  -0.678  0.00  0.00    +0.151 HD
ENDBRANCH   4  11
ENDBRANCH   1   9
BRANCH   1  18
ATOM     18  O   UNL     1       0.012   4.612   0.149  0.00  0.00    -0.375 OA
ATOM     19  H   UNL     1       0.702   5.259  -0.062  0.00  0.00    +0.211 HD
ENDBRANCH   1  18
BRANCH   1  20
ATOM     20  C   UNL     1      -0.590   2.288   0.164  0.00  0.00    +0.194 C 
BRANCH  20  21
ATOM     21  S   UNL     1      -2.030   2.536  -0.831  0.00  0.00    +0.012 S 
ATOM     22  O   UNL     1      -1.691   2.263  -2.216  0.00  0.00    -0.169 OA
ATOM     23  O   UNL     1      -2.611   3.813  -0.456  0.00  0.00    -0.169 OA
BRANCH  21  25
ATOM     24 CL   UNL     1      -6.808  -4.261   0.796  0.00  0.00    -0.082 Cl
ATOM     25  C   UNL     1      -3.135   1.260  -0.307  0.00  0.00    +0.106 C 
ATOM     26  C   UNL     1      -3.103   0.034  -0.949  0.00  0.00    +0.018 C 
ATOM     27  C   UNL     1      -4.009   1.510   0.732  0.00  0.00    +0.018 C 
ATOM     28  C   UNL     1      -3.975  -0.991  -0.545  0.00  0.00    +0.001 C 
ATOM     29  C   UNL     1      -4.878  -0.752   0.518  0.00  0.00    +0.001 C 
ATOM     30  C   UNL     1      -4.883   0.504   1.146  0.00  0.00    +0.001 C 
ATOM     31  C   UNL     1      -3.971  -2.247  -1.173  0.00  0.00    +0.001 C 
ATOM     32  C   UNL     1      -5.750  -1.776   0.922  0.00  0.00    +0.011 C 
ATOM     33  C   UNL     1      -4.844  -3.253  -0.759  0.00  0.00    +0.011 C 
ATOM     34  C   UNL     1      -5.732  -3.018   0.286  0.00  0.00    +0.058 C 
ENDBRANCH  21  25
ENDBRANCH  20  21
ENDBRANCH   1  20
TORSDOF 6
