11648954
  -OEChem-03292013303D

 57 59  0     1  0  0  0  0  0999 V2000
    7.1838   -0.4793    0.0374 Cl  0  0  0  0  0  0  0  0  0  0  0  0
    2.7519    4.9428   -1.0487 F   0  0  0  0  0  0  0  0  0  0  0  0
    1.3518    3.3036   -1.3351 F   0  0  0  0  0  0  0  0  0  0  0  0
   -1.4504   -3.7266    0.7226 O   0  0  0  0  0  0  0  0  0  0  0  0
    0.1481   -0.6088    0.4543 O   0  0  0  0  0  0  0  0  0  0  0  0
    1.6672   -0.0644    2.5867 O   0  0  0  0  0  0  0  0  0  0  0  0
    3.5717    2.8642   -1.2526 O   0  0  0  0  0  0  0  0  0  0  0  0
   -2.8676    2.6874    0.6007 O   0  0  0  0  0  0  0  0  0  0  0  0
    1.2771   -2.5868    0.1646 N   0  0  0  0  0  0  0  0  0  0  0  0
   -1.8636   -2.9643   -1.4231 N   0  0  0  0  0  0  0  0  0  0  0  0
   -6.4520    2.4560    0.7393 N   0  0  0  0  0  0  0  0  0  0  0  0
   -4.1728    3.1425    0.8397 N   0  0  0  0  0  0  0  0  0  0  0  0
    0.4619   -3.3448   -0.7631 C   0  0  1  0  0  0  0  0  0  0  0  0
    1.3166   -4.5585   -0.3793 C   0  0  0  0  0  0  0  0  0  0  0  0
    2.3074   -3.5977    0.2893 C   0  0  0  0  0  0  0  0  0  0  0  0
   -1.0375   -3.3767   -0.3879 C   0  0  0  0  0  0  0  0  0  0  0  0
    1.1164   -1.3321    0.6827 C   0  0  0  0  0  0  0  0  0  0  0  0
    2.2360   -0.8839    1.5835 C   0  0  1  0  0  0  0  0  0  0  0  0
    3.2832   -0.1326    0.8101 C   0  0  0  0  0  0  0  0  0  0  0  0
   -3.3031   -2.9007   -1.3098 C   0  0  0  0  0  0  0  0  0  0  0  0
   -3.7692   -1.5613   -0.8167 C   0  0  0  0  0  0  0  0  0  0  0  0
    2.9329    1.0268    0.1302 C   0  0  0  0  0  0  0  0  0  0  0  0
    4.5892   -0.6049    0.7866 C   0  0  0  0  0  0  0  0  0  0  0  0
    3.9052    1.7258   -0.5854 C   0  0  0  0  0  0  0  0  0  0  0  0
    5.5614    0.0940    0.0711 C   0  0  0  0  0  0  0  0  0  0  0  0
   -3.9103   -1.3430    0.5487 C   0  0  0  0  0  0  0  0  0  0  0  0
   -4.0541   -0.5531   -1.7299 C   0  0  0  0  0  0  0  0  0  0  0  0
    5.2193    1.2593   -0.6149 C   0  0  0  0  0  0  0  0  0  0  0  0
   -4.3422   -0.0985    1.0075 C   0  0  0  0  0  0  0  0  0  0  0  0
   -4.4860    0.6914   -1.2713 C   0  0  0  0  0  0  0  0  0  0  0  0
   -4.6301    0.9186    0.0974 C   0  0  0  0  0  0  0  0  0  0  0  0
   -5.0823    2.2158    0.5751 C   0  0  0  0  0  0  0  0  0  0  0  0
    2.5100    3.6475   -0.7201 C   0  0  0  0  0  0  0  0  0  0  0  0
   -1.9698    3.7422    0.9105 C   0  0  0  0  0  0  0  0  0  0  0  0
    0.6493   -3.0101   -1.7920 H   0  0  0  0  0  0  0  0  0  0  0  0
    0.8413   -5.2588    0.3172 H   0  0  0  0  0  0  0  0  0  0  0  0
    1.7216   -5.1265   -1.2223 H   0  0  0  0  0  0  0  0  0  0  0  0
    3.2019   -3.3674   -0.2956 H   0  0  0  0  0  0  0  0  0  0  0  0
    2.5714   -3.8638    1.3150 H   0  0  0  0  0  0  0  0  0  0  0  0
    2.6811   -1.7373    2.1041 H   0  0  0  0  0  0  0  0  0  0  0  0
   -1.4491   -2.6746   -2.3038 H   0  0  0  0  0  0  0  0  0  0  0  0
   -3.6527   -3.6972   -0.6421 H   0  0  0  0  0  0  0  0  0  0  0  0
   -3.7206   -3.1131   -2.3007 H   0  0  0  0  0  0  0  0  0  0  0  0
    1.0886   -0.6234    3.1334 H   0  0  0  0  0  0  0  0  0  0  0  0
    1.9015    1.3644    0.1528 H   0  0  0  0  0  0  0  0  0  0  0  0
    4.8553   -1.5131    1.3218 H   0  0  0  0  0  0  0  0  0  0  0  0
   -3.6925   -2.1272    1.2679 H   0  0  0  0  0  0  0  0  0  0  0  0
   -3.9433   -0.7185   -2.7980 H   0  0  0  0  0  0  0  0  0  0  0  0
    5.9713    1.8108   -1.1743 H   0  0  0  0  0  0  0  0  0  0  0  0
   -4.4515    0.0671    2.0762 H   0  0  0  0  0  0  0  0  0  0  0  0
   -4.7070    1.4769   -1.9894 H   0  0  0  0  0  0  0  0  0  0  0  0
    2.4039    3.5938    0.3691 H   0  0  0  0  0  0  0  0  0  0  0  0
   -7.1451    1.7441    0.5339 H   0  0  0  0  0  0  0  0  0  0  0  0
   -6.7848    3.3553    1.0696 H   0  0  0  0  0  0  0  0  0  0  0  0
   -2.0606    4.0222    1.9646 H   0  0  0  0  0  0  0  0  0  0  0  0
   -2.1655    4.6088    0.2714 H   0  0  0  0  0  0  0  0  0  0  0  0
   -0.9499    3.3938    0.7263 H   0  0  0  0  0  0  0  0  0  0  0  0
  1 25  1  0  0  0  0
  2 33  1  0  0  0  0
  3 33  1  0  0  0  0
  4 16  2  0  0  0  0
  5 17  2  0  0  0  0
  6 18  1  0  0  0  0
  6 44  1  0  0  0  0
  7 24  1  0  0  0  0
  7 33  1  0  0  0  0
  8 12  1  0  0  0  0
  8 34  1  0  0  0  0
  9 13  1  0  0  0  0
  9 15  1  0  0  0  0
  9 17  1  0  0  0  0
 10 16  1  0  0  0  0
 10 20  1  0  0  0  0
 10 41  1  0  0  0  0
 11 32  1  0  0  0  0
 11 53  1  0  0  0  0
 11 54  1  0  0  0  0
 12 32  2  0  0  0  0
 13 14  1  0  0  0  0
 13 16  1  0  0  0  0
 13 35  1  0  0  0  0
 14 15  1  0  0  0  0
 14 36  1  0  0  0  0
 14 37  1  0  0  0  0
 15 38  1  0  0  0  0
 15 39  1  0  0  0  0
 17 18  1  0  0  0  0
 18 19  1  0  0  0  0
 18 40  1  0  0  0  0
 19 22  2  0  0  0  0
 19 23  1  0  0  0  0
 20 21  1  0  0  0  0
 20 42  1  0  0  0  0
 20 43  1  0  0  0  0
 21 26  2  0  0  0  0
 21 27  1  0  0  0  0
 22 24  1  0  0  0  0
 22 45  1  0  0  0  0
 23 25  2  0  0  0  0
 23 46  1  0  0  0  0
 24 28  2  0  0  0  0
 25 28  1  0  0  0  0
 26 29  1  0  0  0  0
 26 47  1  0  0  0  0
 27 30  2  0  0  0  0
 27 48  1  0  0  0  0
 28 49  1  0  0  0  0
 29 31  2  0  0  0  0
 29 50  1  0  0  0  0
 30 31  1  0  0  0  0
 30 51  1  0  0  0  0
 31 32  1  0  0  0  0
 33 52  1  0  0  0  0
 34 55  1  0  0  0  0
 34 56  1  0  0  0  0
 34 57  1  0  0  0  0
M  END
> <PUBCHEM_COMPOUND_CID>
11648954

> <PUBCHEM_CONFORMER_RMSD>
1.2

> <PUBCHEM_CONFORMER_DIVERSEORDER>
1
134
207
154
34
101
202
11
68
113
171
224
209
122
124
55
212
175
161
117
192
62
66
216
47
119
130
225
146
14
121
179
132
195
190
30
222
112
214
174
186
22
35
33
198
167
197
71
75
91
208
108
131
230
109
39
9
168
69
106
184
18
169
87
185
125
157
36
180
205
188
16
104
144
129
19
150
170
65
123
99
187
93
151
60
57
206
100
85
218
128
23
5
79
231
56
158
61
127
136
74
115
219
213
80
114
12
164
102
140
111
163
45
67
181
220
96
70
172
90
25
165
177
84
203
226
135
88
81
17
97
53
89
46
155
201
182
229
142
152
191
72
103
37
94
145
63
183
20
32
92
73
126
189
28
204
95
58
4
105
162
107
133
15
98
51
43
153
38
52
7
166
86
211
83
27
31
173
147
50
193
118
176
82
76
228
196
217
13
148
137
199
44
8
6
160
178
116
59
194
156
149
54
139
41
227
110
138
21
49
26
10
120
3
78
221
200
29
24
223
210
141
48
2
42
159
143
215
40
64
77

> <PUBCHEM_MMFF94_PARTIAL_CHARGES>
44
1 -0.18
10 -0.73
11 -0.85
12 -0.51
13 0.28
15 0.22
16 0.58
17 0.57
18 0.48
19 -0.14
2 -0.34
20 0.44
21 -0.14
22 -0.15
23 -0.15
24 0.08
25 0.18
26 -0.15
27 -0.15
28 -0.15
29 -0.15
3 -0.34
30 -0.15
31 0.09
32 0.41
33 0.96
34 0.28
4 -0.57
41 0.37
44 0.4
45 0.15
46 0.15
47 0.15
48 0.15
49 0.15
5 -0.57
50 0.15
51 0.15
53 0.4
54 0.4
6 -0.68
7 -0.36
8 -0.22
9 -0.51

> <PUBCHEM_EFFECTIVE_ROTOR_COUNT>
11.8

> <PUBCHEM_PHARMACOPHORE_FEATURES>
11
1 10 donor
1 11 donor
1 4 acceptor
1 5 acceptor
1 6 acceptor
1 6 donor
1 7 acceptor
3 11 12 32 cation
4 9 13 14 15 rings
6 19 22 23 24 25 28 rings
6 21 26 27 29 30 31 rings

> <PUBCHEM_HEAVY_ATOM_COUNT>
34

> <PUBCHEM_ATOM_DEF_STEREO_COUNT>
2

> <PUBCHEM_ATOM_UDEF_STEREO_COUNT>
0

> <PUBCHEM_BOND_DEF_STEREO_COUNT>
1

> <PUBCHEM_BOND_UDEF_STEREO_COUNT>
0

> <PUBCHEM_ISOTOPIC_ATOM_COUNT>
0

> <PUBCHEM_COMPONENT_COUNT>
1

> <PUBCHEM_CACTVS_TAUTO_COUNT>
4

> <PUBCHEM_CONFORMER_ID>
00B1BFBA00000001

> <PUBCHEM_MMFF94_ENERGY>
88.7347

> <PUBCHEM_FEATURE_SELFOVERLAP>
55.83

> <PUBCHEM_SHAPE_FINGERPRINT>
10670039 82 18342449352885956239
10815517 723 18408882919811184580
11059048 146 18339365270030301431
11211813 163 18342465812044634190
11273773 38 18410855430316929641
11513181 2 18059009454713263431
12978246 48 18409730685814162521
14117953 113 18337952268734757589
14289585 56 17894622630917473916
14790565 3 18338237188607418598
14840074 17 18040435482105171573
15001296 14 18263640826463448605
15183329 4 18335411409823576398
15297060 5 18202849846132885417
15406563 228 18336264634872834884
16112460 7 18335418032409633964
16991981 162 17545328930775639390
19311894 1 18268710682794395247
19611394 137 17972607864462355683
20028762 73 18340772538199529428
338550 245 18341048510784829762
50677037 204 18049721016510353100
57724786 102 18267020553572018455
5895379 119 18194953278772289816
6371009 1 18267000925133496119
7288768 16 18187649072821819507

> <PUBCHEM_SHAPE_MULTIPOLES>
637.76
13.86
6.37
1.46
1.67
0.56
0.13
8.1
-0.08
-0.65
-1.5
-0.35
0.19
-3.13

> <PUBCHEM_SHAPE_SELFOVERLAP>
1343.977

> <PUBCHEM_SHAPE_VOLUME>
360.2

> <PUBCHEM_COORDINATE_TYPE>
2
5
10

$$$$
