REMARK  Name = 11653181
REMARK  6 active torsions:
REMARK  status: ('A' for Active; 'I' for Inactive)
REMARK    1  A    between atoms: C_8  and  O_20
REMARK    2  A    between atoms: C_9  and  O_24
REMARK    3  A    between atoms: C_12  and  O_22
REMARK    4  A    between atoms: C_13  and  O_26
REMARK    5  A    between atoms: C_14  and  O_28
REMARK    6  A    between atoms: C_16  and  O_30
REMARK                            x       y       z     vdW  Elec       q    Type
REMARK                         _______ _______ _______ _____ _____    ______ ____
ROOT
ATOM      1  N   UNL     1      -1.285   2.312   1.676  0.00  0.00    +0.389 N 
ATOM      2  C   UNL     1      -0.329  -0.309   0.717  0.00  0.00    +0.038 C 
ATOM      3  C   UNL     1      -1.471   0.475   0.051  0.00  0.00    -0.026 C 
ATOM      4  C   UNL     1      -1.278   1.965   0.242  0.00  0.00    -0.008 C 
ATOM      5  C   UNL     1      -0.482  -1.846   0.522  0.00  0.00    +0.040 C 
ATOM      6  C   UNL     1      -0.408   0.042   2.230  0.00  0.00    -0.015 C 
ATOM      7  C   UNL     1       1.040   0.174   0.185  0.00  0.00    +0.016 C 
ATOM      8  C   UNL     1       0.000   2.409  -0.501  0.00  0.00    +0.117 C 
ATOM      9  C   UNL     1      -1.939  -2.301   0.490  0.00  0.00    +0.145 C 
ATOM     10  C   UNL     1      -0.343   1.554   2.497  0.00  0.00    -0.080 C 
ATOM     11  C   UNL     1       1.175   1.463  -0.381  0.00  0.00    +0.002 C 
ATOM     12  C   UNL     1      -2.510  -0.106  -0.589  0.00  0.00    +0.136 C 
ATOM     13  C   UNL     1      -2.706  -1.596  -0.629  0.00  0.00    +0.193 C 
ATOM     14  C   UNL     1       2.195  -0.620   0.317  0.00  0.00    +0.164 C 
ATOM     15  C   UNL     1       2.432   1.897  -0.839  0.00  0.00    +0.001 C 
ATOM     16  C   UNL     1       3.436  -0.174  -0.140  0.00  0.00    +0.172 C 
ATOM     17  C   UNL     1       3.554   1.081  -0.723  0.00  0.00    +0.040 C 
ATOM     18  H   UNL     1      -2.224   2.147   2.038  0.00  0.00    -0.084 HD
ATOM     19  H   UNL     1      -0.996   3.289   1.736  0.00  0.00    -0.084 HD
ENDROOT
BRANCH   8  20
ATOM     20  O   UNL     1      -0.300   2.540  -1.894  0.00  0.00    -0.382 OA
ATOM     21  H   UNL     1      -1.052   3.143  -2.008  0.00  0.00    +0.211 HD
ENDBRANCH   8  20
BRANCH  12  22
ATOM     22  O   UNL     1      -3.522   0.581  -1.226  0.00  0.00    -0.474 OA
ATOM     23  C   UNL     1      -4.588   0.841  -0.335  0.00  0.00    +0.252 C 
ENDBRANCH  12  22
BRANCH   9  24
ATOM     24  O   UNL     1      -2.002  -3.712   0.315  0.00  0.00    -0.382 OA
ATOM     25  H   UNL     1      -1.512  -4.149   1.029  0.00  0.00    +0.210 HD
ENDBRANCH   9  24
BRANCH  13  26
ATOM     26  O   UNL     1      -2.298  -2.081  -1.910  0.00  0.00    -0.375 OA
ATOM     27  H   UNL     1      -2.421  -3.043  -1.945  0.00  0.00    +0.211 HD
ENDBRANCH  13  26
BRANCH  14  28
ATOM     28  O   UNL     1       2.220  -1.803   0.994  0.00  0.00    -0.503 OA
ATOM     29  H   UNL     1       1.425  -2.167   1.331  0.00  0.00    +0.292 HD
ENDBRANCH  14  28
BRANCH  16  30
ATOM     30  O   UNL     1       4.552  -0.944  -0.001  0.00  0.00    -0.468 OA
ATOM     31  C   UNL     1       4.856  -1.841  -1.067  0.00  0.00    +0.253 C 
ENDBRANCH  16  30
TORSDOF 6
