11652818
  -OEChem-03292013303D

 39 40  0     0  0  0  0  0  0999 V2000
    6.6956   -1.5981    0.0050 O   0  0  0  0  0  0  0  0  0  0  0  0
    4.2189    2.6482   -0.5673 O   0  0  0  0  0  0  0  0  0  0  0  0
   -7.0076   -1.2454   -0.7403 O   0  0  0  0  0  0  0  0  0  0  0  0
   -7.2929    1.3854    0.1103 O   0  0  0  0  0  0  0  0  0  0  0  0
    0.2725   -2.3353    0.0617 O   0  0  0  0  0  0  0  0  0  0  0  0
    2.2747    2.2822    0.5911 O   0  0  0  0  0  0  0  0  0  0  0  0
    1.3181   -0.2330    0.0646 N   0  0  0  0  0  0  0  0  0  0  0  0
    2.6955   -0.5634    0.0490 C   0  0  0  0  0  0  0  0  0  0  0  0
    3.6547    0.4359    0.0471 C   0  0  0  0  0  0  0  0  0  0  0  0
    3.0497   -1.9031    0.0363 C   0  0  0  0  0  0  0  0  0  0  0  0
    5.0050    0.0868    0.0321 C   0  0  0  0  0  0  0  0  0  0  0  0
   -3.5474   -0.4058    0.0869 C   0  0  0  0  0  0  0  0  0  0  0  0
    5.3778   -1.2572    0.0192 C   0  0  0  0  0  0  0  0  0  0  0  0
    4.4001   -2.2521    0.0213 C   0  0  0  0  0  0  0  0  0  0  0  0
    0.2414   -1.1103    0.0691 C   0  0  0  0  0  0  0  0  0  0  0  0
   -2.2334   -1.0292    0.0804 C   0  0  0  0  0  0  0  0  0  0  0  0
   -4.6642   -1.1280   -0.3335 C   0  0  0  0  0  0  0  0  0  0  0  0
   -3.6907    0.9146    0.5135 C   0  0  0  0  0  0  0  0  0  0  0  0
    3.2991    1.8494    0.0634 C   0  0  0  0  0  0  0  0  0  0  0  0
   -1.0551   -0.3658    0.0869 C   0  0  0  0  0  0  0  0  0  0  0  0
   -5.9243   -0.5299   -0.3274 C   0  0  0  0  0  0  0  0  0  0  0  0
   -6.0676    0.7904    0.0993 C   0  0  0  0  0  0  0  0  0  0  0  0
   -4.9508    1.5126    0.5197 C   0  0  0  0  0  0  0  0  0  0  0  0
    3.9309    4.0508   -0.5885 C   0  0  0  0  0  0  0  0  0  0  0  0
    2.3629   -2.7353    0.0366 H   0  0  0  0  0  0  0  0  0  0  0  0
    5.7860    0.8434    0.0430 H   0  0  0  0  0  0  0  0  0  0  0  0
    1.1098    0.7619    0.0698 H   0  0  0  0  0  0  0  0  0  0  0  0
    4.6792   -3.3025    0.0113 H   0  0  0  0  0  0  0  0  0  0  0  0
   -2.2338   -2.1168    0.0582 H   0  0  0  0  0  0  0  0  0  0  0  0
   -4.5652   -2.1579   -0.6699 H   0  0  0  0  0  0  0  0  0  0  0  0
   -2.8543    1.5090    0.8691 H   0  0  0  0  0  0  0  0  0  0  0  0
   -1.0032    0.7173    0.0817 H   0  0  0  0  0  0  0  0  0  0  0  0
   -5.0495    2.5405    0.8588 H   0  0  0  0  0  0  0  0  0  0  0  0
    6.7701   -2.5678   -0.0024 H   0  0  0  0  0  0  0  0  0  0  0  0
   -7.7943   -0.6771   -0.6702 H   0  0  0  0  0  0  0  0  0  0  0  0
   -7.1993    2.2975    0.4349 H   0  0  0  0  0  0  0  0  0  0  0  0
    2.9929    4.2360   -1.1202 H   0  0  0  0  0  0  0  0  0  0  0  0
    4.7418    4.5561   -1.1197 H   0  0  0  0  0  0  0  0  0  0  0  0
    3.8817    4.4418    0.4321 H   0  0  0  0  0  0  0  0  0  0  0  0
  1 13  1  0  0  0  0
  1 34  1  0  0  0  0
  2 19  1  0  0  0  0
  2 24  1  0  0  0  0
  3 21  1  0  0  0  0
  3 35  1  0  0  0  0
  4 22  1  0  0  0  0
  4 36  1  0  0  0  0
  5 15  2  0  0  0  0
  6 19  2  0  0  0  0
  7  8  1  0  0  0  0
  7 15  1  0  0  0  0
  7 27  1  0  0  0  0
  8  9  2  0  0  0  0
  8 10  1  0  0  0  0
  9 11  1  0  0  0  0
  9 19  1  0  0  0  0
 10 14  2  0  0  0  0
 10 25  1  0  0  0  0
 11 13  2  0  0  0  0
 11 26  1  0  0  0  0
 12 16  1  0  0  0  0
 12 17  2  0  0  0  0
 12 18  1  0  0  0  0
 13 14  1  0  0  0  0
 14 28  1  0  0  0  0
 15 20  1  0  0  0  0
 16 20  2  0  0  0  0
 16 29  1  0  0  0  0
 17 21  1  0  0  0  0
 17 30  1  0  0  0  0
 18 23  2  0  0  0  0
 18 31  1  0  0  0  0
 20 32  1  0  0  0  0
 21 22  2  0  0  0  0
 22 23  1  0  0  0  0
 23 33  1  0  0  0  0
 24 37  1  0  0  0  0
 24 38  1  0  0  0  0
 24 39  1  0  0  0  0
M  END
> <PUBCHEM_COMPOUND_CID>
11652818

> <PUBCHEM_CONFORMER_RMSD>
0.8

> <PUBCHEM_CONFORMER_DIVERSEORDER>
1
31
25
12
29
13
8
23
14
7
20
9
30
18
10
17
2
32
27
6
19
22
28
11
15
3
21
24
26
4
16
5

> <PUBCHEM_MMFF94_PARTIAL_CHARGES>
36
1 -0.53
10 -0.15
11 -0.15
12 0.03
13 0.08
14 -0.15
15 0.62
16 -0.18
17 -0.15
18 -0.15
19 0.63
2 -0.43
20 -0.14
21 0.08
22 0.08
23 -0.15
24 0.28
25 0.15
26 0.15
27 0.37
28 0.15
29 0.15
3 -0.53
30 0.15
31 0.15
32 0.15
33 0.15
34 0.45
35 0.45
36 0.45
4 -0.53
5 -0.57
6 -0.57
7 -0.55
8 0.12
9 0.09

> <PUBCHEM_EFFECTIVE_ROTOR_COUNT>
6

> <PUBCHEM_PHARMACOPHORE_FEATURES>
8
1 1 donor
1 3 donor
1 4 donor
1 5 acceptor
1 6 acceptor
1 7 donor
6 12 17 18 21 22 23 rings
6 8 9 10 11 13 14 rings

> <PUBCHEM_HEAVY_ATOM_COUNT>
24

> <PUBCHEM_ATOM_DEF_STEREO_COUNT>
0

> <PUBCHEM_ATOM_UDEF_STEREO_COUNT>
0

> <PUBCHEM_BOND_DEF_STEREO_COUNT>
1

> <PUBCHEM_BOND_UDEF_STEREO_COUNT>
0

> <PUBCHEM_ISOTOPIC_ATOM_COUNT>
0

> <PUBCHEM_COMPONENT_COUNT>
1

> <PUBCHEM_CACTVS_TAUTO_COUNT>
66

> <PUBCHEM_CONFORMER_ID>
00B1CED200000001

> <PUBCHEM_MMFF94_ENERGY>
75.9289

> <PUBCHEM_FEATURE_SELFOVERLAP>
40.602

> <PUBCHEM_SHAPE_FINGERPRINT>
10050765 1 18193559085186156922
10411042 1 18049441445064030066
10595046 47 18341611577066241559
10763959 59 18040711446401575045
11045977 3 18113343028516825595
11089746 13 18334013873997584363
11315181 36 17775283846915703523
12107183 9 17548701781657327867
12166972 35 18201719535627017128
12236239 1 18131067125912837247
12403259 415 17822001000240785093
12616971 3 18131624604119888167
13167372 99 18342177735101835137
13533116 47 18341893034457069897
13785724 45 17837212576187651070
13878862 14 18263906852078812228
14170010 4 18411416229177161248
14251764 18 18407758127821170762
14528608 73 18411982485780653295
14933364 13 18409169905162013107
15183329 4 18413111636513560872
15196674 1 18411701006498666129
15348495 7 18114190769409435235
15849732 13 17775282743077602846
17844677 252 18411426107143045027
18681886 176 18201711847477678298
19427546 62 18336547235083296202
20028762 73 18201157659399946038
20157964 124 18410856594179044930
20612939 158 18410295830400907144
21033648 29 16877930647140740063
21033650 10 15194469492921766930
21315763 129 18411699855310111877
21315763 28 18411980261230654743
21315764 268 18334290968260848541
21623969 137 10159690330921851797
21709351 56 18411975828375733367
221357 26 18408319956613833724
23559900 14 18343576335298806587
245318 6 17534920872024047549
249057 25 17988650679138797417
2838139 119 18408602544345724757
29717793 49 18060140920686594518
3004659 81 18413667993982268458
3103668 31 17974010540524436820
335352 9 18410295809685966470
34797466 226 17988656232779099607
350125 39 18408604738815861988
397830 11 17750530636007329553
4073 2 18113905999771367506
4325135 7 18201717341357768383
44555599 121 18271252629983858409
5104073 3 18113617940556538098
513532 50 18059868285443740988
54446538 1 18412824681501439175
59755656 520 17967531268636144163
633830 44 18334287708064191922
67856867 119 18342454863286630177

> <PUBCHEM_SHAPE_MULTIPOLES>
453.71
18.87
3.11
0.68
20.06
3
0.01
0.74
1.31
-5.27
0.4
0.17
0.1
-1.15

> <PUBCHEM_SHAPE_SELFOVERLAP>
975.363

> <PUBCHEM_SHAPE_VOLUME>
248.9

> <PUBCHEM_COORDINATE_TYPE>
2
5
10

$$$$
