11653580
  -OEChem-03292013303D

 42 45  0     1  0  0  0  0  0999 V2000
   -0.1949    2.1778    0.7995 F   0  0  0  0  0  0  0  0  0  0  0  0
   -6.4963   -0.8909    0.2586 O   0  0  0  0  0  0  0  0  0  0  0  0
   -8.3652    0.8048   -1.0181 O   0  0  0  0  0  0  0  0  0  0  0  0
   -4.9092   -2.3839   -0.3704 O   0  0  0  0  0  0  0  0  0  0  0  0
   -4.3517   -0.1905    0.3199 N   0  0  0  0  0  0  0  0  0  0  0  0
    3.4512   -0.3880    0.9503 N   0  0  0  0  0  0  0  0  0  0  0  0
    6.2054   -0.3412    0.8193 N   0  0  0  0  0  0  0  0  0  0  0  0
    7.4212   -0.1558    0.2859 N   0  0  0  0  0  0  0  0  0  0  0  0
    6.1711    0.3986   -1.3206 N   0  0  0  0  0  0  0  0  0  0  0  0
    7.4488    0.2817   -0.9806 N   0  0  0  0  0  0  0  0  0  0  0  0
   -6.5458    0.5216    0.5044 C   0  0  1  0  0  0  0  0  0  0  0  0
   -5.1249    0.8880    0.8751 C   0  0  0  0  0  0  0  0  0  0  0  0
   -2.9317   -0.1492    0.2181 C   0  0  0  0  0  0  0  0  0  0  0  0
   -7.0371    1.2227   -0.7547 C   0  0  0  0  0  0  0  0  0  0  0  0
   -5.1915   -1.2596    0.0191 C   0  0  0  0  0  0  0  0  0  0  0  0
   -2.2347    1.0128    0.5628 C   0  0  0  0  0  0  0  0  0  0  0  0
   -2.2247   -1.2704   -0.2270 C   0  0  0  0  0  0  0  0  0  0  0  0
   -0.1437   -0.0680    0.0188 C   0  0  0  0  0  0  0  0  0  0  0  0
   -0.8440    1.0534    0.4634 C   0  0  0  0  0  0  0  0  0  0  0  0
   -0.8339   -1.2300   -0.3264 C   0  0  0  0  0  0  0  0  0  0  0  0
    1.2988   -0.0309   -0.0856 C   0  0  0  0  0  0  0  0  0  0  0  0
    1.9196    0.3754   -1.2598 C   0  0  0  0  0  0  0  0  0  0  0  0
    2.0997   -0.3995    0.9814 C   0  0  0  0  0  0  0  0  0  0  0  0
    3.3081    0.4004   -1.3305 C   0  0  0  0  0  0  0  0  0  0  0  0
    4.0217    0.0127   -0.2080 C   0  0  0  0  0  0  0  0  0  0  0  0
    5.4565    0.0193   -0.2246 C   0  0  0  0  0  0  0  0  0  0  0  0
    8.6272   -0.4112    1.0296 C   0  0  0  0  0  0  0  0  0  0  0  0
   -7.2378    0.7043    1.3337 H   0  0  0  0  0  0  0  0  0  0  0  0
   -4.8415    1.8662    0.4763 H   0  0  0  0  0  0  0  0  0  0  0  0
   -4.9903    0.8762    1.9627 H   0  0  0  0  0  0  0  0  0  0  0  0
   -6.4272    0.9717   -1.6289 H   0  0  0  0  0  0  0  0  0  0  0  0
   -7.0387    2.3091   -0.6262 H   0  0  0  0  0  0  0  0  0  0  0  0
   -2.7351    1.9066    0.9212 H   0  0  0  0  0  0  0  0  0  0  0  0
   -2.6967   -2.2012   -0.5117 H   0  0  0  0  0  0  0  0  0  0  0  0
   -0.3026   -2.1126   -0.6750 H   0  0  0  0  0  0  0  0  0  0  0  0
   -8.3527   -0.1617   -1.1258 H   0  0  0  0  0  0  0  0  0  0  0  0
    1.3375    0.6752   -2.1277 H   0  0  0  0  0  0  0  0  0  0  0  0
    1.6755   -0.7263    1.9265 H   0  0  0  0  0  0  0  0  0  0  0  0
    3.7888    0.7185   -2.2498 H   0  0  0  0  0  0  0  0  0  0  0  0
    8.4054   -1.0972    1.8508 H   0  0  0  0  0  0  0  0  0  0  0  0
    9.3649   -0.8617    0.3611 H   0  0  0  0  0  0  0  0  0  0  0  0
    8.9942    0.5412    1.4188 H   0  0  0  0  0  0  0  0  0  0  0  0
  1 19  1  0  0  0  0
  2 11  1  0  0  0  0
  2 15  1  0  0  0  0
  3 14  1  0  0  0  0
  3 36  1  0  0  0  0
  4 15  2  0  0  0  0
  5 12  1  0  0  0  0
  5 13  1  0  0  0  0
  5 15  1  0  0  0  0
  6 23  1  0  0  0  0
  6 25  2  0  0  0  0
  7  8  1  0  0  0  0
  7 26  2  0  0  0  0
  8 10  1  0  0  0  0
  8 27  1  0  0  0  0
  9 10  2  0  0  0  0
  9 26  1  0  0  0  0
 11 12  1  0  0  0  0
 11 14  1  0  0  0  0
 11 28  1  0  0  0  0
 12 29  1  0  0  0  0
 12 30  1  0  0  0  0
 13 16  2  0  0  0  0
 13 17  1  0  0  0  0
 14 31  1  0  0  0  0
 14 32  1  0  0  0  0
 16 19  1  0  0  0  0
 16 33  1  0  0  0  0
 17 20  2  0  0  0  0
 17 34  1  0  0  0  0
 18 19  2  0  0  0  0
 18 20  1  0  0  0  0
 18 21  1  0  0  0  0
 20 35  1  0  0  0  0
 21 22  1  0  0  0  0
 21 23  2  0  0  0  0
 22 24  2  0  0  0  0
 22 37  1  0  0  0  0
 23 38  1  0  0  0  0
 24 25  1  0  0  0  0
 24 39  1  0  0  0  0
 25 26  1  0  0  0  0
 27 40  1  0  0  0  0
 27 41  1  0  0  0  0
 27 42  1  0  0  0  0
M  END
> <PUBCHEM_COMPOUND_CID>
11653580

> <PUBCHEM_CONFORMER_RMSD>
0.8

> <PUBCHEM_CONFORMER_DIVERSEORDER>
5
35
30
42
40
44
1
22
33
15
43
7
21
31
12
37
17
41
11
20
45
9
27
26
38
8
16
34
29
36
10
25
2
32
3
28
13
24
4
14
6
23
18
39
19

> <PUBCHEM_MMFF94_PARTIAL_CHARGES>
32
1 -0.19
10 -0.42
11 0.28
12 0.3
13 0.12
14 0.28
15 0.78
16 -0.15
17 -0.15
19 0.19
2 -0.43
20 -0.15
22 -0.15
23 0.16
24 -0.15
25 0.36
26 0.46
27 0.26
3 -0.68
33 0.15
34 0.15
35 0.15
36 0.4
37 0.15
38 0.15
39 0.15
4 -0.57
5 -0.48
6 -0.62
7 -0.71
8 0.58
9 -0.23

> <PUBCHEM_EFFECTIVE_ROTOR_COUNT>
4.8

> <PUBCHEM_PHARMACOPHORE_FEATURES>
9
1 3 acceptor
1 3 donor
1 4 acceptor
1 6 acceptor
3 7 9 26 cation
5 2 5 11 12 15 rings
5 7 8 9 10 26 rings
6 13 16 17 18 19 20 rings
6 6 21 22 23 24 25 rings

> <PUBCHEM_HEAVY_ATOM_COUNT>
27

> <PUBCHEM_ATOM_DEF_STEREO_COUNT>
0

> <PUBCHEM_ATOM_UDEF_STEREO_COUNT>
1

> <PUBCHEM_BOND_DEF_STEREO_COUNT>
0

> <PUBCHEM_BOND_UDEF_STEREO_COUNT>
0

> <PUBCHEM_ISOTOPIC_ATOM_COUNT>
0

> <PUBCHEM_COMPONENT_COUNT>
1

> <PUBCHEM_CACTVS_TAUTO_COUNT>
1

> <PUBCHEM_CONFORMER_ID>
00B1D1CC00000005

> <PUBCHEM_MMFF94_ENERGY>
73.0653

> <PUBCHEM_FEATURE_SELFOVERLAP>
45.672

> <PUBCHEM_SHAPE_FINGERPRINT>
10 15 17275099549310222074
10299344 5 18040435499321885522
106641 1 11887948856767452980
11315181 36 18272938241343133905
11524674 6 16200433584853718807
11719270 70 18201441355143936686
12091667 2 17822013116744401337
12166972 35 17968099754754768532
12236239 1 18186804699066628582
12838862 33 18201144495029303750
13533116 47 18114177506967319034
13914758 101 17530965756868050468
14170010 4 15339115745962774722
14251752 14 18333449833375612493
14251764 18 17749109997531594590
14251764 46 18411136930809905152
14294032 229 18191027802786287581
15183329 4 18411704278830969093
15419008 47 17846493720945567520
15439362 3 17389115730824794668
15461852 350 17846492665258422143
15510794 2 17561086896092987854
15849732 13 18272933833999962429
16087824 20 18339643318779352217
17093844 174 18343020008601459563
18006028 8 17704354368302187465
21150785 3 16415476052430040101
21267235 1 18342464771749756354
21521721 280 15647058192093980124
21792934 111 17894622665852341628
22224240 67 15913325793326223502
23035841 295 18408041823174517882
23402539 116 18272932738762079335
23559900 14 18060698420690293409
23576562 1 18265326387016905709
3004659 81 18408887364469274472
335352 9 18341891901445313125
34797466 226 17918002698432646900
397830 11 16700881873030236450
4073 2 15719967924580646320
4325135 7 18186802469604055661
4339292 15 18337392764648438851
44389302 135 18263070056482838922
5283156 175 18333448717005765090
59755656 215 17775011163151719310
59755656 520 17240764020597398714

> <PUBCHEM_SHAPE_MULTIPOLES>
500.88
23.97
1.35
1.09
11.1
0.21
0.12
-0.77
0.67
-2.25
0.01
0.86
-0.17
-0.62

> <PUBCHEM_SHAPE_SELFOVERLAP>
1104.023

> <PUBCHEM_SHAPE_VOLUME>
274.1

> <PUBCHEM_COORDINATE_TYPE>
2
5
10

$$$$
