REMARK  Name = 11653580
REMARK  5 active torsions:
REMARK  status: ('A' for Active; 'I' for Inactive)
REMARK    1  A    between atoms: C_2  and  N_10
REMARK    2  A    between atoms: C_5  and  C_18
REMARK    3  A    between atoms: C_11  and  C_14
REMARK    4  A    between atoms: C_14  and  O_15
REMARK    5  A    between atoms: C_22  and  C_27
REMARK                            x       y       z     vdW  Elec       q    Type
REMARK                         _______ _______ _______ _____ _____    ______ ____
ROOT
ATOM      1  F   UNL     1      -0.195   2.178   0.799  0.00  0.00    -0.204 F 
ATOM      2  C   UNL     1      -2.932  -0.149   0.218  0.00  0.00    +0.059 C 
ATOM      3  C   UNL     1      -2.235   1.013   0.563  0.00  0.00    +0.045 C 
ATOM      4  C   UNL     1      -2.225  -1.270  -0.227  0.00  0.00    +0.015 C 
ATOM      5  C   UNL     1      -0.144  -0.068   0.019  0.00  0.00    +0.029 C 
ATOM      6  C   UNL     1      -0.844   1.053   0.463  0.00  0.00    +0.141 C 
ATOM      7  C   UNL     1      -0.834  -1.230  -0.326  0.00  0.00    +0.004 C 
ENDROOT
BRANCH   2  10
ATOM      8  O   UNL     1      -6.496  -0.891   0.259  0.00  0.00    -0.434 OA
ATOM      9  O   UNL     1      -4.909  -2.384  -0.370  0.00  0.00    -0.226 OA
ATOM     10  N   UNL     1      -4.352  -0.191   0.320  0.00  0.00    -0.221 N 
ATOM     11  C   UNL     1      -6.546   0.522   0.504  0.00  0.00    +0.220 C 
ATOM     12  C   UNL     1      -5.125   0.888   0.875  0.00  0.00    +0.148 C 
ATOM     13  C   UNL     1      -5.191  -1.260   0.019  0.00  0.00    +0.409 C 
BRANCH  11  14
ATOM     14  C   UNL     1      -7.037   1.223  -0.755  0.00  0.00    +0.183 C 
BRANCH  14  15
ATOM     15  O   UNL     1      -8.365   0.805  -1.018  0.00  0.00    -0.378 OA
ATOM     16  H   UNL     1      -8.690   1.245  -1.819  0.00  0.00    +0.211 HD
ENDBRANCH  14  15
ENDBRANCH  11  14
ENDBRANCH   2  10
BRANCH   5  18
ATOM     17  N   UNL     1       3.451  -0.388   0.950  0.00  0.00    -0.234 NA
ATOM     18  C   UNL     1       1.299  -0.031  -0.086  0.00  0.00    +0.021 C 
ATOM     19  C   UNL     1       1.920   0.375  -1.260  0.00  0.00    +0.004 C 
ATOM     20  C   UNL     1       2.100  -0.400   0.981  0.00  0.00    +0.100 C 
ATOM     21  C   UNL     1       3.308   0.400  -1.331  0.00  0.00    +0.029 C 
ATOM     22  C   UNL     1       4.022   0.013  -0.208  0.00  0.00    +0.146 C 
BRANCH  22  27
ATOM     23  N   UNL     1       6.205  -0.341   0.819  0.00  0.00    -0.105 NA
ATOM     24  N   UNL     1       7.421  -0.156   0.286  0.00  0.00    -0.113 N 
ATOM     25  N   UNL     1       6.171   0.399  -1.321  0.00  0.00    -0.085 NA
ATOM     26  N   UNL     1       7.449   0.282  -0.981  0.00  0.00    -0.018 NA
ATOM     27  C   UNL     1       5.457   0.019  -0.225  0.00  0.00    +0.092 C 
ATOM     28  C   UNL     1       8.627  -0.411   1.030  0.00  0.00    +0.163 C 
ENDBRANCH  22  27
ENDBRANCH   5  18
TORSDOF 5
