REMARK  Name = 11659239
REMARK  4 active torsions:
REMARK  status: ('A' for Active; 'I' for Inactive)
REMARK    1  A    between atoms: C_9  and  O_19
REMARK    2  A    between atoms: C_11  and  O_17
REMARK    3  A    between atoms: C_12  and  O_21
REMARK    4  A    between atoms: C_15  and  O_23
REMARK                            x       y       z     vdW  Elec       q    Type
REMARK                         _______ _______ _______ _____ _____    ______ ____
ROOT
ATOM      1  O   UNL     1      -0.267   2.590   0.118  0.00  0.00    -0.286 OA
ATOM      2  O   UNL     1      -1.016  -2.699  -0.042  0.00  0.00    -0.287 OA
ATOM      3  C   UNL     1       0.733   0.448   0.097  0.00  0.00    +0.079 C 
ATOM      4  C   UNL     1       0.530  -0.933   0.055  0.00  0.00    +0.048 C 
ATOM      5  C   UNL     1      -1.784   0.821   0.021  0.00  0.00    +0.042 C 
ATOM      6  C   UNL     1      -1.988  -0.560  -0.021  0.00  0.00    +0.045 C 
ATOM      7  C   UNL     1      -0.416   1.375   0.081  0.00  0.00    +0.199 C 
ATOM      8  C   UNL     1      -0.838  -1.488  -0.006  0.00  0.00    +0.196 C 
ATOM      9  C   UNL     1       2.035   0.961   0.154  0.00  0.00    +0.174 C 
ATOM     10  C   UNL     1       1.628  -1.801   0.071  0.00  0.00    +0.043 C 
ATOM     11  C   UNL     1       3.126   0.092   0.169  0.00  0.00    +0.206 C 
ATOM     12  C   UNL     1       2.924  -1.286   0.128  0.00  0.00    +0.171 C 
ATOM     13  C   UNL     1      -3.289  -1.073  -0.079  0.00  0.00    +0.040 C 
ATOM     14  C   UNL     1      -2.882   1.689   0.005  0.00  0.00    +0.006 C 
ATOM     15  C   UNL     1      -4.381  -0.204  -0.094  0.00  0.00    +0.134 C 
ATOM     16  C   UNL     1      -4.178   1.174  -0.052  0.00  0.00    +0.037 C 
ENDROOT
BRANCH  11  17
ATOM     17  O   UNL     1       4.396   0.588   0.225  0.00  0.00    -0.465 OA
ATOM     18  C   UNL     1       5.040   0.855  -1.019  0.00  0.00    +0.253 C 
ENDBRANCH  11  17
BRANCH   9  19
ATOM     19  O   UNL     1       2.288   2.301   0.196  0.00  0.00    -0.503 OA
ATOM     20  H   UNL     1       1.578   2.912   0.188  0.00  0.00    +0.292 HD
ENDBRANCH   9  19
BRANCH  12  21
ATOM     21  O   UNL     1       3.983  -2.143   0.141  0.00  0.00    -0.503 OA
ATOM     22  H   UNL     1       3.838  -3.068   0.113  0.00  0.00    +0.292 HD
ENDBRANCH  12  21
BRANCH  15  23
ATOM     23  O   UNL     1      -5.646  -0.703  -0.149  0.00  0.00    -0.506 OA
ATOM     24  H   UNL     1      -5.783  -1.630  -0.178  0.00  0.00    +0.292 HD
ENDBRANCH  15  23
TORSDOF 4
