11655073
  -OEChem-03292013303D

 50 55  0     1  0  0  0  0  0999 V2000
   -2.5307   -0.0903   -2.2593 O   0  0  0  0  0  0  0  0  0  0  0  0
   -4.6286   -1.5703    0.3072 O   0  0  0  0  0  0  0  0  0  0  0  0
   -3.0694    2.9739   -1.1110 O   0  0  0  0  0  0  0  0  0  0  0  0
    1.5727    3.5558   -0.1071 O   0  0  0  0  0  0  0  0  0  0  0  0
    1.9738   -2.4332   -0.4326 O   0  0  0  0  0  0  0  0  0  0  0  0
    3.8700    2.5099    0.2076 O   0  0  0  0  0  0  0  0  0  0  0  0
   -0.5073   -1.5648   -0.7759 N   0  0  0  0  0  0  0  0  0  0  0  0
   -2.8250   -0.7812   -1.0467 C   0  0  2  0  0  0  0  0  0  0  0  0
   -2.3079    0.6541   -1.0398 C   0  0  1  0  0  0  0  0  0  0  0  0
   -1.9092   -1.8385   -0.5224 C   0  0  2  0  0  0  0  0  0  0  0  0
   -4.2858   -1.1221   -1.0011 C   0  0  1  0  0  0  0  0  0  0  0  0
   -0.8162    0.8519   -0.6970 C   0  0  0  0  0  0  0  0  0  0  0  0
   -3.3810    1.6638   -0.6651 C   0  0  1  0  0  0  0  0  0  0  0  0
    0.0451   -0.2881   -0.6149 C   0  0  0  0  0  0  0  0  0  0  0  0
   -4.6531   -2.1982   -2.0110 C   0  0  0  0  0  0  0  0  0  0  0  0
   -0.2351    2.1171   -0.5163 C   0  0  0  0  0  0  0  0  0  0  0  0
    1.4394   -0.1197   -0.3785 C   0  0  0  0  0  0  0  0  0  0  0  0
   -2.1854   -1.7834    0.9300 C   0  0  0  0  0  0  0  0  0  0  0  0
   -3.4398    1.5682    0.8025 C   0  0  0  0  0  0  0  0  0  0  0  0
    1.9645    1.1646   -0.2034 C   0  0  0  0  0  0  0  0  0  0  0  0
    1.1267    2.2760   -0.2683 C   0  0  0  0  0  0  0  0  0  0  0  0
    2.3717   -1.2829   -0.2949 C   0  0  0  0  0  0  0  0  0  0  0  0
    3.4030    1.3879    0.0536 C   0  0  0  0  0  0  0  0  0  0  0  0
   -2.4629   -1.4512    2.0519 C   0  0  0  0  0  0  0  0  0  0  0  0
    3.8093   -1.0588   -0.0391 C   0  0  0  0  0  0  0  0  0  0  0  0
   -3.4201    1.2155    1.9518 C   0  0  0  0  0  0  0  0  0  0  0  0
    4.3080    0.2303    0.1290 C   0  0  0  0  0  0  0  0  0  0  0  0
   -2.8534   -0.7563    3.2355 C   0  0  0  0  0  0  0  0  0  0  0  0
   -3.3020    0.5122    3.1883 C   0  0  0  0  0  0  0  0  0  0  0  0
    4.6801   -2.1543    0.0353 C   0  0  0  0  0  0  0  0  0  0  0  0
    5.6731    0.4297    0.3710 C   0  0  0  0  0  0  0  0  0  0  0  0
    6.0399   -1.9542    0.2766 C   0  0  0  0  0  0  0  0  0  0  0  0
    6.5357   -0.6637    0.4443 C   0  0  0  0  0  0  0  0  0  0  0  0
   -2.1466   -2.8281   -0.9219 H   0  0  0  0  0  0  0  0  0  0  0  0
   -4.9536   -0.2948   -1.2386 H   0  0  0  0  0  0  0  0  0  0  0  0
   -4.3595    1.4684   -1.0979 H   0  0  0  0  0  0  0  0  0  0  0  0
    0.1226   -2.3579   -0.7761 H   0  0  0  0  0  0  0  0  0  0  0  0
   -4.1706   -3.1541   -1.7838 H   0  0  0  0  0  0  0  0  0  0  0  0
   -5.7316   -2.3915   -1.9794 H   0  0  0  0  0  0  0  0  0  0  0  0
   -4.3844   -1.9076   -3.0312 H   0  0  0  0  0  0  0  0  0  0  0  0
   -0.8358    3.0181   -0.5720 H   0  0  0  0  0  0  0  0  0  0  0  0
   -4.9322   -0.7968    0.8112 H   0  0  0  0  0  0  0  0  0  0  0  0
   -2.9944    2.9416   -2.0802 H   0  0  0  0  0  0  0  0  0  0  0  0
    2.5132    3.5719    0.1222 H   0  0  0  0  0  0  0  0  0  0  0  0
   -2.7767   -1.2701    4.1877 H   0  0  0  0  0  0  0  0  0  0  0  0
   -3.5891    1.0204    4.1025 H   0  0  0  0  0  0  0  0  0  0  0  0
    4.3208   -3.1722   -0.0917 H   0  0  0  0  0  0  0  0  0  0  0  0
    6.0854    1.4262    0.5055 H   0  0  0  0  0  0  0  0  0  0  0  0
    6.7118   -2.8057    0.3337 H   0  0  0  0  0  0  0  0  0  0  0  0
    7.5942   -0.5086    0.6321 H   0  0  0  0  0  0  0  0  0  0  0  0
  1  8  1  0  0  0  0
  1  9  1  0  0  0  0
  2 11  1  0  0  0  0
  2 42  1  0  0  0  0
  3 13  1  0  0  0  0
  3 43  1  0  0  0  0
  4 21  1  0  0  0  0
  4 44  1  0  0  0  0
  5 22  2  0  0  0  0
  6 23  2  0  0  0  0
  7 10  1  0  0  0  0
  7 14  1  0  0  0  0
  7 37  1  0  0  0  0
  8  9  1  0  0  0  0
  8 10  1  0  0  0  0
  8 11  1  0  0  0  0
  9 12  1  0  0  0  0
  9 13  1  0  0  0  0
 10 18  1  0  0  0  0
 10 34  1  0  0  0  0
 11 15  1  0  0  0  0
 11 35  1  0  0  0  0
 12 14  1  0  0  0  0
 12 16  2  0  0  0  0
 13 19  1  0  0  0  0
 13 36  1  0  0  0  0
 14 17  2  0  0  0  0
 15 38  1  0  0  0  0
 15 39  1  0  0  0  0
 15 40  1  0  0  0  0
 16 21  1  0  0  0  0
 16 41  1  0  0  0  0
 17 20  1  0  0  0  0
 17 22  1  0  0  0  0
 18 24  3  0  0  0  0
 19 26  3  0  0  0  0
 20 21  2  0  0  0  0
 20 23  1  0  0  0  0
 22 25  1  0  0  0  0
 23 27  1  0  0  0  0
 24 28  1  0  0  0  0
 25 27  1  0  0  0  0
 25 30  2  0  0  0  0
 26 29  1  0  0  0  0
 27 31  2  0  0  0  0
 28 29  2  0  0  0  0
 28 45  1  0  0  0  0
 29 46  1  0  0  0  0
 30 32  1  0  0  0  0
 30 47  1  0  0  0  0
 31 33  1  0  0  0  0
 31 48  1  0  0  0  0
 32 33  2  0  0  0  0
 32 49  1  0  0  0  0
 33 50  1  0  0  0  0
M  END
> <PUBCHEM_COMPOUND_CID>
11655073

> <PUBCHEM_CONFORMER_RMSD>
0.6

> <PUBCHEM_CONFORMER_DIVERSEORDER>
1

> <PUBCHEM_MMFF94_PARTIAL_CHARGES>
43
1 -0.3
10 0.66
11 0.38
12 -0.03
13 0.57
14 0.1
16 -0.15
17 0.09
18 -0.2
19 -0.2
2 -0.68
20 0.09
21 0.08
22 0.4
23 0.4
24 -0.06
25 0.09
26 -0.06
27 0.09
28 -0.09
29 -0.09
3 -0.68
30 -0.15
31 -0.15
32 -0.15
33 -0.15
37 0.4
4 -0.53
41 0.15
42 0.4
43 0.4
44 0.45
45 0.15
46 0.15
47 0.15
48 0.15
49 0.15
5 -0.57
50 0.15
6 -0.57
7 -0.87
8 -0.04
9 0.09

> <PUBCHEM_EFFECTIVE_ROTOR_COUNT>
1.6

> <PUBCHEM_PHARMACOPHORE_FEATURES>
14
1 1 acceptor
1 2 acceptor
1 2 donor
1 3 acceptor
1 3 donor
1 4 donor
1 5 acceptor
1 6 acceptor
1 7 cation
1 7 donor
6 12 14 16 17 20 21 rings
6 17 20 22 23 25 27 rings
6 25 27 30 31 32 33 rings
7 1 7 8 9 10 12 14 rings

> <PUBCHEM_HEAVY_ATOM_COUNT>
33

> <PUBCHEM_ATOM_DEF_STEREO_COUNT>
4

> <PUBCHEM_ATOM_UDEF_STEREO_COUNT>
1

> <PUBCHEM_BOND_DEF_STEREO_COUNT>
1

> <PUBCHEM_BOND_UDEF_STEREO_COUNT>
0

> <PUBCHEM_ISOTOPIC_ATOM_COUNT>
0

> <PUBCHEM_COMPONENT_COUNT>
1

> <PUBCHEM_CACTVS_TAUTO_COUNT>
10

> <PUBCHEM_CONFORMER_ID>
00B1D7A100000001

> <PUBCHEM_MMFF94_ENERGY>
124.455

> <PUBCHEM_FEATURE_SELFOVERLAP>
71.098

> <PUBCHEM_SHAPE_FINGERPRINT>
10675989 125 16602360842414824204
1100329 8 16607720935903332270
11007060 377 18337390556564938408
11135609 12 17676499383747577712
11578080 2 13685759189667637985
12166972 35 18059005206710772338
12236239 1 17560799978633233078
12422481 6 18129671773112068626
12596602 18 17274819207598391586
12633257 1 18119280370048023897
12788726 201 17975121046920343664
13140716 1 18411140229904113580
13224815 77 18187654638713598404
14068700 675 17559942381054196207
14790565 3 18121504811501106772
15196674 1 18411691072450099492
15361156 5 18262246512923056844
15799311 1 18336560382083060990
17349148 13 18060418049187965670
17980427 23 17346884437850996360
19315092 285 17557977626821199575
21033648 29 17631429255542864522
21267235 1 18411417328251257742
23522609 53 18197243437303639404
23559900 14 18337936991620319221
335352 9 18339351960106454404
3383291 50 18040709307729758739
350125 39 18341609334834856877
392239 28 18338798919069495146
4015057 19 18261102028144526765
460360 51 18337686264546459268
497634 4 17988922279679719751
5081480 168 17056710009567585374
508706 21 17894910715484361856
5104073 3 18342165653759440258
57527295 17 17750769144200542391
6086070 43 17846775217945402424
9709674 26 18334851766108067644
9849439 229 15622883062303641755

> <PUBCHEM_SHAPE_MULTIPOLES>
638.93
12.04
3.07
2.05
15.38
1.3
1.78
-4.27
1.53
0.06
-0.57
-4.22
-0.38
-0.62

> <PUBCHEM_SHAPE_SELFOVERLAP>
1455.625

> <PUBCHEM_SHAPE_VOLUME>
324.7

> <PUBCHEM_COORDINATE_TYPE>
2
5
10

$$$$
