REMARK  Name = 11653403
REMARK  4 active torsions:
REMARK  status: ('A' for Active; 'I' for Inactive)
REMARK    1  A    between atoms: C_4  and  O_22
REMARK    2  A    between atoms: C_5  and  O_24
REMARK    3  A    between atoms: C_16  and  O_26
REMARK    4  A    between atoms: C_18  and  O_28
REMARK                            x       y       z     vdW  Elec       q    Type
REMARK                         _______ _______ _______ _____ _____    ______ ____
ROOT
ATOM      1 CL   UNL     1      -4.199  -0.272   1.869  0.00  0.00    -0.106 Cl
ATOM      2  O   UNL     1      -3.396   2.329   0.024  0.00  0.00    -0.290 OA
ATOM      3  O   UNL     1       0.946  -2.831  -0.028  0.00  0.00    -0.287 OA
ATOM      4  C   UNL     1      -3.284  -1.278  -0.532  0.00  0.00    +0.162 C 
ATOM      5  C   UNL     1      -1.859  -1.583  -0.058  0.00  0.00    +0.161 C 
ATOM      6  C   UNL     1      -3.907  -0.026   0.110  0.00  0.00    +0.149 C 
ATOM      7  C   UNL     1      -0.977  -0.363  -0.033  0.00  0.00    +0.013 C 
ATOM      8  C   UNL     1      -1.500   0.941  -0.003  0.00  0.00    +0.037 C 
ATOM      9  C   UNL     1       0.414  -0.464  -0.027  0.00  0.00    +0.040 C 
ATOM     10  C   UNL     1      -2.971   1.176   0.022  0.00  0.00    +0.188 C 
ATOM     11  C   UNL     1       1.272   0.654  -0.011  0.00  0.00    +0.040 C 
ATOM     12  C   UNL     1       2.649   0.212  -0.012  0.00  0.00    +0.040 C 
ATOM     13  C   UNL     1      -5.257   0.313  -0.539  0.00  0.00    +0.027 C 
ATOM     14  C   UNL     1      -0.648   2.070   0.011  0.00  0.00    +0.039 C 
ATOM     15  C   UNL     1       1.287  -1.669  -0.029  0.00  0.00    +0.196 C 
ATOM     16  C   UNL     1       0.742   1.930   0.005  0.00  0.00    +0.134 C 
ATOM     17  C   UNL     1       2.683  -1.189  -0.023  0.00  0.00    +0.042 C 
ATOM     18  C   UNL     1       3.836   0.925  -0.003  0.00  0.00    +0.134 C 
ATOM     19  C   UNL     1       3.855  -1.919  -0.025  0.00  0.00    +0.003 C 
ATOM     20  C   UNL     1       5.040   0.209  -0.005  0.00  0.00    +0.037 C 
ATOM     21  C   UNL     1       5.049  -1.198  -0.016  0.00  0.00    +0.003 C 
ENDROOT
BRANCH   4  22
ATOM     22  O   UNL     1      -3.268  -1.114  -1.954  0.00  0.00    -0.380 OA
ATOM     23  H   UNL     1      -2.876  -1.900  -2.366  0.00  0.00    +0.211 HD
ENDBRANCH   4  22
BRANCH   5  24
ATOM     24  O   UNL     1      -1.905  -2.196   1.228  0.00  0.00    -0.378 OA
ATOM     25  H   UNL     1      -2.477  -2.978   1.193  0.00  0.00    +0.211 HD
ENDBRANCH   5  24
BRANCH  16  26
ATOM     26  O   UNL     1       1.484   3.065   0.023  0.00  0.00    -0.506 OA
ATOM     27  H   UNL     1       2.419   3.014   0.019  0.00  0.00    +0.292 HD
ENDBRANCH  16  26
BRANCH  18  28
ATOM     28  O   UNL     1       3.915   2.278   0.006  0.00  0.00    -0.506 OA
ATOM     29  H   UNL     1       3.132   2.793   0.008  0.00  0.00    +0.292 HD
ENDBRANCH  18  28
TORSDOF 4
