REMARK  Name = 11655073
REMARK  4 active torsions:
REMARK  status: ('A' for Active; 'I' for Inactive)
REMARK    1  A    between atoms: C_5  and  C_34
REMARK    2  A    between atoms: C_9  and  O_30
REMARK    3  A    between atoms: C_16  and  O_32
REMARK    4  A    between atoms: C_34  and  O_36
REMARK                            x       y       z     vdW  Elec       q    Type
REMARK                         _______ _______ _______ _____ _____    ______ ____
ROOT
ATOM      1  O   UNL     1      -2.531  -0.090  -2.259  0.00  0.00    -0.346 OA
ATOM      2  O   UNL     1       1.974  -2.433  -0.433  0.00  0.00    -0.287 OA
ATOM      3  O   UNL     1       3.870   2.510   0.208  0.00  0.00    -0.286 OA
ATOM      4  N   UNL     1      -0.507  -1.565  -0.776  0.00  0.00    -0.322 N 
ATOM      5  C   UNL     1      -2.825  -0.781  -1.047  0.00  0.00    +0.175 C 
ATOM      6  C   UNL     1      -2.308   0.654  -1.040  0.00  0.00    +0.176 C 
ATOM      7  C   UNL     1      -1.909  -1.839  -0.522  0.00  0.00    +0.165 C 
ATOM      8  C   UNL     1      -0.816   0.852  -0.697  0.00  0.00    +0.024 C 
ATOM      9  C   UNL     1      -3.381   1.664  -0.665  0.00  0.00    +0.206 C 
ATOM     10  C   UNL     1       0.045  -0.288  -0.615  0.00  0.00    +0.047 C 
ATOM     11  C   UNL     1      -0.235   2.117  -0.516  0.00  0.00    +0.036 C 
ATOM     12  C   UNL     1       1.439  -0.120  -0.379  0.00  0.00    +0.058 C 
ATOM     13  C   UNL     1      -2.185  -1.783   0.930  0.00  0.00    -0.065 C 
ATOM     14  C   UNL     1      -3.440   1.568   0.802  0.00  0.00    -0.055 C 
ATOM     15  C   UNL     1       1.964   1.165  -0.203  0.00  0.00    +0.077 C 
ATOM     16  C   UNL     1       1.127   2.276  -0.268  0.00  0.00    +0.137 C 
ATOM     17  C   UNL     1       2.372  -1.283  -0.295  0.00  0.00    +0.197 C 
ATOM     18  C   UNL     1       3.403   1.388   0.054  0.00  0.00    +0.199 C 
ATOM     19  C   UNL     1      -2.463  -1.451   2.052  0.00  0.00    -0.061 C 
ATOM     20  C   UNL     1       3.809  -1.059  -0.039  0.00  0.00    +0.042 C 
ATOM     21  C   UNL     1      -3.420   1.216   1.952  0.00  0.00    -0.061 C 
ATOM     22  C   UNL     1       4.308   0.230   0.129  0.00  0.00    +0.042 C 
ATOM     23  C   UNL     1      -2.853  -0.756   3.236  0.00  0.00    +0.058 C 
ATOM     24  C   UNL     1      -3.302   0.512   3.188  0.00  0.00    +0.058 C 
ATOM     25  C   UNL     1       4.680  -2.154   0.035  0.00  0.00    +0.003 C 
ATOM     26  C   UNL     1       5.673   0.430   0.371  0.00  0.00    +0.003 C 
ATOM     27  C   UNL     1       6.040  -1.954   0.277  0.00  0.00    +0.000 C 
ATOM     28  C   UNL     1       6.536  -0.664   0.444  0.00  0.00    +0.000 C 
ATOM     29  H   UNL     1       0.075  -2.301  -1.071  0.00  0.00    +0.148 HD
ENDROOT
BRANCH   9  30
ATOM     30  O   UNL     1      -3.069   2.974  -1.111  0.00  0.00    -0.370 OA
ATOM     31  H   UNL     1      -3.042   2.987  -2.081  0.00  0.00    +0.212 HD
ENDBRANCH   9  30
BRANCH  16  32
ATOM     32  O   UNL     1       1.573   3.556  -0.107  0.00  0.00    -0.505 OA
ATOM     33  H   UNL     1       0.971   4.272  -0.159  0.00  0.00    +0.292 HD
ENDBRANCH  16  32
BRANCH   5  34
ATOM     34  C   UNL     1      -4.286  -1.122  -1.001  0.00  0.00    +0.141 C 
ATOM     35  C   UNL     1      -4.653  -2.198  -2.011  0.00  0.00    +0.034 C 
BRANCH  34  36
ATOM     36  O   UNL     1      -4.629  -1.570   0.307  0.00  0.00    -0.382 OA
ATOM     37  H   UNL     1      -4.396  -0.886   0.955  0.00  0.00    +0.210 HD
ENDBRANCH  34  36
ENDBRANCH   5  34
TORSDOF 4
