REMARK  Name = 11652265
REMARK  4 active torsions:
REMARK  status: ('A' for Active; 'I' for Inactive)
REMARK    1  A    between atoms: C_4  and  O_18
REMARK    2  A    between atoms: C_5  and  O_20
REMARK    3  A    between atoms: C_6  and  O_22
REMARK    4  A    between atoms: C_13  and  O_24
REMARK                            x       y       z     vdW  Elec       q    Type
REMARK                         _______ _______ _______ _____ _____    ______ ____
ROOT
ATOM      1  O   UNL     1       0.030  -1.549  -0.057  0.00  0.00    -0.477 OA
ATOM      2  O   UNL     1       0.004   2.561   0.164  0.00  0.00    -0.288 OA
ATOM      3  C   UNL     1      -1.149  -0.805  -0.448  0.00  0.00    +0.188 C 
ATOM      4  C   UNL     1      -1.256   0.505   0.373  0.00  0.00    +0.203 C 
ATOM      5  C   UNL     1      -2.378  -1.711  -0.156  0.00  0.00    +0.150 C 
ATOM      6  C   UNL     1      -2.566   1.271   0.127  0.00  0.00    +0.146 C 
ATOM      7  C   UNL     1      -3.712  -0.975  -0.357  0.00  0.00    +0.036 C 
ATOM      8  C   UNL     1      -3.784   0.369   0.383  0.00  0.00    +0.035 C 
ATOM      9  C   UNL     1      -0.002   1.336   0.181  0.00  0.00    +0.209 C 
ATOM     10  C   UNL     1      -1.063  -0.601  -1.983  0.00  0.00    +0.049 C 
ATOM     11  C   UNL     1       1.256   0.566   0.063  0.00  0.00    +0.105 C 
ATOM     12  C   UNL     1       1.198  -0.829  -0.028  0.00  0.00    +0.144 C 
ATOM     13  C   UNL     1       2.489   1.223   0.072  0.00  0.00    +0.139 C 
ATOM     14  C   UNL     1       2.381  -1.568  -0.075  0.00  0.00    +0.033 C 
ATOM     15  C   UNL     1       3.614  -0.914  -0.061  0.00  0.00    -0.016 C 
ATOM     16  C   UNL     1       3.667   0.478   0.007  0.00  0.00    +0.033 C 
ATOM     17  C   UNL     1       4.877  -1.706  -0.122  0.00  0.00    +0.031 C 
ENDROOT
BRANCH   4  18
ATOM     18  O   UNL     1      -1.222   0.229   1.785  0.00  0.00    -0.375 OA
ATOM     19  H   UNL     1      -1.993  -0.308   2.028  0.00  0.00    +0.211 HD
ENDBRANCH   4  18
BRANCH   5  20
ATOM     20  O   UNL     1      -2.333  -2.233   1.174  0.00  0.00    -0.381 OA
ATOM     21  H   UNL     1      -1.494  -2.700   1.310  0.00  0.00    +0.210 HD
ENDBRANCH   5  20
BRANCH   6  22
ATOM     22  O   UNL     1      -2.653   1.776  -1.200  0.00  0.00    -0.381 OA
ATOM     23  H   UNL     1      -1.891   2.348  -1.379  0.00  0.00    +0.210 HD
ENDBRANCH   6  22
BRANCH  13  24
ATOM     24  O   UNL     1       2.601   2.578   0.157  0.00  0.00    -0.505 OA
ATOM     25  H   UNL     1       1.831   3.109   0.202  0.00  0.00    +0.292 HD
ENDBRANCH  13  24
TORSDOF 4
