REMARK  Name = 11655595
REMARK  7 active torsions:
REMARK  status: ('A' for Active; 'I' for Inactive)
REMARK    1  A    between atoms: N_2  and  C_9
REMARK    2  A    between atoms: C_3  and  C_21
REMARK    3  A    between atoms: C_11  and  C_15
REMARK    4  A    between atoms: C_13  and  C_18
REMARK    5  A    between atoms: C_15  and  O_16
REMARK    6  A    between atoms: N_20  and  O_30
REMARK    7  A    between atoms: C_21  and  C_25
REMARK                            x       y       z     vdW  Elec       q    Type
REMARK                         _______ _______ _______ _____ _____    ______ ____
ROOT
ATOM      1  O   UNK A   0      -1.660  -1.901   1.055  0.00  0.00    -0.268 OA
ATOM      2  N   UNK A   1      -0.904   0.146   0.190  0.00  0.00    -0.291 N 
ATOM      3  C   UNK A   0      -1.777  -0.919   0.340  0.00  0.00    +0.269 C 
ATOM      4  H   UNK A   1      -1.144   0.869  -0.434  0.00  0.00    +0.150 HD
ENDROOT
BRANCH   2   9
ATOM      5  S   UNK A   1       2.279  -1.749   1.612  0.00  0.00    -0.114 S 
ATOM      6  O   UNK A   1       1.200   2.602   0.366  0.00  0.00    -0.273 OA
ATOM      7  N   UNK A   1       2.268   0.504   0.207  0.00  0.00    -0.242 N 
ATOM      8  C   UNK A   1       1.468  -0.695   0.390  0.00  0.00    +0.155 C 
ATOM      9  C   UNK A   1       0.359   0.241   0.918  0.00  0.00    +0.179 C 
ATOM     10  C   UNK A   1       1.281   1.398   0.439  0.00  0.00    +0.251 C 
ATOM     11  C   UNK A   1       3.590   0.490  -0.107  0.00  0.00    +0.128 C 
ATOM     12  C   UNK A   1       3.788  -1.944   0.601  0.00  0.00    +0.087 C 
ATOM     13  C   UNK A   1       4.329  -0.639   0.020  0.00  0.00    +0.009 C 
BRANCH  11  15
ATOM     14  O   UNK A   1       4.641   2.599   0.209  0.00  0.00    -0.244 OA
ATOM     15  C   UNK A   1       4.174   1.770  -0.544  0.00  0.00    +0.352 C 
BRANCH  15  16
ATOM     16  O   UNK A   1       4.102   1.857  -1.886  0.00  0.00    -0.476 OA
ATOM     17  H   UNK A   1       3.721   1.158  -2.381  0.00  0.00    +0.295 HD
ENDBRANCH  15  16
ENDBRANCH  11  15
BRANCH  13  18
ATOM     18  C   UNK A   1       5.726  -0.752  -0.356  0.00  0.00    -0.002 C 
ATOM     19  C   UNK A   1       6.424  -1.873  -0.219  0.00  0.00    -0.000 C 
ENDBRANCH  13  18
ENDBRANCH   2   9
BRANCH   3  21
ATOM     20  N   UNK A   0      -3.032  -1.288  -1.713  0.00  0.00    -0.079 NA
ATOM     21  C   UNK A   0      -3.013  -0.793  -0.512  0.00  0.00    +0.198 C 
BRANCH  21  25
ATOM     22  S   UNK A   0      -5.854   1.104   1.436  0.00  0.00    -0.060 S 
ATOM     23  N   UNK A   0      -5.315  -0.034  -0.821  0.00  0.00    -0.383 NA
ATOM     24  N   UNK A   0      -7.490   0.877  -0.648  0.00  0.00    -0.328 N 
ATOM     25  C   UNK A   0      -4.218  -0.123  -0.012  0.00  0.00    +0.148 C 
ATOM     26  C   UNK A   0      -4.294   0.420   1.235  0.00  0.00    +0.127 C 
ATOM     27  C   UNK A   0      -6.253   0.602  -0.155  0.00  0.00    +0.204 C 
ATOM     28  H   UNK A   0      -8.145   1.358  -0.092  0.00  0.00    +0.145 HD
ATOM     29  H   UNK A   0      -7.731   0.594  -1.560  0.00  0.00    +0.145 HD
ENDBRANCH  21  25
BRANCH  20  30
ATOM     30  O   UNK A   0      -1.819  -1.899  -2.043  0.00  0.00    -0.409 OA
ATOM     31  H   UNK A   0      -1.707  -2.295  -2.885  0.00  0.00    +0.328 HD
ENDBRANCH  20  30
ENDBRANCH   3  21
TORSDOF 7
