11653181
  -OEChem-03292013303D

 48 51  0     1  0  0  0  0  0999 V2000
   -0.3004    2.5402   -1.8944 O   0  0  0  0  0  0  0  0  0  0  0  0
   -3.5221    0.5805   -1.2263 O   0  0  0  0  0  0  0  0  0  0  0  0
   -2.0017   -3.7123    0.3146 O   0  0  0  0  0  0  0  0  0  0  0  0
   -2.2979   -2.0810   -1.9096 O   0  0  0  0  0  0  0  0  0  0  0  0
    2.2203   -1.8032    0.9938 O   0  0  0  0  0  0  0  0  0  0  0  0
    4.5523   -0.9443   -0.0008 O   0  0  0  0  0  0  0  0  0  0  0  0
   -1.2850    2.3123    1.6761 N   0  0  0  0  0  0  0  0  0  0  0  0
   -0.3287   -0.3092    0.7170 C   0  0  2  0  0  0  0  0  0  0  0  0
   -1.4712    0.4749    0.0511 C   0  0  0  0  0  0  0  0  0  0  0  0
   -1.2778    1.9649    0.2419 C   0  0  2  0  0  0  0  0  0  0  0  0
   -0.4817   -1.8460    0.5216 C   0  0  0  0  0  0  0  0  0  0  0  0
   -0.4084    0.0417    2.2301 C   0  0  0  0  0  0  0  0  0  0  0  0
    1.0397    0.1740    0.1852 C   0  0  0  0  0  0  0  0  0  0  0  0
   -0.0003    2.4095   -0.5008 C   0  0  1  0  0  0  0  0  0  0  0  0
   -1.9387   -2.3006    0.4899 C   0  0  1  0  0  0  0  0  0  0  0  0
   -0.3426    1.5539    2.4965 C   0  0  0  0  0  0  0  0  0  0  0  0
    1.1745    1.4628   -0.3810 C   0  0  0  0  0  0  0  0  0  0  0  0
   -2.5099   -0.1063   -0.5893 C   0  0  0  0  0  0  0  0  0  0  0  0
   -2.7058   -1.5958   -0.6295 C   0  0  1  0  0  0  0  0  0  0  0  0
    2.1950   -0.6203    0.3167 C   0  0  0  0  0  0  0  0  0  0  0  0
    2.4317    1.8969   -0.8385 C   0  0  0  0  0  0  0  0  0  0  0  0
    3.4364   -0.1743   -0.1399 C   0  0  0  0  0  0  0  0  0  0  0  0
    3.5539    1.0812   -0.7228 C   0  0  0  0  0  0  0  0  0  0  0  0
   -4.5881    0.8413   -0.3349 C   0  0  0  0  0  0  0  0  0  0  0  0
    4.8565   -1.8410   -1.0666 C   0  0  0  0  0  0  0  0  0  0  0  0
   -2.1215    2.5080   -0.2012 H   0  0  0  0  0  0  0  0  0  0  0  0
    0.0104   -2.4047    1.3270 H   0  0  0  0  0  0  0  0  0  0  0  0
   -0.0026   -2.1734   -0.4122 H   0  0  0  0  0  0  0  0  0  0  0  0
    0.4021   -0.4464    2.7866 H   0  0  0  0  0  0  0  0  0  0  0  0
   -1.3466   -0.3424    2.6532 H   0  0  0  0  0  0  0  0  0  0  0  0
    0.3027    3.4022   -0.1430 H   0  0  0  0  0  0  0  0  0  0  0  0
   -2.4112   -2.0801    1.4543 H   0  0  0  0  0  0  0  0  0  0  0  0
   -0.5659    1.7413    3.5533 H   0  0  0  0  0  0  0  0  0  0  0  0
    0.6739    1.9324    2.3422 H   0  0  0  0  0  0  0  0  0  0  0  0
   -3.7632   -1.8637   -0.5269 H   0  0  0  0  0  0  0  0  0  0  0  0
   -2.2274    2.1588    2.0370 H   0  0  0  0  0  0  0  0  0  0  0  0
    2.5408    2.8845   -1.2807 H   0  0  0  0  0  0  0  0  0  0  0  0
   -0.9800    3.2298   -1.9847 H   0  0  0  0  0  0  0  0  0  0  0  0
   -1.6182   -3.9202   -0.5546 H   0  0  0  0  0  0  0  0  0  0  0  0
    4.5172    1.4388   -1.0760 H   0  0  0  0  0  0  0  0  0  0  0  0
   -2.8328   -1.6255   -2.5823 H   0  0  0  0  0  0  0  0  0  0  0  0
    3.1311   -2.1413    1.0328 H   0  0  0  0  0  0  0  0  0  0  0  0
   -5.0787   -0.0820   -0.0100 H   0  0  0  0  0  0  0  0  0  0  0  0
   -5.3326    1.4428   -0.8655 H   0  0  0  0  0  0  0  0  0  0  0  0
   -4.2592    1.4145    0.5387 H   0  0  0  0  0  0  0  0  0  0  0  0
    5.0687   -1.2841   -1.9847 H   0  0  0  0  0  0  0  0  0  0  0  0
    4.0310   -2.5400   -1.2347 H   0  0  0  0  0  0  0  0  0  0  0  0
    5.7471   -2.4120   -0.7904 H   0  0  0  0  0  0  0  0  0  0  0  0
  1 14  1  0  0  0  0
  1 38  1  0  0  0  0
  2 18  1  0  0  0  0
  2 24  1  0  0  0  0
  3 15  1  0  0  0  0
  3 39  1  0  0  0  0
  4 19  1  0  0  0  0
  4 41  1  0  0  0  0
  5 20  1  0  0  0  0
  5 42  1  0  0  0  0
  6 22  1  0  0  0  0
  6 25  1  0  0  0  0
  7 10  1  0  0  0  0
  7 16  1  0  0  0  0
  7 36  1  0  0  0  0
  8  9  1  0  0  0  0
  8 11  1  0  0  0  0
  8 12  1  0  0  0  0
  8 13  1  0  0  0  0
  9 10  1  0  0  0  0
  9 18  2  0  0  0  0
 10 14  1  0  0  0  0
 10 26  1  0  0  0  0
 11 15  1  0  0  0  0
 11 27  1  0  0  0  0
 11 28  1  0  0  0  0
 12 16  1  0  0  0  0
 12 29  1  0  0  0  0
 12 30  1  0  0  0  0
 13 17  2  0  0  0  0
 13 20  1  0  0  0  0
 14 17  1  0  0  0  0
 14 31  1  0  0  0  0
 15 19  1  0  0  0  0
 15 32  1  0  0  0  0
 16 33  1  0  0  0  0
 16 34  1  0  0  0  0
 17 21  1  0  0  0  0
 18 19  1  0  0  0  0
 19 35  1  0  0  0  0
 20 22  2  0  0  0  0
 21 23  2  0  0  0  0
 21 37  1  0  0  0  0
 22 23  1  0  0  0  0
 23 40  1  0  0  0  0
 24 43  1  0  0  0  0
 24 44  1  0  0  0  0
 24 45  1  0  0  0  0
 25 46  1  0  0  0  0
 25 47  1  0  0  0  0
 25 48  1  0  0  0  0
M  END
> <PUBCHEM_COMPOUND_CID>
11653181

> <PUBCHEM_CONFORMER_RMSD>
0.6

> <PUBCHEM_CONFORMER_DIVERSEORDER>
1
4
3
2

> <PUBCHEM_MMFF94_PARTIAL_CHARGES>
30
1 -0.68
10 0.41
13 -0.14
14 0.42
15 0.28
16 0.27
17 -0.14
18 -0.06
19 0.42
2 -0.36
20 0.08
21 -0.15
22 0.08
23 -0.15
24 0.28
25 0.28
3 -0.68
36 0.36
37 0.15
38 0.4
39 0.4
4 -0.68
40 0.15
41 0.4
42 0.45
5 -0.53
6 -0.36
7 -0.9
8 0.28
9 -0.28

> <PUBCHEM_EFFECTIVE_ROTOR_COUNT>
3.4

> <PUBCHEM_PHARMACOPHORE_FEATURES>
15
1 1 acceptor
1 1 donor
1 2 acceptor
1 3 acceptor
1 3 donor
1 4 acceptor
1 4 donor
1 5 donor
1 6 acceptor
1 7 cation
1 7 donor
6 13 17 20 21 22 23 rings
6 7 8 9 10 12 16 rings
6 8 9 10 13 14 17 rings
6 8 9 11 15 18 19 rings

> <PUBCHEM_HEAVY_ATOM_COUNT>
25

> <PUBCHEM_ATOM_DEF_STEREO_COUNT>
5

> <PUBCHEM_ATOM_UDEF_STEREO_COUNT>
0

> <PUBCHEM_BOND_DEF_STEREO_COUNT>
0

> <PUBCHEM_BOND_UDEF_STEREO_COUNT>
0

> <PUBCHEM_ISOTOPIC_ATOM_COUNT>
0

> <PUBCHEM_COMPONENT_COUNT>
1

> <PUBCHEM_CACTVS_TAUTO_COUNT>
3

> <PUBCHEM_CONFORMER_ID>
00B1D03D00000001

> <PUBCHEM_MMFF94_ENERGY>
88.7825

> <PUBCHEM_FEATURE_SELFOVERLAP>
77.73

> <PUBCHEM_SHAPE_FINGERPRINT>
10165383 225 14345800400640661701
10756046 5 18262522614468340582
10863032 1 18337672047851346501
11578080 2 17771906297081493313
12035759 4 18335137540621562402
12553582 1 18261662697543906798
12654903 92 18261098721182940069
12788726 201 17845949449999854417
13140716 1 18334851766393040786
13583140 156 15912475776718313722
14115302 16 18413386540269585673
14787075 74 17123393555688527072
14790565 3 18264493888631095069
14863182 85 16471741656762819607
15163728 17 13985496977163875527
15664445 248 16014633918621117839
16752209 62 18199461074150120361
16945 1 18410570716808355481
17492 54 17968372330263231933
17909252 39 17480840345030170207
18186145 218 16950553419898284076
200 152 18202561748564575540
20600515 1 16630252509999486211
20775438 99 16976416321776855239
229495 10 17611500757739958417
2334 1 18044949097701420000
23419403 2 17699531953173521488
23557571 272 18270383014563574610
23559900 14 18342734161485392960
2748010 2 16173420018720224714
3027735 51 18125440813043904551
392239 28 10591458655607507957
7832392 63 18261104227320438229
9709674 26 18410856607375222398
9981440 41 17469041519838131984

> <PUBCHEM_SHAPE_MULTIPOLES>
474.29
6.63
3.19
1.68
4.45
1.08
-0.65
2.51
2.77
-0.99
0.25
-0.57
-0.57
-0.38

> <PUBCHEM_SHAPE_SELFOVERLAP>
1039.463

> <PUBCHEM_SHAPE_VOLUME>
251.8

> <PUBCHEM_COORDINATE_TYPE>
2
5
10

$$$$
