11655099
  -OEChem-03292013303D

 60 62  0     1  0  0  0  0  0999 V2000
    2.3095    2.1281    1.0635 O   0  0  0  0  0  0  0  0  0  0  0  0
    0.4398    3.5881   -0.0241 O   0  0  0  0  0  0  0  0  0  0  0  0
   -5.6063    0.9058   -1.5533 O   0  0  0  0  0  0  0  0  0  0  0  0
    3.4354    2.0489   -1.5034 O   0  0  0  0  0  0  0  0  0  0  0  0
    6.0630   -2.2584   -1.4891 O   0  0  0  0  0  0  0  0  0  0  0  0
   -1.1148    1.8651    0.1374 N   0  0  0  0  0  0  0  0  0  0  0  0
   -3.8184    1.0150   -0.0504 N   0  0  0  0  0  0  0  0  0  0  0  0
    4.1628   -1.0221    1.2017 N   0  0  0  0  0  0  0  0  0  0  0  0
    5.6891   -3.1416    0.6219 N   0  0  0  0  0  0  0  0  0  0  0  0
   -1.4720    0.4913    0.5626 C   0  0  1  0  0  0  0  0  0  0  0  0
   -2.9532    0.4016    0.9629 C   0  0  0  0  0  0  0  0  0  0  0  0
   -2.0303    2.5052   -0.8165 C   0  0  0  0  0  0  0  0  0  0  0  0
   -3.4810    2.3999   -0.3657 C   0  0  0  0  0  0  0  0  0  0  0  0
   -1.1195   -0.5236   -0.5293 C   0  0  0  0  0  0  0  0  0  0  0  0
    0.0877    2.5054    0.4515 C   0  0  0  0  0  0  0  0  0  0  0  0
   -4.8837    0.3920   -0.7010 C   0  0  0  0  0  0  0  0  0  0  0  0
    0.9864    1.8121    1.4451 C   0  0  2  0  0  0  0  0  0  0  0  0
   -5.1817   -1.0010   -0.3511 C   0  0  0  0  0  0  0  0  0  0  0  0
    0.7004    2.2870    2.8506 C   0  0  0  0  0  0  0  0  0  0  0  0
   -6.0743   -1.2848    0.6827 C   0  0  0  0  0  0  0  0  0  0  0  0
   -4.5729   -2.0420   -1.0521 C   0  0  0  0  0  0  0  0  0  0  0  0
    3.1114    1.0867    0.6615 C   0  0  0  0  0  0  0  0  0  0  0  0
   -6.3579   -2.6094    1.0154 C   0  0  0  0  0  0  0  0  0  0  0  0
   -4.8566   -3.3666   -0.7194 C   0  0  0  0  0  0  0  0  0  0  0  0
    3.6698    1.0474   -0.6113 C   0  0  0  0  0  0  0  0  0  0  0  0
   -5.7492   -3.6503    0.3144 C   0  0  0  0  0  0  0  0  0  0  0  0
    3.3861    0.0368    1.5228 C   0  0  0  0  0  0  0  0  0  0  0  0
    4.4744   -0.0255   -0.9786 C   0  0  0  0  0  0  0  0  0  0  0  0
    4.6882   -1.0256   -0.0439 C   0  0  0  0  0  0  0  0  0  0  0  0
    5.5186   -2.1714   -0.3733 C   0  0  0  0  0  0  0  0  0  0  0  0
    4.0465    1.9305   -2.7871 C   0  0  0  0  0  0  0  0  0  0  0  0
    6.5027   -4.3245    0.4553 C   0  0  0  0  0  0  0  0  0  0  0  0
   -0.9283    0.2081    1.4641 H   0  0  0  0  0  0  0  0  0  0  0  0
   -3.1178    0.9676    1.8887 H   0  0  0  0  0  0  0  0  0  0  0  0
   -3.2297   -0.6344    1.1713 H   0  0  0  0  0  0  0  0  0  0  0  0
   -1.7651    3.5579   -0.9583 H   0  0  0  0  0  0  0  0  0  0  0  0
   -1.8916    2.0038   -1.7813 H   0  0  0  0  0  0  0  0  0  0  0  0
   -4.1442    2.7992   -1.1394 H   0  0  0  0  0  0  0  0  0  0  0  0
   -3.6418    2.9879    0.5458 H   0  0  0  0  0  0  0  0  0  0  0  0
   -0.0534   -0.4703   -0.7753 H   0  0  0  0  0  0  0  0  0  0  0  0
   -1.6791   -0.3446   -1.4528 H   0  0  0  0  0  0  0  0  0  0  0  0
   -1.3372   -1.5433   -0.1951 H   0  0  0  0  0  0  0  0  0  0  0  0
    0.8659    0.7308    1.3999 H   0  0  0  0  0  0  0  0  0  0  0  0
    0.8551    3.3685    2.9386 H   0  0  0  0  0  0  0  0  0  0  0  0
    1.3815    1.8141    3.5657 H   0  0  0  0  0  0  0  0  0  0  0  0
   -0.3294    2.0677    3.1493 H   0  0  0  0  0  0  0  0  0  0  0  0
   -6.5538   -0.4813    1.2357 H   0  0  0  0  0  0  0  0  0  0  0  0
   -3.8772   -1.8327   -1.8605 H   0  0  0  0  0  0  0  0  0  0  0  0
   -7.0526   -2.8302    1.8205 H   0  0  0  0  0  0  0  0  0  0  0  0
   -4.3827   -4.1771   -1.2653 H   0  0  0  0  0  0  0  0  0  0  0  0
   -5.9700   -4.6816    0.5735 H   0  0  0  0  0  0  0  0  0  0  0  0
    2.9891    0.0122    2.5327 H   0  0  0  0  0  0  0  0  0  0  0  0
    4.9382   -0.1179   -1.9526 H   0  0  0  0  0  0  0  0  0  0  0  0
    5.1395    1.9448   -2.7168 H   0  0  0  0  0  0  0  0  0  0  0  0
    3.6745    1.0560   -3.3318 H   0  0  0  0  0  0  0  0  0  0  0  0
    3.7537    2.8130   -3.3655 H   0  0  0  0  0  0  0  0  0  0  0  0
    5.2034   -3.0250    1.5066 H   0  0  0  0  0  0  0  0  0  0  0  0
    7.2841   -4.1548   -0.2895 H   0  0  0  0  0  0  0  0  0  0  0  0
    6.9520   -4.5734    1.4194 H   0  0  0  0  0  0  0  0  0  0  0  0
    5.8551   -5.1422    0.1298 H   0  0  0  0  0  0  0  0  0  0  0  0
  1 17  1  0  0  0  0
  1 22  1  0  0  0  0
  2 15  2  0  0  0  0
  3 16  2  0  0  0  0
  4 25  1  0  0  0  0
  4 31  1  0  0  0  0
  5 30  2  0  0  0  0
  6 10  1  0  0  0  0
  6 12  1  0  0  0  0
  6 15  1  0  0  0  0
  7 11  1  0  0  0  0
  7 13  1  0  0  0  0
  7 16  1  0  0  0  0
  8 27  1  0  0  0  0
  8 29  2  0  0  0  0
  9 30  1  0  0  0  0
  9 32  1  0  0  0  0
  9 57  1  0  0  0  0
 10 11  1  0  0  0  0
 10 14  1  0  0  0  0
 10 33  1  0  0  0  0
 11 34  1  0  0  0  0
 11 35  1  0  0  0  0
 12 13  1  0  0  0  0
 12 36  1  0  0  0  0
 12 37  1  0  0  0  0
 13 38  1  0  0  0  0
 13 39  1  0  0  0  0
 14 40  1  0  0  0  0
 14 41  1  0  0  0  0
 14 42  1  0  0  0  0
 15 17  1  0  0  0  0
 16 18  1  0  0  0  0
 17 19  1  0  0  0  0
 17 43  1  0  0  0  0
 18 20  2  0  0  0  0
 18 21  1  0  0  0  0
 19 44  1  0  0  0  0
 19 45  1  0  0  0  0
 19 46  1  0  0  0  0
 20 23  1  0  0  0  0
 20 47  1  0  0  0  0
 21 24  2  0  0  0  0
 21 48  1  0  0  0  0
 22 25  1  0  0  0  0
 22 27  2  0  0  0  0
 23 26  2  0  0  0  0
 23 49  1  0  0  0  0
 24 26  1  0  0  0  0
 24 50  1  0  0  0  0
 25 28  2  0  0  0  0
 26 51  1  0  0  0  0
 27 52  1  0  0  0  0
 28 29  1  0  0  0  0
 28 53  1  0  0  0  0
 29 30  1  0  0  0  0
 31 54  1  0  0  0  0
 31 55  1  0  0  0  0
 31 56  1  0  0  0  0
 32 58  1  0  0  0  0
 32 59  1  0  0  0  0
 32 60  1  0  0  0  0
M  END
> <PUBCHEM_COMPOUND_CID>
11655099

> <PUBCHEM_CONFORMER_RMSD>
1.2

> <PUBCHEM_CONFORMER_DIVERSEORDER>
1
35
84
115
48
45
47
111
128
61
73
116
18
93
91
107
62
76
104
102
133
25
99
105
114
63
87
83
39
81
41
28
97
90
122
85
68
101
31
121
132
38
55
125
129
59
7
112
98
134
119
50
58
56
10
13
80
26
89
82
22
110
103
9
60
64
95
37
24
11
77
131
109
118
42
106
65
36
92
78
17
8
127
113
72
120
124
33
67
23
86
4
27
130
52
51
74
117
66
71
94
29
19
70
88
3
14
15
21
126
100
54
123
30
96
5
57
40
79
53
2
46
75
20
44
32
69
6
43
108
49
16
12
34

> <PUBCHEM_MMFF94_PARTIAL_CHARGES>
38
1 -0.36
10 0.3
11 0.3
12 0.3
13 0.3
15 0.57
16 0.54
17 0.34
18 0.09
2 -0.57
20 -0.15
21 -0.15
22 0.08
23 -0.15
24 -0.15
25 0.08
26 -0.15
27 0.16
28 -0.15
29 0.4
3 -0.57
30 0.54
31 0.28
32 0.3
4 -0.36
47 0.15
48 0.15
49 0.15
5 -0.57
50 0.15
51 0.15
52 0.15
53 0.15
57 0.37
6 -0.66
7 -0.66
8 -0.62
9 -0.73

> <PUBCHEM_EFFECTIVE_ROTOR_COUNT>
10.2

> <PUBCHEM_PHARMACOPHORE_FEATURES>
10
1 1 acceptor
1 2 acceptor
1 3 acceptor
1 4 acceptor
1 5 acceptor
1 8 acceptor
1 9 donor
6 18 20 21 23 24 26 rings
6 6 7 10 11 12 13 rings
6 8 22 25 27 28 29 rings

> <PUBCHEM_HEAVY_ATOM_COUNT>
32

> <PUBCHEM_ATOM_DEF_STEREO_COUNT>
2

> <PUBCHEM_ATOM_UDEF_STEREO_COUNT>
0

> <PUBCHEM_BOND_DEF_STEREO_COUNT>
0

> <PUBCHEM_BOND_UDEF_STEREO_COUNT>
0

> <PUBCHEM_ISOTOPIC_ATOM_COUNT>
0

> <PUBCHEM_COMPONENT_COUNT>
1

> <PUBCHEM_CACTVS_TAUTO_COUNT>
2

> <PUBCHEM_CONFORMER_ID>
00B1D7BB00000001

> <PUBCHEM_MMFF94_ENERGY>
101.745

> <PUBCHEM_FEATURE_SELFOVERLAP>
50.765

> <PUBCHEM_SHAPE_FINGERPRINT>
10074138 170 16843902849610294505
10622 236 18189048699515675298
10928967 22 18200306749084833175
11135609 99 18271799083162905318
117089 54 18410579491453505995
11796584 16 18267861688435758976
11991303 11 17896587415979996101
12166972 35 18259991465744980126
12422481 6 17417539119971991231
12633046 712 18410844474051017781
1361 4 18410294743726935782
13690498 29 18187366480783950061
13782708 43 18413107264490243003
13947930 73 18131911550953954494
14068700 675 18265051345768847616
14251764 30 18410856572688481739
14347332 77 18335980982568750885
14420673 8 18341612577867493955
14951699 99 10807928293208302818
15019793 15 18125717031150320263
15530120 55 17749400303140674839
15575132 122 11097869466360586506
15684393 108 17968387826437300943
18603816 31 18124885559771981842
19303781 99 18335687326812191806
20058555 10 9007056872539463171
20691028 202 11387456619241083215
20775438 99 17969225706321992338
21307412 95 18337942399590611629
21599406 157 17386278913288458111
21682296 61 18342737451461976975
229767 8 18337677515767545523
23522609 53 18050040867573871505
23559900 14 18339630227164606961
23569914 152 18122873540347149983
23569914 2 12903251230151974318
25222932 49 17987226923429299228
260245 28 17613145274758909274
2748736 6 8790889553602701643
3089732 80 18341049717987235411
32027 91 18272358785471730169
34797466 226 16443907309916099629
3610482 184 15141780849418288095
3862424 121 17896903116923522699
437795 163 18410012135749381582
439807 62 18409171004410091655
44062 13 18410569553188631685
4435113 14 18265066880286730195
484985 159 18056201276156630697
50009960 94 18198314378202216626
5104073 3 17704075100912267809
5223283 242 12834771193874176091
7808743 9 7997383033118326832
7970288 3 18267581317381811434
8863177 126 18271804661343792715

> <PUBCHEM_SHAPE_MULTIPOLES>
609.27
17.88
4.9
1.8
1.94
3.39
0.01
21.73
-2.9
-1.95
0.29
-1.59
-1.14
-0.21

> <PUBCHEM_SHAPE_SELFOVERLAP>
1286.65

> <PUBCHEM_SHAPE_VOLUME>
339.6

> <PUBCHEM_COORDINATE_TYPE>
2
5
10

$$$$
