REMARK  Name = 11655056
REMARK  8 active torsions:
REMARK  status: ('A' for Active; 'I' for Inactive)
REMARK    1  A    between atoms: C_4  and  C_25
REMARK    2  A    between atoms: C_8  and  C_32
REMARK    3  A    between atoms: C_11  and  O_30
REMARK    4  A    between atoms: C_13  and  C_15
REMARK    5  A    between atoms: C_18  and  O_21
REMARK    6  A    between atoms: C_20  and  O_23
REMARK    7  A    between atoms: C_25  and  O_28
REMARK    8  A    between atoms: C_32  and  C_33
REMARK                            x       y       z     vdW  Elec       q    Type
REMARK                         _______ _______ _______ _____ _____    ______ ____
ROOT
ATOM      1  O   UNL     1      -3.869   0.689  -0.132  0.00  0.00    -0.477 OA
ATOM      2  O   UNL     1       0.565   1.995   0.522  0.00  0.00    -0.450 OA
ATOM      3  O   UNL     1       2.003  -1.673  -0.544  0.00  0.00    -0.286 OA
ATOM      4  C   UNL     1      -3.808   1.956   0.574  0.00  0.00    +0.195 C 
ATOM      5  C   UNL     1      -2.380   2.512   0.470  0.00  0.00    +0.078 C 
ATOM      6  C   UNL     1      -1.654   1.253   0.185  0.00  0.00    +0.050 A 
ATOM      7  C   UNL     1      -2.563   0.270  -0.174  0.00  0.00    +0.137 A 
ATOM      8  C   UNL     1      -2.163  -0.998  -0.554  0.00  0.00    +0.050 A 
ATOM      9  C   UNL     1      -0.296   0.991   0.177  0.00  0.00    +0.150 A 
ATOM     10  C   UNL     1       0.132  -0.286  -0.191  0.00  0.00    +0.107 A 
ATOM     11  C   UNL     1      -0.795  -1.279  -0.557  0.00  0.00    +0.139 A 
ATOM     12  C   UNL     1       1.579  -0.576  -0.204  0.00  0.00    +0.204 C 
ATOM     13  C   UNL     1       2.481   0.537   0.203  0.00  0.00    +0.077 C 
ATOM     14  C   UNL     1       1.909   1.707   0.527  0.00  0.00    +0.183 C 
ENDROOT
BRANCH  13  15
ATOM     15  C   UNL     1       3.942   0.370   0.272  0.00  0.00    +0.009 C 
ATOM     16  C   UNL     1       4.733   0.655  -0.844  0.00  0.00    +0.040 C 
ATOM     17  C   UNL     1       4.542  -0.074   1.452  0.00  0.00    +0.004 C 
ATOM     18  C   UNL     1       6.117   0.496  -0.779  0.00  0.00    +0.167 C 
ATOM     19  C   UNL     1       5.926  -0.232   1.516  0.00  0.00    +0.040 C 
ATOM     20  C   UNL     1       6.714   0.053   0.401  0.00  0.00    +0.167 C 
BRANCH  18  21
ATOM     21  O   UNL     1       6.875   0.777  -1.875  0.00  0.00    -0.503 OA
ATOM     22  H   UNL     1       6.467   1.075  -2.664  0.00  0.00    +0.292 HD
ENDBRANCH  18  21
BRANCH  20  23
ATOM     23  O   UNL     1       8.065  -0.106   0.477  0.00  0.00    -0.503 OA
ATOM     24  H   UNL     1       8.601   0.083  -0.268  0.00  0.00    +0.292 HD
ENDBRANCH  20  23
ENDBRANCH  13  15
BRANCH   4  25
ATOM     25  C   UNL     1      -4.845   2.897  -0.016  0.00  0.00    +0.125 C 
ATOM     26  C   UNL     1      -6.242   2.274   0.039  0.00  0.00    +0.033 C 
ATOM     27  C   UNL     1      -4.838   4.248   0.705  0.00  0.00    +0.033 C 
BRANCH  25  28
ATOM     28  O   UNL     1      -4.535   3.123  -1.394  0.00  0.00    -0.383 OA
ATOM     29  H   UNL     1      -4.535   2.277  -1.868  0.00  0.00    +0.210 HD
ENDBRANCH  25  28
ENDBRANCH   4  25
BRANCH  11  30
ATOM     30  O   UNL     1      -0.395  -2.531  -0.925  0.00  0.00    -0.506 OA
ATOM     31  H   UNL     1      -1.032  -3.175  -1.165  0.00  0.00    +0.292 HD
ENDBRANCH  11  30
BRANCH   8  32
ATOM     32  C   UNL     1      -3.169  -2.027  -0.941  0.00  0.00    +0.058 C 
BRANCH  32  33
ATOM     33  C   UNL     1      -3.645  -2.855   0.228  0.00  0.00    -0.030 C 
ATOM     34  C   UNL     1      -3.521  -4.184   0.410  0.00  0.00    -0.048 C 
ATOM     35  C   UNL     1      -2.844  -5.035  -0.631  0.00  0.00    +0.026 C 
ATOM     36  C   UNL     1      -4.021  -4.946   1.604  0.00  0.00    +0.026 C 
ENDBRANCH  32  33
ENDBRANCH   8  32
TORSDOF 8
