REMARK  Name = 11652818
REMARK  8 active torsions:
REMARK  status: ('A' for Active; 'I' for Inactive)
REMARK    1  A    between atoms: N_2  and  C_5
REMARK    2  A    between atoms: C_3  and  C_18
REMARK    3  A    between atoms: C_6  and  C_14
REMARK    4  A    between atoms: C_9  and  O_11
REMARK    5  A    between atoms: C_14  and  O_15
REMARK    6  A    between atoms: C_17  and  C_19
REMARK    7  A    between atoms: C_22  and  O_25
REMARK    8  A    between atoms: C_23  and  O_27
REMARK                            x       y       z     vdW  Elec       q    Type
REMARK                         _______ _______ _______ _____ _____    ______ ____
ROOT
ATOM      1  O   UNL     1       0.273  -2.335   0.062  0.00  0.00    -0.270 OA
ATOM      2  N   UNL     1       1.318  -0.233   0.065  0.00  0.00    -0.280 N 
ATOM      3  C   UNL     1       0.241  -1.110   0.069  0.00  0.00    +0.250 C 
ATOM      4  H   UNL     1       1.099   0.727   0.073  0.00  0.00    +0.155 HD
ENDROOT
BRANCH   2   5
ATOM      5  C   UNL     1       2.696  -0.563   0.049  0.00  0.00    +0.057 C 
ATOM      6  C   UNL     1       3.655   0.436   0.047  0.00  0.00    +0.092 C 
ATOM      7  C   UNL     1       3.050  -1.903   0.036  0.00  0.00    +0.018 C 
ATOM      8  C   UNL     1       5.005   0.087   0.032  0.00  0.00    +0.044 C 
ATOM      9  C   UNL     1       5.378  -1.257   0.019  0.00  0.00    +0.134 C 
ATOM     10  C   UNL     1       4.400  -2.252   0.021  0.00  0.00    +0.038 C 
BRANCH   9  11
ATOM     11  O   UNL     1       6.696  -1.598   0.005  0.00  0.00    -0.506 OA
ATOM     12  H   UNL     1       7.352  -0.930   0.004  0.00  0.00    +0.292 HD
ENDBRANCH   9  11
BRANCH   6  14
ATOM     13  O   UNL     1       2.275   2.282   0.591  0.00  0.00    -0.245 OA
ATOM     14  C   UNL     1       3.299   1.849   0.063  0.00  0.00    +0.343 C 
BRANCH  14  15
ATOM     15  O   UNL     1       4.219   2.648  -0.567  0.00  0.00    -0.441 OA
ATOM     16  C   UNL     1       3.931   4.051  -0.589  0.00  0.00    +0.256 C 
ENDBRANCH  14  15
ENDBRANCH   6  14
ENDBRANCH   2   5
BRANCH   3  18
ATOM     17  C   UNL     1      -2.233  -1.029   0.080  0.00  0.00    +0.005 C 
ATOM     18  C   UNL     1      -1.055  -0.366   0.087  0.00  0.00    +0.058 C 
BRANCH  17  19
ATOM     19  C   UNL     1      -3.547  -0.406   0.087  0.00  0.00    +0.003 C 
ATOM     20  C   UNL     1      -4.664  -1.128  -0.334  0.00  0.00    +0.040 C 
ATOM     21  C   UNL     1      -3.691   0.915   0.513  0.00  0.00    +0.003 C 
ATOM     22  C   UNL     1      -5.924  -0.530  -0.327  0.00  0.00    +0.167 C 
ATOM     23  C   UNL     1      -6.068   0.790   0.099  0.00  0.00    +0.167 C 
ATOM     24  C   UNL     1      -4.951   1.513   0.520  0.00  0.00    +0.040 C 
BRANCH  22  25
ATOM     25  O   UNL     1      -7.008  -1.245  -0.740  0.00  0.00    -0.503 OA
ATOM     26  H   UNL     1      -6.903  -2.132  -1.025  0.00  0.00    +0.292 HD
ENDBRANCH  22  25
BRANCH  23  27
ATOM     27  O   UNL     1      -7.293   1.385   0.110  0.00  0.00    -0.503 OA
ATOM     28  H   UNL     1      -8.048   0.907  -0.170  0.00  0.00    +0.292 HD
ENDBRANCH  23  27
ENDBRANCH  17  19
ENDBRANCH   3  18
TORSDOF 8
