REMARK  Name = 11660238
REMARK  9 active torsions:
REMARK  status: ('A' for Active; 'I' for Inactive)
REMARK    1  A    between atoms: CA_1  and  N_3
REMARK    2  A    between atoms: CA_1  and  C_14
REMARK    3  A    between atoms: CA_1  and  CB_17
REMARK    4  A    between atoms: C_4  and  CA_8
REMARK    5  A    between atoms: C_14  and  O_15
REMARK    6  A    between atoms: CB_17  and  CG_18
REMARK    7  A    between atoms: CG_18  and  CD_19
REMARK    8  A    between atoms: CD_19  and  NE_20
REMARK    9  A    between atoms: NE_20  and  CZ_23
REMARK                            x       y       z     vdW  Elec       q    Type
REMARK                         _______ _______ _______ _____ _____    ______ ____
ROOT
ATOM      1  CA  UNL     1      -0.073   2.030  -0.345  0.00  0.00    +0.172 C 
ENDROOT
BRANCH   1   3
ATOM      2  O   UNL     1       1.876   1.098  -2.157  0.00  0.00    -0.269 OA
ATOM      3  N   UNL     1       0.945   1.052  -0.057  0.00  0.00    -0.292 N 
ATOM      4  C   UNL     1       1.876   0.642  -1.012  0.00  0.00    +0.260 C 
ATOM      5  H   UNL     1       0.985   0.659   0.845  0.00  0.00    +0.150 HD
BRANCH   4   8
ATOM      6 BR   UNL     1       4.703  -2.792   2.057  0.00  0.00    -0.048 Br
ATOM      7  N   UNL     1       3.831  -0.822  -1.372  0.00  0.00    -0.308 N 
ATOM      8  CA  UNL     1       2.872  -0.338  -0.557  0.00  0.00    +0.103 C 
ATOM      9  C   UNL     1       2.979  -0.878   0.678  0.00  0.00    +0.027 C 
ATOM     10  C   UNL     1       4.593  -1.707  -0.655  0.00  0.00    +0.069 C 
ATOM     11  C   UNL     1       4.085  -1.762   0.624  0.00  0.00    +0.051 C 
ATOM     12  H   UNL     1       3.961  -0.582  -2.318  0.00  0.00    +0.152 HD
ENDBRANCH   4   8
ENDBRANCH   1   3
BRANCH   1  14
ATOM     13  OXT UNL     1      -1.032   3.837   0.980  0.00  0.00    -0.248 OA
ATOM     14  C   UNL     1      -0.312   2.849   0.909  0.00  0.00    +0.332 C 
BRANCH  14  15
ATOM     15  O   UNL     1       0.344   2.337   1.983  0.00  0.00    -0.479 OA
ATOM     16  H   UNL     1       0.885   1.579   1.883  0.00  0.00    +0.295 HD
ENDBRANCH  14  15
ENDBRANCH   1  14
BRANCH   1  17
ATOM     17  CB  UNL     1      -1.359   1.396  -0.881  0.00  0.00    +0.033 C 
BRANCH  17  18
ATOM     18  CG  UNL     1      -2.026   0.411   0.087  0.00  0.00    +0.029 C 
BRANCH  18  19
ATOM     19  CD  UNL     1      -3.274  -0.210  -0.532  0.00  0.00    +0.129 C 
BRANCH  19  20
ATOM     20  NE  UNL     1      -3.869  -1.143   0.427  0.00  0.00    -0.240 NA
BRANCH  20  23
ATOM     21  NH1 UNL     1      -5.629  -1.618  -1.137  0.00  0.00    -0.370 N 
ATOM     22  NH2 UNL     1      -5.575  -2.637   0.901  0.00  0.00    -0.370 N 
ATOM     23  CZ  UNL     1      -4.955  -1.746   0.057  0.00  0.00    +0.189 C 
ATOM     24 HH11 UNL     1      -5.289  -1.008  -1.831  0.00  0.00    +0.159 HD
ATOM     25 HH12 UNL     1      -6.451  -2.136  -1.297  0.00  0.00    +0.159 HD
ATOM     26 HH21 UNL     1      -5.194  -2.821   1.790  0.00  0.00    +0.159 HD
ATOM     27 HH22 UNL     1      -6.400  -3.092   0.616  0.00  0.00    +0.159 HD
ENDBRANCH  20  23
ENDBRANCH  19  20
ENDBRANCH  18  19
ENDBRANCH  17  18
ENDBRANCH   1  17
TORSDOF 9
