11669726
  -OEChem-03292013303D

 68 69  0     1  0  0  0  0  0999 V2000
   -2.7320    0.6342   -2.6548 O   0  0  0  0  0  0  0  0  0  0  0  0
   -6.7721   -3.0280    0.9461 O   0  0  0  0  0  0  0  0  0  0  0  0
   -8.9471    1.0315    1.1024 O   0  0  0  0  0  0  0  0  0  0  0  0
    3.4442    0.2539   -0.7899 O   0  0  0  0  0  0  0  0  0  0  0  0
   -0.7896   -0.6562   -1.1744 O   0  0  0  0  0  0  0  0  0  0  0  0
    4.9023    1.0777   -2.3940 O   0  0  0  0  0  0  0  0  0  0  0  0
   -7.8216   -0.9779    1.0262 N   0  0  0  0  0  0  0  0  0  0  0  0
   -5.7829    0.1704   -0.4358 C   0  0  0  0  0  0  0  0  0  0  0  0
   -4.8875    0.6934   -1.5553 C   0  0  0  0  0  0  0  0  0  0  0  0
   -3.4572    0.1375   -1.5306 C   0  0  2  0  0  0  0  0  0  0  0  0
   -5.9780   -1.3379   -0.5541 C   0  0  0  0  0  0  0  0  0  0  0  0
   -7.1489    0.8488   -0.4691 C   0  0  0  0  0  0  0  0  0  0  0  0
   -2.6965    0.5159   -0.2581 C   0  0  0  0  0  0  0  0  0  0  0  0
   -6.8657   -1.8673    0.5476 C   0  0  0  0  0  0  0  0  0  0  0  0
   -8.0463    0.3367    0.6326 C   0  0  0  0  0  0  0  0  0  0  0  0
   -0.4373    0.3540    0.9912 C   0  0  2  0  0  0  0  0  0  0  0  0
   -1.2645   -0.0084   -0.2412 C   0  0  0  0  0  0  0  0  0  0  0  0
    3.1230    1.5566   -0.2474 C   0  0  1  0  0  0  0  0  0  0  0  0
    1.0122    0.4415    0.5911 C   0  0  0  0  0  0  0  0  0  0  0  0
    1.6711    1.5261    0.1385 C   0  0  0  0  0  0  0  0  0  0  0  0
    4.1032    1.8566    0.9227 C   0  0  1  0  0  0  0  0  0  0  0  0
   -0.6624   -0.6948    2.0767 C   0  0  0  0  0  0  0  0  0  0  0  0
    0.9544    2.8391   -0.0309 C   0  0  0  0  0  0  0  0  0  0  0  0
    3.9354    3.2783    1.4687 C   0  0  0  0  0  0  0  0  0  0  0  0
    3.9881    0.8500    2.0587 C   0  0  0  0  0  0  0  0  0  0  0  0
    4.7812   -0.2064    2.3130 C   0  0  0  0  0  0  0  0  0  0  0  0
    4.4290    0.1743   -1.7264 C   0  0  0  0  0  0  0  0  0  0  0  0
    5.9475   -0.5896    1.5523 C   0  0  0  0  0  0  0  0  0  0  0  0
    4.9515   -1.2050   -1.6388 C   0  0  0  0  0  0  0  0  0  0  0  0
    7.4635   -2.2521    0.4525 C   0  0  0  0  0  0  0  0  0  0  0  0
    6.9396   -2.5560   -0.9673 C   0  0  0  0  0  0  0  0  0  0  0  0
    6.3599   -1.8603    1.4070 C   0  0  0  0  0  0  0  0  0  0  0  0
    6.2834   -1.3365   -1.5589 C   0  0  0  0  0  0  0  0  0  0  0  0
   -5.3334    0.3961    0.5390 H   0  0  0  0  0  0  0  0  0  0  0  0
   -4.8379    1.7897   -1.5095 H   0  0  0  0  0  0  0  0  0  0  0  0
   -5.3384    0.4709   -2.5320 H   0  0  0  0  0  0  0  0  0  0  0  0
   -3.4644   -0.9517   -1.6405 H   0  0  0  0  0  0  0  0  0  0  0  0
   -6.4319   -1.6091   -1.5143 H   0  0  0  0  0  0  0  0  0  0  0  0
   -5.0227   -1.8648   -0.4656 H   0  0  0  0  0  0  0  0  0  0  0  0
   -7.0333    1.9309   -0.3379 H   0  0  0  0  0  0  0  0  0  0  0  0
   -7.6566    0.6748   -1.4252 H   0  0  0  0  0  0  0  0  0  0  0  0
   -3.1955    0.1163    0.6286 H   0  0  0  0  0  0  0  0  0  0  0  0
   -2.6366    1.6075   -0.1762 H   0  0  0  0  0  0  0  0  0  0  0  0
   -0.7804    1.3200    1.3769 H   0  0  0  0  0  0  0  0  0  0  0  0
   -8.4333   -1.3337    1.7558 H   0  0  0  0  0  0  0  0  0  0  0  0
    3.2677    2.2987   -1.0428 H   0  0  0  0  0  0  0  0  0  0  0  0
    1.5675   -0.4916    0.6802 H   0  0  0  0  0  0  0  0  0  0  0  0
    5.1164    1.8088    0.5073 H   0  0  0  0  0  0  0  0  0  0  0  0
   -3.2101    0.3615   -3.4565 H   0  0  0  0  0  0  0  0  0  0  0  0
   -1.7128   -0.7184    2.3864 H   0  0  0  0  0  0  0  0  0  0  0  0
   -0.0557   -0.4791    2.9630 H   0  0  0  0  0  0  0  0  0  0  0  0
   -0.4053   -1.7007    1.7246 H   0  0  0  0  0  0  0  0  0  0  0  0
   -0.1234    2.7249   -0.1767 H   0  0  0  0  0  0  0  0  0  0  0  0
    1.1107    3.4862    0.8359 H   0  0  0  0  0  0  0  0  0  0  0  0
    1.3136    3.3671   -0.9212 H   0  0  0  0  0  0  0  0  0  0  0  0
    4.7655    3.5277    2.1401 H   0  0  0  0  0  0  0  0  0  0  0  0
    3.0123    3.3964    2.0443 H   0  0  0  0  0  0  0  0  0  0  0  0
    3.9359    4.0132    0.6569 H   0  0  0  0  0  0  0  0  0  0  0  0
    3.1337    0.9828    2.7220 H   0  0  0  0  0  0  0  0  0  0  0  0
    4.5035   -0.8642    3.1340 H   0  0  0  0  0  0  0  0  0  0  0  0
    6.4618    0.1912    1.0002 H   0  0  0  0  0  0  0  0  0  0  0  0
    4.2762   -2.0068   -1.3621 H   0  0  0  0  0  0  0  0  0  0  0  0
    7.9704   -3.1392    0.8502 H   0  0  0  0  0  0  0  0  0  0  0  0
    8.2220   -1.4597    0.4078 H   0  0  0  0  0  0  0  0  0  0  0  0
    6.2411   -3.4014   -0.9328 H   0  0  0  0  0  0  0  0  0  0  0  0
    7.7741   -2.8578   -1.6103 H   0  0  0  0  0  0  0  0  0  0  0  0
    5.8349   -2.6686    1.9097 H   0  0  0  0  0  0  0  0  0  0  0  0
    6.9357   -0.4865   -1.7473 H   0  0  0  0  0  0  0  0  0  0  0  0
  1 10  1  0  0  0  0
  1 49  1  0  0  0  0
  2 14  2  0  0  0  0
  3 15  2  0  0  0  0
  4 18  1  0  0  0  0
  4 27  1  0  0  0  0
  5 17  2  0  0  0  0
  6 27  2  0  0  0  0
  7 14  1  0  0  0  0
  7 15  1  0  0  0  0
  7 45  1  0  0  0  0
  8  9  1  0  0  0  0
  8 11  1  0  0  0  0
  8 12  1  0  0  0  0
  8 34  1  0  0  0  0
  9 10  1  0  0  0  0
  9 35  1  0  0  0  0
  9 36  1  0  0  0  0
 10 13  1  0  0  0  0
 10 37  1  0  0  0  0
 11 14  1  0  0  0  0
 11 38  1  0  0  0  0
 11 39  1  0  0  0  0
 12 15  1  0  0  0  0
 12 40  1  0  0  0  0
 12 41  1  0  0  0  0
 13 17  1  0  0  0  0
 13 42  1  0  0  0  0
 13 43  1  0  0  0  0
 16 17  1  0  0  0  0
 16 19  1  0  0  0  0
 16 22  1  0  0  0  0
 16 44  1  0  0  0  0
 18 20  1  0  0  0  0
 18 21  1  0  0  0  0
 18 46  1  0  0  0  0
 19 20  2  0  0  0  0
 19 47  1  0  0  0  0
 20 23  1  0  0  0  0
 21 24  1  0  0  0  0
 21 25  1  0  0  0  0
 21 48  1  0  0  0  0
 22 50  1  0  0  0  0
 22 51  1  0  0  0  0
 22 52  1  0  0  0  0
 23 53  1  0  0  0  0
 23 54  1  0  0  0  0
 23 55  1  0  0  0  0
 24 56  1  0  0  0  0
 24 57  1  0  0  0  0
 24 58  1  0  0  0  0
 25 26  2  0  0  0  0
 25 59  1  0  0  0  0
 26 28  1  0  0  0  0
 26 60  1  0  0  0  0
 27 29  1  0  0  0  0
 28 32  2  0  0  0  0
 28 61  1  0  0  0  0
 29 33  2  0  0  0  0
 29 62  1  0  0  0  0
 30 31  1  0  0  0  0
 30 32  1  0  0  0  0
 30 63  1  0  0  0  0
 30 64  1  0  0  0  0
 31 33  1  0  0  0  0
 31 65  1  0  0  0  0
 31 66  1  0  0  0  0
 32 67  1  0  0  0  0
 33 68  1  0  0  0  0
M  END
> <PUBCHEM_COMPOUND_CID>
11669726

> <PUBCHEM_CONFORMER_RMSD>
1.2

> <PUBCHEM_CONFORMER_DIVERSEORDER>
13
75
74
11
144
532
129
430
14
76
201
344
123
65
46
71
359
175
163
467
29
421
294
310
324
278
331
139
383
137
211
498
189
166
326
443
122
367
339
19
191
117
369
23
97
236
127
89
196
449
393
500
98
95
149
9
48
407
120
277
1
8
422
469
82
60
32
335
333
190
93
258
346
87
141
94
373
347
240
354
21
447
247
252
362
118
341
228
353
315
507
406
350
275
170
316
171
36
477
92
395
152
510
106
542
34
334
30
148
452
43
402
251
385
511
269
521
289
90
372
193
241
484
379
85
62
318
70
131
161
200
242
376
42
288
41
433
174
391
194
52
17
381
12
153
540
134
3
80
195
7
57
533
179
77
35
109
306
165
68
499
172
524
107
219
121
308
352
16
285
183
103
31
50
375
39
2
47
154
100
224
69
10
24
244
143
128
365
530
284
64
51
157
471
133
147
108
453
22
425
355
319
33
336
188
79
86
6
27
102
146
424
40
59
4
235

> <PUBCHEM_MMFF94_PARTIAL_CHARGES>
38
1 -0.68
10 0.28
11 0.06
12 0.06
13 0.06
14 0.57
15 0.57
16 0.2
17 0.45
18 0.42
19 -0.29
2 -0.57
20 -0.28
21 0.14
23 0.14
25 -0.29
26 -0.15
27 0.71
28 -0.15
29 -0.14
3 -0.57
30 0.14
31 0.14
32 -0.29
33 -0.29
4 -0.43
45 0.37
47 0.15
49 0.4
5 -0.57
59 0.15
6 -0.57
60 0.15
61 0.15
62 0.15
67 0.15
68 0.15
7 -0.49

> <PUBCHEM_EFFECTIVE_ROTOR_COUNT>
8.8

> <PUBCHEM_PHARMACOPHORE_FEATURES>
10
1 1 acceptor
1 1 donor
1 2 acceptor
1 22 hydrophobe
1 23 hydrophobe
1 3 acceptor
1 5 acceptor
1 6 acceptor
1 7 donor
6 7 8 11 12 14 15 rings

> <PUBCHEM_HEAVY_ATOM_COUNT>
33

> <PUBCHEM_ATOM_DEF_STEREO_COUNT>
4

> <PUBCHEM_ATOM_UDEF_STEREO_COUNT>
0

> <PUBCHEM_BOND_DEF_STEREO_COUNT>
4

> <PUBCHEM_BOND_UDEF_STEREO_COUNT>
0

> <PUBCHEM_ISOTOPIC_ATOM_COUNT>
0

> <PUBCHEM_COMPONENT_COUNT>
1

> <PUBCHEM_CACTVS_TAUTO_COUNT>
10

> <PUBCHEM_CONFORMER_ID>
00B210DE0000000D

> <PUBCHEM_MMFF94_ENERGY>
69.6292

> <PUBCHEM_FEATURE_SELFOVERLAP>
50.752

> <PUBCHEM_SHAPE_FINGERPRINT>
10677351 27 16588026848978586355
12373685 5 13542168481803117701
13533116 47 16056890130287394732
13617811 41 10809351018621957286
13782708 43 18187639254315064079
14344974 204 18193275420024708027
15119646 104 16271919424534517690
15183329 4 17095244700453919794
15352257 5 18113620092868227467
21150785 3 13767927897019082763
21585482 310 18343299258743107662
21781051 124 17822298984861239747
21792934 111 16702020842648784713
21814621 53 18200872976472425827
23081809 10 15574985174897265909
23522609 53 17313683559533715837
24771293 8 11743841357079163819
397638 26 18060699490374987887
445580 167 14562532860032497039
504579 68 14418134019410263163
5104073 3 16343416323387392559
9831232 110 17822282444831614010

> <PUBCHEM_SHAPE_MULTIPOLES>
638.93
26.16
2.65
2.23
36.9
0.48
0.26
-13.45
-4.84
-3.47
-0.56
-1.97
-0.21
1.84

> <PUBCHEM_SHAPE_SELFOVERLAP>
1298.65

> <PUBCHEM_SHAPE_VOLUME>
365.9

> <PUBCHEM_COORDINATE_TYPE>
2
5
10

$$$$
