11660238
  -OEChem-03292013303D

 36 36  0     1  0  0  0  0  0999 V2000
    4.7029   -2.7917    2.0567 Br  0  0  0  0  0  0  0  0  0  0  0  0
    0.3441    2.3371    1.9832 O   0  0  0  0  0  0  0  0  0  0  0  0
   -1.0319    3.8371    0.9803 O   0  0  0  0  0  0  0  0  0  0  0  0
    1.8760    1.0978   -2.1568 O   0  0  0  0  0  0  0  0  0  0  0  0
    0.9451    1.0520   -0.0568 N   0  0  0  0  0  0  0  0  0  0  0  0
   -3.8685   -1.1430    0.4268 N   0  0  0  0  0  0  0  0  0  0  0  0
    3.8312   -0.8221   -1.3718 N   0  0  0  0  0  0  0  0  0  0  0  0
   -5.6289   -1.6176   -1.1369 N   0  0  0  0  0  0  0  0  0  0  0  0
   -5.5754   -2.6374    0.9008 N   0  0  0  0  0  0  0  0  0  0  0  0
   -1.3594    1.3959   -0.8811 C   0  0  0  0  0  0  0  0  0  0  0  0
   -0.0730    2.0302   -0.3448 C   0  0  1  0  0  0  0  0  0  0  0  0
   -2.0261    0.4109    0.0866 C   0  0  0  0  0  0  0  0  0  0  0  0
   -3.2741   -0.2100   -0.5320 C   0  0  0  0  0  0  0  0  0  0  0  0
   -0.3122    2.8495    0.9094 C   0  0  0  0  0  0  0  0  0  0  0  0
    1.8762    0.6421   -1.0117 C   0  0  0  0  0  0  0  0  0  0  0  0
    2.8723   -0.3380   -0.5571 C   0  0  0  0  0  0  0  0  0  0  0  0
    2.9789   -0.8782    0.6782 C   0  0  0  0  0  0  0  0  0  0  0  0
    4.5932   -1.7072   -0.6548 C   0  0  0  0  0  0  0  0  0  0  0  0
    4.0851   -1.7617    0.6244 C   0  0  0  0  0  0  0  0  0  0  0  0
   -4.9553   -1.7457    0.0574 C   0  0  0  0  0  0  0  0  0  0  0  0
   -1.1346    0.8744   -1.8203 H   0  0  0  0  0  0  0  0  0  0  0  0
   -2.0757    2.1911   -1.1243 H   0  0  0  0  0  0  0  0  0  0  0  0
    0.3267    2.7240   -1.0942 H   0  0  0  0  0  0  0  0  0  0  0  0
   -1.3246   -0.3873    0.3577 H   0  0  0  0  0  0  0  0  0  0  0  0
   -2.2983    0.9208    1.0184 H   0  0  0  0  0  0  0  0  0  0  0  0
    0.9536    0.6485    0.8736 H   0  0  0  0  0  0  0  0  0  0  0  0
   -2.9976   -0.7376   -1.4529 H   0  0  0  0  0  0  0  0  0  0  0  0
   -3.9862    0.5860   -0.7813 H   0  0  0  0  0  0  0  0  0  0  0  0
    3.9734   -0.5818   -2.3438 H   0  0  0  0  0  0  0  0  0  0  0  0
    2.3613   -0.6912    1.5456 H   0  0  0  0  0  0  0  0  0  0  0  0
    5.4257   -2.2161   -1.1209 H   0  0  0  0  0  0  0  0  0  0  0  0
    0.1747    2.8572    2.7974 H   0  0  0  0  0  0  0  0  0  0  0  0
   -5.3086   -1.0014   -1.8754 H   0  0  0  0  0  0  0  0  0  0  0  0
   -6.4770   -2.1439   -1.3175 H   0  0  0  0  0  0  0  0  0  0  0  0
   -6.4254   -3.1197    0.6306 H   0  0  0  0  0  0  0  0  0  0  0  0
   -5.1967   -2.8388    1.8198 H   0  0  0  0  0  0  0  0  0  0  0  0
  1 19  1  0  0  0  0
  2 14  1  0  0  0  0
  2 32  1  0  0  0  0
  3 14  2  0  0  0  0
  4 15  2  0  0  0  0
  5 11  1  0  0  0  0
  5 15  1  0  0  0  0
  5 26  1  0  0  0  0
  6 13  1  0  0  0  0
  6 20  2  0  0  0  0
  7 16  1  0  0  0  0
  7 18  1  0  0  0  0
  7 29  1  0  0  0  0
  8 20  1  0  0  0  0
  8 33  1  0  0  0  0
  8 34  1  0  0  0  0
  9 20  1  0  0  0  0
  9 35  1  0  0  0  0
  9 36  1  0  0  0  0
 10 11  1  0  0  0  0
 10 12  1  0  0  0  0
 10 21  1  0  0  0  0
 10 22  1  0  0  0  0
 11 14  1  0  0  0  0
 11 23  1  0  0  0  0
 12 13  1  0  0  0  0
 12 24  1  0  0  0  0
 12 25  1  0  0  0  0
 13 27  1  0  0  0  0
 13 28  1  0  0  0  0
 15 16  1  0  0  0  0
 16 17  2  0  0  0  0
 17 19  1  0  0  0  0
 17 30  1  0  0  0  0
 18 19  2  0  0  0  0
 18 31  1  0  0  0  0
M  END
> <PUBCHEM_COMPOUND_CID>
11660238

> <PUBCHEM_CONFORMER_RMSD>
0.8

> <PUBCHEM_CONFORMER_DIVERSEORDER>
1
142
178
105
262
165
125
78
182
196
252
237
227
83
229
108
273
82
177
161
106
238
115
76
136
75
220
84
138
120
206
31
283
36
264
46
194
266
226
20
8
284
234
188
71
251
271
73
221
180
276
80
6
247
257
277
200
30
166
246
167
13
107
126
280
268
192
110
171
261
41
53
64
272
2
114
213
233
285
231
16
187
275
263
249
168
186
33
86
116
17
152
255
198
236
191
279
281
179
219
94
123
113
132
244
202
278
42
254
195
90
131
241
256
230
87
48
158
205
38
147
225
112
155
26
24
61
218
134
96
176
9
81
45
117
215
119
174
185
267
197
203
121
223
127
214
170
12
51
56
139
258
181
43
232
70
35
69
169
130
74
49
189
151
66
160
211
50
34
79
212
63
207
270
146
143
11
190
37
162
210
157
217
3
135
148
137
118
253
224
99
235
242
15
60
199
164
149
228
245
14
65
209
156
265
23
109
222
55
193
59
133
101
248
77
259
282
243
92
141
32
102
44
18
250
62
95
239
68
153
240
159
21
163
100
140
216
184
274
47
111
98
25
269
154
175
129
122
67
54
57
72
124
89
88
103
208
144
173
183
22
39
128
40
27
93
104
29
85
91
28
52
97
7
204
10
150
4
172
58
5
201
260
19
145

> <PUBCHEM_MMFF94_PARTIAL_CHARGES>
27
1 -0.06
11 0.36
13 0.25
14 0.66
15 0.71
16 -0.24
17 -0.15
18 -0.3
19 0.06
2 -0.65
20 0.55
26 0.37
29 0.27
3 -0.57
30 0.15
31 0.15
32 0.5
33 0.4
34 0.4
35 0.4
36 0.4
4 -0.57
5 -0.73
6 -0.7
7 0.03
8 -0.85
9 -0.85

> <PUBCHEM_EFFECTIVE_ROTOR_COUNT>
8

> <PUBCHEM_PHARMACOPHORE_FEATURES>
12
1 1 hydrophobe
1 2 acceptor
1 3 acceptor
1 4 acceptor
1 5 donor
1 7 cation
1 7 donor
1 8 donor
1 9 donor
3 2 3 14 anion
4 6 8 9 20 cation
5 7 16 17 18 19 rings

> <PUBCHEM_HEAVY_ATOM_COUNT>
20

> <PUBCHEM_ATOM_DEF_STEREO_COUNT>
1

> <PUBCHEM_ATOM_UDEF_STEREO_COUNT>
0

> <PUBCHEM_BOND_DEF_STEREO_COUNT>
0

> <PUBCHEM_BOND_UDEF_STEREO_COUNT>
0

> <PUBCHEM_ISOTOPIC_ATOM_COUNT>
0

> <PUBCHEM_COMPONENT_COUNT>
1

> <PUBCHEM_CACTVS_TAUTO_COUNT>
6

> <PUBCHEM_CONFORMER_ID>
00B1EBCE00000001

> <PUBCHEM_MMFF94_ENERGY>
32.1916

> <PUBCHEM_FEATURE_SELFOVERLAP>
61.01

> <PUBCHEM_SHAPE_FINGERPRINT>
11796584 16 18335420106340521039
12363563 72 18343026601017348351
12553582 1 18060140972225988253
12788726 201 18411145710113831570
12824470 246 18335143059390897508
13052359 8 18124599674328704321
13103583 49 17916885564015608667
13533116 47 18125446569318283579
13631057 29 18409169870913226422
13828863 39 12391217353271996995
13955234 65 17977954810681749129
14178342 30 17980481157604909342
14251757 17 16516260637847738635
14576447 43 17967538952427146910
14848178 5 18187916253503569482
14866123 147 18264488395931516481
17834072 32 9439394739974263071
20369508 70 18270401732183810101
20388580 30 18259705626754357917
20626108 58 17968366875702179970
20832881 197 18410014360346813971
21344244 78 16917071122533488475
23503958 8 18123182408113778538
23559900 14 17968931024537072175
2838139 119 9511455598160994614
3057174 1 11674868992405213705
314194 84 18268996547686559799
3421961 26 18270682107591149993
463206 1 18336543906309900075
7970288 3 18410012117578372127
9841814 1 17987245593430627341

> <PUBCHEM_SHAPE_MULTIPOLES>
375.02
11.7
3.83
1.67
6.92
1.23
-0.2
-16.43
-0.27
2.3
-2.17
-1.4
0.34
-1.64

> <PUBCHEM_SHAPE_SELFOVERLAP>
751.272

> <PUBCHEM_SHAPE_VOLUME>
223.7

> <PUBCHEM_COORDINATE_TYPE>
2
5
10

$$$$
