11661758
  -OEChem-03292013303D

 46 48  0     1  0  0  0  0  0999 V2000
   -0.7339   -3.2965   -0.6883 S   0  0  0  0  0  0  0  0  0  0  0  0
   -6.0251    1.0801   -1.3828 O   0  0  0  0  0  0  0  0  0  0  0  0
    7.1736    2.4933   -0.6731 O   0  0  0  0  0  0  0  0  0  0  0  0
    6.6038    1.3612    1.2278 O   0  0  0  0  0  0  0  0  0  0  0  0
    3.3840   -0.0484   -1.2982 N   0  0  0  0  0  0  0  0  0  0  0  0
    4.1539   -0.2636    0.7757 N   0  0  0  0  0  0  0  0  0  0  0  0
   -4.9883    0.6554    0.6850 N   0  0  0  0  0  0  0  0  0  0  0  0
    5.3414    1.1785   -0.7467 N   0  0  0  0  0  0  0  0  0  0  0  0
   -6.1804    3.5239    0.5693 N   0  0  0  0  0  0  0  0  0  0  0  0
    2.5217   -0.9140   -0.6756 C   0  0  0  0  0  0  0  0  0  0  0  0
    3.0236   -1.0320    0.6174 C   0  0  0  0  0  0  0  0  0  0  0  0
    1.3806   -1.5833   -1.1189 C   0  0  0  0  0  0  0  0  0  0  0  0
    0.7331   -2.4062   -0.1914 C   0  0  0  0  0  0  0  0  0  0  0  0
    2.3603   -1.8629    1.5361 C   0  0  0  0  0  0  0  0  0  0  0  0
    4.3412    0.3118   -0.3909 C   0  0  0  0  0  0  0  0  0  0  0  0
    1.2126   -2.5448    1.1131 C   0  0  0  0  0  0  0  0  0  0  0  0
   -6.8435    2.2221    0.5742 C   0  0  2  0  0  0  0  0  0  0  0  0
   -2.0096   -2.1166   -0.2757 C   0  0  0  0  0  0  0  0  0  0  0  0
   -3.9955   -0.2712    0.3651 C   0  0  0  0  0  0  0  0  0  0  0  0
   -5.9237    1.2587   -0.1724 C   0  0  0  0  0  0  0  0  0  0  0  0
   -3.8443   -0.7037   -0.9523 C   0  0  0  0  0  0  0  0  0  0  0  0
   -3.1524   -0.7628    1.3617 C   0  0  0  0  0  0  0  0  0  0  0  0
   -2.8499   -1.6277   -1.2732 C   0  0  0  0  0  0  0  0  0  0  0  0
   -2.1581   -1.6869    1.0408 C   0  0  0  0  0  0  0  0  0  0  0  0
   -8.2068    2.3367   -0.0977 C   0  0  0  0  0  0  0  0  0  0  0  0
    6.3854    1.6418    0.0559 C   0  0  0  0  0  0  0  0  0  0  0  0
    8.2963    3.0570    0.0152 C   0  0  0  0  0  0  0  0  0  0  0  0
    1.0231   -1.4629   -2.1363 H   0  0  0  0  0  0  0  0  0  0  0  0
    3.3231    0.2672   -2.2569 H   0  0  0  0  0  0  0  0  0  0  0  0
    2.7261   -1.9785    2.5514 H   0  0  0  0  0  0  0  0  0  0  0  0
    0.7079   -3.1935    1.8261 H   0  0  0  0  0  0  0  0  0  0  0  0
   -6.9834    1.8847    1.6070 H   0  0  0  0  0  0  0  0  0  0  0  0
   -5.0281    0.9223    1.6663 H   0  0  0  0  0  0  0  0  0  0  0  0
   -4.4565   -0.3704   -1.7782 H   0  0  0  0  0  0  0  0  0  0  0  0
   -3.2613   -0.4370    2.3931 H   0  0  0  0  0  0  0  0  0  0  0  0
   -2.7447   -1.9536   -2.3052 H   0  0  0  0  0  0  0  0  0  0  0  0
   -1.5296   -2.0651    1.8415 H   0  0  0  0  0  0  0  0  0  0  0  0
   -8.6980    1.3582   -0.1365 H   0  0  0  0  0  0  0  0  0  0  0  0
   -8.8598    3.0212    0.4549 H   0  0  0  0  0  0  0  0  0  0  0  0
   -8.1277    2.7031   -1.1278 H   0  0  0  0  0  0  0  0  0  0  0  0
    5.3190    1.5217   -1.7037 H   0  0  0  0  0  0  0  0  0  0  0  0
   -5.2568    3.4457    0.9929 H   0  0  0  0  0  0  0  0  0  0  0  0
   -6.0376    3.8437   -0.3880 H   0  0  0  0  0  0  0  0  0  0  0  0
    7.9570    3.6548    0.8664 H   0  0  0  0  0  0  0  0  0  0  0  0
    8.8290    3.7092   -0.6818 H   0  0  0  0  0  0  0  0  0  0  0  0
    8.9754    2.2645    0.3437 H   0  0  0  0  0  0  0  0  0  0  0  0
  1 13  1  0  0  0  0
  1 18  1  0  0  0  0
  2 20  2  0  0  0  0
  3 26  1  0  0  0  0
  3 27  1  0  0  0  0
  4 26  2  0  0  0  0
  5 10  1  0  0  0  0
  5 15  1  0  0  0  0
  5 29  1  0  0  0  0
  6 11  1  0  0  0  0
  6 15  2  0  0  0  0
  7 19  1  0  0  0  0
  7 20  1  0  0  0  0
  7 33  1  0  0  0  0
  8 15  1  0  0  0  0
  8 26  1  0  0  0  0
  8 41  1  0  0  0  0
  9 17  1  0  0  0  0
  9 42  1  0  0  0  0
  9 43  1  0  0  0  0
 10 11  2  0  0  0  0
 10 12  1  0  0  0  0
 11 14  1  0  0  0  0
 12 13  2  0  0  0  0
 12 28  1  0  0  0  0
 13 16  1  0  0  0  0
 14 16  2  0  0  0  0
 14 30  1  0  0  0  0
 16 31  1  0  0  0  0
 17 20  1  0  0  0  0
 17 25  1  0  0  0  0
 17 32  1  0  0  0  0
 18 23  2  0  0  0  0
 18 24  1  0  0  0  0
 19 21  2  0  0  0  0
 19 22  1  0  0  0  0
 21 23  1  0  0  0  0
 21 34  1  0  0  0  0
 22 24  2  0  0  0  0
 22 35  1  0  0  0  0
 23 36  1  0  0  0  0
 24 37  1  0  0  0  0
 25 38  1  0  0  0  0
 25 39  1  0  0  0  0
 25 40  1  0  0  0  0
 27 44  1  0  0  0  0
 27 45  1  0  0  0  0
 27 46  1  0  0  0  0
M  END
> <PUBCHEM_COMPOUND_CID>
11661758

> <PUBCHEM_CONFORMER_RMSD>
1

> <PUBCHEM_CONFORMER_DIVERSEORDER>
1
8
44
38
25
28
19
40
2
41
7
6
16
42
23
31
30
39
13
5
43
11
34
9
29
15
37
27
36
24
26
12
4
3
22
33
32
20
35
14
18
10
21
17

> <PUBCHEM_MMFF94_PARTIAL_CHARGES>
38
1 -0.2
10 -0.15
11 0.23
12 -0.15
13 0.1
14 -0.15
15 0.25
16 -0.15
17 0.33
18 0.1
19 0.12
2 -0.57
20 0.57
21 -0.15
22 -0.15
23 -0.15
24 -0.15
26 0.78
27 0.28
28 0.15
29 0.27
3 -0.43
30 0.15
31 0.15
33 0.37
34 0.15
35 0.15
36 0.15
37 0.15
4 -0.57
41 0.37
42 0.36
43 0.36
5 0.03
6 -0.57
7 -0.55
8 -0.49
9 -0.99

> <PUBCHEM_EFFECTIVE_ROTOR_COUNT>
8

> <PUBCHEM_PHARMACOPHORE_FEATURES>
10
1 2 acceptor
1 4 acceptor
1 5 donor
1 7 donor
1 8 donor
1 9 cation
1 9 donor
5 5 6 10 11 15 rings
6 10 11 12 13 14 16 rings
6 18 19 21 22 23 24 rings

> <PUBCHEM_HEAVY_ATOM_COUNT>
27

> <PUBCHEM_ATOM_DEF_STEREO_COUNT>
1

> <PUBCHEM_ATOM_UDEF_STEREO_COUNT>
0

> <PUBCHEM_BOND_DEF_STEREO_COUNT>
0

> <PUBCHEM_BOND_UDEF_STEREO_COUNT>
0

> <PUBCHEM_ISOTOPIC_ATOM_COUNT>
0

> <PUBCHEM_COMPONENT_COUNT>
1

> <PUBCHEM_CACTVS_TAUTO_COUNT>
10

> <PUBCHEM_CONFORMER_ID>
00B1F1BE00000001

> <PUBCHEM_MMFF94_ENERGY>
60.1222

> <PUBCHEM_FEATURE_SELFOVERLAP>
50.89

> <PUBCHEM_SHAPE_FINGERPRINT>
10280341 67 18200580497721846864
10498660 4 17846497019859991899
10533779 1 18410283710004159181
11135609 201 18335136488797543455
11181472 205 18261394503941244004
11273773 46 9583524188338190873
11421887 103 18337099103768886997
12633257 1 15864083095413770575
12895836 83 18343581846100517051
12895837 130 18340770450280512037
13383665 225 16127536940309277913
1361 87 13254500007880343941
13690498 29 12535357783181751443
13782708 43 9150359501001786396
14359421 15 12103850025477493261
14671636 106 8718836388636002176
14919807 6 18269292261366113420
14931854 50 17346884433360597129
15064981 113 16702029621604077540
15188451 53 11386371448160558311
15198563 99 17627495366353869943
15439362 3 18341335509601933430
15510800 12 11097845289831454945
15519825 34 16009327508233406969
15685185 35 18412546539762858785
15803439 3 16559032705193618526
16120349 189 18413389847494715159
16120349 21 8646774409225247727
1768 4 18342187661483484673
19438510 23 18261111876467269227
19784866 240 9799691502394662651
1979834 28 14491049155868010659
20691028 202 18337107985907882540
20982279 24 14563905030446635664
21033648 29 18041005041712833746
21298829 104 18411138030675539189
21307412 95 12751227122188866133
21424621 283 18337954592987102738
21756936 100 18263645241816624362
270888 7 18410856559719131727
2748736 6 18411976945014683841
2838139 119 18199187480986978380
3472631 163 18272088275736644831
3862424 121 13109808706061686437
393628 194 18410013268993500869
406291 66 9223230741111076853
465052 167 8213555836938965131
54039377 194 9439406843650948432
563151 74 17386006135335399787
56633871 153 11819286572211872361
5718773 13 8935000364953583693
57724786 102 18335697183186908719
59682541 52 16845298176946993206
6327066 14 18413671322360623431
636775 72 18196369445618123264
6712543 237 15574717984860391641
7808743 9 18412542145336023251

> <PUBCHEM_SHAPE_MULTIPOLES>
516.98
22.31
3.99
1.31
4.45
1.28
0.08
34.58
-0.06
-0.29
0.09
-0.01
-0.47
-1.03

> <PUBCHEM_SHAPE_SELFOVERLAP>
1096.264

> <PUBCHEM_SHAPE_VOLUME>
289.5

> <PUBCHEM_COORDINATE_TYPE>
2
5
10

$$$$
