REMARK  Name = 11669726
REMARK  8 active torsions:
REMARK  status: ('A' for Active; 'I' for Inactive)
REMARK    1  A    between atoms: C_1  and  C_3
REMARK    2  A    between atoms: C_1  and  C_21
REMARK    3  A    between atoms: C_4  and  C_8
REMARK    4  A    between atoms: C_21  and  C_22
REMARK    5  A    between atoms: C_22  and  C_23
REMARK    6  A    between atoms: C_23  and  O_24
REMARK    7  A    between atoms: C_23  and  C_26
REMARK    8  A    between atoms: C_26  and  C_30
REMARK                            x       y       z     vdW  Elec       q    Type
REMARK                         _______ _______ _______ _____ _____    ______ ____
ROOT
ATOM      1  C   UNL     1      -0.437   0.354   0.991  0.00  0.00    +0.079 C 
ATOM      2  C   UNL     1      -0.662  -0.695   2.077  0.00  0.00    +0.012 C 
ENDROOT
BRANCH   1   3
ATOM      3  C   UNL     1       1.012   0.442   0.591  0.00  0.00    -0.024 C 
ATOM      4  C   UNL     1       1.671   1.526   0.139  0.00  0.00    -0.008 C 
ATOM      5  C   UNL     1       0.954   2.839  -0.031  0.00  0.00    +0.030 C 
BRANCH   4   8
ATOM      6  O   UNL     1       3.444   0.254  -0.790  0.00  0.00    -0.448 OA
ATOM      7  O   UNL     1       4.902   1.078  -2.394  0.00  0.00    -0.250 OA
ATOM      8  C   UNL     1       3.123   1.557  -0.247  0.00  0.00    +0.191 C 
ATOM      9  C   UNL     1       4.103   1.857   0.923  0.00  0.00    +0.066 C 
ATOM     10  C   UNL     1       3.935   3.278   1.469  0.00  0.00    +0.009 C 
ATOM     11  C   UNL     1       3.988   0.850   2.059  0.00  0.00    -0.023 C 
ATOM     12  C   UNL     1       4.781  -0.206   2.313  0.00  0.00    -0.005 C 
ATOM     13  C   UNL     1       4.429   0.174  -1.726  0.00  0.00    +0.317 C 
ATOM     14  C   UNL     1       5.947  -0.590   1.552  0.00  0.00    -0.005 C 
ATOM     15  C   UNL     1       4.952  -1.205  -1.639  0.00  0.00    +0.110 C 
ATOM     16  C   UNL     1       7.463  -2.252   0.453  0.00  0.00    +0.026 C 
ATOM     17  C   UNL     1       6.940  -2.556  -0.967  0.00  0.00    +0.005 C 
ATOM     18  C   UNL     1       6.360  -1.860   1.407  0.00  0.00    -0.026 C 
ATOM     19  C   UNL     1       6.283  -1.337  -1.559  0.00  0.00    +0.012 C 
ENDBRANCH   4   8
ENDBRANCH   1   3
BRANCH   1  21
ATOM     20  O   UNL     1      -0.790  -0.656  -1.174  0.00  0.00    -0.296 OA
ATOM     21  C   UNL     1      -1.264  -0.008  -0.241  0.00  0.00    +0.157 C 
BRANCH  21  22
ATOM     22  C   UNL     1      -2.696   0.516  -0.258  0.00  0.00    +0.094 C 
BRANCH  22  23
ATOM     23  C   UNL     1      -3.457   0.138  -1.531  0.00  0.00    +0.118 C 
BRANCH  23  24
ATOM     24  O   UNL     1      -2.732   0.634  -2.655  0.00  0.00    -0.384 OA
ATOM     25  H   UNL     1      -3.202   0.402  -3.471  0.00  0.00    +0.210 HD
ENDBRANCH  23  24
BRANCH  23  26
ATOM     26  C   UNL     1      -4.888   0.693  -1.555  0.00  0.00    +0.031 C 
BRANCH  26  30
ATOM     27  O   UNL     1      -6.772  -3.028   0.946  0.00  0.00    -0.275 OA
ATOM     28  O   UNL     1      -8.947   1.032   1.102  0.00  0.00    -0.275 OA
ATOM     29  N   UNL     1      -7.822  -0.978   1.026  0.00  0.00    -0.255 N 
ATOM     30  C   UNL     1      -5.783   0.170  -0.436  0.00  0.00    +0.021 C 
ATOM     31  C   UNL     1      -5.978  -1.338  -0.554  0.00  0.00    +0.086 C 
ATOM     32  C   UNL     1      -7.149   0.849  -0.469  0.00  0.00    +0.086 C 
ATOM     33  C   UNL     1      -6.866  -1.867   0.548  0.00  0.00    +0.228 C 
ATOM     34  C   UNL     1      -8.046   0.337   0.633  0.00  0.00    +0.228 C 
ATOM     35  H   UNL     1      -8.414  -1.322   1.733  0.00  0.00    +0.158 HD
ENDBRANCH  26  30
ENDBRANCH  23  26
ENDBRANCH  22  23
ENDBRANCH  21  22
ENDBRANCH   1  21
TORSDOF 8
