REMARK  Name = 11661058
REMARK  12 active torsions:
REMARK  status: ('A' for Active; 'I' for Inactive)
REMARK    1  A    between atoms: O_1  and  C_3
REMARK    2  A    between atoms: O_1  and  C_17
REMARK    3  A    between atoms: C_4  and  O_8
REMARK    4  A    between atoms: C_5  and  O_10
REMARK    5  A    between atoms: C_6  and  O_12
REMARK    6  A    between atoms: C_7  and  C_14
REMARK    7  A    between atoms: C_14  and  O_15
REMARK    8  A    between atoms: C_17  and  C_19
REMARK    9  A    between atoms: C_20  and  C_27
REMARK   10  A    between atoms: C_27  and  C_28
REMARK   11  A    between atoms: C_28  and  C_29
REMARK   12  A    between atoms: C_29  and  O_31
REMARK                            x       y       z     vdW  Elec       q    Type
REMARK                         _______ _______ _______ _____ _____    ______ ____
ROOT
ATOM      1  O   UNL     1      -0.704  -0.186  -0.541  0.00  0.00    -0.329 OA
ENDROOT
BRANCH   1   3
ATOM      2  O   UNL     1      -2.777  -0.937   0.224  0.00  0.00    -0.326 OA
ATOM      3  C   UNL     1      -1.964   0.212  -0.001  0.00  0.00    +0.266 C 
ATOM      4  C   UNL     1      -2.630   1.152  -1.006  0.00  0.00    +0.196 C 
ATOM      5  C   UNL     1      -4.053   1.510  -0.574  0.00  0.00    +0.172 C 
ATOM      6  C   UNL     1      -4.844   0.260  -0.188  0.00  0.00    +0.169 C 
ATOM      7  C   UNL     1      -4.047  -0.608   0.789  0.00  0.00    +0.176 C 
BRANCH   4   8
ATOM      8  O   UNL     1      -1.848   2.343  -1.091  0.00  0.00    -0.378 OA
ATOM      9  H   UNL     1      -0.945   2.118  -1.365  0.00  0.00    +0.211 HD
ENDBRANCH   4   8
BRANCH   5  10
ATOM     10  O   UNL     1      -4.733   2.146  -1.657  0.00  0.00    -0.379 OA
ATOM     11  H   UNL     1      -4.247   2.944  -1.920  0.00  0.00    +0.211 HD
ENDBRANCH   5  10
BRANCH   6  12
ATOM     12  O   UNL     1      -6.072   0.650   0.422  0.00  0.00    -0.379 OA
ATOM     13  H   UNL     1      -6.579   1.200  -0.195  0.00  0.00    +0.211 HD
ENDBRANCH   6  12
BRANCH   7  14
ATOM     14  C   UNL     1      -4.766  -1.917   1.098  0.00  0.00    +0.169 C 
BRANCH  14  15
ATOM     15  O   UNL     1      -3.969  -2.668   1.994  0.00  0.00    -0.379 OA
ATOM     16  H   UNL     1      -4.414  -3.505   2.200  0.00  0.00    +0.211 HD
ENDBRANCH  14  15
ENDBRANCH   7  14
ENDBRANCH   1   3
BRANCH   1  17
ATOM     17  C   UNL     1      -0.013  -1.061   0.323  0.00  0.00    +0.145 C 
BRANCH  17  19
ATOM     18  O   UNL     1       4.141  -3.627   0.499  0.00  0.00    -0.291 OA
ATOM     19  C   UNL     1       1.338  -1.409  -0.335  0.00  0.00    +0.038 C 
ATOM     20  C   UNL     1       2.187  -0.130  -0.631  0.00  0.00    +0.021 C 
ATOM     21  C   UNL     1       2.113  -2.356   0.602  0.00  0.00    +0.072 C 
ATOM     22  C   UNL     1       3.598  -0.485  -1.077  0.00  0.00    -0.041 C 
ATOM     23  C   UNL     1       1.012  -2.142  -1.662  0.00  0.00    +0.003 C 
ATOM     24  C   UNL     1       3.530  -2.623   0.139  0.00  0.00    +0.173 C 
ATOM     25  C   UNL     1       4.207  -1.627  -0.725  0.00  0.00    +0.029 C 
ATOM     26  C   UNL     1       4.292   0.510  -1.967  0.00  0.00    +0.026 C 
BRANCH  20  27
ATOM     27  C   UNL     1       2.269   0.850   0.550  0.00  0.00    +0.007 C 
BRANCH  27  28
ATOM     28  C   UNL     1       3.039   2.108   0.159  0.00  0.00    +0.030 C 
BRANCH  28  29
ATOM     29  C   UNL     1       3.097   3.113   1.314  0.00  0.00    +0.111 C 
ATOM     30  C   UNL     1       3.829   4.386   0.911  0.00  0.00    +0.032 C 
BRANCH  29  31
ATOM     31  O   UNL     1       3.766   2.535   2.432  0.00  0.00    -0.384 OA
ATOM     32  H   UNL     1       3.308   1.723   2.698  0.00  0.00    +0.210 HD
ENDBRANCH  29  31
ENDBRANCH  28  29
ENDBRANCH  27  28
ENDBRANCH  20  27
ENDBRANCH  17  19
ENDBRANCH   1  17
TORSDOF 12
