REMARK  Name = 11667643
REMARK  13 active torsions:
REMARK  status: ('A' for Active; 'I' for Inactive)
REMARK    1  A    between atoms: C_1  and  O_2
REMARK    2  A    between atoms: C_1  and  C_4
REMARK    3  A    between atoms: C_1  and  C_16
REMARK    4  A    between atoms: C_4  and  C_5
REMARK    5  A    between atoms: C_5  and  C_6
REMARK    6  A    between atoms: C_9  and  O_12
REMARK    7  A    between atoms: C_11  and  O_14
REMARK    8  A    between atoms: C_16  and  C_18
REMARK    9  A    between atoms: C_18  and  C_19
REMARK   10  A    between atoms: C_19  and  C_20
REMARK   11  A    between atoms: C_20  and  C_21
REMARK   12  A    between atoms: C_24  and  O_27
REMARK   13  A    between atoms: C_26  and  O_29
REMARK                            x       y       z     vdW  Elec       q    Type
REMARK                         _______ _______ _______ _____ _____    ______ ____
ROOT
ATOM      1  C   UNL     1       1.985  -2.494   0.807  0.00  0.00    +0.123 C 
ENDROOT
BRANCH   1   2
ATOM      2  O   UNL     1       2.183  -3.284  -0.364  0.00  0.00    -0.353 OA
ATOM      3  C   UNL     1       3.379  -4.044  -0.279  0.00  0.00    +0.174 C 
ENDBRANCH   1   2
BRANCH   1   4
ATOM      4  C   UNL     1       0.661  -1.732   0.680  0.00  0.00    +0.035 C 
BRANCH   4   5
ATOM      5  C   UNL     1      -0.525  -2.676   0.449  0.00  0.00    +0.029 C 
BRANCH   5   6
ATOM      6  C   UNL     1      -1.826  -1.920   0.351  0.00  0.00    -0.019 C 
ATOM      7  C   UNL     1      -2.264  -1.474  -0.886  0.00  0.00    +0.036 C 
ATOM      8  C   UNL     1      -2.564  -1.684   1.502  0.00  0.00    -0.001 C 
ATOM      9  C   UNL     1      -3.468  -0.776  -0.976  0.00  0.00    +0.167 C 
ATOM     10  C   UNL     1      -3.768  -0.985   1.412  0.00  0.00    +0.039 C 
ATOM     11  C   UNL     1      -4.220  -0.531   0.173  0.00  0.00    +0.167 C 
BRANCH   9  12
ATOM     12  O   UNL     1      -3.899  -0.338  -2.192  0.00  0.00    -0.503 OA
ATOM     13  H   UNL     1      -3.388  -0.506  -2.959  0.00  0.00    +0.292 HD
ENDBRANCH   9  12
BRANCH  11  14
ATOM     14  O   UNL     1      -5.397   0.150   0.098  0.00  0.00    -0.503 OA
ATOM     15  H   UNL     1      -5.708   0.458  -0.730  0.00  0.00    +0.292 HD
ENDBRANCH  11  14
ENDBRANCH   5   6
ENDBRANCH   4   5
ENDBRANCH   1   4
BRANCH   1  16
ATOM     16  C   UNL     1       3.189  -1.573   1.020  0.00  0.00    +0.094 C 
BRANCH  16  18
ATOM     17  O   UNL     1       3.019  -0.823  -1.252  0.00  0.00    -0.296 OA
ATOM     18  C   UNL     1       3.373  -0.564  -0.102  0.00  0.00    +0.153 C 
BRANCH  18  19
ATOM     19  C   UNL     1       4.054   0.746   0.267  0.00  0.00    +0.069 C 
BRANCH  19  20
ATOM     20  C   UNL     1       3.584   1.938  -0.568  0.00  0.00    +0.034 C 
BRANCH  20  21
ATOM     21  C   UNL     1       2.108   2.221  -0.425  0.00  0.00    -0.019 C 
ATOM     22  C   UNL     1       1.675   3.088   0.566  0.00  0.00    +0.036 C 
ATOM     23  C   UNL     1       1.213   1.608  -1.287  0.00  0.00    -0.001 C 
ATOM     24  C   UNL     1       0.312   3.349   0.698  0.00  0.00    +0.167 C 
ATOM     25  C   UNL     1      -0.151   1.869  -1.155  0.00  0.00    +0.039 C 
ATOM     26  C   UNL     1      -0.602   2.740  -0.163  0.00  0.00    +0.167 C 
BRANCH  24  27
ATOM     27  O   UNL     1      -0.116   4.201   1.671  0.00  0.00    -0.503 OA
ATOM     28  H   UNL     1       0.504   4.607   2.244  0.00  0.00    +0.292 HD
ENDBRANCH  24  27
BRANCH  26  29
ATOM     29  O   UNL     1      -1.936   2.987  -0.044  0.00  0.00    -0.503 OA
ATOM     30  H   UNL     1      -2.247   3.570   0.620  0.00  0.00    +0.292 HD
ENDBRANCH  26  29
ENDBRANCH  20  21
ENDBRANCH  19  20
ENDBRANCH  18  19
ENDBRANCH  16  18
ENDBRANCH   1  16
TORSDOF 13
