11661058
  -OEChem-03292013303D

 59 60  0     1  0  0  0  0  0999 V2000
   -0.7042   -0.1863   -0.5413 O   0  0  0  0  0  0  0  0  0  0  0  0
   -2.7768   -0.9369    0.2235 O   0  0  0  0  0  0  0  0  0  0  0  0
   -1.8477    2.3430   -1.0914 O   0  0  0  0  0  0  0  0  0  0  0  0
   -4.7326    2.1463   -1.6571 O   0  0  0  0  0  0  0  0  0  0  0  0
   -6.0718    0.6496    0.4220 O   0  0  0  0  0  0  0  0  0  0  0  0
    4.1413   -3.6274    0.4995 O   0  0  0  0  0  0  0  0  0  0  0  0
    3.7663    2.5355    2.4319 O   0  0  0  0  0  0  0  0  0  0  0  0
   -3.9686   -2.6685    1.9945 O   0  0  0  0  0  0  0  0  0  0  0  0
    1.3376   -1.4094   -0.3349 C   0  0  1  0  0  0  0  0  0  0  0  0
    2.1867   -0.1300   -0.6311 C   0  0  1  0  0  0  0  0  0  0  0  0
    2.1134   -2.3560    0.6018 C   0  0  0  0  0  0  0  0  0  0  0  0
   -0.0132   -1.0608    0.3233 C   0  0  0  0  0  0  0  0  0  0  0  0
    2.2693    0.8504    0.5501 C   0  0  0  0  0  0  0  0  0  0  0  0
    3.5978   -0.4847   -1.0769 C   0  0  0  0  0  0  0  0  0  0  0  0
    1.0119   -2.1415   -1.6618 C   0  0  0  0  0  0  0  0  0  0  0  0
   -1.9636    0.2125   -0.0013 C   0  0  2  0  0  0  0  0  0  0  0  0
    3.5296   -2.6225    0.1392 C   0  0  0  0  0  0  0  0  0  0  0  0
    3.0389    2.1080    0.1591 C   0  0  0  0  0  0  0  0  0  0  0  0
   -2.6302    1.1523   -1.0060 C   0  0  1  0  0  0  0  0  0  0  0  0
    4.2071   -1.6275   -0.7254 C   0  0  0  0  0  0  0  0  0  0  0  0
   -4.0525    1.5097   -0.5741 C   0  0  2  0  0  0  0  0  0  0  0  0
   -4.8440    0.2600   -0.1880 C   0  0  1  0  0  0  0  0  0  0  0  0
   -4.0468   -0.6076    0.7889 C   0  0  1  0  0  0  0  0  0  0  0  0
    4.2917    0.5099   -1.9670 C   0  0  0  0  0  0  0  0  0  0  0  0
    3.0972    3.1130    1.3140 C   0  0  2  0  0  0  0  0  0  0  0  0
   -4.7661   -1.9168    1.0979 C   0  0  0  0  0  0  0  0  0  0  0  0
    3.8293    4.3858    0.9108 C   0  0  0  0  0  0  0  0  0  0  0  0
    1.6934    0.3922   -1.4638 H   0  0  0  0  0  0  0  0  0  0  0  0
    1.5947   -3.3203    0.6708 H   0  0  0  0  0  0  0  0  0  0  0  0
    2.1769   -1.9422    1.6152 H   0  0  0  0  0  0  0  0  0  0  0  0
    0.1209   -0.6059    1.3113 H   0  0  0  0  0  0  0  0  0  0  0  0
   -0.5919   -1.9818    0.4702 H   0  0  0  0  0  0  0  0  0  0  0  0
    1.2678    1.1630    0.8628 H   0  0  0  0  0  0  0  0  0  0  0  0
    2.7413    0.3637    1.4108 H   0  0  0  0  0  0  0  0  0  0  0  0
    1.9104   -2.5070   -2.1690 H   0  0  0  0  0  0  0  0  0  0  0  0
    0.3700   -3.0122   -1.4830 H   0  0  0  0  0  0  0  0  0  0  0  0
    0.4905   -1.4865   -2.3688 H   0  0  0  0  0  0  0  0  0  0  0  0
   -1.7780    0.7346    0.9474 H   0  0  0  0  0  0  0  0  0  0  0  0
    4.0834    1.8708   -0.0325 H   0  0  0  0  0  0  0  0  0  0  0  0
    2.5915    2.5825   -0.7209 H   0  0  0  0  0  0  0  0  0  0  0  0
   -2.6441    0.7047   -2.0075 H   0  0  0  0  0  0  0  0  0  0  0  0
    5.2133   -1.8609   -1.0568 H   0  0  0  0  0  0  0  0  0  0  0  0
   -4.0310    2.2353    0.2483 H   0  0  0  0  0  0  0  0  0  0  0  0
   -5.0931   -0.3076   -1.0929 H   0  0  0  0  0  0  0  0  0  0  0  0
   -3.8789   -0.0805    1.7381 H   0  0  0  0  0  0  0  0  0  0  0  0
    4.6399   -0.0020   -2.8732 H   0  0  0  0  0  0  0  0  0  0  0  0
    5.1765    0.9410   -1.4892 H   0  0  0  0  0  0  0  0  0  0  0  0
    3.6318    1.3072   -2.3192 H   0  0  0  0  0  0  0  0  0  0  0  0
    2.0828    3.3817    1.6318 H   0  0  0  0  0  0  0  0  0  0  0  0
   -5.7398   -1.7436    1.5650 H   0  0  0  0  0  0  0  0  0  0  0  0
   -4.9099   -2.5182    0.1942 H   0  0  0  0  0  0  0  0  0  0  0  0
   -0.9457    2.0811   -1.3441 H   0  0  0  0  0  0  0  0  0  0  0  0
   -5.6347    2.3488   -1.3552 H   0  0  0  0  0  0  0  0  0  0  0  0
    4.8676    4.1705    0.6349 H   0  0  0  0  0  0  0  0  0  0  0  0
    3.3364    4.8793    0.0677 H   0  0  0  0  0  0  0  0  0  0  0  0
    3.8673    5.0860    1.7522 H   0  0  0  0  0  0  0  0  0  0  0  0
   -5.8608    1.1487    1.2295 H   0  0  0  0  0  0  0  0  0  0  0  0
    3.1529    1.9125    2.8563 H   0  0  0  0  0  0  0  0  0  0  0  0
   -3.1048   -2.8117    1.5710 H   0  0  0  0  0  0  0  0  0  0  0  0
  1 12  1  0  0  0  0
  1 16  1  0  0  0  0
  2 16  1  0  0  0  0
  2 23  1  0  0  0  0
  3 19  1  0  0  0  0
  3 52  1  0  0  0  0
  4 21  1  0  0  0  0
  4 53  1  0  0  0  0
  5 22  1  0  0  0  0
  5 57  1  0  0  0  0
  6 17  2  0  0  0  0
  7 25  1  0  0  0  0
  7 58  1  0  0  0  0
  8 26  1  0  0  0  0
  8 59  1  0  0  0  0
  9 10  1  0  0  0  0
  9 11  1  0  0  0  0
  9 12  1  0  0  0  0
  9 15  1  0  0  0  0
 10 13  1  0  0  0  0
 10 14  1  0  0  0  0
 10 28  1  0  0  0  0
 11 17  1  0  0  0  0
 11 29  1  0  0  0  0
 11 30  1  0  0  0  0
 12 31  1  0  0  0  0
 12 32  1  0  0  0  0
 13 18  1  0  0  0  0
 13 33  1  0  0  0  0
 13 34  1  0  0  0  0
 14 20  2  0  0  0  0
 14 24  1  0  0  0  0
 15 35  1  0  0  0  0
 15 36  1  0  0  0  0
 15 37  1  0  0  0  0
 16 19  1  0  0  0  0
 16 38  1  0  0  0  0
 17 20  1  0  0  0  0
 18 25  1  0  0  0  0
 18 39  1  0  0  0  0
 18 40  1  0  0  0  0
 19 21  1  0  0  0  0
 19 41  1  0  0  0  0
 20 42  1  0  0  0  0
 21 22  1  0  0  0  0
 21 43  1  0  0  0  0
 22 23  1  0  0  0  0
 22 44  1  0  0  0  0
 23 26  1  0  0  0  0
 23 45  1  0  0  0  0
 24 46  1  0  0  0  0
 24 47  1  0  0  0  0
 24 48  1  0  0  0  0
 25 27  1  0  0  0  0
 25 49  1  0  0  0  0
 26 50  1  0  0  0  0
 26 51  1  0  0  0  0
 27 54  1  0  0  0  0
 27 55  1  0  0  0  0
 27 56  1  0  0  0  0
M  END
> <PUBCHEM_COMPOUND_CID>
11661058

> <PUBCHEM_CONFORMER_RMSD>
1

> <PUBCHEM_CONFORMER_DIVERSEORDER>
1
42
30
40
43
34
32
20
27
29
12
35
31
28
25
17
37
19
45
38
44
24
15
14
2
41
6
21
18
39
23
7
26
4
33
22
10
16
13
11
3
8
36
9
5

> <PUBCHEM_MMFF94_PARTIAL_CHARGES>
28
1 -0.56
10 0.14
11 0.06
12 0.28
14 -0.28
16 0.56
17 0.49
19 0.28
2 -0.56
20 -0.14
21 0.28
22 0.28
23 0.28
24 0.14
25 0.28
26 0.28
3 -0.68
4 -0.68
42 0.15
5 -0.68
52 0.4
53 0.4
57 0.4
58 0.4
59 0.4
6 -0.57
7 -0.68
8 -0.68

> <PUBCHEM_EFFECTIVE_ROTOR_COUNT>
8.8

> <PUBCHEM_PHARMACOPHORE_FEATURES>
15
1 1 acceptor
1 2 acceptor
1 3 acceptor
1 3 donor
1 4 acceptor
1 4 donor
1 5 acceptor
1 5 donor
1 6 acceptor
1 7 acceptor
1 7 donor
1 8 acceptor
1 8 donor
6 2 16 19 21 22 23 rings
6 9 10 11 14 17 20 rings

> <PUBCHEM_HEAVY_ATOM_COUNT>
27

> <PUBCHEM_ATOM_DEF_STEREO_COUNT>
8

> <PUBCHEM_ATOM_UDEF_STEREO_COUNT>
0

> <PUBCHEM_BOND_DEF_STEREO_COUNT>
0

> <PUBCHEM_BOND_UDEF_STEREO_COUNT>
0

> <PUBCHEM_ISOTOPIC_ATOM_COUNT>
0

> <PUBCHEM_COMPONENT_COUNT>
1

> <PUBCHEM_CACTVS_TAUTO_COUNT>
8

> <PUBCHEM_CONFORMER_ID>
00B1EF0200000001

> <PUBCHEM_MMFF94_ENERGY>
74.7648

> <PUBCHEM_FEATURE_SELFOVERLAP>
76.189

> <PUBCHEM_SHAPE_FINGERPRINT>
10074138 170 17329687230242446370
10369192 42 17980197805575522864
11045977 3 18334858260547193999
11405975 8 18410015399396694243
11595378 159 16153702116069985613
12403259 226 18263362508144704190
12403259 415 18339932622341213481
12616971 3 17560793308791420821
12769317 202 18059006327982703608
13034934 17 18194119840136431593
13134695 92 18196920086115562118
13583140 156 18410290294046021135
14341114 176 18042416750334225687
14955137 171 18270400478370650294
17913733 40 18058446672078644816
17980427 23 16915062258997300678
17980427 26 18198327637271882638
18785283 64 18338229470878157632
20681677 76 18410007741306254031
21065201 7 17603587404913641603
22122407 14 17632313250434027921
23557571 272 18187376423896783199
23559900 14 18113901524662760479
4015057 19 18267574733307261831
4214541 1 17968664783345493919
469060 322 17905875234874353063
5104073 3 18409453587725638379
5252454 2 17772186672372372448
57124632 79 18269828869615103624
7399639 24 18265334099970611745
7495541 125 18410859832642629238
9841814 1 18201720613996032722

> <PUBCHEM_SHAPE_MULTIPOLES>
508.69
12.15
4.33
1.63
12.76
2.06
-0.11
1.67
-1.04
-5.89
-1.75
-0.43
0.4
3.59

> <PUBCHEM_SHAPE_SELFOVERLAP>
1035.531

> <PUBCHEM_SHAPE_VOLUME>
291.1

> <PUBCHEM_COORDINATE_TYPE>
2
5
10

$$$$
