REMARK  Name = 11662986
REMARK  10 active torsions:
REMARK  status: ('A' for Active; 'I' for Inactive)
REMARK    1  A    between atoms: C_6  and  C_26
REMARK    2  A    between atoms: C_7  and  O_20
REMARK    3  A    between atoms: C_11  and  O_22
REMARK    4  A    between atoms: C_19  and  O_24
REMARK    5  A    between atoms: C_26  and  C_28
REMARK    6  A    between atoms: C_28  and  C_29
REMARK    7  A    between atoms: C_29  and  C_32
REMARK    8  A    between atoms: N_31  and  C_34
REMARK    9  A    between atoms: C_34  and  C_36
REMARK   10  A    between atoms: C_36  and  O_37
REMARK                            x       y       z     vdW  Elec       q    Type
REMARK                         _______ _______ _______ _____ _____    ______ ____
ROOT
ATOM      1  C   UNL     1       0.391   0.131   0.655  0.00  0.00    +0.025 C 
ATOM      2  C   UNL     1       1.407   1.185   0.156  0.00  0.00    +0.005 C 
ATOM      3  C   UNL     1       2.815   0.990   0.738  0.00  0.00    +0.027 C 
ATOM      4  C   UNL     1       3.337  -0.431   0.337  0.00  0.00    +0.005 C 
ATOM      5  C   UNL     1       4.785  -0.702   0.906  0.00  0.00    +0.000 C 
ATOM      6  C   UNL     1      -0.882   0.672  -0.047  0.00  0.00    +0.002 C 
ATOM      7  C   UNL     1       0.866  -1.269   0.213  0.00  0.00    +0.110 C 
ATOM      8  C   UNL     1       2.310  -1.551   0.680  0.00  0.00    +0.029 C 
ATOM      9  C   UNL     1       5.752   0.427   0.417  0.00  0.00    +0.005 C 
ATOM     10  C   UNL     1       0.696   2.515   0.401  0.00  0.00    +0.000 C 
ATOM     11  C   UNL     1       3.786   2.105   0.304  0.00  0.00    +0.110 C 
ATOM     12  C   UNL     1      -0.791   2.202   0.155  0.00  0.00    +0.000 C 
ATOM     13  C   UNL     1       5.225   1.837   0.753  0.00  0.00    +0.029 C 
ATOM     14  C   UNL     1       5.358  -2.078   0.456  0.00  0.00    +0.002 C 
ATOM     15  C   UNL     1       0.211   0.129   2.198  0.00  0.00    +0.002 C 
ATOM     16  C   UNL     1       6.108   0.307  -1.080  0.00  0.00    +0.029 C 
ATOM     17  C   UNL     1       4.782  -0.734   2.458  0.00  0.00    +0.000 C 
ATOM     18  C   UNL     1       5.670  -2.165  -1.032  0.00  0.00    +0.029 C 
ATOM     19  C   UNL     1       6.648  -1.073  -1.442  0.00  0.00    +0.111 C 
ENDROOT
BRANCH   7  20
ATOM     20  O   UNL     1       0.785  -1.441  -1.201  0.00  0.00    -0.384 OA
ATOM     21  H   UNL     1      -0.121  -1.264  -1.497  0.00  0.00    +0.210 HD
ENDBRANCH   7  20
BRANCH  11  22
ATOM     22  O   UNL     1       3.737   2.282  -1.109  0.00  0.00    -0.384 OA
ATOM     23  H   UNL     1       2.822   2.451  -1.382  0.00  0.00    +0.210 HD
ENDBRANCH  11  22
BRANCH  19  24
ATOM     24  O   UNL     1       6.854  -1.153  -2.849  0.00  0.00    -0.384 OA
ATOM     25  H   UNL     1       7.475  -0.461  -3.124  0.00  0.00    +0.210 HD
ENDBRANCH  19  24
BRANCH   6  26
ATOM     26  C   UNL     1      -2.210   0.091   0.417  0.00  0.00    +0.001 C 
ATOM     27  C   UNL     1      -2.207  -1.431   0.242  0.00  0.00    +0.000 C 
BRANCH  26  28
ATOM     28  C   UNL     1      -3.376   0.760  -0.340  0.00  0.00    +0.010 C 
BRANCH  28  29
ATOM     29  C   UNL     1      -4.760   0.287   0.115  0.00  0.00    +0.085 C 
BRANCH  29  32
ATOM     30  O   UNL     1      -5.643   1.888  -1.439  0.00  0.00    -0.275 OA
ATOM     31  N   UNL     1      -7.190   0.647  -0.237  0.00  0.00    -0.268 N 
ATOM     32  C   UNL     1      -5.891   1.021  -0.596  0.00  0.00    +0.226 C 
ATOM     33  C   UNL     1      -8.372   1.256  -0.834  0.00  0.00    +0.115 C 
BRANCH  31  34
ATOM     34  C   UNL     1      -7.460  -0.383   0.764  0.00  0.00    +0.204 C 
BRANCH  34  36
ATOM     35  O   UNL     1      -7.796  -2.765   0.839  0.00  0.00    -0.248 OA
ATOM     36  C   UNL     1      -7.565  -1.764   0.172  0.00  0.00    +0.334 C 
BRANCH  36  37
ATOM     37  O   UNL     1      -7.379  -1.794  -1.169  0.00  0.00    -0.479 OA
ATOM     38  H   UNL     1      -7.205  -1.000  -1.635  0.00  0.00    +0.295 HD
ENDBRANCH  36  37
ENDBRANCH  34  36
ENDBRANCH  31  34
ENDBRANCH  29  32
ENDBRANCH  28  29
ENDBRANCH  26  28
ENDBRANCH   6  26
TORSDOF 10
