REMARK  Name = 11661758
REMARK  7 active torsions:
REMARK  status: ('A' for Active; 'I' for Inactive)
REMARK    1  A    between atoms: S_1  and  C_9
REMARK    2  A    between atoms: S_1  and  C_19
REMARK    3  A    between atoms: N_5  and  C_11
REMARK    4  A    between atoms: C_13  and  O_17
REMARK    5  A    between atoms: C_20  and  N_26
REMARK    6  A    between atoms: C_27  and  C_29
REMARK    7  A    between atoms: C_29  and  N_31
REMARK                            x       y       z     vdW  Elec       q    Type
REMARK                         _______ _______ _______ _____ _____    ______ ____
ROOT
ATOM      1  S   UNL     1      -0.734  -3.296  -0.688  0.00  0.00    -0.087 S 
ENDROOT
BRANCH   1   7
ATOM      2  N   UNL     1       3.384  -0.048  -1.298  0.00  0.00    -0.302 N 
ATOM      3  N   UNL     1       4.154  -0.264   0.776  0.00  0.00    -0.302 N 
ATOM      4  C   UNL     1       2.522  -0.914  -0.676  0.00  0.00    +0.061 C 
ATOM      5  C   UNL     1       3.024  -1.032   0.617  0.00  0.00    +0.060 C 
ATOM      6  C   UNL     1       1.381  -1.583  -1.119  0.00  0.00    +0.022 C 
ATOM      7  C   UNL     1       0.733  -2.406  -0.191  0.00  0.00    +0.031 C 
ATOM      8  C   UNL     1       2.360  -1.863   1.536  0.00  0.00    +0.016 C 
ATOM      9  C   UNL     1       4.341   0.312  -0.391  0.00  0.00    +0.229 C 
ATOM     10  C   UNL     1       1.213  -2.545   1.113  0.00  0.00    +0.008 C 
ATOM     11  H   UNL     1       3.324   0.259  -2.232  0.00  0.00    +0.150 HD
ATOM     12  H   UNL     1       4.703  -0.166   1.587  0.00  0.00    +0.150 HD
BRANCH   9  14
ATOM     13  O   UNL     1       6.604   1.361   1.228  0.00  0.00    -0.226 OA
ATOM     14  N   UNL     1       5.341   1.179  -0.747  0.00  0.00    -0.240 N 
ATOM     15  C   UNL     1       6.385   1.642   0.056  0.00  0.00    +0.404 C 
ATOM     16  H   UNL     1       5.321   1.512  -1.673  0.00  0.00    +0.156 HD
BRANCH  15  17
ATOM     17  O   UNL     1       7.174   2.493  -0.673  0.00  0.00    -0.431 OA
ATOM     18  C   UNL     1       8.296   3.057   0.015  0.00  0.00    +0.257 C 
ENDBRANCH  15  17
ENDBRANCH   9  14
ENDBRANCH   1   7
BRANCH   1  19
ATOM     19  C   UNL     1      -2.010  -2.117  -0.276  0.00  0.00    +0.030 C 
ATOM     20  C   UNL     1      -3.995  -0.271   0.365  0.00  0.00    +0.050 C 
ATOM     21  C   UNL     1      -3.844  -0.704  -0.952  0.00  0.00    +0.015 C 
ATOM     22  C   UNL     1      -3.152  -0.763   1.362  0.00  0.00    +0.015 C 
ATOM     23  C   UNL     1      -2.850  -1.628  -1.273  0.00  0.00    +0.008 C 
ATOM     24  C   UNL     1      -2.158  -1.687   1.041  0.00  0.00    +0.008 C 
BRANCH  20  26
ATOM     25  O   UNL     1      -6.025   1.080  -1.383  0.00  0.00    -0.277 OA
ATOM     26  N   UNL     1      -4.988   0.655   0.685  0.00  0.00    -0.286 N 
ATOM     27  C   UNL     1      -5.924   1.259  -0.172  0.00  0.00    +0.206 C 
ATOM     28  H   UNL     1      -5.040   0.920   1.632  0.00  0.00    +0.155 HD
BRANCH  27  29
ATOM     29  C   UNL     1      -6.843   2.222   0.574  0.00  0.00    +0.013 C 
ATOM     30  C   UNL     1      -8.207   2.337  -0.098  0.00  0.00    -0.015 C 
BRANCH  29  31
ATOM     31  N   UNL     1      -6.180   3.524   0.569  0.00  0.00    +0.387 N 
ATOM     32  H   UNL     1      -5.269   3.443   1.020  0.00  0.00    -0.089 HD
ATOM     33  H   UNL     1      -6.752   4.199   1.078  0.00  0.00    -0.089 HD
ATOM     34  H   UNL     1      -6.057   3.839  -0.393  0.00  0.00    -0.089 HD
ENDBRANCH  29  31
ENDBRANCH  27  29
ENDBRANCH  20  26
ENDBRANCH   1  19
TORSDOF 7
