REMARK  Name = 11662058
REMARK  13 active torsions:
REMARK  status: ('A' for Active; 'I' for Inactive)
REMARK    1  A    between atoms: C_1  and  C_2
REMARK    2  A    between atoms: C_1  and  O_12
REMARK    3  A    between atoms: C_1  and  C_28
REMARK    4  A    between atoms: C_5  and  O_8
REMARK    5  A    between atoms: C_6  and  O_10
REMARK    6  A    between atoms: O_12  and  C_18
REMARK    7  A    between atoms: C_14  and  O_19
REMARK    8  A    between atoms: C_15  and  O_21
REMARK    9  A    between atoms: C_16  and  O_23
REMARK   10  A    between atoms: C_17  and  C_25
REMARK   11  A    between atoms: C_25  and  O_26
REMARK   12  A    between atoms: C_28  and  C_29
REMARK   13  A    between atoms: C_28  and  O_35
REMARK                            x       y       z     vdW  Elec       q    Type
REMARK                         _______ _______ _______ _____ _____    ______ ____
ROOT
ATOM      1  C   UNL     1       0.391  -1.078   0.286  0.00  0.00    +0.171 C 
ENDROOT
BRANCH   1   2
ATOM      2  C   UNL     1      -1.102  -1.242   0.108  0.00  0.00    +0.013 C 
ATOM      3  C   UNL     1      -1.612  -1.722  -1.099  0.00  0.00    +0.035 C 
ATOM      4  C   UNL     1      -1.970  -0.914   1.150  0.00  0.00    +0.035 C 
ATOM      5  C   UNL     1      -3.346  -1.065   0.985  0.00  0.00    +0.142 C 
ATOM      6  C   UNL     1      -2.989  -1.873  -1.264  0.00  0.00    +0.142 C 
ATOM      7  C   UNL     1      -3.856  -1.545  -0.222  0.00  0.00    +0.074 C 
BRANCH   5   8
ATOM      8  O   UNL     1      -4.193  -0.744   2.001  0.00  0.00    -0.471 OA
ATOM      9  C   UNL     1      -3.605  -0.259   3.207  0.00  0.00    +0.252 C 
ENDBRANCH   5   8
BRANCH   6  10
ATOM     10  O   UNL     1      -3.486  -2.341  -2.442  0.00  0.00    -0.471 OA
ATOM     11  C   UNL     1      -4.903  -2.471  -2.542  0.00  0.00    +0.252 C 
ENDBRANCH   6  10
ENDBRANCH   1   2
BRANCH   1  12
ATOM     12  O   UNL     1       0.817  -0.072  -0.620  0.00  0.00    -0.324 OA
BRANCH  12  18
ATOM     13  O   UNL     1      -0.584   1.768  -0.312  0.00  0.00    -0.326 OA
ATOM     14  C   UNL     1       1.656   3.562  -0.200  0.00  0.00    +0.172 C 
ATOM     15  C   UNL     1       0.218   4.055  -0.358  0.00  0.00    +0.169 C 
ATOM     16  C   UNL     1       1.796   2.109  -0.654  0.00  0.00    +0.196 C 
ATOM     17  C   UNL     1      -0.768   3.063   0.263  0.00  0.00    +0.176 C 
ATOM     18  C   UNL     1       0.708   1.228  -0.041  0.00  0.00    +0.266 C 
BRANCH  14  19
ATOM     19  O   UNL     1       2.499   4.393  -1.000  0.00  0.00    -0.379 OA
ATOM     20  H   UNL     1       2.410   5.315  -0.713  0.00  0.00    +0.211 HD
ENDBRANCH  14  19
BRANCH  15  21
ATOM     21  O   UNL     1       0.080   5.320   0.283  0.00  0.00    -0.379 OA
ATOM     22  H   UNL     1       0.704   5.951  -0.109  0.00  0.00    +0.211 HD
ENDBRANCH  15  21
BRANCH  16  23
ATOM     23  O   UNL     1       3.066   1.604  -0.240  0.00  0.00    -0.378 OA
ATOM     24  H   UNL     1       3.771   2.151  -0.620  0.00  0.00    +0.211 HD
ENDBRANCH  16  23
BRANCH  17  25
ATOM     25  C   UNL     1      -2.216   3.474   0.015  0.00  0.00    +0.169 C 
BRANCH  25  26
ATOM     26  O   UNL     1      -3.067   2.509   0.606  0.00  0.00    -0.379 OA
ATOM     27  H   UNL     1      -3.992   2.759   0.456  0.00  0.00    +0.211 HD
ENDBRANCH  25  26
ENDBRANCH  17  25
ENDBRANCH  12  18
ENDBRANCH   1  12
BRANCH   1  28
ATOM     28  C   UNL     1       1.193  -2.369   0.022  0.00  0.00    +0.164 C 
BRANCH  28  29
ATOM     29  C   UNL     1       2.691  -2.180   0.104  0.00  0.00    +0.007 C 
ATOM     30  C   UNL     1       3.413  -1.833  -1.038  0.00  0.00    -0.002 C 
ATOM     31  C   UNL     1       3.351  -2.354   1.320  0.00  0.00    -0.002 C 
ATOM     32  C   UNL     1       4.795  -1.659  -0.963  0.00  0.00    -0.000 C 
ATOM     33  C   UNL     1       4.733  -2.179   1.395  0.00  0.00    -0.000 C 
ATOM     34  C   UNL     1       5.455  -1.832   0.253  0.00  0.00    -0.000 C 
ENDBRANCH  28  29
BRANCH  28  35
ATOM     35  O   UNL     1       0.834  -3.354   0.997  0.00  0.00    -0.377 OA
ATOM     36  H   UNL     1      -0.125  -3.499   0.971  0.00  0.00    +0.211 HD
ENDBRANCH  28  35
ENDBRANCH   1  28
TORSDOF 13
