11667643
  -OEChem-03292013303D

 50 51  0     1  0  0  0  0  0999 V2000
    2.1832   -3.2836   -0.3640 O   0  0  0  0  0  0  0  0  0  0  0  0
    3.0191   -0.8227   -1.2518 O   0  0  0  0  0  0  0  0  0  0  0  0
   -3.8992   -0.3376   -2.1921 O   0  0  0  0  0  0  0  0  0  0  0  0
   -5.3973    0.1499    0.0981 O   0  0  0  0  0  0  0  0  0  0  0  0
   -0.1160    4.2014    1.6705 O   0  0  0  0  0  0  0  0  0  0  0  0
   -1.9360    2.9868   -0.0439 O   0  0  0  0  0  0  0  0  0  0  0  0
    1.9854   -2.4936    0.8066 C   0  0  2  0  0  0  0  0  0  0  0  0
    0.6611   -1.7317    0.6804 C   0  0  0  0  0  0  0  0  0  0  0  0
    3.1894   -1.5732    1.0204 C   0  0  0  0  0  0  0  0  0  0  0  0
   -0.5250   -2.6756    0.4488 C   0  0  0  0  0  0  0  0  0  0  0  0
    3.3733   -0.5642   -0.1018 C   0  0  0  0  0  0  0  0  0  0  0  0
    4.0540    0.7458    0.2668 C   0  0  0  0  0  0  0  0  0  0  0  0
   -1.8264   -1.9201    0.3514 C   0  0  0  0  0  0  0  0  0  0  0  0
    3.5842    1.9381   -0.5683 C   0  0  0  0  0  0  0  0  0  0  0  0
    2.1076    2.2207   -0.4249 C   0  0  0  0  0  0  0  0  0  0  0  0
   -2.2640   -1.4743   -0.8864 C   0  0  0  0  0  0  0  0  0  0  0  0
   -2.5638   -1.6838    1.5016 C   0  0  0  0  0  0  0  0  0  0  0  0
    3.3789   -4.0439   -0.2788 C   0  0  0  0  0  0  0  0  0  0  0  0
    1.6755    3.0878    0.5656 C   0  0  0  0  0  0  0  0  0  0  0  0
   -3.4681   -0.7758   -0.9764 C   0  0  0  0  0  0  0  0  0  0  0  0
    1.2127    1.6077   -1.2869 C   0  0  0  0  0  0  0  0  0  0  0  0
   -3.7676   -0.9849    1.4118 C   0  0  0  0  0  0  0  0  0  0  0  0
   -4.2198   -0.5310    0.1727 C   0  0  0  0  0  0  0  0  0  0  0  0
    0.3117    3.3492    0.6976 C   0  0  0  0  0  0  0  0  0  0  0  0
   -0.1512    1.8689   -1.1547 C   0  0  0  0  0  0  0  0  0  0  0  0
   -0.6017    2.7397   -0.1625 C   0  0  0  0  0  0  0  0  0  0  0  0
    1.9035   -3.1694    1.6685 H   0  0  0  0  0  0  0  0  0  0  0  0
    0.7012   -1.0404   -0.1670 H   0  0  0  0  0  0  0  0  0  0  0  0
    0.4963   -1.1273    1.5810 H   0  0  0  0  0  0  0  0  0  0  0  0
    3.0162   -1.0148    1.9485 H   0  0  0  0  0  0  0  0  0  0  0  0
    4.1341   -2.1083    1.1502 H   0  0  0  0  0  0  0  0  0  0  0  0
   -0.5863   -3.4078    1.2643 H   0  0  0  0  0  0  0  0  0  0  0  0
   -0.3807   -3.2619   -0.4676 H   0  0  0  0  0  0  0  0  0  0  0  0
    3.8639    0.9554    1.3257 H   0  0  0  0  0  0  0  0  0  0  0  0
    5.1330    0.6019    0.1450 H   0  0  0  0  0  0  0  0  0  0  0  0
    3.8184    1.7685   -1.6275 H   0  0  0  0  0  0  0  0  0  0  0  0
    4.1567    2.8293   -0.2808 H   0  0  0  0  0  0  0  0  0  0  0  0
   -1.6791   -1.6605   -1.7833 H   0  0  0  0  0  0  0  0  0  0  0  0
   -2.2189   -2.0314    2.4712 H   0  0  0  0  0  0  0  0  0  0  0  0
    4.2497   -3.4435   -0.5564 H   0  0  0  0  0  0  0  0  0  0  0  0
    3.3065   -4.8543   -1.0107 H   0  0  0  0  0  0  0  0  0  0  0  0
    3.5110   -4.4977    0.7088 H   0  0  0  0  0  0  0  0  0  0  0  0
    2.3905    3.5588    1.2351 H   0  0  0  0  0  0  0  0  0  0  0  0
    1.5437    0.9550   -2.0877 H   0  0  0  0  0  0  0  0  0  0  0  0
   -4.3482   -0.7968    2.3108 H   0  0  0  0  0  0  0  0  0  0  0  0
   -0.8566    1.3980   -1.8337 H   0  0  0  0  0  0  0  0  0  0  0  0
   -4.8590   -0.1947   -2.1671 H   0  0  0  0  0  0  0  0  0  0  0  0
   -5.4124    0.6897   -0.7086 H   0  0  0  0  0  0  0  0  0  0  0  0
    0.6539    4.5266    2.1680 H   0  0  0  0  0  0  0  0  0  0  0  0
   -2.0677    3.6079    0.6934 H   0  0  0  0  0  0  0  0  0  0  0  0
  1  7  1  0  0  0  0
  1 18  1  0  0  0  0
  2 11  2  0  0  0  0
  3 20  1  0  0  0  0
  3 47  1  0  0  0  0
  4 23  1  0  0  0  0
  4 48  1  0  0  0  0
  5 24  1  0  0  0  0
  5 49  1  0  0  0  0
  6 26  1  0  0  0  0
  6 50  1  0  0  0  0
  7  8  1  0  0  0  0
  7  9  1  0  0  0  0
  7 27  1  0  0  0  0
  8 10  1  0  0  0  0
  8 28  1  0  0  0  0
  8 29  1  0  0  0  0
  9 11  1  0  0  0  0
  9 30  1  0  0  0  0
  9 31  1  0  0  0  0
 10 13  1  0  0  0  0
 10 32  1  0  0  0  0
 10 33  1  0  0  0  0
 11 12  1  0  0  0  0
 12 14  1  0  0  0  0
 12 34  1  0  0  0  0
 12 35  1  0  0  0  0
 13 16  2  0  0  0  0
 13 17  1  0  0  0  0
 14 15  1  0  0  0  0
 14 36  1  0  0  0  0
 14 37  1  0  0  0  0
 15 19  2  0  0  0  0
 15 21  1  0  0  0  0
 16 20  1  0  0  0  0
 16 38  1  0  0  0  0
 17 22  2  0  0  0  0
 17 39  1  0  0  0  0
 18 40  1  0  0  0  0
 18 41  1  0  0  0  0
 18 42  1  0  0  0  0
 19 24  1  0  0  0  0
 19 43  1  0  0  0  0
 20 23  2  0  0  0  0
 21 25  2  0  0  0  0
 21 44  1  0  0  0  0
 22 23  1  0  0  0  0
 22 45  1  0  0  0  0
 24 26  2  0  0  0  0
 25 26  1  0  0  0  0
 25 46  1  0  0  0  0
M  END
> <PUBCHEM_COMPOUND_CID>
11667643

> <PUBCHEM_CONFORMER_RMSD>
1.4

> <PUBCHEM_CONFORMER_DIVERSEORDER>
1
177
39
41
98
118
97
172
156
111
33
180
113
213
64
175
88
67
144
78
188
182
112
99
125
5
105
62
34
25
193
205
16
81
90
222
57
146
104
36
223
136
135
117
4
52
106
184
28
115
70
150
119
141
20
122
37
127
137
145
108
50
51
56
160
162
42
31
165
94
178
17
8
59
173
214
161
208
76
43
58
121
195
219
103
92
55
2
123
30
151
83
93
148
72
168
166
154
107
65
21
26
158
143
40
129
186
47
96
163
101
61
46
63
75
220
60
6
53
183
221
124
80
11
153
15
68
69
216
32
110
197
84
218
71
152
164
128
114
12
19
167
3
13
202
23
91
169
74
73
204
157
126
185
211
44
200
132
38
45
120
48
147
116
18
9
85
194
102
212
24
100
210
14
201
7
170
215
35
87
140
79
207
203
139
130
131
133
27
66
189
192
82
181
196
138
190
134
49
155
29
89
199
171
54
217
209
95
86
176
149
191
10
22
198
179
77
187
206
174
109
159
142

> <PUBCHEM_MMFF94_PARTIAL_CHARGES>
35
1 -0.56
10 0.14
11 0.45
12 0.06
13 -0.14
14 0.14
15 -0.14
16 -0.15
17 -0.15
18 0.28
19 -0.15
2 -0.57
20 0.08
21 -0.15
22 -0.15
23 0.08
24 0.08
25 -0.15
26 0.08
3 -0.53
38 0.15
39 0.15
4 -0.53
43 0.15
44 0.15
45 0.15
46 0.15
47 0.45
48 0.45
49 0.45
5 -0.53
50 0.45
6 -0.53
7 0.28
9 0.06

> <PUBCHEM_EFFECTIVE_ROTOR_COUNT>
9

> <PUBCHEM_PHARMACOPHORE_FEATURES>
8
1 1 acceptor
1 2 acceptor
1 3 donor
1 4 donor
1 5 donor
1 6 donor
6 13 16 17 20 22 23 rings
6 15 19 21 24 25 26 rings

> <PUBCHEM_HEAVY_ATOM_COUNT>
26

> <PUBCHEM_ATOM_DEF_STEREO_COUNT>
1

> <PUBCHEM_ATOM_UDEF_STEREO_COUNT>
0

> <PUBCHEM_BOND_DEF_STEREO_COUNT>
0

> <PUBCHEM_BOND_UDEF_STEREO_COUNT>
0

> <PUBCHEM_ISOTOPIC_ATOM_COUNT>
0

> <PUBCHEM_COMPONENT_COUNT>
1

> <PUBCHEM_CACTVS_TAUTO_COUNT>
998

> <PUBCHEM_CONFORMER_ID>
00B208BB00000001

> <PUBCHEM_MMFF94_ENERGY>
64.3789

> <PUBCHEM_FEATURE_SELFOVERLAP>
40.611

> <PUBCHEM_SHAPE_FINGERPRINT>
104564 63 18337679594082245206
11370993 70 17476352176623681649
11513181 2 18200594683370818358
11578080 2 17413558707169556354
12156800 1 17334818216753330079
12422481 6 18051437097101168729
12553582 1 18410856568461865234
12655364 131 17267185418863815120
12769317 202 18261947543906654834
12788726 201 18340215106867542244
13122387 1 17689434888723812368
13140716 1 18118683455430097074
13402501 40 18187927351608878319
14114211 80 17687500113331003852
14251757 17 17676759907979033981
14790565 3 17903084670100271508
14866123 147 16243481316170816986
151778 21 17755315796094401453
17093844 170 18335978783070949624
19930381 70 18265334100240065891
20567600 299 18340763861663555795
238 59 17688844841885316847
3014063 31 18336829701627103400
338550 245 18189060789537442133
35225 105 17128756590781878008
3524813 1 17894904161475376023
392239 28 18127387129789362688
6443956 14 18338523035744818028
81228 2 17974841766339403898

> <PUBCHEM_SHAPE_MULTIPOLES>
499.85
7.99
5.4
1.4
5.93
1.02
0.14
-2.4
0.62
-4.17
-1.17
0.82
0.24
0.27

> <PUBCHEM_SHAPE_SELFOVERLAP>
1049.643

> <PUBCHEM_SHAPE_VOLUME>
280.7

> <PUBCHEM_COORDINATE_TYPE>
2
5
10

$$$$
