REMARK  Name = 11667832
REMARK  5 active torsions:
REMARK  status: ('A' for Active; 'I' for Inactive)
REMARK    1  A    between atoms: N_2  and  C_29
REMARK    2  A    between atoms: C_4  and  O_25
REMARK    3  A    between atoms: C_15  and  O_27
REMARK    4  A    between atoms: C_17  and  C_22
REMARK    5  A    between atoms: C_29  and  C_30
REMARK                            x       y       z     vdW  Elec       q    Type
REMARK                         _______ _______ _______ _____ _____    ______ ____
ROOT
ATOM      1  O   UNL     1      -2.232   3.395   0.350  0.00  0.00    -0.296 OA
ATOM      2  N   UNL     1       2.552  -0.614  -0.754  0.00  0.00    +0.390 N 
ATOM      3  C   UNL     1       0.041   0.895  -0.705  0.00  0.00    +0.047 C 
ATOM      4  C   UNL     1       1.253   1.244   0.218  0.00  0.00    +0.076 C 
ATOM      5  C   UNL     1       2.019  -0.067   0.518  0.00  0.00    -0.028 C 
ATOM      6  C   UNL     1       0.592   0.263  -2.014  0.00  0.00    -0.016 C 
ATOM      7  C   UNL     1       0.802   2.002   1.492  0.00  0.00    +0.033 C 
ATOM      8  C   UNL     1      -0.695   2.211  -1.064  0.00  0.00    +0.071 C 
ATOM      9  C   UNL     1       1.532  -0.925  -1.757  0.00  0.00    -0.077 C 
ATOM     10  C   UNL     1      -0.864  -0.160  -0.032  0.00  0.00    +0.009 C 
ATOM     11  C   UNL     1       1.129  -1.033   1.326  0.00  0.00    +0.008 C 
ATOM     12  C   UNL     1      -0.323  -1.073   0.904  0.00  0.00    -0.025 C 
ATOM     13  C   UNL     1       0.021   3.272   1.163  0.00  0.00    +0.067 C 
ATOM     14  C   UNL     1      -1.090   2.971   0.185  0.00  0.00    +0.151 C 
ATOM     15  C   UNL     1      -2.222  -0.293  -0.375  0.00  0.00    +0.134 C 
ATOM     16  C   UNL     1      -1.149  -2.043   1.498  0.00  0.00    -0.004 C 
ATOM     17  C   UNL     1      -3.029  -1.266   0.218  0.00  0.00    +0.086 C 
ATOM     18  C   UNL     1      -2.495  -2.137   1.158  0.00  0.00    +0.007 C 
ATOM     19  H   UNL     1       3.092   0.163  -1.135  0.00  0.00    -0.080 HD
ENDROOT
BRANCH  17  22
ATOM     20  O   UNL     1      -4.790  -2.160  -1.066  0.00  0.00    -0.270 OA
ATOM     21  N   UNL     1      -5.366  -0.693   0.599  0.00  0.00    -0.325 N 
ATOM     22  C   UNL     1      -4.435  -1.411  -0.142  0.00  0.00    +0.246 C 
ATOM     23  H   UNL     1      -6.325  -0.765   0.386  0.00  0.00    +0.145 HD
ATOM     24  H   UNL     1      -5.067  -0.114   1.337  0.00  0.00    +0.145 HD
ENDBRANCH  17  22
BRANCH   4  25
ATOM     25  O   UNL     1       2.150   2.130  -0.478  0.00  0.00    -0.388 OA
ATOM     26  H   UNL     1       2.464   1.700  -1.289  0.00  0.00    +0.210 HD
ENDBRANCH   4  25
BRANCH  15  27
ATOM     27  O   UNL     1      -2.814   0.437  -1.364  0.00  0.00    -0.506 OA
ATOM     28  H   UNL     1      -2.331   1.107  -1.805  0.00  0.00    +0.292 HD
ENDBRANCH  15  27
BRANCH   2  29
ATOM     29  C   UNL     1       3.475  -1.729  -0.569  0.00  0.00    -0.077 C 
BRANCH  29  30
ATOM     30  C   UNL     1       4.551  -1.387   0.448  0.00  0.00    -0.021 C 
ATOM     31  C   UNL     1       5.422  -0.218   0.176  0.00  0.00    -0.002 C 
ATOM     32  C   UNL     1       5.967  -1.611   0.066  0.00  0.00    -0.002 C 
ENDBRANCH  29  30
ENDBRANCH   2  29
TORSDOF 5
