REMARK  Name = 11660490
REMARK  13 active torsions:
REMARK  status: ('A' for Active; 'I' for Inactive)
REMARK    1  A    between atoms: C_1  and  O_2
REMARK    2  A    between atoms: C_1  and  C_4
REMARK    3  A    between atoms: C_1  and  C_16
REMARK    4  A    between atoms: C_4  and  C_5
REMARK    5  A    between atoms: C_5  and  C_6
REMARK    6  A    between atoms: C_9  and  O_12
REMARK    7  A    between atoms: C_11  and  O_14
REMARK    8  A    between atoms: C_16  and  C_18
REMARK    9  A    between atoms: C_18  and  C_19
REMARK   10  A    between atoms: C_19  and  C_20
REMARK   11  A    between atoms: C_20  and  C_21
REMARK   12  A    between atoms: C_24  and  O_27
REMARK   13  A    between atoms: C_26  and  O_29
REMARK                            x       y       z     vdW  Elec       q    Type
REMARK                         _______ _______ _______ _____ _____    ______ ____
ROOT
ATOM      1  C   UNL     1       2.607   2.933  -0.550  0.00  0.00    +0.123 C 
ENDROOT
BRANCH   1   2
ATOM      2  O   UNL     1       2.949   3.819   0.514  0.00  0.00    -0.353 OA
ATOM      3  C   UNL     1       4.282   3.609   0.953  0.00  0.00    +0.174 C 
ENDBRANCH   1   2
BRANCH   1   4
ATOM      4  C   UNL     1       2.787   1.488  -0.071  0.00  0.00    +0.035 C 
BRANCH   4   5
ATOM      5  C   UNL     1       2.514   0.474  -1.189  0.00  0.00    +0.029 C 
BRANCH   5   6
ATOM      6  C   UNL     1       2.719  -0.943  -0.717  0.00  0.00    -0.019 C 
ATOM      7  C   UNL     1       1.653  -1.640  -0.170  0.00  0.00    +0.036 C 
ATOM      8  C   UNL     1       3.971  -1.526  -0.839  0.00  0.00    -0.001 C 
ATOM      9  C   UNL     1       1.842  -2.951   0.266  0.00  0.00    +0.167 C 
ATOM     10  C   UNL     1       4.161  -2.838  -0.402  0.00  0.00    +0.039 C 
ATOM     11  C   UNL     1       3.097  -3.550   0.150  0.00  0.00    +0.167 C 
BRANCH   9  12
ATOM     12  O   UNL     1       0.795  -3.636   0.804  0.00  0.00    -0.503 OA
ATOM     13  H   UNL     1      -0.045  -3.227   0.878  0.00  0.00    +0.292 HD
ENDBRANCH   9  12
BRANCH  11  14
ATOM     14  O   UNL     1       3.295  -4.830   0.573  0.00  0.00    -0.503 OA
ATOM     15  H   UNL     1       2.585  -5.315   0.945  0.00  0.00    +0.292 HD
ENDBRANCH  11  14
ENDBRANCH   5   6
ENDBRANCH   4   5
ENDBRANCH   1   4
BRANCH   1  16
ATOM     16  C   UNL     1       1.187   3.232  -1.038  0.00  0.00    +0.094 C 
BRANCH  16  18
ATOM     17  O   UNL     1       0.144   3.608   1.090  0.00  0.00    -0.296 OA
ATOM     18  C   UNL     1       0.129   2.989   0.026  0.00  0.00    +0.153 C 
BRANCH  18  19
ATOM     19  C   UNL     1      -0.908   1.917  -0.279  0.00  0.00    +0.069 C 
BRANCH  19  20
ATOM     20  C   UNL     1      -1.951   1.741   0.826  0.00  0.00    +0.034 C 
BRANCH  20  21
ATOM     21  C   UNL     1      -2.964   0.663   0.521  0.00  0.00    -0.019 C 
ATOM     22  C   UNL     1      -4.128   0.997  -0.153  0.00  0.00    +0.036 C 
ATOM     23  C   UNL     1      -2.711  -0.639   0.922  0.00  0.00    -0.001 C 
ATOM     24  C   UNL     1      -5.063   0.001  -0.435  0.00  0.00    +0.167 C 
ATOM     25  C   UNL     1      -3.647  -1.634   0.641  0.00  0.00    +0.039 C 
ATOM     26  C   UNL     1      -4.823  -1.314  -0.038  0.00  0.00    +0.167 C 
BRANCH  24  27
ATOM     27  O   UNL     1      -6.208   0.326  -1.098  0.00  0.00    -0.503 OA
ATOM     28  H   UNL     1      -6.361   1.212  -1.362  0.00  0.00    +0.292 HD
ENDBRANCH  24  27
BRANCH  26  29
ATOM     29  O   UNL     1      -5.729  -2.295  -0.307  0.00  0.00    -0.503 OA
ATOM     30  H   UNL     1      -6.522  -2.089  -0.762  0.00  0.00    +0.292 HD
ENDBRANCH  26  29
ENDBRANCH  20  21
ENDBRANCH  19  20
ENDBRANCH  18  19
ENDBRANCH  16  18
ENDBRANCH   1  16
TORSDOF 13
