REMARK  Name = 11676764
REMARK  8 active torsions:
REMARK  status: ('A' for Active; 'I' for Inactive)
REMARK    1  A    between atoms: C_4  and  O_23
REMARK    2  A    between atoms: C_9  and  C_13
REMARK    3  A    between atoms: C_12  and  C_25
REMARK    4  A    between atoms: C_16  and  O_19
REMARK    5  A    between atoms: C_18  and  O_21
REMARK    6  A    between atoms: C_26  and  C_27
REMARK    7  A    between atoms: C_30  and  O_33
REMARK    8  A    between atoms: C_32  and  O_35
REMARK                            x       y       z     vdW  Elec       q    Type
REMARK                         _______ _______ _______ _____ _____    ______ ____
ROOT
ATOM      1  O   UNL     1      -1.654  -2.144  -0.644  0.00  0.00    -0.455 OA
ATOM      2  O   UNL     1       1.222   0.624   0.387  0.00  0.00    -0.421 OA
ATOM      3  O   UNL     1      -0.432   2.105   0.882  0.00  0.00    -0.244 OA
ATOM      4  C   UNL     1      -2.892  -1.416  -0.393  0.00  0.00    +0.250 C 
ATOM      5  C   UNL     1      -2.504  -0.028   0.093  0.00  0.00    +0.050 C 
ATOM      6  C   UNL     1      -1.074  -0.042   0.112  0.00  0.00    +0.112 C 
ATOM      7  C   UNL     1      -0.668  -1.235  -0.303  0.00  0.00    +0.150 C 
ATOM      8  C   UNL     1      -3.692  -1.389  -1.697  0.00  0.00    +0.081 C 
ATOM      9  C   UNL     1      -3.334   0.967   0.422  0.00  0.00    +0.002 C 
ATOM     10  C   UNL     1       0.706  -1.597  -0.408  0.00  0.00    +0.075 C 
ATOM     11  C   UNL     1      -0.101   0.992   0.494  0.00  0.00    +0.349 C 
ATOM     12  C   UNL     1       1.610  -0.670  -0.064  0.00  0.00    +0.152 C 
ENDROOT
BRANCH   9  13
ATOM     13  C   UNL     1      -4.805   0.911   0.379  0.00  0.00    +0.003 C 
ATOM     14  C   UNL     1      -5.465   1.301  -0.775  0.00  0.00    +0.040 C 
ATOM     15  C   UNL     1      -5.501   0.470   1.493  0.00  0.00    +0.003 C 
ATOM     16  C   UNL     1      -6.859   1.248  -0.817  0.00  0.00    +0.167 C 
ATOM     17  C   UNL     1      -6.894   0.417   1.452  0.00  0.00    +0.040 C 
ATOM     18  C   UNL     1      -7.573   0.806   0.297  0.00  0.00    +0.167 C 
BRANCH  16  19
ATOM     19  O   UNL     1      -7.511   1.631  -1.950  0.00  0.00    -0.503 OA
ATOM     20  H   UNL     1      -7.023   1.927  -2.694  0.00  0.00    +0.292 HD
ENDBRANCH  16  19
BRANCH  18  21
ATOM     21  O   UNL     1      -8.934   0.750   0.269  0.00  0.00    -0.503 OA
ATOM     22  H   UNL     1      -9.398   1.010  -0.503  0.00  0.00    +0.292 HD
ENDBRANCH  18  21
ENDBRANCH   9  13
BRANCH   4  23
ATOM     23  O   UNL     1      -3.643  -2.067   0.631  0.00  0.00    -0.319 OA
ATOM     24  C   UNL     1      -4.036  -3.371   0.234  0.00  0.00    +0.178 C 
ENDBRANCH   4  23
BRANCH  12  25
ATOM     25  C   UNL     1       3.029  -0.874  -0.111  0.00  0.00    +0.038 C 
ATOM     26  C   UNL     1       3.919   0.073   0.226  0.00  0.00    +0.003 C 
BRANCH  26  27
ATOM     27  C   UNL     1       5.383  -0.086   0.185  0.00  0.00    +0.003 C 
ATOM     28  C   UNL     1       6.188   1.041   0.145  0.00  0.00    +0.040 C 
ATOM     29  C   UNL     1       5.927  -1.361   0.186  0.00  0.00    +0.003 C 
ATOM     30  C   UNL     1       7.574   0.890   0.106  0.00  0.00    +0.172 C 
ATOM     31  C   UNL     1       7.313  -1.512   0.148  0.00  0.00    +0.040 C 
ATOM     32  C   UNL     1       8.136  -0.387   0.107  0.00  0.00    +0.168 C 
BRANCH  30  33
ATOM     33  O   UNL     1       8.368   1.996   0.067  0.00  0.00    -0.468 OA
ATOM     34  C   UNL     1       8.707   2.505  -1.222  0.00  0.00    +0.253 C 
ENDBRANCH  30  33
BRANCH  32  35
ATOM     35  O   UNL     1       9.489  -0.547   0.070  0.00  0.00    -0.503 OA
ATOM     36  H   UNL     1      10.049   0.203   0.043  0.00  0.00    +0.292 HD
ENDBRANCH  32  35
ENDBRANCH  26  27
ENDBRANCH  12  25
TORSDOF 8
