REMARK  Name = 11676121
REMARK  9 active torsions:
REMARK  status: ('A' for Active; 'I' for Inactive)
REMARK    1  A    between atoms: C_1  and  S_7
REMARK    2  A    between atoms: C_2  and  N_24
REMARK    3  A    between atoms: C_5  and  N_23
REMARK    4  A    between atoms: S_7  and  N_12
REMARK    5  A    between atoms: N_11  and  C_16
REMARK    6  A    between atoms: C_16  and  C_17
REMARK    7  A    between atoms: C_17  and  C_18
REMARK    8  A    between atoms: C_18  and  C_19
REMARK    9  A    between atoms: N_24  and  C_26
REMARK                            x       y       z     vdW  Elec       q    Type
REMARK                         _______ _______ _______ _____ _____    ______ ____
ROOT
ATOM      1  C   UNL     1      -1.931  -0.692  -0.773  0.00  0.00    +0.140 C 
ATOM      2  C   UNL     1      -0.882  -1.439  -0.237  0.00  0.00    +0.068 C 
ATOM      3  C   UNL     1      -3.092  -0.485  -0.028  0.00  0.00    +0.046 C 
ATOM      4  C   UNL     1      -0.995  -1.980   1.044  0.00  0.00    +0.018 C 
ATOM      5  C   UNL     1      -3.204  -1.026   1.253  0.00  0.00    +0.144 C 
ATOM      6  C   UNL     1      -2.156  -1.774   1.789  0.00  0.00    +0.025 C 
ENDROOT
BRANCH   1   7
ATOM      7  S   UNL     1      -1.826   0.011  -2.391  0.00  0.00    +0.078 S 
ATOM      8  O   UNL     1      -3.104   0.624  -2.700  0.00  0.00    -0.150 OA
ATOM      9  O   UNL     1      -1.273  -1.012  -3.257  0.00  0.00    -0.150 OA
BRANCH   7  12
ATOM     10  O   UNL     1      -1.765   2.482  -0.510  0.00  0.00    -0.251 OA
ATOM     11  N   UNL     1       0.323   3.161  -1.235  0.00  0.00    -0.288 N 
ATOM     12  N   UNL     1      -0.657   1.232  -2.143  0.00  0.00    -0.169 N 
ATOM     13  C   UNL     1      -0.780   2.324  -1.226  0.00  0.00    +0.319 C 
ATOM     14  H   UNL     1       1.066   2.950  -1.846  0.00  0.00    +0.151 HD
ATOM     15  H   UNL     1       0.170   1.181  -2.676  0.00  0.00    +0.178 HD
BRANCH  11  16
ATOM     16  C   UNL     1       0.437   4.323  -0.397  0.00  0.00    +0.091 C 
BRANCH  16  17
ATOM     17  C   UNL     1       1.088   3.988   0.940  0.00  0.00    +0.021 C 
BRANCH  17  18
ATOM     18  C   UNL     1       2.492   3.417   0.747  0.00  0.00    +0.002 C 
BRANCH  18  19
ATOM     19  C   UNL     1       3.131   3.045   2.085  0.00  0.00    +0.000 C 
ATOM     20  C   UNL     1       4.541   2.508   1.900  0.00  0.00    +0.000 C 
ENDBRANCH  18  19
ENDBRANCH  17  18
ENDBRANCH  16  17
ENDBRANCH  11  16
ENDBRANCH   7  12
ENDBRANCH   1   7
BRANCH   5  23
ATOM     21  O   UNL     1      -4.466  -1.311   3.161  0.00  0.00    -0.126 OA
ATOM     22  O   UNL     1      -5.317  -0.140   1.511  0.00  0.00    -0.126 OA
ATOM     23  N   UNL     1      -4.386  -0.816   2.011  0.00  0.00    +0.058 N 
ENDBRANCH   5  23
BRANCH   2  24
ATOM     24  N   UNL     1       0.304  -1.663  -0.971  0.00  0.00    -0.311 N 
ATOM     25  H   UNL     1       0.167  -1.686  -1.945  0.00  0.00    +0.152 HD
BRANCH  24  26
ATOM     26  C   UNL     1       1.642  -1.859  -0.582  0.00  0.00    +0.048 C 
ATOM     27  C   UNL     1       2.488  -2.644  -1.365  0.00  0.00    +0.014 C 
ATOM     28  C   UNL     1       2.122  -1.269   0.588  0.00  0.00    +0.014 C 
ATOM     29  C   UNL     1       4.294  -2.248   0.190  0.00  0.00    -0.022 C 
ATOM     30  C   UNL     1       3.814  -2.838  -0.979  0.00  0.00    -0.003 C 
ATOM     31  C   UNL     1       3.448  -1.464   0.973  0.00  0.00    -0.003 C 
ATOM     32  C   UNL     1       5.712  -2.456   0.602  0.00  0.00    +0.031 C 
ENDBRANCH  24  26
ENDBRANCH   2  24
TORSDOF 9
