REMARK  Name = 11676971
REMARK  7 active torsions:
REMARK  status: ('A' for Active; 'I' for Inactive)
REMARK    1  A    between atoms: C_1  and  C_9
REMARK    2  A    between atoms: C_3  and  C_20
REMARK    3  A    between atoms: C_5  and  N_27
REMARK    4  A    between atoms: C_14  and  C_15
REMARK    5  A    between atoms: C_15  and  N_16
REMARK    6  A    between atoms: C_28  and  C_32
REMARK    7  A    between atoms: C_33  and  C_38
REMARK                            x       y       z     vdW  Elec       q    Type
REMARK                         _______ _______ _______ _____ _____    ______ ____
ROOT
ATOM      1  C   UNL     1       1.128  -1.450   0.091  0.00  0.00    -0.022 C 
ATOM      2  C   UNL     1       0.760  -0.106   0.149  0.00  0.00    -0.003 C 
ATOM      3  C   UNL     1      -0.588   0.249   0.128  0.00  0.00    +0.009 C 
ATOM      4  C   UNL     1       0.147  -2.439   0.013  0.00  0.00    -0.003 C 
ATOM      5  C   UNL     1      -1.569  -0.740   0.049  0.00  0.00    +0.050 C 
ATOM      6  C   UNL     1      -1.201  -2.084  -0.009  0.00  0.00    +0.014 C 
ENDROOT
BRANCH   1   9
ATOM      7  O   UNL     1       7.066  -0.159   1.453  0.00  0.00    -0.277 OA
ATOM      8  N   UNL     1       5.435  -1.268   0.225  0.00  0.00    -0.281 N 
ATOM      9  C   UNL     1       2.595  -1.838   0.114  0.00  0.00    +0.026 C 
ATOM     10  C   UNL     1       3.286  -1.409   1.422  0.00  0.00    +0.026 C 
ATOM     11  C   UNL     1       3.359  -1.281  -1.103  0.00  0.00    +0.026 C 
ATOM     12  C   UNL     1       4.763  -1.799   1.413  0.00  0.00    +0.094 C 
ATOM     13  C   UNL     1       4.835  -1.673  -1.052  0.00  0.00    +0.094 C 
ATOM     14  C   UNL     1       6.567  -0.467   0.368  0.00  0.00    +0.205 C 
BRANCH  14  15
ATOM     15  C   UNL     1       7.199   0.042  -0.903  0.00  0.00    +0.010 C 
BRANCH  15  16
ATOM     16  N   UNL     1       8.344   0.829  -0.500  0.00  0.00    +0.390 N 
ATOM     17  C   UNL     1       7.935   2.172  -0.070  0.00  0.00    -0.100 C 
ATOM     18  C   UNL     1       9.323   0.932  -1.589  0.00  0.00    -0.100 C 
ATOM     19  H   UNL     1       8.780   0.351   0.288  0.00  0.00    -0.079 HD
ENDBRANCH  15  16
ENDBRANCH  14  15
ENDBRANCH   1   9
BRANCH   3  20
ATOM     20  C   UNL     1      -0.941   1.689   0.189  0.00  0.00    -0.025 C 
ATOM     21  C   UNL     1      -1.059   2.439  -1.119  0.00  0.00    +0.026 C 
ATOM     22  C   UNL     1      -1.811   3.766  -0.989  0.00  0.00    +0.005 C 
ATOM     23  C   UNL     1      -1.309   4.557   0.213  0.00  0.00    +0.005 C 
ATOM     24  C   UNL     1      -1.485   3.761   1.506  0.00  0.00    +0.026 C 
ATOM     25  C   UNL     1      -1.139   2.306   1.370  0.00  0.00    -0.030 C 
ENDBRANCH   3  20
BRANCH   5  27
ATOM     26  O   UNL     1      -3.943  -2.507  -0.109  0.00  0.00    -0.271 OA
ATOM     27  N   UNL     1      -2.929  -0.414   0.026  0.00  0.00    -0.281 N 
ATOM     28  C   UNL     1      -4.034  -1.282  -0.050  0.00  0.00    +0.263 C 
ATOM     29  H   UNL     1      -3.141   0.547   0.069  0.00  0.00    +0.155 HD
BRANCH  28  32
ATOM     30  N   UNL     1      -6.554  -1.254  -0.170  0.00  0.00    -0.303 N 
ATOM     31  N   UNL     1      -5.486   0.690  -0.070  0.00  0.00    -0.309 N 
ATOM     32  C   UNL     1      -5.347  -0.617  -0.097  0.00  0.00    +0.223 C 
ATOM     33  C   UNL     1      -7.525  -0.292  -0.191  0.00  0.00    +0.130 C 
ATOM     34  C   UNL     1      -6.841   0.899  -0.128  0.00  0.00    +0.085 C 
ATOM     35  H   UNL     1      -6.698  -2.227  -0.201  0.00  0.00    +0.149 HD
ATOM     36  H   UNL     1      -4.775   1.369  -0.020  0.00  0.00    +0.149 HD
BRANCH  33  38
ATOM     37  N   UNL     1     -10.061  -0.723  -0.320  0.00  0.00    -0.189 NA
ATOM     38  C   UNL     1      -8.919  -0.529  -0.262  0.00  0.00    +0.116 C 
ENDBRANCH  33  38
ENDBRANCH  28  32
ENDBRANCH   5  27
TORSDOF 7
