REMARK  Name = 11676066
REMARK  7 active torsions:
REMARK  status: ('A' for Active; 'I' for Inactive)
REMARK    1  A    between atoms: C_2  and  O_16
REMARK    2  A    between atoms: C_3  and  O_14
REMARK    3  A    between atoms: C_12  and  C_30
REMARK    4  A    between atoms: O_16  and  C_19
REMARK    5  A    between atoms: C_20  and  O_26
REMARK    6  A    between atoms: C_21  and  O_28
REMARK    7  A    between atoms: C_30  and  C_32
REMARK                            x       y       z     vdW  Elec       q    Type
REMARK                         _______ _______ _______ _____ _____    ______ ____
ROOT
ATOM      1 CL   UNL     1       1.641  -0.105  -3.805  0.00  0.00    -0.083 Cl
ATOM      2  C   UNL     1       0.531   1.549   0.863  0.00  0.00    +0.138 C 
ATOM      3  C   UNL     1       0.811   2.822   1.671  0.00  0.00    +0.139 C 
ATOM      4  C   UNL     1      -0.218   2.114  -0.322  0.00  0.00    +0.036 C 
ATOM      5  C   UNL     1       1.548   0.729   0.142  0.00  0.00    +0.001 C 
ATOM      6  C   UNL     1       1.224   0.689  -1.233  0.00  0.00    -0.013 C 
ATOM      7  C   UNL     1       0.097   1.581  -1.507  0.00  0.00    +0.030 C 
ATOM      8  C   UNL     1      -0.297   3.749   1.200  0.00  0.00    +0.032 C 
ATOM      9  C   UNL     1      -0.874   3.319   0.067  0.00  0.00    +0.006 C 
ATOM     10  C   UNL     1       2.626   0.026   0.647  0.00  0.00    -0.005 C 
ATOM     11  C   UNL     1       1.986  -0.049  -2.121  0.00  0.00    +0.053 C 
ATOM     12  C   UNL     1       3.394  -0.724  -0.246  0.00  0.00    -0.006 C 
ATOM     13  C   UNL     1       3.077  -0.763  -1.615  0.00  0.00    +0.008 C 
ENDROOT
BRANCH   3  14
ATOM     14  O   UNL     1       2.058   3.417   1.357  0.00  0.00    -0.382 OA
ATOM     15  H   UNL     1       2.777   2.837   1.653  0.00  0.00    +0.210 HD
ENDBRANCH   3  14
BRANCH   2  16
ATOM     16  O   UNL     1      -0.367   0.723   1.611  0.00  0.00    -0.327 OA
BRANCH  16  19
ATOM     17  O   UNL     1      -1.824   0.553  -0.202  0.00  0.00    -0.328 OA
ATOM     18  O   UNL     1      -3.054  -3.079   0.974  0.00  0.00    -0.291 OA
ATOM     19  C   UNL     1      -1.066  -0.182   0.757  0.00  0.00    +0.271 C 
ATOM     20  C   UNL     1      -3.547  -1.165  -0.429  0.00  0.00    +0.166 C 
ATOM     21  C   UNL     1      -1.996  -1.020   1.626  0.00  0.00    +0.227 C 
ATOM     22  C   UNL     1      -2.492  -0.299  -1.146  0.00  0.00    +0.149 C 
ATOM     23  C   UNL     1      -2.870  -1.886   0.736  0.00  0.00    +0.208 C 
ATOM     24  C   UNL     1      -4.232  -2.150  -1.376  0.00  0.00    +0.040 C 
ATOM     25  C   UNL     1      -3.080   0.627  -2.209  0.00  0.00    +0.035 C 
BRANCH  20  26
ATOM     26  O   UNL     1      -4.536  -0.327   0.160  0.00  0.00    -0.377 OA
ATOM     27  H   UNL     1      -4.110   0.302   0.763  0.00  0.00    +0.211 HD
ENDBRANCH  20  26
BRANCH  21  28
ATOM     28  O   UNL     1      -1.223  -1.839   2.484  0.00  0.00    -0.373 OA
ATOM     29  H   UNL     1      -0.667  -1.280   3.050  0.00  0.00    +0.211 HD
ENDBRANCH  21  28
ENDBRANCH  16  19
ENDBRANCH   2  16
BRANCH  12  30
ATOM     30  C   UNL     1       4.566  -1.498   0.260  0.00  0.00    +0.132 C 
BRANCH  30  32
ATOM     31  N   UNL     1       3.913  -3.944   0.987  0.00  0.00    -0.196 NA
ATOM     32  C   UNL     1       4.205  -2.868   0.668  0.00  0.00    +0.078 C 
ENDBRANCH  30  32
ENDBRANCH  12  30
TORSDOF 7
