11676119
  -OEChem-03292013303D

 52 56  0     0  0  0  0  0  0999 V2000
   -6.4391    1.7070    0.2860 O   0  0  0  0  0  0  0  0  0  0  0  0
   -1.1380    0.7980   -1.1574 N   0  0  0  0  0  0  0  0  0  0  0  0
   -0.3979   -1.2892   -0.9913 N   0  0  0  0  0  0  0  0  0  0  0  0
    2.0589    2.1598   -0.3084 N   0  0  0  0  0  0  0  0  0  0  0  0
    5.2056   -1.4640   -1.1600 N   0  0  0  0  0  0  0  0  0  0  0  0
    5.4691   -2.0423    1.5448 N   0  0  0  0  0  0  0  0  0  0  0  0
   -7.5072    0.2455    1.6938 N   0  0  0  0  0  0  0  0  0  0  0  0
    0.1065    0.8856   -0.5999 C   0  0  0  0  0  0  0  0  0  0  0  0
    0.5397   -0.4142   -0.5082 C   0  0  0  0  0  0  0  0  0  0  0  0
   -1.3977   -0.5265   -1.3745 C   0  0  0  0  0  0  0  0  0  0  0  0
   -2.6693   -0.9720   -1.9731 C   0  0  0  0  0  0  0  0  0  0  0  0
    1.8065   -0.8347    0.0203 C   0  0  0  0  0  0  0  0  0  0  0  0
   -3.7669   -1.2590   -0.9554 C   0  0  0  0  0  0  0  0  0  0  0  0
    0.7100    2.1432   -0.2355 C   0  0  0  0  0  0  0  0  0  0  0  0
    2.9128   -0.9534   -0.8190 C   0  0  0  0  0  0  0  0  0  0  0  0
    1.9381   -1.1233    1.3706 C   0  0  0  0  0  0  0  0  0  0  0  0
   -4.6131   -0.2360   -0.5831 C   0  0  0  0  0  0  0  0  0  0  0  0
    4.1531   -1.3570   -0.3302 C   0  0  0  0  0  0  0  0  0  0  0  0
   -3.8773   -2.5327   -0.4388 C   0  0  0  0  0  0  0  0  0  0  0  0
   -0.0622    3.2237    0.1546 C   0  0  0  0  0  0  0  0  0  0  0  0
    4.2865   -1.6499    1.0395 C   0  0  0  0  0  0  0  0  0  0  0  0
    3.1748   -1.5282    1.8698 C   0  0  0  0  0  0  0  0  0  0  0  0
   -5.6169   -0.4991    0.3491 C   0  0  0  0  0  0  0  0  0  0  0  0
   -4.8811   -2.7957    0.4933 C   0  0  0  0  0  0  0  0  0  0  0  0
    2.6618    3.3223    0.0277 C   0  0  0  0  0  0  0  0  0  0  0  0
   -5.7508   -1.7790    0.8872 C   0  0  0  0  0  0  0  0  0  0  0  0
    0.5942    4.4019    0.4927 C   0  0  0  0  0  0  0  0  0  0  0  0
    1.9821    4.4604    0.4307 C   0  0  0  0  0  0  0  0  0  0  0  0
    4.1520    3.3488   -0.0487 C   0  0  0  0  0  0  0  0  0  0  0  0
   -6.5238    0.5608    0.7606 C   0  0  0  0  0  0  0  0  0  0  0  0
    6.3797   -1.8580   -0.6350 C   0  0  0  0  0  0  0  0  0  0  0  0
    6.5096   -2.1431    0.6982 C   0  0  0  0  0  0  0  0  0  0  0  0
   -2.4910   -1.8772   -2.5688 H   0  0  0  0  0  0  0  0  0  0  0  0
   -3.0337   -0.2299   -2.6963 H   0  0  0  0  0  0  0  0  0  0  0  0
   -1.7568    1.5668   -1.3803 H   0  0  0  0  0  0  0  0  0  0  0  0
    2.8123   -0.7270   -1.8801 H   0  0  0  0  0  0  0  0  0  0  0  0
    1.0930   -1.0392    2.0493 H   0  0  0  0  0  0  0  0  0  0  0  0
   -4.4941    0.7556   -1.0108 H   0  0  0  0  0  0  0  0  0  0  0  0
   -3.2027   -3.3287   -0.7391 H   0  0  0  0  0  0  0  0  0  0  0  0
   -1.1447    3.1804    0.2143 H   0  0  0  0  0  0  0  0  0  0  0  0
    3.2639   -1.7512    2.9311 H   0  0  0  0  0  0  0  0  0  0  0  0
   -4.9842   -3.7927    0.9120 H   0  0  0  0  0  0  0  0  0  0  0  0
   -6.5055   -2.0550    1.6136 H   0  0  0  0  0  0  0  0  0  0  0  0
    0.0257    5.2722    0.8064 H   0  0  0  0  0  0  0  0  0  0  0  0
    2.5054    5.3737    0.6929 H   0  0  0  0  0  0  0  0  0  0  0  0
    4.4833    4.1080   -0.7641 H   0  0  0  0  0  0  0  0  0  0  0  0
    4.5798    3.5712    0.9341 H   0  0  0  0  0  0  0  0  0  0  0  0
    4.5458    2.3809   -0.3765 H   0  0  0  0  0  0  0  0  0  0  0  0
    7.2104   -1.9357   -1.3249 H   0  0  0  0  0  0  0  0  0  0  0  0
    7.4497   -2.4609    1.1309 H   0  0  0  0  0  0  0  0  0  0  0  0
   -7.6495   -0.6581    2.1258 H   0  0  0  0  0  0  0  0  0  0  0  0
   -8.1571    0.9661    1.9922 H   0  0  0  0  0  0  0  0  0  0  0  0
  1 30  2  0  0  0  0
  2  8  1  0  0  0  0
  2 10  1  0  0  0  0
  2 35  1  0  0  0  0
  3  9  1  0  0  0  0
  3 10  2  0  0  0  0
  4 14  1  0  0  0  0
  4 25  2  0  0  0  0
  5 18  2  0  0  0  0
  5 31  1  0  0  0  0
  6 21  2  0  0  0  0
  6 32  1  0  0  0  0
  7 30  1  0  0  0  0
  7 51  1  0  0  0  0
  7 52  1  0  0  0  0
  8  9  2  0  0  0  0
  8 14  1  0  0  0  0
  9 12  1  0  0  0  0
 10 11  1  0  0  0  0
 11 13  1  0  0  0  0
 11 33  1  0  0  0  0
 11 34  1  0  0  0  0
 12 15  2  0  0  0  0
 12 16  1  0  0  0  0
 13 17  2  0  0  0  0
 13 19  1  0  0  0  0
 14 20  2  0  0  0  0
 15 18  1  0  0  0  0
 15 36  1  0  0  0  0
 16 22  2  0  0  0  0
 16 37  1  0  0  0  0
 17 23  1  0  0  0  0
 17 38  1  0  0  0  0
 18 21  1  0  0  0  0
 19 24  2  0  0  0  0
 19 39  1  0  0  0  0
 20 27  1  0  0  0  0
 20 40  1  0  0  0  0
 21 22  1  0  0  0  0
 22 41  1  0  0  0  0
 23 26  2  0  0  0  0
 23 30  1  0  0  0  0
 24 26  1  0  0  0  0
 24 42  1  0  0  0  0
 25 28  1  0  0  0  0
 25 29  1  0  0  0  0
 26 43  1  0  0  0  0
 27 28  2  0  0  0  0
 27 44  1  0  0  0  0
 28 45  1  0  0  0  0
 29 46  1  0  0  0  0
 29 47  1  0  0  0  0
 29 48  1  0  0  0  0
 31 32  2  0  0  0  0
 31 49  1  0  0  0  0
 32 50  1  0  0  0  0
M  END
> <PUBCHEM_COMPOUND_CID>
11676119

> <PUBCHEM_CONFORMER_RMSD>
1

> <PUBCHEM_CONFORMER_DIVERSEORDER>
1
670
298
493
329
654
394
612
84
712
262
391
708
430
487
709
571
472
307
328
216
427
728
268
163
156
582
498
706
450
188
578
304
319
552
643
276
455
296
471
524
720
466
569
191
349
668
527
454
118
489
485
370
677
629
299
337
533
682
159
267
203
234
714
509
365
195
496
656
717
538
293
6
372
679
65
595
530
688
186
393
618
197
361
270
312
410
153
419
426
169
478
366
665
152
549
196
78
273
477
38
634
516
187
244
355
734
421
62
574
567
551
305
117
458
326
415
233
74
560
379
295
76
260
108
164
687
324
228
476
317
482
8
411
327
221
113
26
209
232
422
177
325
139
330
287
31
237
5
137
71
253
129
413
115
7
114
222
263
166
106
77
21
17
179
110
207
136
19
131
100
27
200
107
111
22
274
34
199
103
85
32
55
33
18
2
48
20
83
89
50
251
53
16
52
24
3
15
75
4
73
51

> <PUBCHEM_MMFF94_PARTIAL_CHARGES>
47
1 -0.57
10 0.01
11 0.32
12 0.05
13 -0.14
14 0.36
15 -0.15
16 -0.15
17 -0.15
18 0.31
19 -0.15
2 0.03
20 -0.15
21 0.31
22 -0.15
23 0.09
24 -0.15
25 0.17
26 -0.15
27 -0.15
28 -0.15
29 0.14
3 -0.57
30 0.54
31 0.16
32 0.16
35 0.27
36 0.15
37 0.15
38 0.15
39 0.15
4 -0.62
40 0.15
41 0.15
42 0.15
43 0.15
44 0.15
45 0.15
49 0.15
5 -0.62
50 0.15
51 0.37
52 0.37
6 -0.62
7 -0.8
8 -0.2
9 0.17

> <PUBCHEM_EFFECTIVE_ROTOR_COUNT>
5

> <PUBCHEM_PHARMACOPHORE_FEATURES>
12
1 1 acceptor
1 2 donor
1 4 acceptor
1 5 acceptor
1 6 acceptor
1 7 donor
3 2 3 10 cation
5 2 3 8 9 10 rings
6 12 15 16 18 21 22 rings
6 13 17 19 23 24 26 rings
6 4 14 20 25 27 28 rings
6 5 6 18 21 31 32 rings

> <PUBCHEM_HEAVY_ATOM_COUNT>
32

> <PUBCHEM_ATOM_DEF_STEREO_COUNT>
0

> <PUBCHEM_ATOM_UDEF_STEREO_COUNT>
0

> <PUBCHEM_BOND_DEF_STEREO_COUNT>
0

> <PUBCHEM_BOND_UDEF_STEREO_COUNT>
0

> <PUBCHEM_ISOTOPIC_ATOM_COUNT>
0

> <PUBCHEM_COMPONENT_COUNT>
1

> <PUBCHEM_CACTVS_TAUTO_COUNT>
8

> <PUBCHEM_CONFORMER_ID>
00B229D700000001

> <PUBCHEM_MMFF94_ENERGY>
91.0372

> <PUBCHEM_FEATURE_SELFOVERLAP>
60.94

> <PUBCHEM_SHAPE_FINGERPRINT>
10074138 170 17545286736974641208
1100329 8 18267295444079229260
11146851 88 18199746956692510353
11421498 54 18043805395229456786
11578080 2 17606417676565845186
12107183 9 18342179943168614995
12166972 35 17676768691778199934
12422481 6 17774997990207232924
12633257 1 18410575081296851431
12788726 201 18117550739304719298
12988421 55 17404555149688852917
13512321 179 17703248247184136369
13540713 5 17914887867410124719
13673619 4 17894630344704883575
13785724 45 18342465815938733188
14739800 52 17200783678004738513
14790565 3 17690281929442904973
14849402 71 18264212572145875820
14950920 106 18264786496779709315
14955137 171 18413108346858892486
15021287 119 18273206521806122359
15064986 96 17988659527093213183
15444296 121 18339652127155214441
15475509 84 18338798918943602473
15776043 110 18262812757343280569
15840311 113 17489581264680076979
15927050 60 17907298011732046054
16112460 7 18410862100575149155
17686467 74 18337938002224725450
1813 80 18273209790466014982
18393751 57 17042600389413355953
19841028 212 18118115008679062707
21033648 29 17346020209006270443
21133665 82 17692816304805556740
21421861 104 18410568530860113472
21927370 108 18337104546202918634
22849341 161 18342458144604649456
23522609 53 17678768711443754221
244849 19 17751938044733663273
24771293 8 18058150891314872616
3117164 225 18411698807759993803
3411729 13 18267024049437897284
3552219 110 18188218615665571572
3737641 26 18261384606938434045
4144715 1 18336835298666166931
437795 51 17968103052967177064
469060 322 18268718212488802290
5104073 3 18338245976690742363
5385378 56 18195242450272970088
6058803 2 17841706606879886127
6371380 46 18259980454008079767
8863177 126 18041564757888372731

> <PUBCHEM_SHAPE_MULTIPOLES>
622.79
16.6
4.83
1.43
15.7
6.92
-0.1
-10.81
-5.35
-5.07
-0.91
0.21
-0.73
-0.91

> <PUBCHEM_SHAPE_SELFOVERLAP>
1401.606

> <PUBCHEM_SHAPE_VOLUME>
327.9

> <PUBCHEM_COORDINATE_TYPE>
2
5
10

$$$$
