REMARK  Name = 11675536
REMARK  10 active torsions:
REMARK  status: ('A' for Active; 'I' for Inactive)
REMARK    1  A    between atoms: C_1  and  C_11
REMARK    2  A    between atoms: C_2  and  N_7
REMARK    3  A    between atoms: C_3  and  O_26
REMARK    4  A    between atoms: C_11  and  C_12
REMARK    5  A    between atoms: C_12  and  C_13
REMARK    6  A    between atoms: C_13  and  N_15
REMARK    7  A    between atoms: C_16  and  C_18
REMARK    8  A    between atoms: C_23  and  O_24
REMARK    9  A    between atoms: O_26  and  C_27
REMARK   10  A    between atoms: C_32  and  O_33
REMARK                            x       y       z     vdW  Elec       q    Type
REMARK                         _______ _______ _______ _____ _____    ______ ____
ROOT
ATOM      1  C   UNL     1      -0.596  -2.643   0.086  0.00  0.00    +0.051 C 
ATOM      2  C   UNL     1      -1.347  -1.783   0.857  0.00  0.00    +0.079 C 
ATOM      3  C   UNL     1      -2.636  -1.457   0.437  0.00  0.00    +0.158 C 
ATOM      4  C   UNL     1      -1.071  -3.193  -1.085  0.00  0.00    +0.004 C 
ATOM      5  C   UNL     1      -3.143  -1.998  -0.744  0.00  0.00    +0.039 C 
ATOM      6  C   UNL     1      -2.360  -2.866  -1.505  0.00  0.00    +0.003 C 
ENDROOT
BRANCH   2   7
ATOM      7  N   UNL     1      -0.839  -1.230   2.056  0.00  0.00    -0.355 N 
ATOM      8  H   UNL     1       0.070  -1.458   2.356  0.00  0.00    +0.142 HD
ATOM      9  H   UNL     1      -1.395  -0.618   2.590  0.00  0.00    +0.142 HD
ENDBRANCH   2   7
BRANCH   1  11
ATOM     10  O   UNL     1       1.063  -3.035   1.703  0.00  0.00    -0.291 OA
ATOM     11  C   UNL     1       0.787  -3.014   0.506  0.00  0.00    +0.176 C 
BRANCH  11  12
ATOM     12  C   UNL     1       1.813  -3.345  -0.570  0.00  0.00    +0.090 C 
BRANCH  12  13
ATOM     13  C   UNL     1       3.241  -2.995  -0.166  0.00  0.00    +0.098 C 
BRANCH  13  15
ATOM     14  O   UNL     1       3.939  -0.908  -2.010  0.00  0.00    -0.270 OA
ATOM     15  N   UNL     1       3.390  -1.590   0.138  0.00  0.00    -0.300 N 
ATOM     16  C   UNL     1       3.734  -0.625  -0.816  0.00  0.00    +0.246 C 
ATOM     17  H   UNL     1       3.242  -1.296   1.065  0.00  0.00    +0.150 HD
BRANCH  16  18
ATOM     18  C   UNL     1       3.870   0.746  -0.349  0.00  0.00    +0.054 C 
ATOM     19  C   UNL     1       4.712   1.631  -1.022  0.00  0.00    +0.008 C 
ATOM     20  C   UNL     1       3.159   1.175   0.771  0.00  0.00    +0.008 C 
ATOM     21  C   UNL     1       4.842   2.946  -0.574  0.00  0.00    +0.037 C 
ATOM     22  C   UNL     1       3.288   2.489   1.219  0.00  0.00    +0.037 C 
ATOM     23  C   UNL     1       4.130   3.375   0.546  0.00  0.00    +0.134 C 
BRANCH  23  24
ATOM     24  O   UNL     1       4.257   4.658   0.983  0.00  0.00    -0.506 OA
ATOM     25  H   UNL     1       4.823   5.253   0.531  0.00  0.00    +0.292 HD
ENDBRANCH  23  24
ENDBRANCH  16  18
ENDBRANCH  13  15
ENDBRANCH  12  13
ENDBRANCH  11  12
ENDBRANCH   1  11
BRANCH   3  26
ATOM     26  O   UNL     1      -3.418  -0.610   1.165  0.00  0.00    -0.452 OA
BRANCH  26  27
ATOM     27  C   UNL     1      -3.850   0.552   0.551  0.00  0.00    +0.146 C 
ATOM     28  C   UNL     1      -2.949   1.303  -0.183  0.00  0.00    +0.041 C 
ATOM     29  C   UNL     1      -5.172   0.936   0.688  0.00  0.00    +0.041 C 
ATOM     30  C   UNL     1      -3.384   2.475  -0.801  0.00  0.00    +0.040 C 
ATOM     31  C   UNL     1      -5.608   2.108   0.069  0.00  0.00    +0.040 C 
ATOM     32  C   UNL     1      -4.714   2.877  -0.675  0.00  0.00    +0.134 C 
BRANCH  32  33
ATOM     33  O   UNL     1      -5.138   4.022  -1.278  0.00  0.00    -0.506 OA
ATOM     34  H   UNL     1      -4.537   4.538  -1.778  0.00  0.00    +0.292 HD
ENDBRANCH  32  33
ENDBRANCH  26  27
ENDBRANCH   3  26
TORSDOF 10
