REMARK  Name = 11676119
REMARK  5 active torsions:
REMARK  status: ('A' for Active; 'I' for Inactive)
REMARK    1  A    between atoms: C_3  and  C_19
REMARK    2  A    between atoms: C_4  and  C_10
REMARK    3  A    between atoms: C_5  and  C_25
REMARK    4  A    between atoms: C_25  and  C_26
REMARK    5  A    between atoms: C_29  and  C_34
REMARK                            x       y       z     vdW  Elec       q    Type
REMARK                         _______ _______ _______ _____ _____    ______ ____
ROOT
ATOM      1  N   UNL     1      -1.138   0.798  -1.157  0.00  0.00    -0.316 N 
ATOM      2  N   UNL     1      -0.398  -1.289  -0.991  0.00  0.00    -0.318 N 
ATOM      3  C   UNL     1       0.106   0.886  -0.600  0.00  0.00    +0.089 C 
ATOM      4  C   UNL     1       0.540  -0.414  -0.508  0.00  0.00    +0.058 C 
ATOM      5  C   UNL     1      -1.398  -0.526  -1.375  0.00  0.00    +0.148 C 
ATOM      6  H   UNL     1      -1.738   1.551  -1.365  0.00  0.00    +0.148 HD
ATOM      7  H   UNL     1      -0.336  -2.271  -1.040  0.00  0.00    +0.148 HD
ENDROOT
BRANCH   4  10
ATOM      8  N   UNL     1       5.206  -1.464  -1.160  0.00  0.00    -0.245 NA
ATOM      9  N   UNL     1       5.469  -2.042   1.545  0.00  0.00    -0.245 NA
ATOM     10  C   UNL     1       1.806  -0.835   0.020  0.00  0.00    -0.006 C 
ATOM     11  C   UNL     1       2.913  -0.953  -0.819  0.00  0.00    +0.074 C 
ATOM     12  C   UNL     1       1.938  -1.123   1.371  0.00  0.00    -0.022 C 
ATOM     13  C   UNL     1       4.153  -1.357  -0.330  0.00  0.00    +0.077 C 
ATOM     14  C   UNL     1       4.287  -1.650   1.040  0.00  0.00    +0.077 C 
ATOM     15  C   UNL     1       3.175  -1.528   1.870  0.00  0.00    +0.073 C 
ATOM     16  C   UNL     1       6.380  -1.858  -0.635  0.00  0.00    +0.119 C 
ATOM     17  C   UNL     1       6.510  -2.143   0.698  0.00  0.00    +0.119 C 
ENDBRANCH   4  10
BRANCH   3  19
ATOM     18  N   UNL     1       2.059   2.160  -0.308  0.00  0.00    -0.409 NA
ATOM     19  C   UNL     1       0.710   2.143  -0.235  0.00  0.00    +0.145 C 
ATOM     20  C   UNL     1      -0.062   3.224   0.155  0.00  0.00    +0.029 C 
ATOM     21  C   UNL     1       2.662   3.322   0.028  0.00  0.00    +0.091 C 
ATOM     22  C   UNL     1       0.594   4.402   0.493  0.00  0.00    -0.016 C 
ATOM     23  C   UNL     1       1.982   4.460   0.431  0.00  0.00    +0.080 C 
ATOM     24  C   UNL     1       4.152   3.349  -0.049  0.00  0.00    +0.062 C 
ENDBRANCH   3  19
BRANCH   5  25
ATOM     25  C   UNL     1      -2.669  -0.972  -1.973  0.00  0.00    +0.067 C 
BRANCH  25  26
ATOM     26  C   UNL     1      -3.767  -1.259  -0.955  0.00  0.00    -0.019 C 
ATOM     27  C   UNL     1      -4.613  -0.236  -0.583  0.00  0.00    +0.000 C 
ATOM     28  C   UNL     1      -3.877  -2.533  -0.439  0.00  0.00    -0.004 C 
ATOM     29  C   UNL     1      -5.617  -0.499   0.349  0.00  0.00    +0.053 C 
ATOM     30  C   UNL     1      -4.881  -2.796   0.493  0.00  0.00    -0.000 C 
ATOM     31  C   UNL     1      -5.751  -1.779   0.887  0.00  0.00    +0.004 C 
BRANCH  29  34
ATOM     32  O   UNL     1      -6.439   1.707   0.286  0.00  0.00    -0.270 OA
ATOM     33  N   UNL     1      -7.507   0.245   1.694  0.00  0.00    -0.325 N 
ATOM     34  C   UNL     1      -6.524   0.561   0.761  0.00  0.00    +0.243 C 
ATOM     35  H   UNL     1      -8.139   0.937   1.996  0.00  0.00    +0.145 HD
ATOM     36  H   UNL     1      -7.571  -0.669   2.052  0.00  0.00    +0.145 HD
ENDBRANCH  29  34
ENDBRANCH  25  26
ENDBRANCH   5  25
TORSDOF 5
