REMARK  Name = 11673949
REMARK  2 active torsions:
REMARK  status: ('A' for Active; 'I' for Inactive)
REMARK    1  A    between atoms: CA_18  and  C_21
REMARK    2  A    between atoms: C_21  and  O_22
REMARK                            x       y       z     vdW  Elec       q    Type
REMARK                         _______ _______ _______ _____ _____    ______ ____
ROOT
ATOM      1  S   UNL     1       3.506   0.709   0.006  0.00  0.00    +0.015 S 
ATOM      2  O   UNL     1       3.945   0.906  -1.363  0.00  0.00    -0.168 OA
ATOM      3  O   UNL     1       3.742   1.736   1.005  0.00  0.00    -0.168 OA
ATOM      4  O   UNL     1       1.132   2.567  -0.081  0.00  0.00    -0.285 OA
ATOM      5  O   UNL     1      -0.331  -2.566  -0.011  0.00  0.00    -0.282 OA
ATOM      6  N   UNL     1       2.346  -2.078  -0.008  0.00  0.00    -0.328 N 
ATOM      7  N   UNL     1      -2.268  -0.753   0.006  0.00  0.00    -0.396 NA
ATOM      8  C   UNL     1       4.287  -0.774   0.612  0.00  0.00    +0.177 C 
ATOM      9  C   UNL     1       1.809   0.292  -0.004  0.00  0.00    +0.161 C 
ATOM     10  C   UNL     1       3.782  -1.990  -0.136  0.00  0.00    +0.113 C 
ATOM     11  C   UNL     1       1.472  -1.010  -0.010  0.00  0.00    +0.107 C 
ATOM     12  C   UNL     1       0.805   1.388  -0.037  0.00  0.00    +0.216 C 
ATOM     13  C   UNL     1       0.027  -1.392  -0.010  0.00  0.00    +0.239 C 
ATOM     14  C   UNL     1      -0.612   1.004  -0.021  0.00  0.00    +0.069 C 
ATOM     15  C   UNL     1      -0.983  -0.327  -0.007  0.00  0.00    +0.174 C 
ATOM     16  C   UNL     1      -1.620   1.968  -0.021  0.00  0.00    -0.013 C 
ATOM     17  C   UNL     1      -2.951   1.565  -0.007  0.00  0.00    +0.092 C 
ATOM     18  CA  UNL     1      -3.220   0.206   0.006  0.00  0.00    +0.188 C 
ATOM     19  H   UNL     1       1.957  -2.977   0.088  0.00  0.00    +0.147 HD
ENDROOT
BRANCH  18  21
ATOM     20  OXT UNL     1      -5.601   0.447   0.026  0.00  0.00    -0.243 OA
ATOM     21  C   UNL     1      -4.593  -0.269   0.022  0.00  0.00    +0.364 C 
BRANCH  21  22
ATOM     22  O   UNL     1      -4.675  -1.629   0.032  0.00  0.00    -0.476 OA
ATOM     23  H   UNL     1      -3.893  -2.145   0.029  0.00  0.00    +0.295 HD
ENDBRANCH  21  22
ENDBRANCH  18  21
TORSDOF 2
