11676066
  -OEChem-03292013303D

 49 52  0     1  0  0  0  0  0999 V2000
    1.6408   -0.1047   -3.8047 Cl  0  0  0  0  0  0  0  0  0  0  0  0
   -0.3673    0.7228    1.6110 O   0  0  0  0  0  0  0  0  0  0  0  0
   -1.8241    0.5532   -0.2021 O   0  0  0  0  0  0  0  0  0  0  0  0
    2.0585    3.4175    1.3573 O   0  0  0  0  0  0  0  0  0  0  0  0
   -4.5363   -0.3270    0.1604 O   0  0  0  0  0  0  0  0  0  0  0  0
   -1.2233   -1.8387    2.4844 O   0  0  0  0  0  0  0  0  0  0  0  0
   -3.0539   -3.0790    0.9737 O   0  0  0  0  0  0  0  0  0  0  0  0
    3.9134   -3.9444    0.9870 N   0  0  0  0  0  0  0  0  0  0  0  0
    0.5312    1.5492    0.8627 C   0  0  2  0  0  0  0  0  0  0  0  0
    0.8108    2.8225    1.6715 C   0  0  2  0  0  0  0  0  0  0  0  0
   -0.2184    2.1141   -0.3222 C   0  0  0  0  0  0  0  0  0  0  0  0
    1.5480    0.7289    0.1421 C   0  0  0  0  0  0  0  0  0  0  0  0
   -1.0662   -0.1821    0.7573 C   0  0  2  0  0  0  0  0  0  0  0  0
   -3.5470   -1.1655   -0.4289 C   0  0  1  0  0  0  0  0  0  0  0  0
   -1.9955   -1.0196    1.6259 C   0  0  1  0  0  0  0  0  0  0  0  0
   -2.4921   -0.2991   -1.1463 C   0  0  1  0  0  0  0  0  0  0  0  0
    1.2239    0.6887   -1.2330 C   0  0  0  0  0  0  0  0  0  0  0  0
    0.0971    1.5811   -1.5070 C   0  0  0  0  0  0  0  0  0  0  0  0
   -0.2975    3.7493    1.1995 C   0  0  0  0  0  0  0  0  0  0  0  0
   -0.8743    3.3194    0.0666 C   0  0  0  0  0  0  0  0  0  0  0  0
   -2.8704   -1.8861    0.7360 C   0  0  0  0  0  0  0  0  0  0  0  0
    2.6260    0.0256    0.6474 C   0  0  0  0  0  0  0  0  0  0  0  0
   -4.2325   -2.1502   -1.3756 C   0  0  0  0  0  0  0  0  0  0  0  0
    1.9865   -0.0493   -2.1209 C   0  0  0  0  0  0  0  0  0  0  0  0
   -3.0797    0.6269   -2.2089 C   0  0  0  0  0  0  0  0  0  0  0  0
    3.3943   -0.7243   -0.2457 C   0  0  0  0  0  0  0  0  0  0  0  0
    3.0768   -0.7632   -1.6152 C   0  0  0  0  0  0  0  0  0  0  0  0
    4.5662   -1.4985    0.2597 C   0  0  0  0  0  0  0  0  0  0  0  0
    4.2049   -2.8675    0.6680 C   0  0  0  0  0  0  0  0  0  0  0  0
    0.7446    2.6467    2.7505 H   0  0  0  0  0  0  0  0  0  0  0  0
   -0.3661   -0.8673    0.2622 H   0  0  0  0  0  0  0  0  0  0  0  0
   -2.6428   -0.3920    2.2470 H   0  0  0  0  0  0  0  0  0  0  0  0
   -1.7413   -0.9417   -1.6256 H   0  0  0  0  0  0  0  0  0  0  0  0
   -0.1936    1.9289   -2.4837 H   0  0  0  0  0  0  0  0  0  0  0  0
   -0.5436    4.6796    1.6919 H   0  0  0  0  0  0  0  0  0  0  0  0
   -1.6154    3.8482   -0.5093 H   0  0  0  0  0  0  0  0  0  0  0  0
    2.8540    0.0514    1.7079 H   0  0  0  0  0  0  0  0  0  0  0  0
   -4.9351   -2.7906   -0.8291 H   0  0  0  0  0  0  0  0  0  0  0  0
   -4.8302   -1.6323   -2.1323 H   0  0  0  0  0  0  0  0  0  0  0  0
   -3.5063   -2.7981   -1.8772 H   0  0  0  0  0  0  0  0  0  0  0  0
   -3.7622    1.3586   -1.7630 H   0  0  0  0  0  0  0  0  0  0  0  0
   -2.3029    1.2023   -2.7161 H   0  0  0  0  0  0  0  0  0  0  0  0
   -3.6189    0.0696   -2.9796 H   0  0  0  0  0  0  0  0  0  0  0  0
    2.1392    4.2301    1.8856 H   0  0  0  0  0  0  0  0  0  0  0  0
    3.6931   -1.3558   -2.2893 H   0  0  0  0  0  0  0  0  0  0  0  0
   -4.0888    0.4155    0.6006 H   0  0  0  0  0  0  0  0  0  0  0  0
   -0.6125   -2.3624    1.9382 H   0  0  0  0  0  0  0  0  0  0  0  0
    5.0226   -0.9710    1.1069 H   0  0  0  0  0  0  0  0  0  0  0  0
    5.3468   -1.5383   -0.5104 H   0  0  0  0  0  0  0  0  0  0  0  0
  1 24  1  0  0  0  0
  2  9  1  0  0  0  0
  2 13  1  0  0  0  0
  3 13  1  0  0  0  0
  3 16  1  0  0  0  0
  4 10  1  0  0  0  0
  4 44  1  0  0  0  0
  5 14  1  0  0  0  0
  5 46  1  0  0  0  0
  6 15  1  0  0  0  0
  6 47  1  0  0  0  0
  7 21  2  0  0  0  0
  8 29  3  0  0  0  0
  9 10  1  0  0  0  0
  9 11  1  0  0  0  0
  9 12  1  0  0  0  0
 10 19  1  0  0  0  0
 10 30  1  0  0  0  0
 11 18  2  0  0  0  0
 11 20  1  0  0  0  0
 12 17  2  0  0  0  0
 12 22  1  0  0  0  0
 13 15  1  0  0  0  0
 13 31  1  0  0  0  0
 14 16  1  0  0  0  0
 14 21  1  0  0  0  0
 14 23  1  0  0  0  0
 15 21  1  0  0  0  0
 15 32  1  0  0  0  0
 16 25  1  0  0  0  0
 16 33  1  0  0  0  0
 17 18  1  0  0  0  0
 17 24  1  0  0  0  0
 18 34  1  0  0  0  0
 19 20  2  0  0  0  0
 19 35  1  0  0  0  0
 20 36  1  0  0  0  0
 22 26  2  0  0  0  0
 22 37  1  0  0  0  0
 23 38  1  0  0  0  0
 23 39  1  0  0  0  0
 23 40  1  0  0  0  0
 24 27  2  0  0  0  0
 25 41  1  0  0  0  0
 25 42  1  0  0  0  0
 25 43  1  0  0  0  0
 26 27  1  0  0  0  0
 26 28  1  0  0  0  0
 27 45  1  0  0  0  0
 28 29  1  0  0  0  0
 28 48  1  0  0  0  0
 28 49  1  0  0  0  0
M  END
> <PUBCHEM_COMPOUND_CID>
11676066

> <PUBCHEM_CONFORMER_RMSD>
0.8

> <PUBCHEM_CONFORMER_DIVERSEORDER>
1
5
4
2
3

> <PUBCHEM_MMFF94_PARTIAL_CHARGES>
35
1 -0.18
10 0.42
11 -0.14
12 -0.14
13 0.56
14 0.34
15 0.34
16 0.28
17 0.03
18 -0.18
19 -0.29
2 -0.56
20 -0.15
21 0.45
22 -0.15
24 0.18
26 -0.14
27 -0.15
28 0.34
29 0.36
3 -0.56
34 0.15
35 0.15
36 0.15
37 0.15
4 -0.68
44 0.4
45 0.15
46 0.4
47 0.4
5 -0.68
6 -0.68
7 -0.57
8 -0.56
9 0.56

> <PUBCHEM_EFFECTIVE_ROTOR_COUNT>
4.2

> <PUBCHEM_PHARMACOPHORE_FEATURES>
14
1 2 acceptor
1 3 acceptor
1 4 acceptor
1 4 donor
1 5 acceptor
1 5 donor
1 6 acceptor
1 6 donor
1 7 acceptor
1 8 acceptor
5 9 10 11 19 20 rings
5 9 11 12 17 18 rings
6 12 17 22 24 26 27 rings
6 3 13 14 15 16 21 rings

> <PUBCHEM_HEAVY_ATOM_COUNT>
29

> <PUBCHEM_ATOM_DEF_STEREO_COUNT>
6

> <PUBCHEM_ATOM_UDEF_STEREO_COUNT>
0

> <PUBCHEM_BOND_DEF_STEREO_COUNT>
0

> <PUBCHEM_BOND_UDEF_STEREO_COUNT>
0

> <PUBCHEM_ISOTOPIC_ATOM_COUNT>
0

> <PUBCHEM_COMPONENT_COUNT>
1

> <PUBCHEM_CACTVS_TAUTO_COUNT>
4

> <PUBCHEM_CONFORMER_ID>
00B229A200000001

> <PUBCHEM_MMFF94_ENERGY>
112.8723

> <PUBCHEM_FEATURE_SELFOVERLAP>
71.492

> <PUBCHEM_SHAPE_FINGERPRINT>
10369192 42 13920567625101206670
11578080 2 18187650240420096636
11582403 64 16250450476687607941
12156800 1 15398436411882486781
12160290 23 17836400083948409672
12363563 72 18343025496968296582
12422481 6 17621910611650815187
12553582 1 18126313949914883938
12788726 201 18196391233311521376
13004483 165 18341885239117717090
13134695 92 18271237343493443197
133893 2 17841167837065261793
13544653 18 18411417315360840330
13631057 29 18408887296609770634
13681431 1 18056216870940321221
13911987 19 17828223304379085532
14844126 61 17983559832843849338
1813 80 17845111669151494621
20465049 17 15792010039783214767
20602899 9 17467332445002478700
20626108 58 17846206821709595135
20775438 99 17543886345993734607
20775530 9 18259990400430365802
21304303 282 17403153925393321988
23419403 2 18267279050173203892
23559900 14 18261663814794560080
2637199 183 15357691972975028695
3027735 51 18051691036372773747
35225 105 17550988834245872136
394222 165 17199098173554635168
46194498 28 16371586927692866479
463206 1 18408881858353609659
469060 322 16843570852880077988
484985 159 17762042256204585646
57527295 17 18339922722852949285
57527585 103 17027438801869655874
5845 1 11102704143468466820
81228 2 17771650969438509409
9981440 41 15692620613903312654

> <PUBCHEM_SHAPE_MULTIPOLES>
558.48
7.16
4.14
2.57
0.62
1.46
-1.92
-8.42
-0.38
1.02
2.6
0.4
-0.27
-0.12

> <PUBCHEM_SHAPE_SELFOVERLAP>
1232.429

> <PUBCHEM_SHAPE_VOLUME>
299.9

> <PUBCHEM_COORDINATE_TYPE>
2
5
10

$$$$
