11687981
  -OEChem-03292013303D

 26 28  0     0  0  0  0  0  0999 V2000
   -4.5948    0.5221   -0.0896 S   0  0  0  0  0  0  0  0  0  0  0  0
    1.3481    1.4417   -0.0389 S   0  0  0  0  0  0  0  0  0  0  0  0
   -2.8540   -1.8249   -0.0306 S   0  0  0  0  0  0  0  0  0  0  0  0
   -4.5481    1.8485   -0.6799 O   0  0  0  0  0  0  0  0  0  0  0  0
   -5.4662   -0.4975   -0.6475 O   0  0  0  0  0  0  0  0  0  0  0  0
    1.6900   -1.1143    0.0067 N   0  0  0  0  0  0  0  0  0  0  0  0
   -4.9059    0.6650    1.5822 N   0  0  0  0  0  0  0  0  0  0  0  0
   -0.6678   -0.4850   -0.0293 C   0  0  0  0  0  0  0  0  0  0  0  0
    0.7779   -0.1708   -0.0186 C   0  0  0  0  0  0  0  0  0  0  0  0
   -2.9573   -0.1160   -0.0603 C   0  0  0  0  0  0  0  0  0  0  0  0
   -1.7141    0.4771   -0.0568 C   0  0  0  0  0  0  0  0  0  0  0  0
    2.9703    0.8579   -0.0117 C   0  0  0  0  0  0  0  0  0  0  0  0
    2.9527   -0.5399    0.0109 C   0  0  0  0  0  0  0  0  0  0  0  0
   -1.1425   -1.7752   -0.0127 C   0  0  0  0  0  0  0  0  0  0  0  0
    4.1717    1.5846   -0.0105 C   0  0  0  0  0  0  0  0  0  0  0  0
    4.1827   -1.2326    0.0355 C   0  0  0  0  0  0  0  0  0  0  0  0
    5.3748    0.8748    0.0142 C   0  0  0  0  0  0  0  0  0  0  0  0
    5.3825   -0.5155    0.0369 C   0  0  0  0  0  0  0  0  0  0  0  0
   -1.5914    1.5527   -0.0728 H   0  0  0  0  0  0  0  0  0  0  0  0
   -0.5817   -2.6998    0.0090 H   0  0  0  0  0  0  0  0  0  0  0  0
    4.1734    2.6701   -0.0282 H   0  0  0  0  0  0  0  0  0  0  0  0
    4.2003   -2.3186    0.0534 H   0  0  0  0  0  0  0  0  0  0  0  0
    6.3162    1.4180    0.0156 H   0  0  0  0  0  0  0  0  0  0  0  0
    6.3281   -1.0506    0.0560 H   0  0  0  0  0  0  0  0  0  0  0  0
   -4.3707    1.3750    2.0985 H   0  0  0  0  0  0  0  0  0  0  0  0
   -5.8892    0.6203    1.8783 H   0  0  0  0  0  0  0  0  0  0  0  0
  1  4  2  0  0  0  0
  1  5  2  0  0  0  0
  1  7  1  0  0  0  0
  1 10  1  0  0  0  0
  2  9  1  0  0  0  0
  2 12  1  0  0  0  0
  3 10  1  0  0  0  0
  3 14  1  0  0  0  0
  6  9  2  0  0  0  0
  6 13  1  0  0  0  0
  7 25  1  0  0  0  0
  7 26  1  0  0  0  0
  8  9  1  0  0  0  0
  8 11  1  0  0  0  0
  8 14  2  0  0  0  0
 10 11  2  0  0  0  0
 11 19  1  0  0  0  0
 12 13  1  0  0  0  0
 12 15  2  0  0  0  0
 13 16  2  0  0  0  0
 14 20  1  0  0  0  0
 15 17  1  0  0  0  0
 15 21  1  0  0  0  0
 16 18  1  0  0  0  0
 16 22  1  0  0  0  0
 17 18  2  0  0  0  0
 17 23  1  0  0  0  0
 18 24  1  0  0  0  0
M  END
> <PUBCHEM_COMPOUND_CID>
11687981

> <PUBCHEM_CONFORMER_RMSD>
0.6

> <PUBCHEM_CONFORMER_DIVERSEORDER>
1
4
2
3

> <PUBCHEM_MMFF94_PARTIAL_CHARGES>
25
1 1.5
10 -0.02
11 -0.15
12 0.04
13 0.23
14 -0.11
15 -0.15
16 -0.15
17 -0.15
18 -0.15
19 0.15
2 -0.08
20 0.15
21 0.15
22 0.15
23 0.15
24 0.15
25 0.42
26 0.42
3 -0.08
4 -0.65
5 -0.65
6 -0.57
7 -0.98
9 0.38

> <PUBCHEM_EFFECTIVE_ROTOR_COUNT>
2

> <PUBCHEM_PHARMACOPHORE_FEATURES>
7
1 4 acceptor
1 5 acceptor
1 6 acceptor
1 7 donor
5 2 6 9 12 13 rings
5 3 8 10 11 14 rings
6 12 13 15 16 17 18 rings

> <PUBCHEM_HEAVY_ATOM_COUNT>
18

> <PUBCHEM_ATOM_DEF_STEREO_COUNT>
0

> <PUBCHEM_ATOM_UDEF_STEREO_COUNT>
0

> <PUBCHEM_BOND_DEF_STEREO_COUNT>
0

> <PUBCHEM_BOND_UDEF_STEREO_COUNT>
0

> <PUBCHEM_ISOTOPIC_ATOM_COUNT>
0

> <PUBCHEM_COMPONENT_COUNT>
1

> <PUBCHEM_CACTVS_TAUTO_COUNT>
1

> <PUBCHEM_CONFORMER_ID>
00B2582D00000001

> <PUBCHEM_MMFF94_ENERGY>
27.4854

> <PUBCHEM_FEATURE_SELFOVERLAP>
35.611

> <PUBCHEM_SHAPE_FINGERPRINT>
10014705 185 18408038528823643583
11089746 13 17561358500580633448
11405975 8 18335419097302865706
11471102 20 18411698794711574588
12107183 9 17763746485919964218
12236239 1 17918275346354407890
12596602 18 15285363941625894988
128620 24 10015865387897751578
13533116 47 17704073946125330910
13675066 3 17894917329823655315
14341114 176 18335426759545587908
15099037 51 18412544305778017015
15196674 1 18410292553488559750
15375358 24 18343305868265168598
15788980 27 18040435507521202486
17834072 33 18273210928057179454
17834072 8 18341899584756651478
17844677 252 18261117369693848413
18186145 218 17749661970012967222
19141452 34 18410011065300036222
19489759 90 15913331277799097627
200 152 17775282776835765703
20281389 69 18334573551091064864
20645477 56 18333447651220768949
20645477 70 18202285767094000326
21033648 29 18187630410840725901
21065198 57 18336546126754464818
21236236 1 18341049718330373639
21267235 1 18410581690428561054
21279426 13 18266176123956178716
212847 35 18342175574960093072
21421861 104 17750219323919434266
23402539 116 18201995521624986581
23402655 69 18342457071369279766
23559900 14 18272088305980555818
29717793 49 17418102005653805564
300161 21 18412819214171575738
3004659 81 18334858291097352382
335352 9 18410292506782100502
34797466 226 16486698086081562752
34934 24 18411694422572205634
3545911 37 18411702101340559294
4073 2 17968380156174018146
4214541 1 18410574002542316965
42788 4 18410572885777018958
495365 180 17560788983838280146
5104073 3 18337952393531175330
542803 24 17703792517770326577
59755656 215 18337394842779250270
602551 16 15575290894299477776
633830 44 17676485098923500466
69090 78 18411978070248655647
77779 3 18409449228091174054
8272917 22 18272375231112971038
90127 26 18041002817024983737
9709674 26 18338804510948739350
9996256 80 18412263973769327459

> <PUBCHEM_SHAPE_MULTIPOLES>
360.28
13.04
1.77
0.76
1.23
0.09
0.15
-2.53
0.22
0.24
-0.08
0.7
-0.11
-0.09

> <PUBCHEM_SHAPE_SELFOVERLAP>
753.72

> <PUBCHEM_SHAPE_VOLUME>
205.8

> <PUBCHEM_COORDINATE_TYPE>
2
5
10

$$$$
