REMARK  Name = 11687376
REMARK  4 active torsions:
REMARK  status: ('A' for Active; 'I' for Inactive)
REMARK    1  A    between atoms: C_2  and  C_10
REMARK    2  A    between atoms: C_10  and  N_11
REMARK    3  A    between atoms: N_11  and  S_13
REMARK    4  A    between atoms: S_13  and  N_16
REMARK                            x       y       z     vdW  Elec       q    Type
REMARK                         _______ _______ _______ _____ _____    ______ ____
ROOT
ATOM      1  S   UNL     1       2.396   2.273  -0.363  0.00  0.00    -0.087 S 
ATOM      2  C   UNL     1       0.265   1.054   0.363  0.00  0.00    +0.002 C 
ATOM      3  C   UNL     1       1.256   0.026   0.217  0.00  0.00    +0.004 C 
ATOM      4  C   UNL     1       2.485   0.561  -0.182  0.00  0.00    +0.029 C 
ATOM      5  C   UNL     1       0.750   2.309   0.081  0.00  0.00    +0.033 C 
ATOM      6  C   UNL     1       1.166  -1.374   0.410  0.00  0.00    +0.000 C 
ATOM      7  C   UNL     1       3.611  -0.259  -0.391  0.00  0.00    +0.006 C 
ATOM      8  C   UNL     1       2.282  -2.189   0.204  0.00  0.00    +0.000 C 
ATOM      9  C   UNL     1       3.490  -1.635  -0.193  0.00  0.00    +0.001 C 
ENDROOT
BRANCH   2  10
ATOM     10  C   UNL     1      -1.139   0.803   0.776  0.00  0.00    +0.119 C 
BRANCH  10  11
ATOM     11  N   UNL     1      -1.967   0.560  -0.428  0.00  0.00    -0.165 NA
ATOM     12  H   UNL     1      -2.285   1.469  -0.766  0.00  0.00    +0.150 HD
BRANCH  11  13
ATOM     13  S   UNL     1      -3.353  -0.434  -0.266  0.00  0.00    +0.093 S 
ATOM     14  O   UNL     1      -4.205  -0.202  -1.417  0.00  0.00    -0.142 OA
ATOM     15  O   UNL     1      -2.941  -1.780   0.086  0.00  0.00    -0.142 OA
BRANCH  13  16
ATOM     16  N   UNL     1      -4.097   0.285   1.103  0.00  0.00    -0.193 NA
ATOM     17  H   UNL     1      -4.958  -0.215   1.324  0.00  0.00    +0.145 HD
ATOM     18  H   UNL     1      -4.314   1.261   0.899  0.00  0.00    +0.145 HD
ENDBRANCH  13  16
ENDBRANCH  11  13
ENDBRANCH  10  11
ENDBRANCH   2  10
TORSDOF 4
