11691726
  -OEChem-03292013303D

 65 66  0     1  0  0  0  0  0999 V2000
   -0.9229    0.3252    1.0766 O   0  0  0  0  0  0  0  0  0  0  0  0
    1.5709    1.8796    0.5473 O   0  0  0  0  0  0  0  0  0  0  0  0
    2.2448   -0.6109   -0.3101 O   0  0  0  0  0  0  0  0  0  0  0  0
   -3.0826    1.3081   -0.4273 O   0  0  0  0  0  0  0  0  0  0  0  0
    3.1111    2.2140   -1.1365 O   0  0  0  0  0  0  0  0  0  0  0  0
    1.4025   -2.9613    1.8563 O   0  0  0  0  0  0  0  0  0  0  0  0
    2.3030   -0.7562   -2.6112 O   0  0  0  0  0  0  0  0  0  0  0  0
   -4.0379    0.8865   -2.4838 O   0  0  0  0  0  0  0  0  0  0  0  0
   -0.4073   -1.9440    0.8487 N   0  0  0  0  0  0  0  0  0  0  0  0
   -0.9728    2.7579    0.6368 N   0  0  0  0  0  0  0  0  0  0  0  0
   -1.2957    2.8334    1.8340 N   0  3  0  0  0  0  0  0  0  0  0  0
   -0.3097   -4.3216    1.2481 N   0  0  0  0  0  0  0  0  0  0  0  0
   -2.0668   -5.7100    0.6209 N   0  0  0  0  0  0  0  0  0  0  0  0
   -1.5917    2.8913    2.9340 N   0  5  0  0  0  0  0  0  0  0  0  0
    0.6800    1.2666   -0.3877 C   0  0  1  0  0  0  0  0  0  0  0  0
    0.8829   -0.2358   -0.3571 C   0  0  2  0  0  0  0  0  0  0  0  0
   -0.7588    1.3996    0.1208 C   0  0  1  0  0  0  0  0  0  0  0  0
    0.1472   -0.6218    0.9153 C   0  0  1  0  0  0  0  0  0  0  0  0
   -1.7911    1.1774   -0.9885 C   0  0  0  0  0  0  0  0  0  0  0  0
   -1.6598   -2.1124    0.2788 C   0  0  0  0  0  0  0  0  0  0  0  0
    2.7615    2.3111    0.0325 C   0  0  0  0  0  0  0  0  0  0  0  0
    0.2868   -3.0760    1.3455 C   0  0  0  0  0  0  0  0  0  0  0  0
    2.8510   -0.8470   -1.5205 C   0  0  0  0  0  0  0  0  0  0  0  0
    3.6003    2.9241    1.1403 C   0  0  0  0  0  0  0  0  0  0  0  0
    4.2998   -1.2500   -1.3089 C   0  0  0  0  0  0  0  0  0  0  0  0
   -2.2499   -3.3016    0.1748 C   0  0  0  0  0  0  0  0  0  0  0  0
   -4.1381    1.1378   -1.2901 C   0  0  0  0  0  0  0  0  0  0  0  0
   -1.4918   -4.4632    0.7081 C   0  0  0  0  0  0  0  0  0  0  0  0
   -5.4514    1.3191   -0.5493 C   0  0  0  0  0  0  0  0  0  0  0  0
    4.4493    1.8442    1.8004 C   0  0  0  0  0  0  0  0  0  0  0  0
    4.4749    4.0509    0.5967 C   0  0  0  0  0  0  0  0  0  0  0  0
    4.3942   -2.7621   -1.1428 C   0  0  0  0  0  0  0  0  0  0  0  0
    5.1696   -0.7721   -2.4687 C   0  0  0  0  0  0  0  0  0  0  0  0
   -5.8626    2.7863   -0.5826 C   0  0  0  0  0  0  0  0  0  0  0  0
   -6.5389    0.4328   -1.1508 C   0  0  0  0  0  0  0  0  0  0  0  0
    0.8009    1.7028   -1.3859 H   0  0  0  0  0  0  0  0  0  0  0  0
    0.3834   -0.6966   -1.2196 H   0  0  0  0  0  0  0  0  0  0  0  0
    0.8019   -0.5467    1.7918 H   0  0  0  0  0  0  0  0  0  0  0  0
   -1.6674    1.9477   -1.7612 H   0  0  0  0  0  0  0  0  0  0  0  0
   -1.6897    0.2034   -1.4741 H   0  0  0  0  0  0  0  0  0  0  0  0
   -2.1950   -1.2502   -0.0802 H   0  0  0  0  0  0  0  0  0  0  0  0
    2.9207    3.3614    1.8825 H   0  0  0  0  0  0  0  0  0  0  0  0
    4.6616   -0.7576   -0.3979 H   0  0  0  0  0  0  0  0  0  0  0  0
   -3.2304   -3.4395   -0.2610 H   0  0  0  0  0  0  0  0  0  0  0  0
   -5.3032    1.0027    0.4907 H   0  0  0  0  0  0  0  0  0  0  0  0
    5.0345    2.2577    2.6281 H   0  0  0  0  0  0  0  0  0  0  0  0
    3.8186    1.0415    2.1980 H   0  0  0  0  0  0  0  0  0  0  0  0
    5.1427    1.3908    1.0835 H   0  0  0  0  0  0  0  0  0  0  0  0
    3.8627    4.8125    0.1014 H   0  0  0  0  0  0  0  0  0  0  0  0
    5.0321    4.5357    1.4051 H   0  0  0  0  0  0  0  0  0  0  0  0
    5.1973    3.6791   -0.1385 H   0  0  0  0  0  0  0  0  0  0  0  0
    4.0317   -3.2835   -2.0357 H   0  0  0  0  0  0  0  0  0  0  0  0
    3.7849   -3.0991   -0.2971 H   0  0  0  0  0  0  0  0  0  0  0  0
    5.4281   -3.0723   -0.9606 H   0  0  0  0  0  0  0  0  0  0  0  0
    4.8749   -1.2441   -3.4125 H   0  0  0  0  0  0  0  0  0  0  0  0
    6.2237   -1.0059   -2.2866 H   0  0  0  0  0  0  0  0  0  0  0  0
    5.0798    0.3118   -2.5996 H   0  0  0  0  0  0  0  0  0  0  0  0
   -6.0100    3.1348   -1.6109 H   0  0  0  0  0  0  0  0  0  0  0  0
   -5.0893    3.4172   -0.1308 H   0  0  0  0  0  0  0  0  0  0  0  0
   -6.7945    2.9444   -0.0301 H   0  0  0  0  0  0  0  0  0  0  0  0
   -6.2281   -0.6177   -1.1484 H   0  0  0  0  0  0  0  0  0  0  0  0
   -7.4682    0.5135   -0.5772 H   0  0  0  0  0  0  0  0  0  0  0  0
   -6.7550    0.7106   -2.1883 H   0  0  0  0  0  0  0  0  0  0  0  0
   -1.5853   -6.5310    0.9717 H   0  0  0  0  0  0  0  0  0  0  0  0
   -2.9823   -5.8524    0.2072 H   0  0  0  0  0  0  0  0  0  0  0  0
  1 17  1  0  0  0  0
  1 18  1  0  0  0  0
  2 15  1  0  0  0  0
  2 21  1  0  0  0  0
  3 16  1  0  0  0  0
  3 23  1  0  0  0  0
  4 19  1  0  0  0  0
  4 27  1  0  0  0  0
  5 21  2  0  0  0  0
  6 22  2  0  0  0  0
  7 23  2  0  0  0  0
  8 27  2  0  0  0  0
  9 18  1  0  0  0  0
  9 20  1  0  0  0  0
  9 22  1  0  0  0  0
 10 11  2  0  0  0  0
 10 17  1  0  0  0  0
 11 14  2  0  0  0  0
 12 22  1  0  0  0  0
 12 28  2  0  0  0  0
 13 28  1  0  0  0  0
 13 64  1  0  0  0  0
 13 65  1  0  0  0  0
 15 16  1  0  0  0  0
 15 17  1  0  0  0  0
 15 36  1  0  0  0  0
 16 18  1  0  0  0  0
 16 37  1  0  0  0  0
 17 19  1  0  0  0  0
 18 38  1  0  0  0  0
 19 39  1  0  0  0  0
 19 40  1  0  0  0  0
 20 26  2  0  0  0  0
 20 41  1  0  0  0  0
 21 24  1  0  0  0  0
 23 25  1  0  0  0  0
 24 30  1  0  0  0  0
 24 31  1  0  0  0  0
 24 42  1  0  0  0  0
 25 32  1  0  0  0  0
 25 33  1  0  0  0  0
 25 43  1  0  0  0  0
 26 28  1  0  0  0  0
 26 44  1  0  0  0  0
 27 29  1  0  0  0  0
 29 34  1  0  0  0  0
 29 35  1  0  0  0  0
 29 45  1  0  0  0  0
 30 46  1  0  0  0  0
 30 47  1  0  0  0  0
 30 48  1  0  0  0  0
 31 49  1  0  0  0  0
 31 50  1  0  0  0  0
 31 51  1  0  0  0  0
 32 52  1  0  0  0  0
 32 53  1  0  0  0  0
 32 54  1  0  0  0  0
 33 55  1  0  0  0  0
 33 56  1  0  0  0  0
 33 57  1  0  0  0  0
 34 58  1  0  0  0  0
 34 59  1  0  0  0  0
 34 60  1  0  0  0  0
 35 61  1  0  0  0  0
 35 62  1  0  0  0  0
 35 63  1  0  0  0  0
M  CHG  2  11   1  14  -1
M  END
> <PUBCHEM_COMPOUND_CID>
11691726

> <PUBCHEM_CONFORMER_RMSD>
1.2

> <PUBCHEM_CONFORMER_DIVERSEORDER>
2
3
5
4
6
1

> <PUBCHEM_MMFF94_PARTIAL_CHARGES>
33
1 -0.56
10 -0.56
11 0.69
12 -0.66
13 -0.85
14 -0.37
15 0.28
16 0.28
17 0.53
18 0.58
19 0.28
2 -0.43
20 -0.04
21 0.66
22 0.84
23 0.66
24 0.06
25 0.06
26 -0.14
27 0.66
28 0.49
29 0.06
3 -0.43
4 -0.43
41 0.15
44 0.15
5 -0.57
6 -0.57
64 0.4
65 0.4
7 -0.57
8 -0.57
9 -0.47

> <PUBCHEM_EFFECTIVE_ROTOR_COUNT>
13

> <PUBCHEM_PHARMACOPHORE_FEATURES>
12
1 1 acceptor
1 12 donor
1 13 donor
1 5 acceptor
1 6 acceptor
1 7 acceptor
1 8 acceptor
3 24 30 31 hydrophobe
3 25 32 33 hydrophobe
3 29 34 35 hydrophobe
5 1 15 16 17 18 rings
6 9 12 20 22 26 28 rings

> <PUBCHEM_HEAVY_ATOM_COUNT>
35

> <PUBCHEM_ATOM_DEF_STEREO_COUNT>
4

> <PUBCHEM_ATOM_UDEF_STEREO_COUNT>
0

> <PUBCHEM_BOND_DEF_STEREO_COUNT>
0

> <PUBCHEM_BOND_UDEF_STEREO_COUNT>
1

> <PUBCHEM_ISOTOPIC_ATOM_COUNT>
0

> <PUBCHEM_COMPONENT_COUNT>
1

> <PUBCHEM_CACTVS_TAUTO_COUNT>
3

> <PUBCHEM_CONFORMER_ID>
00B266CE00000002

> <PUBCHEM_MMFF94_ENERGY>
75.8456

> <PUBCHEM_FEATURE_SELFOVERLAP>
60.943

> <PUBCHEM_SHAPE_FINGERPRINT>
10190108 129 18049750450617448441
10930396 42 18118379797891353826
1100329 8 18336812126768979050
11135609 187 18190187788760408996
11445158 3 17103463545629793685
11578080 2 18189629387583484588
11763715 3 8332270467534514870
12107698 1 17917144975339618500
12160290 23 17970933255799859171
12597179 24 18339913935170578428
12788726 201 17699283262388913489
13149001 5 18340221721301450478
133893 2 17246687948934953899
13540713 4 18197789993102258108
140371 6 18270689799477488632
14790565 3 18336533976571845273
15775530 1 18267029530000348102
15927050 60 18336815489575637651
17909252 39 17274824614719793036
19319366 153 18339906161823111261
20587220 17 18126590937911846649
20775438 99 18270381897534909582
22182313 1 18337117885337449200
22393880 68 18338230441498861149
23558518 356 18201451241804970696
23559900 14 18412267255361452420
25223398 141 17896059739986022383
3178227 256 18191322489308305865
4340502 62 18336817671888457309
6287921 2 16752122014077602834
6669772 16 18338504301118377166
70251023 43 17987519212864719781

> <PUBCHEM_SHAPE_MULTIPOLES>
643.44
10.69
6.34
2.17
7.33
6.63
-0.21
-7.49
-6.25
0.38
3.66
-1.1
-0.23
3.04

> <PUBCHEM_SHAPE_SELFOVERLAP>
1328.67

> <PUBCHEM_SHAPE_VOLUME>
366.3

> <PUBCHEM_COORDINATE_TYPE>
2
5
10

$$$$
