REMARK  Name = 11691726
REMARK  11 active torsions:
REMARK  status: ('A' for Active; 'I' for Inactive)
REMARK    1  A    between atoms: C_2  and  O_16
REMARK    2  A    between atoms: C_3  and  O_22
REMARK    3  A    between atoms: C_4  and  C_28
REMARK    4  A    between atoms: C_5  and  N_7
REMARK    5  A    between atoms: O_16  and  C_18
REMARK    6  A    between atoms: C_18  and  C_19
REMARK    7  A    between atoms: O_22  and  C_24
REMARK    8  A    between atoms: C_24  and  C_25
REMARK    9  A    between atoms: C_28  and  O_29
REMARK   10  A    between atoms: O_29  and  C_31
REMARK   11  A    between atoms: C_31  and  C_32
REMARK                            x       y       z     vdW  Elec       q    Type
REMARK                         _______ _______ _______ _____ _____    ______ ____
ROOT
ATOM      1  O   UNL     1      -0.923   0.325   1.077  0.00  0.00    -0.329 OA
ATOM      2  C   UNL     1       0.680   1.267  -0.388  0.00  0.00    +0.243 C 
ATOM      3  C   UNL     1       0.883  -0.236  -0.357  0.00  0.00    +0.258 C 
ATOM      4  C   UNL     1      -0.759   1.400   0.121  0.00  0.00    +0.204 C 
ATOM      5  C   UNL     1       0.147  -0.622   0.915  0.00  0.00    +0.251 C 
ENDROOT
BRANCH   5   7
ATOM      6  O   UNL     1       1.403  -2.961   1.856  0.00  0.00    -0.193 OA
ATOM      7  N   UNL     1      -0.407  -1.944   0.849  0.00  0.00    -0.177 N 
ATOM      8  N   UNL     1      -0.310  -4.322   1.248  0.00  0.00    -0.306 NA
ATOM      9  N   UNL     1      -2.067  -5.710   0.621  0.00  0.00    -0.332 N 
ATOM     10  C   UNL     1      -1.660  -2.112   0.279  0.00  0.00    +0.084 C 
ATOM     11  C   UNL     1       0.287  -3.076   1.345  0.00  0.00    +0.276 C 
ATOM     12  C   UNL     1      -2.250  -3.302   0.175  0.00  0.00    +0.065 C 
ATOM     13  C   UNL     1      -1.492  -4.463   0.708  0.00  0.00    +0.193 C 
ATOM     14  H   UNL     1      -1.588  -6.498   0.966  0.00  0.00    +0.145 HD
ATOM     15  H   UNL     1      -2.957  -5.814   0.214  0.00  0.00    +0.145 HD
ENDBRANCH   5   7
BRANCH   2  16
ATOM     16  O   UNL     1       1.571   1.880   0.547  0.00  0.00    -0.446 OA
BRANCH  16  18
ATOM     17  O   UNL     1       3.111   2.214  -1.137  0.00  0.00    -0.250 OA
ATOM     18  C   UNL     1       2.761   2.311   0.033  0.00  0.00    +0.317 C 
BRANCH  18  19
ATOM     19  C   UNL     1       3.600   2.924   1.140  0.00  0.00    +0.099 C 
ATOM     20  C   UNL     1       4.449   1.844   1.800  0.00  0.00    +0.012 C 
ATOM     21  C   UNL     1       4.475   4.051   0.597  0.00  0.00    +0.012 C 
ENDBRANCH  18  19
ENDBRANCH  16  18
ENDBRANCH   2  16
BRANCH   3  22
ATOM     22  O   UNL     1       2.245  -0.611  -0.310  0.00  0.00    -0.444 OA
BRANCH  22  24
ATOM     23  O   UNL     1       2.303  -0.756  -2.611  0.00  0.00    -0.250 OA
ATOM     24  C   UNL     1       2.851  -0.847  -1.520  0.00  0.00    +0.317 C 
BRANCH  24  25
ATOM     25  C   UNL     1       4.300  -1.250  -1.309  0.00  0.00    +0.099 C 
ATOM     26  C   UNL     1       4.394  -2.762  -1.143  0.00  0.00    +0.012 C 
ATOM     27  C   UNL     1       5.170  -0.772  -2.469  0.00  0.00    +0.012 C 
ENDBRANCH  24  25
ENDBRANCH  22  24
ENDBRANCH   3  22
BRANCH   4  28
ATOM     28  C   UNL     1      -1.791   1.177  -0.989  0.00  0.00    +0.242 C 
BRANCH  28  29
ATOM     29  O   UNL     1      -3.083   1.308  -0.427  0.00  0.00    -0.446 OA
BRANCH  29  31
ATOM     30  O   UNL     1      -4.038   0.886  -2.484  0.00  0.00    -0.250 OA
ATOM     31  C   UNL     1      -4.138   1.138  -1.290  0.00  0.00    +0.316 C 
BRANCH  31  32
ATOM     32  C   UNL     1      -5.451   1.319  -0.549  0.00  0.00    +0.099 C 
ATOM     33  C   UNL     1      -5.863   2.786  -0.583  0.00  0.00    +0.012 C 
ATOM     34  C   UNL     1      -6.539   0.433  -1.151  0.00  0.00    +0.012 C 
ENDBRANCH  31  32
ENDBRANCH  29  31
ENDBRANCH  28  29
ENDBRANCH   4  28
TORSDOF 11
REMARK  Name = 11691726
REMARK  11 active torsions:
REMARK  status: ('A' for Active; 'I' for Inactive)
REMARK    1  A    between atoms: C_2  and  O_16
REMARK    2  A    between atoms: C_3  and  O_22
REMARK    3  A    between atoms: C_4  and  C_28
REMARK    4  A    between atoms: C_5  and  N_7
REMARK    5  A    between atoms: O_16  and  C_18
REMARK    6  A    between atoms: C_18  and  C_19
REMARK    7  A    between atoms: O_22  and  C_24
REMARK    8  A    between atoms: C_24  and  C_25
REMARK    9  A    between atoms: C_28  and  O_29
REMARK   10  A    between atoms: O_29  and  C_31
REMARK   11  A    between atoms: C_31  and  C_32
REMARK                            x       y       z     vdW  Elec       q    Type
REMARK                         _______ _______ _______ _____ _____    ______ ____
ROOT
ATOM      1  N   UNL     1      -1.296   2.833   1.834  0.00  0.00    +0.000 NA
ATOM      2  N   UNL     1      -1.592   2.891   2.934  0.00  0.00    +0.000 NA
ENDROOT
TORSDOF 0
