REMARK  Name = 11690019
REMARK  5 active torsions:
REMARK  status: ('A' for Active; 'I' for Inactive)
REMARK    1  A    between atoms: C_4  and  C_15
REMARK    2  A    between atoms: C_5  and  N_28
REMARK    3  A    between atoms: N_10  and  C_19
REMARK    4  A    between atoms: C_19  and  C_21
REMARK    5  A    between atoms: C_29  and  O_31
REMARK                            x       y       z     vdW  Elec       q    Type
REMARK                         _______ _______ _______ _____ _____    ______ ____
ROOT
ATOM      1  N   UNL     1      -1.499  -0.526   0.741  0.00  0.00    -0.326 NA
ATOM      2  N   UNL     1      -1.671   1.679  -0.216  0.00  0.00    -0.326 NA
ATOM      3  N   UNL     1      -3.430  -1.869   1.015  0.00  0.00    -0.334 N 
ATOM      4  C   UNL     1      -0.999   0.648   0.322  0.00  0.00    +0.160 C 
ATOM      5  C   UNL     1      -3.643   0.325   0.053  0.00  0.00    +0.210 C 
ATOM      6  C   UNL     1      -2.834  -0.655   0.591  0.00  0.00    +0.193 C 
ATOM      7  C   UNL     1      -3.000   1.482  -0.337  0.00  0.00    +0.193 C 
ATOM      8  H   UNL     1      -2.873  -2.582   1.401  0.00  0.00    +0.144 HD
ATOM      9  H   UNL     1      -4.402  -1.998   0.922  0.00  0.00    +0.144 HD
ATOM     10  N   UNL     1      -3.773   2.530  -0.896  0.00  0.00    -0.334 N 
ATOM     11  H   UNL     1      -3.337   3.365  -1.181  0.00  0.00    +0.144 HD
ATOM     12  H   UNL     1      -4.746   2.423  -0.999  0.00  0.00    +0.144 HD
ENDROOT
BRANCH   4  18
ATOM     13  N   UNL     1       2.416   0.352   0.965  0.00  0.00    -0.229 N 
ATOM     14  N   UNL     1       1.170  -0.157   0.991  0.00  0.00    -0.155 NA
ATOM     15  N   UNL     1       3.589   2.359   0.298  0.00  0.00    -0.225 NA
ATOM     16  C   UNL     1       1.182   1.952   0.104  0.00  0.00    +0.066 A 
ATOM     17  C   UNL     1       2.482   1.610   0.445  0.00  0.00    +0.162 A 
ATOM     18  C   UNL     1       0.424   0.820   0.466  0.00  0.00    +0.189 A 
ATOM     19  C   UNL     1       0.962   3.214  -0.460  0.00  0.00    +0.007 C 
ATOM     20  C   UNL     1       2.074   4.037  -0.638  0.00  0.00    +0.021 C 
ATOM     21  C   UNL     1       3.326   3.569  -0.252  0.00  0.00    +0.101 C 
BRANCH  13  22
ATOM     22  C   UNL     1       3.517  -0.439   1.462  0.00  0.00    +0.158 C 
BRANCH  22  24
ATOM     23  F   UNL     1       2.638  -3.059   0.871  0.00  0.00    -0.204 F 
ATOM     24  C   UNL     1       4.126  -1.278   0.371  0.00  0.00    +0.030 C 
ATOM     25  C   UNL     1       3.642  -2.558   0.138  0.00  0.00    +0.138 C 
ATOM     26  C   UNL     1       5.167  -0.759  -0.387  0.00  0.00    -0.000 C 
ATOM     27  C   UNL     1       4.209  -3.333  -0.874  0.00  0.00    +0.029 C 
ATOM     28  C   UNL     1       5.734  -1.534  -1.399  0.00  0.00    -0.000 C 
ATOM     29  C   UNL     1       5.255  -2.821  -1.642  0.00  0.00    +0.002 C 
ENDBRANCH  22  24
ENDBRANCH  13  22
ENDBRANCH   4  18
BRANCH   5  31
ATOM     30  O   UNL     1      -5.284  -2.153  -0.396  0.00  0.00    -0.226 OA
ATOM     31  N   UNL     1      -5.023   0.157  -0.086  0.00  0.00    -0.258 N 
ATOM     32  C   UNL     1      -5.737  -1.019  -0.293  0.00  0.00    +0.402 C 
ATOM     33  H   UNL     1      -5.561   0.979  -0.030  0.00  0.00    +0.154 HD
BRANCH  32  34
ATOM     34  O   UNL     1      -7.073  -0.728  -0.372  0.00  0.00    -0.431 OA
ATOM     35  C   UNL     1      -7.947  -1.842  -0.586  0.00  0.00    +0.257 C 
ENDBRANCH  32  34
ENDBRANCH   5  31
TORSDOF 5
