REMARK  Name = 11696677
REMARK  9 active torsions:
REMARK  status: ('A' for Active; 'I' for Inactive)
REMARK    1  A    between atoms: C_7  and  O_16
REMARK    2  A    between atoms: C_8  and  O_18
REMARK    3  A    between atoms: O_18  and  C_20
REMARK    4  A    between atoms: C_20  and  C_21
REMARK    5  A    between atoms: C_22  and  C_23
REMARK    6  A    between atoms: C_23  and  O_24
REMARK    7  A    between atoms: C_23  and  C_26
REMARK    8  A    between atoms: C_26  and  C_27
REMARK    9  A    between atoms: C_27  and  C_28
REMARK                            x       y       z     vdW  Elec       q    Type
REMARK                         _______ _______ _______ _____ _____    ______ ____
ROOT
ATOM      1  O   UNL     1       2.347  -1.817   0.475  0.00  0.00    -0.351 OA
ATOM      2  O   UNL     1       3.575   1.585  -0.243  0.00  0.00    -0.450 OA
ATOM      3  O   UNL     1       5.559   2.403  -0.906  0.00  0.00    -0.250 OA
ATOM      4  C   UNL     1       2.997  -0.789  -0.288  0.00  0.00    +0.154 C 
ATOM      5  C   UNL     1       2.917   0.533   0.479  0.00  0.00    +0.199 C 
ATOM      6  C   UNL     1       1.467   0.926   0.806  0.00  0.00    +0.085 C 
ATOM      7  C   UNL     1       4.499  -1.126  -0.317  0.00  0.00    +0.149 C 
ATOM      8  C   UNL     1       0.783  -0.247   1.532  0.00  0.00    +0.199 C 
ATOM      9  C   UNL     1       0.970  -1.569   0.771  0.00  0.00    +0.155 C 
ATOM     10  C   UNL     1       5.337   0.003  -0.938  0.00  0.00    +0.128 C 
ATOM     11  C   UNL     1       2.415  -0.732  -1.714  0.00  0.00    +0.036 C 
ATOM     12  C   UNL     1       1.418   2.213   1.641  0.00  0.00    +0.008 C 
ATOM     13  C   UNL     1       4.856   1.425  -0.661  0.00  0.00    +0.319 C 
ATOM     14  C   UNL     1       0.469  -2.756   1.591  0.00  0.00    +0.036 C 
ATOM     15  C   UNL     1       6.803  -0.143  -0.520  0.00  0.00    +0.014 C 
ENDROOT
BRANCH   7  16
ATOM     16  O   UNL     1       4.723  -2.324  -1.064  0.00  0.00    -0.381 OA
ATOM     17  H   UNL     1       4.200  -3.045  -0.682  0.00  0.00    +0.210 HD
ENDBRANCH   7  16
BRANCH   8  18
ATOM     18  O   UNL     1      -0.613   0.003   1.670  0.00  0.00    -0.447 OA
BRANCH  18  20
ATOM     19  O   UNL     1      -0.850   0.100  -0.626  0.00  0.00    -0.245 OA
ATOM     20  C   UNL     1      -1.304   0.155   0.505  0.00  0.00    +0.341 C 
BRANCH  20  21
ATOM     21  C   UNL     1      -2.721   0.406   0.848  0.00  0.00    +0.080 C 
ATOM     22  C   UNL     1      -3.622   0.592  -0.126  0.00  0.00    +0.009 C 
BRANCH  22  23
ATOM     23  C   UNL     1      -5.080   0.850   0.139  0.00  0.00    +0.133 C 
BRANCH  23  24
ATOM     24  O   UNL     1      -5.408   2.147  -0.357  0.00  0.00    -0.380 OA
ATOM     25  H   UNL     1      -4.845   2.809   0.073  0.00  0.00    +0.211 HD
ENDBRANCH  23  24
BRANCH  23  26
ATOM     26  C   UNL     1      -5.963  -0.210  -0.534  0.00  0.00    +0.034 C 
BRANCH  26  27
ATOM     27  C   UNL     1      -7.455   0.058  -0.310  0.00  0.00    +0.003 C 
BRANCH  27  28
ATOM     28  C   UNL     1      -8.319  -0.981  -1.025  0.00  0.00    +0.000 C 
ATOM     29  C   UNL     1      -9.801  -0.703  -0.832  0.00  0.00    +0.000 C 
ENDBRANCH  27  28
ENDBRANCH  26  27
ENDBRANCH  23  26
ENDBRANCH  22  23
ENDBRANCH  20  21
ENDBRANCH  18  20
ENDBRANCH   8  18
TORSDOF 9
