REMARK  Name = 11691484
REMARK  7 active torsions:
REMARK  status: ('A' for Active; 'I' for Inactive)
REMARK    1  A    between atoms: C_3  and  O_22
REMARK    2  A    between atoms: C_4  and  O_7
REMARK    3  A    between atoms: N_9  and  C_12
REMARK    4  A    between atoms: C_15  and  S_18
REMARK    5  A    between atoms: O_22  and  C_25
REMARK    6  A    between atoms: C_30  and  O_31
REMARK    7  A    between atoms: O_31  and  C_32
REMARK                            x       y       z     vdW  Elec       q    Type
REMARK                         _______ _______ _______ _____ _____    ______ ____
ROOT
ATOM      1  N   UNL     1      -0.683  -1.373  -0.826  0.00  0.00    -0.212 NA
ATOM      2  N   UNL     1       1.724  -1.299  -0.912  0.00  0.00    -0.231 NA
ATOM      3  C   UNL     1      -0.681  -0.034  -0.657  0.00  0.00    +0.233 C 
ATOM      4  C   UNL     1       0.467   0.730  -0.606  0.00  0.00    +0.244 C 
ATOM      5  C   UNL     1       1.652   0.037  -0.741  0.00  0.00    +0.139 C 
ATOM      6  C   UNL     1       0.536  -1.932  -0.945  0.00  0.00    +0.254 C 
ATOM      7  N   UNL     1       2.863   0.772  -0.696  0.00  0.00    -0.312 N 
ATOM      8  H   UNL     1       2.781   1.694  -1.030  0.00  0.00    +0.149 HD
ENDROOT
BRANCH   7  10
ATOM      9  N   UNL     1       6.551   0.731  -0.443  0.00  0.00    -0.390 NA
ATOM     10  C   UNL     1       4.157   0.439  -0.266  0.00  0.00    +0.142 C 
ATOM     11  C   UNL     1       5.286   1.017  -0.824  0.00  0.00    +0.111 C 
ATOM     12  C   UNL     1       4.339  -0.495   0.749  0.00  0.00    +0.004 C 
ATOM     13  C   UNL     1       6.688  -0.181   0.546  0.00  0.00    +0.234 C 
ATOM     14  C   UNL     1       5.625  -0.816   1.168  0.00  0.00    +0.049 C 
ATOM     15  C   UNL     1       5.156   2.026  -1.919  0.00  0.00    +0.064 C 
BRANCH  13  16
ATOM     16  S   UNL     1       8.345  -0.482   0.969  0.00  0.00    +0.038 S 
ATOM     17  O   UNL     1       9.035   0.800   1.058  0.00  0.00    -0.166 OA
ATOM     18  O   UNL     1       8.393  -1.400   2.102  0.00  0.00    -0.166 OA
ATOM     19  C   UNL     1       9.015  -1.359  -0.429  0.00  0.00    +0.185 C 
ENDBRANCH  13  16
ENDBRANCH   7  10
BRANCH   4  20
ATOM     20  O   UNL     1       0.419   2.073  -0.434  0.00  0.00    -0.338 OA
ATOM     21  C   UNL     1       0.446   2.564   0.909  0.00  0.00    +0.175 C 
ENDBRANCH   4  20
BRANCH   3  22
ATOM     22  O   UNL     1      -1.905   0.570  -0.535  0.00  0.00    -0.465 OA
BRANCH  22  25
ATOM     23  O   UNL     1      -7.701  -1.376  -0.871  0.00  0.00    -0.226 OA
ATOM     24  N   UNL     1      -5.766  -0.782   0.273  0.00  0.00    -0.246 N 
ATOM     25  C   UNL     1      -2.946  -0.204   0.049  0.00  0.00    +0.171 C 
ATOM     26  C   UNL     1      -3.895   0.731   0.798  0.00  0.00    +0.065 C 
ATOM     27  C   UNL     1      -3.694  -0.974  -1.042  0.00  0.00    +0.065 C 
ATOM     28  C   UNL     1      -5.105  -0.023   1.341  0.00  0.00    +0.100 C 
ATOM     29  C   UNL     1      -4.905  -1.702  -0.471  0.00  0.00    +0.100 C 
ATOM     30  C   UNL     1      -7.133  -0.705  -0.010  0.00  0.00    +0.405 C 
BRANCH  30  31
ATOM     31  O   UNL     1      -7.786   0.204   0.779  0.00  0.00    -0.438 OA
BRANCH  31  32
ATOM     32  C   UNL     1      -9.193   0.343   0.551  0.00  0.00    +0.171 C 
ATOM     33  C   UNL     1      -9.426   1.395  -0.523  0.00  0.00    +0.047 C 
ATOM     34  C   UNL     1      -9.879   0.707   1.859  0.00  0.00    +0.047 C 
ENDBRANCH  31  32
ENDBRANCH  30  31
ENDBRANCH  22  25
ENDBRANCH   3  22
TORSDOF 7
