REMARK  Name = 11695449
REMARK  11 active torsions:
REMARK  status: ('A' for Active; 'I' for Inactive)
REMARK    1  A    between atoms: O_1  and  C_3
REMARK    2  A    between atoms: O_1  and  C_12
REMARK    3  A    between atoms: C_3  and  C_4
REMARK    4  A    between atoms: C_4  and  C_6
REMARK    5  A    between atoms: C_6  and  O_7
REMARK    6  A    between atoms: O_7  and  C_8
REMARK    7  A    between atoms: C_12  and  C_13
REMARK    8  A    between atoms: C_14  and  S_15
REMARK    9  A    between atoms: S_15  and  S_16
REMARK   10  A    between atoms: S_16  and  C_17
REMARK   11  A    between atoms: C_17  and  C_19
REMARK                            x       y       z     vdW  Elec       q    Type
REMARK                         _______ _______ _______ _____ _____    ______ ____
ROOT
ATOM      1  O   UNL     1      -0.123   1.144   0.284  0.00  0.00    -0.443 OA
ENDROOT
BRANCH   1   3
ATOM      2  O   UNL     1      -1.532   1.473  -1.510  0.00  0.00    -0.249 OA
ATOM      3  C   UNL     1      -1.304   1.027  -0.395  0.00  0.00    +0.329 C 
BRANCH   3   4
ATOM      4  C   UNL     1      -2.280   0.258   0.462  0.00  0.00    +0.219 C 
BRANCH   4   6
ATOM      5  O   UNL     1      -4.032   0.424  -1.221  0.00  0.00    -0.249 OA
ATOM      6  C   UNL     1      -3.655   0.041  -0.122  0.00  0.00    +0.328 C 
BRANCH   6   7
ATOM      7  O   UNL     1      -4.409  -0.657   0.779  0.00  0.00    -0.455 OA
BRANCH   7   8
ATOM      8  C   UNL     1      -5.749  -0.947   0.370  0.00  0.00    +0.136 C 
ATOM      9  C   UNL     1      -5.697  -1.784  -0.907  0.00  0.00    +0.044 C 
ATOM     10  C   UNL     1      -6.415  -1.730   1.499  0.00  0.00    +0.044 C 
ATOM     11  C   UNL     1      -6.480   0.372   0.128  0.00  0.00    +0.044 C 
ENDBRANCH   7   8
ENDBRANCH   6   7
ENDBRANCH   4   6
ENDBRANCH   3   4
ENDBRANCH   1   3
BRANCH   1  12
ATOM     12  C   UNL     1       0.913   1.857  -0.399  0.00  0.00    +0.235 C 
BRANCH  12  13
ATOM     13  C   UNL     1       2.126   1.894   0.474  0.00  0.00    +0.028 C 
ATOM     14  C   UNL     1       3.314   1.396   0.106  0.00  0.00    +0.041 C 
BRANCH  14  15
ATOM     15  S   UNL     1       4.699   1.462   1.138  0.00  0.00    -0.055 S 
BRANCH  15  16
ATOM     16  S   UNL     1       6.078   0.536  -0.073  0.00  0.00    -0.079 S 
BRANCH  16  17
ATOM     17  C   UNL     1       5.883  -1.199   0.405  0.00  0.00    +0.058 C 
ATOM     18  C   UNL     1       6.647  -1.436   1.705  0.00  0.00    +0.013 C 
BRANCH  17  19
ATOM     19  C   UNL     1       6.368  -2.154  -0.696  0.00  0.00    +0.012 C 
ATOM     20  C   UNL     1       5.650  -1.977  -2.028  0.00  0.00    +0.001 C 
ENDBRANCH  17  19
ENDBRANCH  16  17
ENDBRANCH  15  16
ENDBRANCH  14  15
ENDBRANCH  12  13
ENDBRANCH   1  12
TORSDOF 11
