11690019
  -OEChem-03292013303D

 47 50  0     0  0  0  0  0  0999 V2000
    2.6383   -3.0587    0.8713 F   0  0  0  0  0  0  0  0  0  0  0  0
   -7.0727   -0.7284   -0.3716 O   0  0  0  0  0  0  0  0  0  0  0  0
   -5.2837   -2.1527   -0.3961 O   0  0  0  0  0  0  0  0  0  0  0  0
    2.4155    0.3517    0.9653 N   0  0  0  0  0  0  0  0  0  0  0  0
    1.1704   -0.1572    0.9909 N   0  0  0  0  0  0  0  0  0  0  0  0
    3.5890    2.3587    0.2981 N   0  0  0  0  0  0  0  0  0  0  0  0
   -1.4991   -0.5264    0.7411 N   0  0  0  0  0  0  0  0  0  0  0  0
   -1.6709    1.6785   -0.2158 N   0  0  0  0  0  0  0  0  0  0  0  0
   -5.0226    0.1569   -0.0863 N   0  0  0  0  0  0  0  0  0  0  0  0
   -3.4302   -1.8689    1.0146 N   0  0  0  0  0  0  0  0  0  0  0  0
   -3.7733    2.5301   -0.8962 N   0  0  0  0  0  0  0  0  0  0  0  0
    1.1822    1.9517    0.1045 C   0  0  0  0  0  0  0  0  0  0  0  0
    2.4817    1.6104    0.4453 C   0  0  0  0  0  0  0  0  0  0  0  0
    3.5171   -0.4389    1.4619 C   0  0  0  0  0  0  0  0  0  0  0  0
    0.4242    0.8204    0.4661 C   0  0  0  0  0  0  0  0  0  0  0  0
    4.1262   -1.2781    0.3715 C   0  0  0  0  0  0  0  0  0  0  0  0
   -0.9988    0.6476    0.3223 C   0  0  0  0  0  0  0  0  0  0  0  0
    0.9619    3.2140   -0.4604 C   0  0  0  0  0  0  0  0  0  0  0  0
    2.0742    4.0368   -0.6382 C   0  0  0  0  0  0  0  0  0  0  0  0
    3.6419   -2.5579    0.1376 C   0  0  0  0  0  0  0  0  0  0  0  0
    5.1667   -0.7589   -0.3871 C   0  0  0  0  0  0  0  0  0  0  0  0
    3.3258    3.5690   -0.2515 C   0  0  0  0  0  0  0  0  0  0  0  0
   -3.6426    0.3245    0.0526 C   0  0  0  0  0  0  0  0  0  0  0  0
   -2.8337   -0.6554    0.5905 C   0  0  0  0  0  0  0  0  0  0  0  0
   -3.0001    1.4820   -0.3369 C   0  0  0  0  0  0  0  0  0  0  0  0
    4.2087   -3.3333   -0.8739 C   0  0  0  0  0  0  0  0  0  0  0  0
    5.7336   -1.5344   -1.3986 C   0  0  0  0  0  0  0  0  0  0  0  0
    5.2546   -2.8215   -1.6420 C   0  0  0  0  0  0  0  0  0  0  0  0
   -5.7368   -1.0193   -0.2934 C   0  0  0  0  0  0  0  0  0  0  0  0
   -7.9474   -1.8423   -0.5856 C   0  0  0  0  0  0  0  0  0  0  0  0
    4.2603    0.2384    1.8997 H   0  0  0  0  0  0  0  0  0  0  0  0
    3.1489   -1.0628    2.2855 H   0  0  0  0  0  0  0  0  0  0  0  0
   -0.0204    3.5643   -0.7568 H   0  0  0  0  0  0  0  0  0  0  0  0
    1.9642    5.0255   -1.0712 H   0  0  0  0  0  0  0  0  0  0  0  0
    5.5518    0.2402   -0.2052 H   0  0  0  0  0  0  0  0  0  0  0  0
    4.2011    4.1994   -0.3845 H   0  0  0  0  0  0  0  0  0  0  0  0
    3.8356   -4.3355   -1.0631 H   0  0  0  0  0  0  0  0  0  0  0  0
    6.5486   -1.1362   -1.9961 H   0  0  0  0  0  0  0  0  0  0  0  0
    5.6960   -3.4254   -2.4294 H   0  0  0  0  0  0  0  0  0  0  0  0
   -5.5608    1.0105   -0.2110 H   0  0  0  0  0  0  0  0  0  0  0  0
   -2.7873   -2.5699    1.3657 H   0  0  0  0  0  0  0  0  0  0  0  0
   -4.3202   -1.8057    1.4941 H   0  0  0  0  0  0  0  0  0  0  0  0
   -4.5863    2.2816   -1.4462 H   0  0  0  0  0  0  0  0  0  0  0  0
   -3.2687    3.3672   -1.1627 H   0  0  0  0  0  0  0  0  0  0  0  0
   -8.9731   -1.4659   -0.6249 H   0  0  0  0  0  0  0  0  0  0  0  0
   -7.7147   -2.3284   -1.5377 H   0  0  0  0  0  0  0  0  0  0  0  0
   -7.8652   -2.5522    0.2428 H   0  0  0  0  0  0  0  0  0  0  0  0
  1 20  1  0  0  0  0
  2 29  1  0  0  0  0
  2 30  1  0  0  0  0
  3 29  2  0  0  0  0
  4  5  1  0  0  0  0
  4 13  1  0  0  0  0
  4 14  1  0  0  0  0
  5 15  2  0  0  0  0
  6 13  1  0  0  0  0
  6 22  2  0  0  0  0
  7 17  1  0  0  0  0
  7 24  2  0  0  0  0
  8 17  2  0  0  0  0
  8 25  1  0  0  0  0
  9 23  1  0  0  0  0
  9 29  1  0  0  0  0
  9 40  1  0  0  0  0
 10 24  1  0  0  0  0
 10 41  1  0  0  0  0
 10 42  1  0  0  0  0
 11 25  1  0  0  0  0
 11 43  1  0  0  0  0
 11 44  1  0  0  0  0
 12 13  2  0  0  0  0
 12 15  1  0  0  0  0
 12 18  1  0  0  0  0
 14 16  1  0  0  0  0
 14 31  1  0  0  0  0
 14 32  1  0  0  0  0
 15 17  1  0  0  0  0
 16 20  1  0  0  0  0
 16 21  2  0  0  0  0
 18 19  2  0  0  0  0
 18 33  1  0  0  0  0
 19 22  1  0  0  0  0
 19 34  1  0  0  0  0
 20 26  2  0  0  0  0
 21 27  1  0  0  0  0
 21 35  1  0  0  0  0
 22 36  1  0  0  0  0
 23 24  1  0  0  0  0
 23 25  2  0  0  0  0
 26 28  1  0  0  0  0
 26 37  1  0  0  0  0
 27 28  2  0  0  0  0
 27 38  1  0  0  0  0
 28 39  1  0  0  0  0
 30 45  1  0  0  0  0
 30 46  1  0  0  0  0
 30 47  1  0  0  0  0
M  END
> <PUBCHEM_COMPOUND_CID>
11690019

> <PUBCHEM_CONFORMER_RMSD>
0.8

> <PUBCHEM_CONFORMER_DIVERSEORDER>
1
37
61
124
84
27
76
119
137
53
85
23
113
126
132
64
136
69
34
11
71
93
15
57
140
139
127
56
129
43
112
13
51
111
72
138
99
50
89
12
121
46
117
44
133
26
122
88
120
110
20
14
67
131
87
62
30
22
95
70
86
118
83
19
78
32
134
59
94
63
29
31
125
33
123
109
141
17
128
25
115
107
92
16
4
38
65
28
24
45
108
60
81
7
106
116
55
36
66
97
18
21
102
135
42
90
73
114
58
96
40
41
35
5
100
82
77
48
39
98
101
68
105
91
6
54
2
8
10
3
9
79
103
74
104
49
80
52
75
130
47

> <PUBCHEM_MMFF94_PARTIAL_CHARGES>
41
1 -0.19
10 -0.9
11 -0.9
13 0.11
14 0.4
15 0.23
16 -0.14
17 0.67
18 -0.15
19 -0.15
2 -0.43
20 0.19
21 -0.15
22 0.16
23 0.12
24 0.41
25 0.41
26 -0.15
27 -0.15
28 -0.15
29 0.78
3 -0.57
30 0.28
33 0.15
34 0.15
35 0.15
36 0.15
37 0.15
38 0.15
39 0.15
4 0.31
40 0.37
41 0.4
42 0.4
43 0.4
44 0.4
5 -0.71
6 -0.57
7 -0.62
8 -0.62
9 -0.55

> <PUBCHEM_EFFECTIVE_ROTOR_COUNT>
6

> <PUBCHEM_PHARMACOPHORE_FEATURES>
13
1 10 donor
1 11 cation
1 11 donor
1 3 acceptor
1 5 acceptor
1 6 acceptor
1 9 donor
3 7 10 24 cation
3 7 8 17 cation
5 4 5 12 13 15 rings
6 16 20 21 26 27 28 rings
6 6 12 13 18 19 22 rings
6 7 8 17 23 24 25 rings

> <PUBCHEM_HEAVY_ATOM_COUNT>
30

> <PUBCHEM_ATOM_DEF_STEREO_COUNT>
0

> <PUBCHEM_ATOM_UDEF_STEREO_COUNT>
0

> <PUBCHEM_BOND_DEF_STEREO_COUNT>
0

> <PUBCHEM_BOND_UDEF_STEREO_COUNT>
0

> <PUBCHEM_ISOTOPIC_ATOM_COUNT>
0

> <PUBCHEM_COMPONENT_COUNT>
1

> <PUBCHEM_CACTVS_TAUTO_COUNT>
13

> <PUBCHEM_CONFORMER_ID>
00B2602300000001

> <PUBCHEM_MMFF94_ENERGY>
98.8193

> <PUBCHEM_FEATURE_SELFOVERLAP>
66.227

> <PUBCHEM_SHAPE_FINGERPRINT>
11621639 208 17976548526077298339
117089 54 17914627050937126894
12107183 9 18198635328639979329
12166972 35 18130790053356473505
12522641 33 18196940088232583340
12522641 68 17329723527144089884
12553582 1 18191313667714394968
12788726 201 17755588136097426712
13008946 62 16959879679742978861
13009979 54 17988087685882632648
131258 43 17917445202977090476
13383661 66 17344081671602335182
13533116 47 18272650194829102993
1361 2 18411980277893851618
13690498 29 18261114011308699357
13989917 61 18267024041085891495
14251757 5 17901393299014713124
14347332 77 18411416190211485525
15001296 14 18338225085358488663
15361156 5 18188500171919774999
17492 89 18411978049016399205
17909252 39 18411987962070197408
20645477 70 18335696182612048576
20775438 99 18265606766118007154
21279426 13 18260817191041782285
21307412 95 17981890739626906206
221357 26 18334574642191859313
23559900 14 18336542806612889505
255183 451 18341899575554780940
3004659 81 18334290989671835643
4144715 1 18187931742141498097
4280585 95 18263360288300726874
4394409 98 14880345201957748998
46194498 28 18334855047716477700
465052 167 17846499193229189590
5309563 4 18340489946325275230
5372103 7 16299815211916627382
57816373 69 17346876758433387383
6025842 7 18337670944266368704
6669772 16 18125733524647150452
6823239 73 18409444757225222896
9709674 26 18261672666289380889
9831232 110 18411133624350407975

> <PUBCHEM_SHAPE_MULTIPOLES>
558.53
15.92
4.57
1.1
25.18
2.15
0.03
-14.67
4.98
-5.49
1.38
-1.03
-0.43
1.07

> <PUBCHEM_SHAPE_SELFOVERLAP>
1239.281

> <PUBCHEM_SHAPE_VOLUME>
298

> <PUBCHEM_COORDINATE_TYPE>
2
5
10

$$$$
