REMARK  Name = 117072390
REMARK  9 active torsions:
REMARK  status: ('A' for Active; 'I' for Inactive)
REMARK    1  A    between atoms: C_6  and  C_24
REMARK    2  A    between atoms: C_6  and  O_28
REMARK    3  A    between atoms: C_9  and  O_21
REMARK    4  A    between atoms: C_24  and  C_25
REMARK    5  A    between atoms: C_25  and  O_26
REMARK    6  A    between atoms: O_28  and  C_30
REMARK    7  A    between atoms: C_30  and  C_31
REMARK    8  A    between atoms: C_31  and  C_32
REMARK    9  A    between atoms: C_32  and  C_33
REMARK                            x       y       z     vdW  Elec       q    Type
REMARK                         _______ _______ _______ _____ _____    ______ ____
ROOT
ATOM      1  O   UNL     1       6.747   2.794  -0.702  0.00  0.00    -0.291 OA
ATOM      2  C   UNL     1      -0.590  -1.325   0.103  0.00  0.00    +0.043 C 
ATOM      3  C   UNL     1       0.088  -0.389   1.129  0.00  0.00    +0.004 C 
ATOM      4  C   UNL     1       1.620  -0.504   1.150  0.00  0.00    +0.003 C 
ATOM      5  C   UNL     1       2.175  -0.147  -0.267  0.00  0.00    +0.030 C 
ATOM      6  C   UNL     1      -2.080  -1.006   0.409  0.00  0.00    +0.188 C 
ATOM      7  C   UNL     1      -0.073  -0.924  -1.294  0.00  0.00    +0.033 C 
ATOM      8  C   UNL     1       3.757  -0.133  -0.324  0.00  0.00    +0.018 C 
ATOM      9  C   UNL     1       1.468  -0.950  -1.402  0.00  0.00    +0.111 C 
ATOM     10  C   UNL     1      -0.684  -0.656   2.418  0.00  0.00    +0.004 C 
ATOM     11  C   UNL     1      -2.134  -0.893   1.951  0.00  0.00    +0.047 C 
ATOM     12  C   UNL     1       2.212   0.442   2.208  0.00  0.00    +0.004 C 
ATOM     13  C   UNL     1      -0.320  -2.831   0.378  0.00  0.00    +0.004 C 
ATOM     14  C   UNL     1       4.296   0.717   0.835  0.00  0.00    -0.042 C 
ATOM     15  C   UNL     1       3.733   0.416   2.203  0.00  0.00    +0.022 C 
ATOM     16  C   UNL     1       4.185   0.493  -1.684  0.00  0.00    +0.012 C 
ATOM     17  C   UNL     1       4.393  -1.535  -0.195  0.00  0.00    +0.004 C 
ATOM     18  C   UNL     1       5.640   0.932  -1.721  0.00  0.00    +0.069 C 
ATOM     19  C   UNL     1       5.242   1.661   0.702  0.00  0.00    +0.029 C 
ATOM     20  C   UNL     1       5.923   1.889  -0.594  0.00  0.00    +0.173 C 
ENDROOT
BRANCH   9  21
ATOM     21  O   UNL     1       1.917  -2.297  -1.444  0.00  0.00    -0.384 OA
ATOM     22  H   UNL     1       2.885  -2.313  -1.512  0.00  0.00    +0.210 HD
ENDBRANCH   9  21
BRANCH   6  24
ATOM     23  O   UNL     1      -3.815  -2.623   0.640  0.00  0.00    -0.290 OA
ATOM     24  C   UNL     1      -3.072  -2.000  -0.117  0.00  0.00    +0.216 C 
BRANCH  24  25
ATOM     25  C   UNL     1      -3.101  -2.188  -1.619  0.00  0.00    +0.206 C 
BRANCH  25  26
ATOM     26  O   UNL     1      -4.399  -2.535  -2.053  0.00  0.00    -0.375 OA
ATOM     27  H   UNL     1      -4.398  -2.650  -3.016  0.00  0.00    +0.211 HD
ENDBRANCH  25  26
ENDBRANCH  24  25
ENDBRANCH   6  24
BRANCH   6  28
ATOM     28  O   UNL     1      -2.500   0.242  -0.134  0.00  0.00    -0.449 OA
BRANCH  28  30
ATOM     29  O   UNL     1      -4.537   0.030   0.930  0.00  0.00    -0.250 OA
ATOM     30  C   UNL     1      -3.763   0.645   0.210  0.00  0.00    +0.317 C 
BRANCH  30  31
ATOM     31  C   UNL     1      -4.051   1.979  -0.442  0.00  0.00    +0.110 C 
BRANCH  31  32
ATOM     32  C   UNL     1      -5.457   2.482  -0.120  0.00  0.00    +0.012 C 
BRANCH  32  33
ATOM     33  C   UNL     1      -5.718   3.847  -0.753  0.00  0.00    +0.001 C 
ATOM     34  C   UNL     1      -7.102   4.369  -0.403  0.00  0.00    +0.000 C 
ENDBRANCH  32  33
ENDBRANCH  31  32
ENDBRANCH  30  31
ENDBRANCH  28  30
ENDBRANCH   6  28
TORSDOF 9
