REMARK  Name = 117072385
REMARK  6 active torsions:
REMARK  status: ('A' for Active; 'I' for Inactive)
REMARK    1  A    between atoms: C_6  and  O_21
REMARK    2  A    between atoms: C_6  and  C_26
REMARK    3  A    between atoms: C_9  and  O_23
REMARK    4  A    between atoms: C_26  and  C_27
REMARK    5  A    between atoms: C_27  and  O_28
REMARK    6  A    between atoms: O_28  and  C_30
REMARK                            x       y       z     vdW  Elec       q    Type
REMARK                         _______ _______ _______ _____ _____    ______ ____
ROOT
ATOM      1  O   UNL     1       6.527  -1.531  -1.686  0.00  0.00    -0.287 OA
ATOM      2  C   UNL     1      -1.148   0.707   0.250  0.00  0.00    +0.031 C 
ATOM      3  C   UNL     1       0.005   1.587  -0.281  0.00  0.00    +0.003 C 
ATOM      4  C   UNL     1       1.360   1.288   0.378  0.00  0.00    +0.003 C 
ATOM      5  C   UNL     1       1.739  -0.208   0.095  0.00  0.00    +0.034 C 
ATOM      6  C   UNL     1      -2.325   1.313  -0.562  0.00  0.00    +0.143 C 
ATOM      7  C   UNL     1      -0.791  -0.760  -0.064  0.00  0.00    +0.032 C 
ATOM      8  C   UNL     1      -0.562   3.002  -0.194  0.00  0.00    +0.003 C 
ATOM      9  C   UNL     1       0.587  -1.185   0.491  0.00  0.00    +0.111 C 
ATOM     10  C   UNL     1       3.176  -0.574   0.641  0.00  0.00    +0.036 C 
ATOM     11  C   UNL     1      -2.055   2.834  -0.545  0.00  0.00    +0.034 C 
ATOM     12  C   UNL     1       2.440   2.246  -0.157  0.00  0.00    +0.004 C 
ATOM     13  C   UNL     1      -1.414   0.894   1.770  0.00  0.00    +0.003 C 
ATOM     14  C   UNL     1       3.829   1.905   0.370  0.00  0.00    +0.022 C 
ATOM     15  C   UNL     1       4.156   0.463   0.080  0.00  0.00    -0.038 C 
ATOM     16  C   UNL     1       3.287  -0.555   2.183  0.00  0.00    +0.009 C 
ATOM     17  C   UNL     1       3.556  -1.982   0.206  0.00  0.00    -0.020 C 
ATOM     18  C   UNL     1       5.226   0.150  -0.667  0.00  0.00    +0.034 C 
ATOM     19  C   UNL     1       4.620  -2.299  -0.539  0.00  0.00    +0.038 C 
ATOM     20  C   UNL     1       5.539  -1.250  -1.016  0.00  0.00    +0.195 C 
ENDROOT
BRANCH   6  21
ATOM     21  O   UNL     1      -2.318   0.847  -1.908  0.00  0.00    -0.380 OA
ATOM     22  H   UNL     1      -1.460   1.044  -2.315  0.00  0.00    +0.211 HD
ENDBRANCH   6  21
BRANCH   9  23
ATOM     23  O   UNL     1       0.504  -1.340   1.901  0.00  0.00    -0.384 OA
ATOM     24  H   UNL     1       1.370  -1.607   2.248  0.00  0.00    +0.210 HD
ENDBRANCH   9  23
BRANCH   6  26
ATOM     25  O   UNL     1      -4.475   1.816   0.332  0.00  0.00    -0.290 OA
ATOM     26  C   UNL     1      -3.688   0.953  -0.051  0.00  0.00    +0.218 C 
BRANCH  26  27
ATOM     27  C   UNL     1      -4.030  -0.522  -0.036  0.00  0.00    +0.274 C 
BRANCH  27  28
ATOM     28  O   UNL     1      -5.415  -0.714  -0.227  0.00  0.00    -0.440 OA
BRANCH  28  30
ATOM     29  O   UNL     1      -5.146  -3.004  -0.088  0.00  0.00    -0.250 OA
ATOM     30  C   UNL     1      -5.851  -2.015  -0.233  0.00  0.00    +0.318 C 
ATOM     31  C   UNL     1      -7.334  -2.065  -0.444  0.00  0.00    +0.121 C 
ENDBRANCH  28  30
ENDBRANCH  27  28
ENDBRANCH  26  27
ENDBRANCH   6  26
TORSDOF 6
