117072390
  -OEChem-03292013293D

 70 73  0     1  0  0  0  0  0999 V2000
   -2.5000    0.2419   -0.1336 O   0  0  0  0  0  0  0  0  0  0  0  0
    1.9172   -2.2968   -1.4441 O   0  0  0  0  0  0  0  0  0  0  0  0
   -3.8152   -2.6234    0.6400 O   0  0  0  0  0  0  0  0  0  0  0  0
   -4.3992   -2.5346   -2.0527 O   0  0  0  0  0  0  0  0  0  0  0  0
    6.7472    2.7942   -0.7016 O   0  0  0  0  0  0  0  0  0  0  0  0
   -4.5366    0.0301    0.9298 O   0  0  0  0  0  0  0  0  0  0  0  0
   -0.5900   -1.3250    0.1033 C   0  0  1  0  0  0  0  0  0  0  0  0
    0.0877   -0.3892    1.1288 C   0  0  2  0  0  0  0  0  0  0  0  0
    1.6202   -0.5036    1.1500 C   0  0  1  0  0  0  0  0  0  0  0  0
    2.1749   -0.1467   -0.2669 C   0  0  1  0  0  0  0  0  0  0  0  0
   -2.0803   -1.0058    0.4095 C   0  0  1  0  0  0  0  0  0  0  0  0
   -0.0728   -0.9242   -1.2936 C   0  0  0  0  0  0  0  0  0  0  0  0
    3.7573   -0.1327   -0.3241 C   0  0  2  0  0  0  0  0  0  0  0  0
    1.4679   -0.9501   -1.4024 C   0  0  2  0  0  0  0  0  0  0  0  0
   -0.6842   -0.6563    2.4181 C   0  0  0  0  0  0  0  0  0  0  0  0
   -2.1343   -0.8932    1.9506 C   0  0  0  0  0  0  0  0  0  0  0  0
    2.2117    0.4416    2.2079 C   0  0  0  0  0  0  0  0  0  0  0  0
   -0.3196   -2.8309    0.3780 C   0  0  0  0  0  0  0  0  0  0  0  0
    4.2957    0.7165    0.8354 C   0  0  0  0  0  0  0  0  0  0  0  0
    3.7327    0.4156    2.2028 C   0  0  0  0  0  0  0  0  0  0  0  0
    4.1847    0.4927   -1.6841 C   0  0  0  0  0  0  0  0  0  0  0  0
    4.3932   -1.5353   -0.1951 C   0  0  0  0  0  0  0  0  0  0  0  0
   -3.0721   -2.0003   -0.1166 C   0  0  0  0  0  0  0  0  0  0  0  0
    5.6397    0.9319   -1.7210 C   0  0  0  0  0  0  0  0  0  0  0  0
    5.2420    1.6609    0.7019 C   0  0  0  0  0  0  0  0  0  0  0  0
    5.9227    1.8890   -0.5935 C   0  0  0  0  0  0  0  0  0  0  0  0
   -3.1012   -2.1876   -1.6187 C   0  0  0  0  0  0  0  0  0  0  0  0
   -3.7625    0.6455    0.2098 C   0  0  0  0  0  0  0  0  0  0  0  0
   -4.0505    1.9787   -0.4422 C   0  0  0  0  0  0  0  0  0  0  0  0
   -5.4566    2.4815   -0.1199 C   0  0  0  0  0  0  0  0  0  0  0  0
   -5.7177    3.8473   -0.7533 C   0  0  0  0  0  0  0  0  0  0  0  0
   -7.1022    4.3685   -0.4026 C   0  0  0  0  0  0  0  0  0  0  0  0
   -0.1397    0.6532    0.8499 H   0  0  0  0  0  0  0  0  0  0  0  0
    1.9124   -1.5244    1.4164 H   0  0  0  0  0  0  0  0  0  0  0  0
    1.8640    0.8984   -0.4362 H   0  0  0  0  0  0  0  0  0  0  0  0
   -0.4093    0.0907   -1.5391 H   0  0  0  0  0  0  0  0  0  0  0  0
   -0.4891   -1.5907   -2.0557 H   0  0  0  0  0  0  0  0  0  0  0  0
    1.7334   -0.5050   -2.3679 H   0  0  0  0  0  0  0  0  0  0  0  0
   -0.6241    0.1887    3.1120 H   0  0  0  0  0  0  0  0  0  0  0  0
   -0.2993   -1.5402    2.9392 H   0  0  0  0  0  0  0  0  0  0  0  0
   -2.5003   -1.8017    2.4417 H   0  0  0  0  0  0  0  0  0  0  0  0
   -2.7256   -0.0608    2.3413 H   0  0  0  0  0  0  0  0  0  0  0  0
    1.8609    0.1553    3.2063 H   0  0  0  0  0  0  0  0  0  0  0  0
    1.8633    1.4679    2.0323 H   0  0  0  0  0  0  0  0  0  0  0  0
   -0.8287   -3.1913    1.2780 H   0  0  0  0  0  0  0  0  0  0  0  0
    0.7387   -3.0576    0.5204 H   0  0  0  0  0  0  0  0  0  0  0  0
   -0.6673   -3.4519   -0.4539 H   0  0  0  0  0  0  0  0  0  0  0  0
    4.0845   -0.5721    2.5252 H   0  0  0  0  0  0  0  0  0  0  0  0
    4.0989    1.1297    2.9507 H   0  0  0  0  0  0  0  0  0  0  0  0
    3.5611    1.3730   -1.8946 H   0  0  0  0  0  0  0  0  0  0  0  0
    4.0109   -0.2128   -2.5056 H   0  0  0  0  0  0  0  0  0  0  0  0
    4.3020   -2.1127   -1.1202 H   0  0  0  0  0  0  0  0  0  0  0  0
    3.9426   -2.1222    0.6113 H   0  0  0  0  0  0  0  0  0  0  0  0
    5.4670   -1.4719    0.0201 H   0  0  0  0  0  0  0  0  0  0  0  0
    5.8370    1.4433   -2.6696 H   0  0  0  0  0  0  0  0  0  0  0  0
    6.3245    0.0816   -1.6428 H   0  0  0  0  0  0  0  0  0  0  0  0
    1.4851   -2.7312   -2.1990 H   0  0  0  0  0  0  0  0  0  0  0  0
    5.5896    2.2481    1.5453 H   0  0  0  0  0  0  0  0  0  0  0  0
   -2.4115   -2.9880   -1.8955 H   0  0  0  0  0  0  0  0  0  0  0  0
   -2.8252   -1.2629   -2.1301 H   0  0  0  0  0  0  0  0  0  0  0  0
   -3.3071    2.6989   -0.0828 H   0  0  0  0  0  0  0  0  0  0  0  0
   -3.9399    1.8607   -1.5259 H   0  0  0  0  0  0  0  0  0  0  0  0
   -4.3522   -2.6839   -3.0124 H   0  0  0  0  0  0  0  0  0  0  0  0
   -5.5824    2.5502    0.9681 H   0  0  0  0  0  0  0  0  0  0  0  0
   -6.1996    1.7577   -0.4774 H   0  0  0  0  0  0  0  0  0  0  0  0
   -5.6239    3.7759   -1.8432 H   0  0  0  0  0  0  0  0  0  0  0  0
   -4.9664    4.5677   -0.4093 H   0  0  0  0  0  0  0  0  0  0  0  0
   -7.8801    3.6859   -0.7592 H   0  0  0  0  0  0  0  0  0  0  0  0
   -7.2683    5.3455   -0.8673 H   0  0  0  0  0  0  0  0  0  0  0  0
   -7.2156    4.4837    0.6801 H   0  0  0  0  0  0  0  0  0  0  0  0
  1 11  1  0  0  0  0
  1 28  1  0  0  0  0
  2 14  1  0  0  0  0
  2 57  1  0  0  0  0
  3 23  2  0  0  0  0
  4 27  1  0  0  0  0
  4 63  1  0  0  0  0
  5 26  2  0  0  0  0
  6 28  2  0  0  0  0
  7  8  1  0  0  0  0
  7 11  1  0  0  0  0
  7 12  1  0  0  0  0
  7 18  1  0  0  0  0
  8  9  1  0  0  0  0
  8 15  1  0  0  0  0
  8 33  1  0  0  0  0
  9 10  1  0  0  0  0
  9 17  1  0  0  0  0
  9 34  1  0  0  0  0
 10 13  1  0  0  0  0
 10 14  1  0  0  0  0
 10 35  1  0  0  0  0
 11 16  1  0  0  0  0
 11 23  1  0  0  0  0
 12 14  1  0  0  0  0
 12 36  1  0  0  0  0
 12 37  1  0  0  0  0
 13 19  1  0  0  0  0
 13 21  1  0  0  0  0
 13 22  1  0  0  0  0
 14 38  1  0  0  0  0
 15 16  1  0  0  0  0
 15 39  1  0  0  0  0
 15 40  1  0  0  0  0
 16 41  1  0  0  0  0
 16 42  1  0  0  0  0
 17 20  1  0  0  0  0
 17 43  1  0  0  0  0
 17 44  1  0  0  0  0
 18 45  1  0  0  0  0
 18 46  1  0  0  0  0
 18 47  1  0  0  0  0
 19 20  1  0  0  0  0
 19 25  2  0  0  0  0
 20 48  1  0  0  0  0
 20 49  1  0  0  0  0
 21 24  1  0  0  0  0
 21 50  1  0  0  0  0
 21 51  1  0  0  0  0
 22 52  1  0  0  0  0
 22 53  1  0  0  0  0
 22 54  1  0  0  0  0
 23 27  1  0  0  0  0
 24 26  1  0  0  0  0
 24 55  1  0  0  0  0
 24 56  1  0  0  0  0
 25 26  1  0  0  0  0
 25 58  1  0  0  0  0
 27 59  1  0  0  0  0
 27 60  1  0  0  0  0
 28 29  1  0  0  0  0
 29 30  1  0  0  0  0
 29 61  1  0  0  0  0
 29 62  1  0  0  0  0
 30 31  1  0  0  0  0
 30 64  1  0  0  0  0
 30 65  1  0  0  0  0
 31 32  1  0  0  0  0
 31 66  1  0  0  0  0
 31 67  1  0  0  0  0
 32 68  1  0  0  0  0
 32 69  1  0  0  0  0
 32 70  1  0  0  0  0
M  END
> <PUBCHEM_COMPOUND_CID>
117072390

> <PUBCHEM_CONFORMER_RMSD>
1

> <PUBCHEM_CONFORMER_DIVERSEORDER>
1
88
64
30
78
57
76
84
49
43
62
10
7
70
54
35
66
46
3
48
67
25
89
42
37
85
69
74
31
51
52
79
8
53
12
82
73
56
50
33
34
15
11
36
80
68
77
83
16
38
86
59
72
55
63
65
40
41
29
17
87
61
21
32
27
28
81
22
45
9
13
39
58
5
60
23
75
71
19
2
44
26
14
24
20
4
18
47
6

> <PUBCHEM_MMFF94_PARTIAL_CHARGES>
21
1 -0.43
11 0.34
13 0.14
14 0.28
19 -0.28
2 -0.68
20 0.14
23 0.45
24 0.06
25 -0.14
26 0.49
27 0.34
28 0.66
29 0.06
3 -0.57
4 -0.68
5 -0.57
57 0.4
58 0.15
6 -0.57
63 0.4

> <PUBCHEM_EFFECTIVE_ROTOR_COUNT>
8.8

> <PUBCHEM_PHARMACOPHORE_FEATURES>
12
1 2 acceptor
1 2 donor
1 3 acceptor
1 32 hydrophobe
1 4 acceptor
1 4 donor
1 5 acceptor
1 6 acceptor
5 7 8 11 15 16 rings
6 13 19 21 24 25 26 rings
6 7 8 9 10 12 14 rings
6 9 10 13 17 19 20 rings

> <PUBCHEM_HEAVY_ATOM_COUNT>
32

> <PUBCHEM_ATOM_DEF_STEREO_COUNT>
5

> <PUBCHEM_ATOM_UDEF_STEREO_COUNT>
2

> <PUBCHEM_BOND_DEF_STEREO_COUNT>
0

> <PUBCHEM_BOND_UDEF_STEREO_COUNT>
0

> <PUBCHEM_ISOTOPIC_ATOM_COUNT>
0

> <PUBCHEM_COMPONENT_COUNT>
1

> <PUBCHEM_CACTVS_TAUTO_COUNT>
10

> <PUBCHEM_CONFORMER_ID>
06FA620600000001

> <PUBCHEM_MMFF94_ENERGY>
97.9285

> <PUBCHEM_FEATURE_SELFOVERLAP>
60.998

> <PUBCHEM_SHAPE_FINGERPRINT>
10498660 4 18131355236961998272
10674148 151 17313965009146414374
11115154 58 14835828527781100633
11578080 2 18341620278295469703
11961588 58 18342447107345794551
12107183 9 18043519517884699090
12236239 1 17314216933988590042
12403259 415 17703230736280281146
12422481 6 14996276968701283751
12633257 1 14707499134759504202
12895837 130 18408327709157001477
13140716 1 14709140594093119998
13224815 77 17060064791200293682
13540713 5 18191284045272875851
13690498 29 17560237080182600591
13944108 23 17045984123442096153
14294032 229 18412547609710297393
15163728 17 18408888399592971947
15238133 3 18260823787795148416
15324884 4 16914788557573766891
17349148 13 13470423205128320950
17980427 23 17968098667552458292
19301679 30 10809640169010914381
20642791 268 16877667880893831734
20715895 44 18267021661193364009
21033648 29 18412822508327440448
21756936 100 17967536800015230169
22122407 14 17823429364778070420
22182313 1 16629664288400661227
22393880 68 17632859758767277646
23559900 14 17560526080137640558
23569914 152 16769870459331493252
23569914 2 17838572878182401688
2748736 6 18189608350939819461
2838139 119 18339354146466340653
3472631 163 18333730182976218781
3918712 181 18264202513908235197
392239 28 15792289436133059732
44249763 50 18059278963526114121
460360 51 14924490958636533646
46194498 28 17415554582840437456
465052 167 7853562513952798256
508706 21 18200870806928741951
5104073 3 16588024632369396704
5219985 13 18191300482370959525
59682541 52 17059488513694340805
6086070 43 17846491539713194176
633830 44 17894911806548947802
7808743 9 18334856095847032561
7970288 3 10447628202816730029
9849439 229 18261110713069273057

> <PUBCHEM_SHAPE_MULTIPOLES>
623.33
15.23
3.79
2.01
2.91
2.64
-0.5
18.84
4.23
7.2
1.32
-1.06
-0.61
-0.07

> <PUBCHEM_SHAPE_SELFOVERLAP>
1322.669

> <PUBCHEM_SHAPE_VOLUME>
342.2

> <PUBCHEM_COORDINATE_TYPE>
2
5
10

$$$$
