117072385
  -OEChem-03292013293D

 59 62  0     1  0  0  0  0  0999 V2000
   -2.3183    0.8465   -1.9084 O   0  0  0  0  0  0  0  0  0  0  0  0
    0.5042   -1.3401    1.9008 O   0  0  0  0  0  0  0  0  0  0  0  0
   -4.4750    1.8163    0.3323 O   0  0  0  0  0  0  0  0  0  0  0  0
   -5.4155   -0.7140   -0.2268 O   0  0  0  0  0  0  0  0  0  0  0  0
    6.5275   -1.5309   -1.6856 O   0  0  0  0  0  0  0  0  0  0  0  0
   -5.1455   -3.0043   -0.0883 O   0  0  0  0  0  0  0  0  0  0  0  0
   -1.1477    0.7065    0.2501 C   0  0  1  0  0  0  0  0  0  0  0  0
    0.0050    1.5872   -0.2808 C   0  0  2  0  0  0  0  0  0  0  0  0
    1.3602    1.2883    0.3776 C   0  0  1  0  0  0  0  0  0  0  0  0
    1.7388   -0.2085    0.0948 C   0  0  2  0  0  0  0  0  0  0  0  0
   -2.3250    1.3127   -0.5621 C   0  0  1  0  0  0  0  0  0  0  0  0
   -0.7915   -0.7605   -0.0644 C   0  0  0  0  0  0  0  0  0  0  0  0
   -0.5617    3.0019   -0.1939 C   0  0  0  0  0  0  0  0  0  0  0  0
    0.5865   -1.1850    0.4911 C   0  0  2  0  0  0  0  0  0  0  0  0
    3.1760   -0.5738    0.6414 C   0  0  1  0  0  0  0  0  0  0  0  0
   -2.0547    2.8345   -0.5448 C   0  0  0  0  0  0  0  0  0  0  0  0
    2.4403    2.2462   -0.1566 C   0  0  0  0  0  0  0  0  0  0  0  0
   -1.4136    0.8943    1.7696 C   0  0  0  0  0  0  0  0  0  0  0  0
    3.8285    1.9051    0.3704 C   0  0  0  0  0  0  0  0  0  0  0  0
    4.1557    0.4628    0.0804 C   0  0  0  0  0  0  0  0  0  0  0  0
   -3.6875    0.9526   -0.0512 C   0  0  0  0  0  0  0  0  0  0  0  0
    3.2866   -0.5549    2.1828 C   0  0  0  0  0  0  0  0  0  0  0  0
    3.5564   -1.9816    0.2060 C   0  0  0  0  0  0  0  0  0  0  0  0
    5.2261    0.1503   -0.6669 C   0  0  0  0  0  0  0  0  0  0  0  0
   -4.0298   -0.5219   -0.0361 C   0  0  0  0  0  0  0  0  0  0  0  0
    4.6197   -2.2993   -0.5389 C   0  0  0  0  0  0  0  0  0  0  0  0
    5.5391   -1.2504   -1.0161 C   0  0  0  0  0  0  0  0  0  0  0  0
   -5.8509   -2.0150   -0.2327 C   0  0  0  0  0  0  0  0  0  0  0  0
   -7.3338   -2.0650   -0.4438 C   0  0  0  0  0  0  0  0  0  0  0  0
    0.1353    1.3799   -1.3560 H   0  0  0  0  0  0  0  0  0  0  0  0
    1.2885    1.4500    1.4578 H   0  0  0  0  0  0  0  0  0  0  0  0
    1.8047   -0.2924   -1.0038 H   0  0  0  0  0  0  0  0  0  0  0  0
   -0.7734   -0.9208   -1.1492 H   0  0  0  0  0  0  0  0  0  0  0  0
   -1.5500   -1.4338    0.3460 H   0  0  0  0  0  0  0  0  0  0  0  0
   -0.0677    3.6861   -0.8914 H   0  0  0  0  0  0  0  0  0  0  0  0
   -0.4486    3.4173    0.8138 H   0  0  0  0  0  0  0  0  0  0  0  0
    0.8052   -2.1775    0.0817 H   0  0  0  0  0  0  0  0  0  0  0  0
   -2.6466    3.3770    0.2002 H   0  0  0  0  0  0  0  0  0  0  0  0
   -2.2587    3.2901   -1.5206 H   0  0  0  0  0  0  0  0  0  0  0  0
    2.2009    3.2775    0.1284 H   0  0  0  0  0  0  0  0  0  0  0  0
    2.4524    2.2175   -1.2543 H   0  0  0  0  0  0  0  0  0  0  0  0
   -1.8409    1.8753    2.0023 H   0  0  0  0  0  0  0  0  0  0  0  0
   -0.5107    0.8068    2.3768 H   0  0  0  0  0  0  0  0  0  0  0  0
   -2.1182    0.1445    2.1435 H   0  0  0  0  0  0  0  0  0  0  0  0
    3.8800    2.0900    1.4494 H   0  0  0  0  0  0  0  0  0  0  0  0
    4.5585    2.5820   -0.0902 H   0  0  0  0  0  0  0  0  0  0  0  0
    2.8356    0.3378    2.6263 H   0  0  0  0  0  0  0  0  0  0  0  0
    4.3366   -0.5768    2.5034 H   0  0  0  0  0  0  0  0  0  0  0  0
    2.8106   -1.4260    2.6459 H   0  0  0  0  0  0  0  0  0  0  0  0
    2.9299   -2.8016    0.5501 H   0  0  0  0  0  0  0  0  0  0  0  0
   -2.9649    1.3670   -2.4152 H   0  0  0  0  0  0  0  0  0  0  0  0
   -0.1900   -1.9946    2.0879 H   0  0  0  0  0  0  0  0  0  0  0  0
    5.8932    0.9119   -1.0566 H   0  0  0  0  0  0  0  0  0  0  0  0
   -3.7343   -0.9362    0.9320 H   0  0  0  0  0  0  0  0  0  0  0  0
   -3.5038   -1.0361   -0.8453 H   0  0  0  0  0  0  0  0  0  0  0  0
    4.8383   -3.3282   -0.8001 H   0  0  0  0  0  0  0  0  0  0  0  0
   -7.8410   -1.5387    0.3687 H   0  0  0  0  0  0  0  0  0  0  0  0
   -7.6655   -3.1072   -0.4451 H   0  0  0  0  0  0  0  0  0  0  0  0
   -7.5853   -1.6178   -1.4087 H   0  0  0  0  0  0  0  0  0  0  0  0
  1 11  1  0  0  0  0
  1 51  1  0  0  0  0
  2 14  1  0  0  0  0
  2 52  1  0  0  0  0
  3 21  2  0  0  0  0
  4 25  1  0  0  0  0
  4 28  1  0  0  0  0
  5 27  2  0  0  0  0
  6 28  2  0  0  0  0
  7  8  1  0  0  0  0
  7 11  1  0  0  0  0
  7 12  1  0  0  0  0
  7 18  1  0  0  0  0
  8  9  1  0  0  0  0
  8 13  1  0  0  0  0
  8 30  1  0  0  0  0
  9 10  1  0  0  0  0
  9 17  1  0  0  0  0
  9 31  1  0  0  0  0
 10 14  1  0  0  0  0
 10 15  1  0  0  0  0
 10 32  1  0  0  0  0
 11 16  1  0  0  0  0
 11 21  1  0  0  0  0
 12 14  1  0  0  0  0
 12 33  1  0  0  0  0
 12 34  1  0  0  0  0
 13 16  1  0  0  0  0
 13 35  1  0  0  0  0
 13 36  1  0  0  0  0
 14 37  1  0  0  0  0
 15 20  1  0  0  0  0
 15 22  1  0  0  0  0
 15 23  1  0  0  0  0
 16 38  1  0  0  0  0
 16 39  1  0  0  0  0
 17 19  1  0  0  0  0
 17 40  1  0  0  0  0
 17 41  1  0  0  0  0
 18 42  1  0  0  0  0
 18 43  1  0  0  0  0
 18 44  1  0  0  0  0
 19 20  1  0  0  0  0
 19 45  1  0  0  0  0
 19 46  1  0  0  0  0
 20 24  2  0  0  0  0
 21 25  1  0  0  0  0
 22 47  1  0  0  0  0
 22 48  1  0  0  0  0
 22 49  1  0  0  0  0
 23 26  2  0  0  0  0
 23 50  1  0  0  0  0
 24 27  1  0  0  0  0
 24 53  1  0  0  0  0
 25 54  1  0  0  0  0
 25 55  1  0  0  0  0
 26 27  1  0  0  0  0
 26 56  1  0  0  0  0
 28 29  1  0  0  0  0
 29 57  1  0  0  0  0
 29 58  1  0  0  0  0
 29 59  1  0  0  0  0
M  END
> <PUBCHEM_COMPOUND_CID>
117072385

> <PUBCHEM_CONFORMER_RMSD>
0.8

> <PUBCHEM_CONFORMER_DIVERSEORDER>
1
70
120
67
87
81
21
65
14
80
78
55
60
42
69
32
89
2
113
73
77
12
3
84
94
88
118
121
36
37
9
62
111
58
68
47
98
7
100
13
75
64
115
17
107
16
117
112
43
23
119
85
61
90
83
8
96
105
71
11
91
63
104
99
45
106
92
39
19
5
122
15
97
101
95
59
6
51
31
74
29
53
57
46
66
54
93
4
109
50
35
82
52
20
34
108
48
10
49
79
123
24
30
72
116
18
76
56
25
102
44
26
33
41
110
27
28
103
22
86
40
114
38

> <PUBCHEM_MMFF94_PARTIAL_CHARGES>
24
1 -0.68
11 0.34
14 0.28
15 0.28
19 0.14
2 -0.68
20 -0.28
21 0.45
23 -0.29
24 -0.14
25 0.34
26 -0.14
27 0.54
28 0.66
29 0.06
3 -0.57
4 -0.43
5 -0.57
50 0.15
51 0.4
52 0.4
53 0.15
56 0.15
6 -0.57

> <PUBCHEM_EFFECTIVE_ROTOR_COUNT>
5.4

> <PUBCHEM_PHARMACOPHORE_FEATURES>
11
1 1 acceptor
1 1 donor
1 2 acceptor
1 2 donor
1 3 acceptor
1 5 acceptor
1 6 acceptor
5 7 8 11 13 16 rings
6 15 20 23 24 26 27 rings
6 7 8 9 10 12 14 rings
6 9 10 15 17 19 20 rings

> <PUBCHEM_HEAVY_ATOM_COUNT>
29

> <PUBCHEM_ATOM_DEF_STEREO_COUNT>
5

> <PUBCHEM_ATOM_UDEF_STEREO_COUNT>
2

> <PUBCHEM_BOND_DEF_STEREO_COUNT>
0

> <PUBCHEM_BOND_UDEF_STEREO_COUNT>
0

> <PUBCHEM_ISOTOPIC_ATOM_COUNT>
0

> <PUBCHEM_COMPONENT_COUNT>
1

> <PUBCHEM_CACTVS_TAUTO_COUNT>
20

> <PUBCHEM_CONFORMER_ID>
06FA620100000001

> <PUBCHEM_MMFF94_ENERGY>
91.6406

> <PUBCHEM_FEATURE_SELFOVERLAP>
55.923

> <PUBCHEM_SHAPE_FINGERPRINT>
10076449 9 18060430118779335894
10366900 7 17603589620800398600
11578080 2 12468930873814586839
117089 54 18056205678535714518
11961588 58 16950575406458286454
11963148 33 18411412895397667718
12236239 1 17989491805222984713
12403259 226 18410286974300207664
12422481 6 17489871561593817855
12592606 108 18341328999095851887
12623949 98 17988372515323545806
13224815 77 18187362065610349744
13383661 66 17416144801889966038
13533116 47 18131071592657739304
13583140 156 11891920288308735788
1361 2 18337953501400823202
13690498 29 18259984856164637125
13782708 43 17560797727843685911
14251740 57 18343017821993418808
14251764 30 18202002131442569975
14347332 77 18337106761631011658
14767858 380 17894920636969923326
14787075 74 18113617906307484457
14790565 3 17041483809211570652
14931854 50 17967525784025982931
14955137 171 17988924496262782273
15196674 1 18410008827764577529
15927050 60 17403738238635041909
17492 89 18338510833668896522
17909252 39 18342460335513120594
18222031 100 18408881858553037011
18335252 98 18271809076897142518
18608769 82 18411979191614596610
19591789 44 18409726261939831891
20028762 73 18413385453712185127
20775438 99 17979056503514815830
21267235 1 18411142454734076735
21279426 13 18334565855295297117
21682296 61 18272097093067217559
221357 26 18409449189357236694
22149856 69 18342468075270554601
22393880 68 18187918439636362677
22950370 63 18412547587175345973
23522609 53 18122942825848036044
23559900 14 18411976932356843096
3004659 81 18259981604594948599
46194498 28 18273219682107773516
465052 167 18131918165208325350
497634 4 18412547574654493077
5104073 3 18201149979686899081
57527295 17 18116158766764460394
59755656 215 18260266364778977290
7970288 3 18339358548565446606
9709674 26 18334579048970866400

> <PUBCHEM_SHAPE_MULTIPOLES>
561.59
14.38
3.11
1.3
9.85
0.38
-0.37
-12
4.41
1.79
0.45
-1.01
-0.2
0.48

> <PUBCHEM_SHAPE_SELFOVERLAP>
1207.749

> <PUBCHEM_SHAPE_VOLUME>
304.9

> <PUBCHEM_COORDINATE_TYPE>
2
5
10

$$$$
