REMARK  Name = 11705608
REMARK  6 active torsions:
REMARK  status: ('A' for Active; 'I' for Inactive)
REMARK    1  A    between atoms: N_1  and  C_11
REMARK    2  A    between atoms: C_5  and  O_21
REMARK    3  A    between atoms: C_14  and  S_17
REMARK    4  A    between atoms: O_21  and  C_24
REMARK    5  A    between atoms: C_29  and  O_30
REMARK    6  A    between atoms: O_30  and  C_31
REMARK                            x       y       z     vdW  Elec       q    Type
REMARK                         _______ _______ _______ _____ _____    ______ ____
ROOT
ATOM      1  N   UNL     1      -2.666  -0.722   0.360  0.00  0.00    -0.174 N 
ATOM      2  N   UNL     1       0.815   0.575  -1.185  0.00  0.00    -0.214 NA
ATOM      3  N   UNL     1      -2.349  -1.789   1.118  0.00  0.00    -0.175 NA
ATOM      4  N   UNL     1      -1.597   0.923  -1.059  0.00  0.00    -0.231 NA
ATOM      5  C   UNL     1       0.750  -0.499  -0.361  0.00  0.00    +0.210 C 
ATOM      6  C   UNL     1      -0.489  -0.893   0.138  0.00  0.00    +0.174 C 
ATOM      7  C   UNL     1      -1.590  -0.148  -0.249  0.00  0.00    +0.143 C 
ATOM      8  C   UNL     1      -1.023  -1.888   0.978  0.00  0.00    +0.108 C 
ATOM      9  C   UNL     1      -0.345   1.210  -1.479  0.00  0.00    +0.254 C 
ENDROOT
BRANCH   1  11
ATOM     10  F   UNL     1      -4.754  -2.534   0.569  0.00  0.00    -0.203 F 
ATOM     11  C   UNL     1      -3.992  -0.304   0.258  0.00  0.00    +0.103 C 
ATOM     12  C   UNL     1      -5.018  -1.235   0.367  0.00  0.00    +0.157 C 
ATOM     13  C   UNL     1      -4.270   1.040   0.049  0.00  0.00    +0.020 C 
ATOM     14  C   UNL     1      -6.633   0.535   0.054  0.00  0.00    +0.108 C 
ATOM     15  C   UNL     1      -6.343  -0.814   0.264  0.00  0.00    +0.049 C 
ATOM     16  C   UNL     1      -5.596   1.462  -0.053  0.00  0.00    +0.020 C 
BRANCH  14  17
ATOM     17  S   UNL     1      -8.292   1.062  -0.075  0.00  0.00    +0.011 S 
ATOM     18  O   UNL     1      -8.312   2.298  -0.844  0.00  0.00    -0.169 OA
ATOM     19  O   UNL     1      -9.114  -0.065  -0.496  0.00  0.00    -0.169 OA
ATOM     20  C   UNL     1      -8.763   1.450   1.596  0.00  0.00    +0.182 C 
ENDBRANCH  14  17
ENDBRANCH   1  11
BRANCH   5  21
ATOM     21  O   UNL     1       1.912  -1.157  -0.053  0.00  0.00    -0.467 OA
BRANCH  21  24
ATOM     22  O   UNL     1       8.033  -1.227  -0.151  0.00  0.00    -0.226 OA
ATOM     23  N   UNL     1       5.957  -0.222  -0.439  0.00  0.00    -0.246 N 
ATOM     24  C   UNL     1       3.108  -0.648  -0.631  0.00  0.00    +0.171 C 
ATOM     25  C   UNL     1       4.103  -1.789  -0.849  0.00  0.00    +0.065 C 
ATOM     26  C   UNL     1       3.695   0.411   0.302  0.00  0.00    +0.065 C 
ATOM     27  C   UNL     1       5.449  -1.262  -1.335  0.00  0.00    +0.100 C 
ATOM     28  C   UNL     1       5.048   0.905  -0.200  0.00  0.00    +0.100 C 
ATOM     29  C   UNL     1       7.250  -0.310   0.086  0.00  0.00    +0.405 C 
BRANCH  29  30
ATOM     30  O   UNL     1       7.561   0.745   0.903  0.00  0.00    -0.438 OA
BRANCH  30  31
ATOM     31  C   UNL     1       8.942   1.123   0.948  0.00  0.00    +0.171 C 
ATOM     32  C   UNL     1       9.408   1.486  -0.453  0.00  0.00    +0.047 C 
ATOM     33  C   UNL     1       9.113   2.280   1.921  0.00  0.00    +0.047 C 
ENDBRANCH  30  31
ENDBRANCH  29  30
ENDBRANCH  21  24
ENDBRANCH   5  21
TORSDOF 6
