11705608
  -OEChem-03292013303D

 57 60  0     0  0  0  0  0  0999 V2000
   -8.2922    1.0619   -0.0748 S   0  0  0  0  0  0  0  0  0  0  0  0
   -4.7539   -2.5339    0.5687 F   0  0  0  0  0  0  0  0  0  0  0  0
    1.9117   -1.1565   -0.0526 O   0  0  0  0  0  0  0  0  0  0  0  0
    7.5611    0.7453    0.9028 O   0  0  0  0  0  0  0  0  0  0  0  0
    8.0334   -1.2274   -0.1508 O   0  0  0  0  0  0  0  0  0  0  0  0
   -8.3118    2.2980   -0.8438 O   0  0  0  0  0  0  0  0  0  0  0  0
   -9.1137   -0.0646   -0.4962 O   0  0  0  0  0  0  0  0  0  0  0  0
    5.9574   -0.2222   -0.4388 N   0  0  0  0  0  0  0  0  0  0  0  0
   -2.6655   -0.7219    0.3605 N   0  0  0  0  0  0  0  0  0  0  0  0
    0.8145    0.5748   -1.1852 N   0  0  0  0  0  0  0  0  0  0  0  0
   -2.3492   -1.7886    1.1179 N   0  0  0  0  0  0  0  0  0  0  0  0
   -1.5966    0.9229   -1.0589 N   0  0  0  0  0  0  0  0  0  0  0  0
    3.1077   -0.6481   -0.6311 C   0  0  0  0  0  0  0  0  0  0  0  0
    4.1033   -1.7889   -0.8494 C   0  0  0  0  0  0  0  0  0  0  0  0
    3.6948    0.4110    0.3024 C   0  0  0  0  0  0  0  0  0  0  0  0
    5.4493   -1.2618   -1.3347 C   0  0  0  0  0  0  0  0  0  0  0  0
    5.0481    0.9047   -0.1995 C   0  0  0  0  0  0  0  0  0  0  0  0
    7.2499   -0.3096    0.0862 C   0  0  0  0  0  0  0  0  0  0  0  0
    0.7496   -0.4995   -0.3609 C   0  0  0  0  0  0  0  0  0  0  0  0
   -0.4893   -0.8926    0.1375 C   0  0  0  0  0  0  0  0  0  0  0  0
   -1.5896   -0.1477   -0.2489 C   0  0  0  0  0  0  0  0  0  0  0  0
    8.9420    1.1226    0.9484 C   0  0  0  0  0  0  0  0  0  0  0  0
   -1.0226   -1.8878    0.9778 C   0  0  0  0  0  0  0  0  0  0  0  0
   -3.9918   -0.3043    0.2583 C   0  0  0  0  0  0  0  0  0  0  0  0
    9.4084    1.4860   -0.4530 C   0  0  0  0  0  0  0  0  0  0  0  0
    9.1131    2.2798    1.9207 C   0  0  0  0  0  0  0  0  0  0  0  0
   -0.3453    1.2098   -1.4786 C   0  0  0  0  0  0  0  0  0  0  0  0
   -5.0176   -1.2348    0.3666 C   0  0  0  0  0  0  0  0  0  0  0  0
   -4.2702    1.0405    0.0489 C   0  0  0  0  0  0  0  0  0  0  0  0
   -6.6326    0.5348    0.0540 C   0  0  0  0  0  0  0  0  0  0  0  0
   -6.3434   -0.8136    0.2639 C   0  0  0  0  0  0  0  0  0  0  0  0
   -5.5960    1.4619   -0.0535 C   0  0  0  0  0  0  0  0  0  0  0  0
   -8.7631    1.4500    1.5959 C   0  0  0  0  0  0  0  0  0  0  0  0
    2.9279   -0.2130   -1.6237 H   0  0  0  0  0  0  0  0  0  0  0  0
    4.2359   -2.3403    0.0909 H   0  0  0  0  0  0  0  0  0  0  0  0
    3.6950   -2.5104   -1.5668 H   0  0  0  0  0  0  0  0  0  0  0  0
    3.8061   -0.0138    1.3091 H   0  0  0  0  0  0  0  0  0  0  0  0
    3.0080    1.2585    0.4089 H   0  0  0  0  0  0  0  0  0  0  0  0
    5.3505   -0.8143   -2.3307 H   0  0  0  0  0  0  0  0  0  0  0  0
    6.1641   -2.0868   -1.4149 H   0  0  0  0  0  0  0  0  0  0  0  0
    5.4696    1.6139    0.5180 H   0  0  0  0  0  0  0  0  0  0  0  0
    4.9325    1.4344   -1.1525 H   0  0  0  0  0  0  0  0  0  0  0  0
    9.5267    0.2749    1.3270 H   0  0  0  0  0  0  0  0  0  0  0  0
   -0.5040   -2.6821    1.4957 H   0  0  0  0  0  0  0  0  0  0  0  0
   10.4282    1.8846   -0.4334 H   0  0  0  0  0  0  0  0  0  0  0  0
    9.4095    0.6268   -1.1301 H   0  0  0  0  0  0  0  0  0  0  0  0
    8.7510    2.2405   -0.8996 H   0  0  0  0  0  0  0  0  0  0  0  0
   10.1611    2.5843    1.9996 H   0  0  0  0  0  0  0  0  0  0  0  0
    8.7547    1.9969    2.9162 H   0  0  0  0  0  0  0  0  0  0  0  0
    8.5179    3.1443    1.6067 H   0  0  0  0  0  0  0  0  0  0  0  0
   -0.2559    2.0647   -2.1402 H   0  0  0  0  0  0  0  0  0  0  0  0
   -3.5078    1.8113    0.0179 H   0  0  0  0  0  0  0  0  0  0  0  0
   -7.1350   -1.5516    0.3567 H   0  0  0  0  0  0  0  0  0  0  0  0
   -5.7992    2.5194   -0.1974 H   0  0  0  0  0  0  0  0  0  0  0  0
   -9.7996    1.7937    1.5847 H   0  0  0  0  0  0  0  0  0  0  0  0
   -8.1128    2.2415    1.9732 H   0  0  0  0  0  0  0  0  0  0  0  0
   -8.6756    0.5503    2.2080 H   0  0  0  0  0  0  0  0  0  0  0  0
  1  6  2  0  0  0  0
  1  7  2  0  0  0  0
  1 30  1  0  0  0  0
  1 33  1  0  0  0  0
  2 28  1  0  0  0  0
  3 13  1  0  0  0  0
  3 19  1  0  0  0  0
  4 18  1  0  0  0  0
  4 22  1  0  0  0  0
  5 18  2  0  0  0  0
  8 16  1  0  0  0  0
  8 17  1  0  0  0  0
  8 18  1  0  0  0  0
  9 11  1  0  0  0  0
  9 21  1  0  0  0  0
  9 24  1  0  0  0  0
 10 19  2  0  0  0  0
 10 27  1  0  0  0  0
 11 23  2  0  0  0  0
 12 21  1  0  0  0  0
 12 27  2  0  0  0  0
 13 14  1  0  0  0  0
 13 15  1  0  0  0  0
 13 34  1  0  0  0  0
 14 16  1  0  0  0  0
 14 35  1  0  0  0  0
 14 36  1  0  0  0  0
 15 17  1  0  0  0  0
 15 37  1  0  0  0  0
 15 38  1  0  0  0  0
 16 39  1  0  0  0  0
 16 40  1  0  0  0  0
 17 41  1  0  0  0  0
 17 42  1  0  0  0  0
 19 20  1  0  0  0  0
 20 21  2  0  0  0  0
 20 23  1  0  0  0  0
 22 25  1  0  0  0  0
 22 26  1  0  0  0  0
 22 43  1  0  0  0  0
 23 44  1  0  0  0  0
 24 28  2  0  0  0  0
 24 29  1  0  0  0  0
 25 45  1  0  0  0  0
 25 46  1  0  0  0  0
 25 47  1  0  0  0  0
 26 48  1  0  0  0  0
 26 49  1  0  0  0  0
 26 50  1  0  0  0  0
 27 51  1  0  0  0  0
 28 31  1  0  0  0  0
 29 32  2  0  0  0  0
 29 52  1  0  0  0  0
 30 31  2  0  0  0  0
 30 32  1  0  0  0  0
 31 53  1  0  0  0  0
 32 54  1  0  0  0  0
 33 55  1  0  0  0  0
 33 56  1  0  0  0  0
 33 57  1  0  0  0  0
M  END
> <PUBCHEM_COMPOUND_CID>
11705608

> <PUBCHEM_CONFORMER_RMSD>
1

> <PUBCHEM_CONFORMER_DIVERSEORDER>
2
67
77
66
116
29
102
56
60
119
120
114
54
110
111
103
58
73
80
129
43
123
14
88
74
68
7
90
17
122
107
81
42
8
57
79
12
121
18
124
36
52
35
104
98
6
83
1
71
4
19
33
91
25
55
93
85
106
50
32
49
31
101
61
62
70
63
21
37
59
40
38
112
72
39
44
95
27
24
126
15
84
94
118
99
82
10
117
92
75
3
89
109
115
97
78
128
22
113
28
9
87
76
11
51
47
20
13
86
96
26
65
34
69
30
48
5
23
108
16
100
127
64
53
125
46
105
45
41

> <PUBCHEM_MMFF94_PARTIAL_CHARGES>
33
1 1.2
10 -0.62
11 -0.71
12 -0.57
13 0.28
16 0.3
17 0.3
18 0.78
19 0.39
2 -0.19
21 0.11
22 0.28
23 0.14
24 -0.02
27 0.47
28 0.19
29 -0.15
3 -0.36
30 -0.01
31 -0.15
32 -0.15
33 0.11
4 -0.43
44 0.15
5 -0.57
51 0.15
52 0.15
53 0.15
54 0.15
6 -0.65
7 -0.65
8 -0.66
9 0.59

> <PUBCHEM_EFFECTIVE_ROTOR_COUNT>
8.2

> <PUBCHEM_PHARMACOPHORE_FEATURES>
10
1 11 acceptor
1 5 acceptor
1 6 acceptor
1 7 acceptor
3 10 12 27 cation
3 22 25 26 hydrophobe
5 9 11 20 21 23 rings
6 10 12 19 20 21 27 rings
6 24 28 29 30 31 32 rings
6 8 13 14 15 16 17 rings

> <PUBCHEM_HEAVY_ATOM_COUNT>
33

> <PUBCHEM_ATOM_DEF_STEREO_COUNT>
0

> <PUBCHEM_ATOM_UDEF_STEREO_COUNT>
0

> <PUBCHEM_BOND_DEF_STEREO_COUNT>
0

> <PUBCHEM_BOND_UDEF_STEREO_COUNT>
0

> <PUBCHEM_ISOTOPIC_ATOM_COUNT>
0

> <PUBCHEM_COMPONENT_COUNT>
1

> <PUBCHEM_CACTVS_TAUTO_COUNT>
1

> <PUBCHEM_CONFORMER_ID>
00B29D0800000002

> <PUBCHEM_MMFF94_ENERGY>
77.8944

> <PUBCHEM_FEATURE_SELFOVERLAP>
50.88

> <PUBCHEM_SHAPE_FINGERPRINT>
10 15 18341893005083128958
10050765 1 17679038237890096391
10299344 5 12829494748608586321
11135926 11 17313096454415169907
11181472 205 16772687506795020842
11315181 36 17704075093155580955
11408170 108 14779812829972671440
11456790 92 16443069391429249165
11578821 258 18060138781983623832
11607047 141 18115580449951265722
12013929 2 18412548692221715638
12089408 11 16917350307765102591
12758862 11 18412267233174427307
12838862 33 17967524667333908167
13668630 136 11386360440470530616
14251764 46 18409730659854305374
14344974 52 18343578573730615191
15247644 1 12757150181878509360
15461852 350 16917063382712244557
15510794 2 18272938215146601438
15840311 113 17989207058668124172
17093844 174 18334577954012668843
17324776 126 15001116126462310689
1754911 235 16917349247151111168
1818759 1 10375867489470276997
19301679 30 14779812812592061898
19315958 150 18272657826707030278
20105231 36 8358260350014500752
2026 5 10954000582740294640
21033648 29 18341887532440213074
21130935 74 18410294688657732954
21150785 3 15626502782935380077
21792934 111 18040995150898939340
23559900 14 18411981390907105121
23576562 1 15266761330365667633
24771293 8 18334856129837122949
335352 9 18113060437555324399
3383291 50 17677060151768442979
4073 2 18041288758609777787
4403749 210 18059572554827600574
44280117 145 18130223882784813239
57035037 87 17989210330499332473
5937810 71 17916871202099483265
6201320 215 15358239504196377175
636775 72 18341332206745585537
67123 10 17989204846063134247
9937071 3 12396291561639359232
9953998 17 18408602578362519595

> <PUBCHEM_SHAPE_MULTIPOLES>
621.45
33.34
2.06
1.2
18.85
0.01
0.11
18.75
6.5
0.24
0.41
0.64
0.32
2.48

> <PUBCHEM_SHAPE_SELFOVERLAP>
1327.366

> <PUBCHEM_SHAPE_VOLUME>
349.9

> <PUBCHEM_COORDINATE_TYPE>
2
5
10

$$$$
