REMARK  Name = 117072562
REMARK  7 active torsions:
REMARK  status: ('A' for Active; 'I' for Inactive)
REMARK    1  A    between atoms: C_7  and  O_22
REMARK    2  A    between atoms: C_7  and  C_29
REMARK    3  A    between atoms: C_10  and  O_24
REMARK    4  A    between atoms: C_11  and  O_26
REMARK    5  A    between atoms: C_29  and  C_31
REMARK    6  A    between atoms: C_31  and  C_32
REMARK    7  A    between atoms: C_32  and  O_33
REMARK                            x       y       z     vdW  Elec       q    Type
REMARK                         _______ _______ _______ _____ _____    ______ ____
ROOT
ATOM      1  F   UNL     1      -1.892   0.112   1.286  0.00  0.00    -0.237 F 
ATOM      2  O   UNL     1      -6.747   0.456   1.421  0.00  0.00    -0.287 OA
ATOM      3  C   UNL     1       1.296  -0.433  -0.111  0.00  0.00    +0.034 C 
ATOM      4  C   UNL     1       0.469   0.872  -0.095  0.00  0.00    +0.008 C 
ATOM      5  C   UNL     1      -0.906   0.727  -0.763  0.00  0.00    +0.034 C 
ATOM      6  C   UNL     1      -1.734  -0.369  -0.006  0.00  0.00    +0.164 C 
ATOM      7  C   UNL     1       2.600   0.092   0.553  0.00  0.00    +0.170 C 
ATOM      8  C   UNL     1       0.506  -1.486   0.692  0.00  0.00    +0.035 C 
ATOM      9  C   UNL     1       1.439   1.932  -0.623  0.00  0.00    +0.032 C 
ATOM     10  C   UNL     1      -0.936  -1.696   0.177  0.00  0.00    +0.141 C 
ATOM     11  C   UNL     1       2.827   1.457  -0.141  0.00  0.00    +0.142 C 
ATOM     12  C   UNL     1      -3.197  -0.507  -0.587  0.00  0.00    +0.064 C 
ATOM     13  C   UNL     1      -1.645   2.079  -0.764  0.00  0.00    +0.007 C 
ATOM     14  C   UNL     1       1.601  -0.955  -1.542  0.00  0.00    +0.003 C 
ATOM     15  C   UNL     1      -3.063   1.964  -1.312  0.00  0.00    +0.023 C 
ATOM     16  C   UNL     1      -3.826   0.892  -0.577  0.00  0.00    -0.035 C 
ATOM     17  C   UNL     1      -3.253  -1.047  -2.034  0.00  0.00    +0.011 C 
ATOM     18  C   UNL     1      -4.007  -1.480   0.257  0.00  0.00    -0.017 C 
ATOM     19  C   UNL     1      -4.962   1.195   0.071  0.00  0.00    +0.034 C 
ATOM     20  C   UNL     1      -5.138  -1.184   0.905  0.00  0.00    +0.038 C 
ATOM     21  C   UNL     1      -5.702   0.177   0.844  0.00  0.00    +0.195 C 
ENDROOT
BRANCH   7  22
ATOM     22  O   UNL     1       2.420   0.259   1.955  0.00  0.00    -0.377 OA
ATOM     23  H   UNL     1       1.669   0.851   2.116  0.00  0.00    +0.211 HD
ENDBRANCH   7  22
BRANCH  10  24
ATOM     24  O   UNL     1      -0.909  -2.456  -1.022  0.00  0.00    -0.382 OA
ATOM     25  H   UNL     1      -1.816  -2.586  -1.342  0.00  0.00    +0.210 HD
ENDBRANCH  10  24
BRANCH  11  26
ATOM     26  O   UNL     1       3.400   2.414   0.736  0.00  0.00    -0.382 OA
ATOM     27  H   UNL     1       4.271   2.103   1.030  0.00  0.00    +0.210 HD
ENDBRANCH  11  26
BRANCH   7  29
ATOM     28  O   UNL     1       3.677  -2.050   0.397  0.00  0.00    -0.286 OA
ATOM     29  C   UNL     1       3.775  -0.831   0.426  0.00  0.00    +0.236 C 
BRANCH  29  31
ATOM     30  O   UNL     1       5.545   0.463   1.261  0.00  0.00    -0.286 OA
ATOM     31  C   UNL     1       5.162  -0.230   0.327  0.00  0.00    +0.239 C 
BRANCH  31  32
ATOM     32  C   UNL     1       5.979  -0.521  -0.906  0.00  0.00    +0.210 C 
BRANCH  32  33
ATOM     33  O   UNL     1       7.221   0.153  -0.827  0.00  0.00    -0.375 OA
ATOM     34  H   UNL     1       7.743  -0.036  -1.622  0.00  0.00    +0.211 HD
ENDBRANCH  32  33
ENDBRANCH  31  32
ENDBRANCH  29  31
ENDBRANCH   7  29
TORSDOF 7
