REMARK  Name = 11712581
REMARK  13 active torsions:
REMARK  status: ('A' for Active; 'I' for Inactive)
REMARK    1  A    between atoms: C_2  and  O_7
REMARK    2  A    between atoms: C_3  and  O_9
REMARK    3  A    between atoms: C_4  and  C_23
REMARK    4  A    between atoms: C_5  and  O_11
REMARK    5  A    between atoms: C_6  and  O_13
REMARK    6  A    between atoms: O_13  and  C_14
REMARK    7  A    between atoms: C_19  and  C_21
REMARK    8  A    between atoms: C_23  and  O_24
REMARK    9  A    between atoms: O_24  and  C_26
REMARK   10  A    between atoms: C_26  and  C_27
REMARK   11  A    between atoms: C_28  and  C_29
REMARK   12  A    between atoms: C_32  and  O_35
REMARK   13  A    between atoms: C_34  and  O_37
REMARK                            x       y       z     vdW  Elec       q    Type
REMARK                         _______ _______ _______ _____ _____    ______ ____
ROOT
ATOM      1  O   UNL     1       3.007  -0.318   0.252  0.00  0.00    -0.315 OA
ATOM      2  C   UNL     1       5.042  -1.596  -0.066  0.00  0.00    +0.171 C 
ATOM      3  C   UNL     1       5.756  -0.346  -0.579  0.00  0.00    +0.173 C 
ATOM      4  C   UNL     1       3.537  -1.510  -0.331  0.00  0.00    +0.192 C 
ATOM      5  C   UNL     1       5.064   0.926  -0.090  0.00  0.00    +0.210 C 
ATOM      6  C   UNL     1       3.555   0.864  -0.326  0.00  0.00    +0.318 C 
ENDROOT
BRANCH   2   7
ATOM      7  O   UNL     1       5.571  -2.745  -0.724  0.00  0.00    -0.379 OA
ATOM      8  H   UNL     1       6.525  -2.802  -0.558  0.00  0.00    +0.211 HD
ENDBRANCH   2   7
BRANCH   3   9
ATOM      9  O   UNL     1       7.099  -0.374  -0.094  0.00  0.00    -0.379 OA
ATOM     10  H   UNL     1       7.539  -1.181  -0.404  0.00  0.00    +0.211 HD
ENDBRANCH   3   9
BRANCH   5  11
ATOM     11  O   UNL     1       5.582   2.050  -0.802  0.00  0.00    -0.377 OA
ATOM     12  H   UNL     1       6.541   2.107  -0.664  0.00  0.00    +0.211 HD
ENDBRANCH   5  11
BRANCH   6  13
ATOM     13  O   UNL     1       2.968   2.015   0.281  0.00  0.00    -0.451 OA
BRANCH  13  14
ATOM     14  C   UNL     1       1.610   2.139   0.173  0.00  0.00    +0.141 C 
ATOM     15  C   UNL     1       0.887   2.792   1.171  0.00  0.00    +0.037 C 
ATOM     16  C   UNL     1       0.949   1.614  -0.938  0.00  0.00    +0.037 C 
ATOM     17  C   UNL     1      -0.497   2.920   1.059  0.00  0.00    +0.006 C 
ATOM     18  C   UNL     1      -0.436   1.742  -1.049  0.00  0.00    +0.006 C 
ATOM     19  C   UNL     1      -1.159   2.395  -0.051  0.00  0.00    +0.035 C 
BRANCH  19  21
ATOM     20  O   UNL     1      -3.335   2.576   0.839  0.00  0.00    -0.291 OA
ATOM     21  C   UNL     1      -2.602   2.529  -0.168  0.00  0.00    +0.173 C 
ATOM     22  C   UNL     1      -3.257   2.616  -1.543  0.00  0.00    +0.077 C 
ENDBRANCH  19  21
ENDBRANCH  13  14
ENDBRANCH   6  13
BRANCH   4  23
ATOM     23  C   UNL     1       2.788  -2.691   0.276  0.00  0.00    +0.241 C 
BRANCH  23  24
ATOM     24  O   UNL     1       1.407  -2.539   0.001  0.00  0.00    -0.443 OA
BRANCH  24  26
ATOM     25  O   UNL     1       1.113  -1.358   1.965  0.00  0.00    -0.245 OA
ATOM     26  C   UNL     1       0.683  -1.848   0.933  0.00  0.00    +0.341 C 
BRANCH  26  27
ATOM     27  C   UNL     1      -0.725  -1.794   0.477  0.00  0.00    +0.082 C 
ATOM     28  C   UNL     1      -1.639  -1.165   1.229  0.00  0.00    +0.007 C 
BRANCH  28  29
ATOM     29  C   UNL     1      -3.064  -1.035   0.879  0.00  0.00    +0.003 C 
ATOM     30  C   UNL     1      -3.475  -1.198  -0.443  0.00  0.00    +0.040 C 
ATOM     31  C   UNL     1      -4.002  -0.748   1.871  0.00  0.00    +0.003 C 
ATOM     32  C   UNL     1      -4.825  -1.075  -0.774  0.00  0.00    +0.172 C 
ATOM     33  C   UNL     1      -5.352  -0.625   1.540  0.00  0.00    +0.040 C 
ATOM     34  C   UNL     1      -5.763  -0.788   0.217  0.00  0.00    +0.168 C 
BRANCH  32  35
ATOM     35  O   UNL     1      -5.214  -1.236  -2.070  0.00  0.00    -0.468 OA
ATOM     36  C   UNL     1      -4.193  -1.526  -3.022  0.00  0.00    +0.253 C 
ENDBRANCH  32  35
BRANCH  34  37
ATOM     37  O   UNL     1      -7.083  -0.666  -0.093  0.00  0.00    -0.503 OA
ATOM     38  H   UNL     1      -7.368  -0.774  -0.980  0.00  0.00    +0.292 HD
ENDBRANCH  34  37
ENDBRANCH  28  29
ENDBRANCH  26  27
ENDBRANCH  24  26
ENDBRANCH  23  24
ENDBRANCH   4  23
TORSDOF 13
