REMARK  Name = 11717517
REMARK  5 active torsions:
REMARK  status: ('A' for Active; 'I' for Inactive)
REMARK    1  A    between atoms: C_6  and  C_25
REMARK    2  A    between atoms: C_12  and  C_17
REMARK    3  A    between atoms: C_22  and  O_23
REMARK    4  A    between atoms: C_25  and  C_26
REMARK    5  A    between atoms: C_26  and  N_28
REMARK                            x       y       z     vdW  Elec       q    Type
REMARK                         _______ _______ _______ _____ _____    ______ ____
ROOT
ATOM      1  O   UNL     1       0.103  -0.732   0.372  0.00  0.00    -0.286 OA
ATOM      2  O   UNL     1       1.047   4.620  -0.320  0.00  0.00    -0.284 OA
ATOM      3  N   UNL     1       3.207   2.643   0.177  0.00  0.00    -0.309 N 
ATOM      4  N   UNL     1      -1.673   3.429  -0.407  0.00  0.00    -0.309 N 
ATOM      5  C   UNL     1       1.642   1.059   0.258  0.00  0.00    +0.053 C 
ATOM      6  C   UNL     1       2.907   0.456   0.468  0.00  0.00    -0.001 C 
ATOM      7  C   UNL     1       1.856   2.422   0.079  0.00  0.00    +0.092 C 
ATOM      8  C   UNL     1      -0.738   1.443  -0.027  0.00  0.00    +0.057 C 
ATOM      9  C   UNL     1      -0.472   2.797  -0.200  0.00  0.00    +0.092 C 
ATOM     10  C   UNL     1       0.313   0.465   0.216  0.00  0.00    +0.198 C 
ATOM     11  C   UNL     1       0.835   3.423  -0.166  0.00  0.00    +0.222 C 
ATOM     12  C   UNL     1      -2.140   1.268  -0.136  0.00  0.00    +0.019 C 
ATOM     13  C   UNL     1       3.852   1.456   0.413  0.00  0.00    +0.058 C 
ATOM     14  C   UNL     1      -2.690   2.510  -0.370  0.00  0.00    +0.062 C 
ATOM     15  H   UNL     1       3.645   3.520   0.091  0.00  0.00    +0.152 HD
ATOM     16  H   UNL     1      -1.786   4.395  -0.559  0.00  0.00    +0.152 HD
ENDROOT
BRANCH  12  17
ATOM     17  C   UNL     1      -2.944   0.084  -0.040  0.00  0.00    +0.002 C 
ATOM     18  C   UNL     1      -3.222  -0.666  -1.183  0.00  0.00    +0.003 C 
ATOM     19  C   UNL     1      -3.450  -0.319   1.196  0.00  0.00    +0.003 C 
ATOM     20  C   UNL     1      -4.004  -1.818  -1.090  0.00  0.00    +0.037 C 
ATOM     21  C   UNL     1      -4.231  -1.470   1.290  0.00  0.00    +0.037 C 
ATOM     22  C   UNL     1      -4.508  -2.220   0.146  0.00  0.00    +0.134 C 
BRANCH  22  23
ATOM     23  O   UNL     1      -5.271  -3.344   0.238  0.00  0.00    -0.506 OA
ATOM     24  H   UNL     1      -5.457  -3.847  -0.530  0.00  0.00    +0.292 HD
ENDBRANCH  22  23
ENDBRANCH  12  17
BRANCH   6  25
ATOM     25  C   UNL     1       3.183  -0.976   0.703  0.00  0.00    +0.049 C 
BRANCH  25  26
ATOM     26  C   UNL     1       3.434  -1.786  -0.580  0.00  0.00    +0.099 C 
BRANCH  26  28
ATOM     27  O   UNL     1       1.481  -3.899  -0.397  0.00  0.00    -0.265 OA
ATOM     28  N   UNL     1       3.708  -3.171  -0.305  0.00  0.00    -0.270 N 
ATOM     29  C   UNL     1       5.098  -3.565  -0.096  0.00  0.00    +0.115 C 
ATOM     30  C   UNL     1       2.679  -4.108  -0.240  0.00  0.00    +0.303 C 
ENDBRANCH  26  28
ENDBRANCH  25  26
ENDBRANCH   6  25
TORSDOF 5
