11711675
  -OEChem-03292013303D

 68 68  0     1  0  0  0  0  0999 V2000
   -3.3351   -0.3618    0.0999 O   0  0  0  0  0  0  0  0  0  0  0  0
   -2.6230    3.2440    0.4732 O   0  0  0  0  0  0  0  0  0  0  0  0
    0.3074   -0.6027    0.5967 O   0  0  0  0  0  0  0  0  0  0  0  0
   -4.6300    1.2840   -1.6299 O   0  0  0  0  0  0  0  0  0  0  0  0
   -5.7044   -1.8107    0.8718 O   0  0  0  0  0  0  0  0  0  0  0  0
   -5.4738   -1.4206   -1.3509 O   0  0  0  0  0  0  0  0  0  0  0  0
    1.0760   -1.0519   -1.5354 O   0  0  0  0  0  0  0  0  0  0  0  0
    4.7757   -3.9735    0.1245 O   0  0  0  0  0  0  0  0  0  0  0  0
   -3.5988    0.9961    0.4832 C   0  0  1  0  0  0  0  0  0  0  0  0
   -2.4511    1.9117   -0.0016 C   0  0  2  0  0  0  0  0  0  0  0  0
   -1.0707    1.3974    0.4409 C   0  0  1  0  0  0  0  0  0  0  0  0
   -0.9133   -0.0823    0.0597 C   0  0  2  0  0  0  0  0  0  0  0  0
   -2.1010   -0.9071    0.5682 C   0  0  2  0  0  0  0  0  0  0  0  0
   -4.9080    1.3693   -0.2333 C   0  0  2  0  0  0  0  0  0  0  0  0
   -3.8526    1.0929    1.9972 C   0  0  0  0  0  0  0  0  0  0  0  0
   -6.0755    0.4328    0.1196 C   0  0  1  0  0  0  0  0  0  0  0  0
    0.0589    2.2444   -0.1614 C   0  0  0  0  0  0  0  0  0  0  0  0
   -2.0296   -2.3501    0.0739 C   0  0  0  0  0  0  0  0  0  0  0  0
   -7.3733    0.7799   -0.6070 C   0  0  0  0  0  0  0  0  0  0  0  0
   -5.7151   -1.0076   -0.2241 C   0  0  0  0  0  0  0  0  0  0  0  0
    1.2058   -1.0502   -0.3216 C   0  0  0  0  0  0  0  0  0  0  0  0
    2.3883   -1.5459    0.4145 C   0  0  0  0  0  0  0  0  0  0  0  0
    3.4325   -2.0489   -0.2578 C   0  0  0  0  0  0  0  0  0  0  0  0
    4.6680   -2.5788    0.4162 C   0  0  2  0  0  0  0  0  0  0  0  0
    5.9548   -1.8842   -0.0503 C   0  0  0  0  0  0  0  0  0  0  0  0
    5.9775   -0.3842    0.2586 C   0  0  0  0  0  0  0  0  0  0  0  0
    7.2930    0.2533   -0.1958 C   0  0  0  0  0  0  0  0  0  0  0  0
    7.3822    1.7506    0.1134 C   0  0  0  0  0  0  0  0  0  0  0  0
    8.6641    2.4034   -0.4052 C   0  0  0  0  0  0  0  0  0  0  0  0
    8.6712    3.9008   -0.1372 C   0  0  0  0  0  0  0  0  0  0  0  0
   -2.4377    1.9608   -1.0966 H   0  0  0  0  0  0  0  0  0  0  0  0
   -0.9653    1.4995    1.5291 H   0  0  0  0  0  0  0  0  0  0  0  0
   -0.9319   -0.1283   -1.0383 H   0  0  0  0  0  0  0  0  0  0  0  0
   -2.1032   -0.9399    1.6642 H   0  0  0  0  0  0  0  0  0  0  0  0
   -5.1829    2.4078   -0.0107 H   0  0  0  0  0  0  0  0  0  0  0  0
   -4.3428    2.0332    2.2712 H   0  0  0  0  0  0  0  0  0  0  0  0
   -2.9183    1.0405    2.5652 H   0  0  0  0  0  0  0  0  0  0  0  0
   -4.4567    0.2582    2.3666 H   0  0  0  0  0  0  0  0  0  0  0  0
   -6.2941    0.4965    1.1913 H   0  0  0  0  0  0  0  0  0  0  0  0
    0.0599    2.1832   -1.2550 H   0  0  0  0  0  0  0  0  0  0  0  0
   -0.0453    3.2978    0.1181 H   0  0  0  0  0  0  0  0  0  0  0  0
    1.0377    1.9101    0.1975 H   0  0  0  0  0  0  0  0  0  0  0  0
   -2.9056   -2.9124    0.4153 H   0  0  0  0  0  0  0  0  0  0  0  0
   -1.1327   -2.8601    0.4369 H   0  0  0  0  0  0  0  0  0  0  0  0
   -2.0398   -2.3899   -1.0209 H   0  0  0  0  0  0  0  0  0  0  0  0
   -2.4733    3.2487    1.4335 H   0  0  0  0  0  0  0  0  0  0  0  0
   -5.3635    1.7094   -2.1047 H   0  0  0  0  0  0  0  0  0  0  0  0
   -7.2864    0.6539   -1.6914 H   0  0  0  0  0  0  0  0  0  0  0  0
   -7.6664    1.8150   -0.4043 H   0  0  0  0  0  0  0  0  0  0  0  0
   -8.1870    0.1266   -0.2724 H   0  0  0  0  0  0  0  0  0  0  0  0
    2.3873   -1.4904    1.4978 H   0  0  0  0  0  0  0  0  0  0  0  0
   -5.4780   -2.7374    0.6432 H   0  0  0  0  0  0  0  0  0  0  0  0
    3.4132   -2.1012   -1.3439 H   0  0  0  0  0  0  0  0  0  0  0  0
    4.5915   -2.4847    1.5063 H   0  0  0  0  0  0  0  0  0  0  0  0
    6.8127   -2.3748    0.4282 H   0  0  0  0  0  0  0  0  0  0  0  0
    6.0906   -2.0456   -1.1281 H   0  0  0  0  0  0  0  0  0  0  0  0
    5.8488   -0.2295    1.3366 H   0  0  0  0  0  0  0  0  0  0  0  0
    5.1456    0.1216   -0.2445 H   0  0  0  0  0  0  0  0  0  0  0  0
    8.1333   -0.2602    0.2876 H   0  0  0  0  0  0  0  0  0  0  0  0
    7.4094    0.1029   -1.2764 H   0  0  0  0  0  0  0  0  0  0  0  0
    6.5164    2.2561   -0.3325 H   0  0  0  0  0  0  0  0  0  0  0  0
    7.3106    1.8993    1.1980 H   0  0  0  0  0  0  0  0  0  0  0  0
    8.7586    2.2315   -1.4836 H   0  0  0  0  0  0  0  0  0  0  0  0
    9.5350    1.9427    0.0750 H   0  0  0  0  0  0  0  0  0  0  0  0
    3.9779   -4.4100    0.4697 H   0  0  0  0  0  0  0  0  0  0  0  0
    9.5968    4.3482   -0.5126 H   0  0  0  0  0  0  0  0  0  0  0  0
    8.6046    4.1073    0.9358 H   0  0  0  0  0  0  0  0  0  0  0  0
    7.8297    4.3929   -0.6353 H   0  0  0  0  0  0  0  0  0  0  0  0
  1  9  1  0  0  0  0
  1 13  1  0  0  0  0
  2 10  1  0  0  0  0
  2 46  1  0  0  0  0
  3 12  1  0  0  0  0
  3 21  1  0  0  0  0
  4 14  1  0  0  0  0
  4 47  1  0  0  0  0
  5 20  1  0  0  0  0
  5 52  1  0  0  0  0
  6 20  2  0  0  0  0
  7 21  2  0  0  0  0
  8 24  1  0  0  0  0
  8 65  1  0  0  0  0
  9 10  1  0  0  0  0
  9 14  1  0  0  0  0
  9 15  1  0  0  0  0
 10 11  1  0  0  0  0
 10 31  1  0  0  0  0
 11 12  1  0  0  0  0
 11 17  1  0  0  0  0
 11 32  1  0  0  0  0
 12 13  1  0  0  0  0
 12 33  1  0  0  0  0
 13 18  1  0  0  0  0
 13 34  1  0  0  0  0
 14 16  1  0  0  0  0
 14 35  1  0  0  0  0
 15 36  1  0  0  0  0
 15 37  1  0  0  0  0
 15 38  1  0  0  0  0
 16 19  1  0  0  0  0
 16 20  1  0  0  0  0
 16 39  1  0  0  0  0
 17 40  1  0  0  0  0
 17 41  1  0  0  0  0
 17 42  1  0  0  0  0
 18 43  1  0  0  0  0
 18 44  1  0  0  0  0
 18 45  1  0  0  0  0
 19 48  1  0  0  0  0
 19 49  1  0  0  0  0
 19 50  1  0  0  0  0
 21 22  1  0  0  0  0
 22 23  2  0  0  0  0
 22 51  1  0  0  0  0
 23 24  1  0  0  0  0
 23 53  1  0  0  0  0
 24 25  1  0  0  0  0
 24 54  1  0  0  0  0
 25 26  1  0  0  0  0
 25 55  1  0  0  0  0
 25 56  1  0  0  0  0
 26 27  1  0  0  0  0
 26 57  1  0  0  0  0
 26 58  1  0  0  0  0
 27 28  1  0  0  0  0
 27 59  1  0  0  0  0
 27 60  1  0  0  0  0
 28 29  1  0  0  0  0
 28 61  1  0  0  0  0
 28 62  1  0  0  0  0
 29 30  1  0  0  0  0
 29 63  1  0  0  0  0
 29 64  1  0  0  0  0
 30 66  1  0  0  0  0
 30 67  1  0  0  0  0
 30 68  1  0  0  0  0
M  END
> <PUBCHEM_COMPOUND_CID>
11711675

> <PUBCHEM_CONFORMER_RMSD>
1.2

> <PUBCHEM_CONFORMER_DIVERSEORDER>
1
54
10
26
51
20
23
14
13
38
48
32
34
49
31
16
7
25
28
4
43
35
45
9
36
24
40
21
5
53
29
12
30
19
18
2
52
42
37
47
11
15
17
44
39
22
41
33
55
8
27
46
6
50
3

> <PUBCHEM_MMFF94_PARTIAL_CHARGES>
25
1 -0.56
10 0.28
12 0.28
13 0.28
14 0.28
16 0.06
2 -0.68
20 0.66
21 0.71
22 -0.14
23 -0.29
24 0.42
3 -0.43
4 -0.68
46 0.4
47 0.4
5 -0.65
51 0.15
52 0.5
53 0.15
6 -0.57
65 0.4
7 -0.57
8 -0.68
9 0.28

> <PUBCHEM_EFFECTIVE_ROTOR_COUNT>
13.2

> <PUBCHEM_PHARMACOPHORE_FEATURES>
15
1 1 acceptor
1 19 hydrophobe
1 2 acceptor
1 2 donor
1 30 hydrophobe
1 4 acceptor
1 4 donor
1 5 acceptor
1 6 acceptor
1 7 acceptor
1 8 acceptor
1 8 donor
3 5 6 20 anion
5 25 26 27 28 29 hydrophobe
6 1 9 10 11 12 13 rings

> <PUBCHEM_HEAVY_ATOM_COUNT>
30

> <PUBCHEM_ATOM_DEF_STEREO_COUNT>
8

> <PUBCHEM_ATOM_UDEF_STEREO_COUNT>
0

> <PUBCHEM_BOND_DEF_STEREO_COUNT>
1

> <PUBCHEM_BOND_UDEF_STEREO_COUNT>
0

> <PUBCHEM_ISOTOPIC_ATOM_COUNT>
0

> <PUBCHEM_COMPONENT_COUNT>
1

> <PUBCHEM_CACTVS_TAUTO_COUNT>
1

> <PUBCHEM_CONFORMER_ID>
00B2B4BB00000001

> <PUBCHEM_MMFF94_ENERGY>
66.9224

> <PUBCHEM_FEATURE_SELFOVERLAP>
76.199

> <PUBCHEM_SHAPE_FINGERPRINT>
10 15 17894912932536864488
10595046 47 18340486673523363242
10838868 160 18270954778586881496
10906281 52 17846228695719323986
10917259 128 14491010702476911045
10939801 23 18412826910632294190
11101153 10 18411982429735809328
11374522 155 18188776188405243716
11991303 11 16917339360104813718
12166972 35 17894639110711821415
12236239 1 17823138921582299427
12717326 25 11671784926708238205
12821665 9 18340486759274977062
14394314 77 18340776957104367784
14400156 162 10447652439326926037
1454969 45 18273493472686631182
14565420 104 18187079577891860706
14856354 85 15554439717710789837
15685185 35 18120373414215285148
15890870 6 18338238276231390892
16067689 302 18342181093623933134
20511986 3 17894906300553887190
20609170 114 17388819970749174226
20721686 56 18334581252420977680
21267235 1 18410575060175241411
23402539 116 18339919291211301703
23522609 53 17702963430485180592
23559900 14 18411129234887978577
23569943 247 10807670973486549844
335352 9 18340198606573485837
34797466 226 18059582347990656710
3918712 181 18268706277424435888
4073 2 18261114092887386314
4169191 19 18410576206219684112
4325135 7 18341611486771714526
4625314 4 18340768122740871694
550186 72 18339361868617721740
99344 41 18336547222557123140

> <PUBCHEM_SHAPE_MULTIPOLES>
570.43
24.1
3.83
1.02
36.96
0.37
0.03
12.86
-2.6
7.82
0.07
-1.26
0.09
-0.63

> <PUBCHEM_SHAPE_SELFOVERLAP>
1135.21

> <PUBCHEM_SHAPE_VOLUME>
336.1

> <PUBCHEM_COORDINATE_TYPE>
2
5
10

$$$$
