11719358
  -OEChem-03292013303D

 62 64  0     1  0  0  0  0  0999 V2000
    1.7541    3.1070    1.9484 O   0  0  0  0  0  0  0  0  0  0  0  0
   -1.3137    2.8949    1.2639 O   0  0  0  0  0  0  0  0  0  0  0  0
    3.7081   -0.6722   -1.7143 O   0  0  0  0  0  0  0  0  0  0  0  0
   -0.9581   -1.5440    0.5495 O   0  0  0  0  0  0  0  0  0  0  0  0
   -3.2767    3.2233    0.1233 O   0  0  0  0  0  0  0  0  0  0  0  0
   -4.2033    0.4124   -0.5332 O   0  0  0  0  0  0  0  0  0  0  0  0
    4.7236   -1.2624    0.2750 O   0  0  0  0  0  0  0  0  0  0  0  0
    0.8491   -2.6982    1.3862 O   0  0  0  0  0  0  0  0  0  0  0  0
   -4.9993   -0.5829   -2.4601 O   0  0  0  0  0  0  0  0  0  0  0  0
    2.3010    1.9253    1.3467 C   0  0  1  0  0  0  0  0  0  0  0  0
    0.9985    2.5201    0.8804 C   0  0  1  0  0  0  0  0  0  0  0  0
   -0.2960    1.8818    1.2788 C   0  0  2  0  0  0  0  0  0  0  0  0
    3.5684    2.1130    0.5755 C   0  0  0  0  0  0  0  0  0  0  0  0
    2.3437    0.8524    2.4155 C   0  0  0  0  0  0  0  0  0  0  0  0
    3.5096    1.5918   -0.8701 C   0  0  0  0  0  0  0  0  0  0  0  0
   -0.8265    0.8365    0.3478 C   0  0  0  0  0  0  0  0  0  0  0  0
    2.8330    0.2123   -1.0111 C   0  0  1  0  0  0  0  0  0  0  0  0
   -0.0956   -0.4688    0.1622 C   0  0  2  0  0  0  0  0  0  0  0  0
    1.4735    0.3129   -1.7576 C   0  0  2  0  0  0  0  0  0  0  0  0
    0.4590   -0.7359   -1.2546 C   0  0  0  0  0  0  0  0  0  0  0  0
   -1.9901    1.2268   -0.1829 C   0  0  0  0  0  0  0  0  0  0  0  0
   -2.2950    2.5493    0.3855 C   0  0  0  0  0  0  0  0  0  0  0  0
    1.6344    0.1904   -3.2788 C   0  0  0  0  0  0  0  0  0  0  0  0
   -2.9236    0.5714   -1.1302 C   0  0  0  0  0  0  0  0  0  0  0  0
    4.6051   -1.3463   -0.9400 C   0  0  0  0  0  0  0  0  0  0  0  0
   -0.3472   -2.5976    1.1532 C   0  0  0  0  0  0  0  0  0  0  0  0
    5.4499   -2.2301   -1.8066 C   0  0  0  0  0  0  0  0  0  0  0  0
   -1.3643   -3.6308    1.4950 C   0  0  0  0  0  0  0  0  0  0  0  0
   -5.1551   -0.1836   -1.3140 C   0  0  0  0  0  0  0  0  0  0  0  0
   -2.5952   -3.7869    0.6557 C   0  0  0  0  0  0  0  0  0  0  0  0
   -1.1259   -4.3972    2.5694 C   0  0  0  0  0  0  0  0  0  0  0  0
   -6.4453   -0.2846   -0.5582 C   0  0  0  0  0  0  0  0  0  0  0  0
    0.9564    3.0664   -0.0521 H   0  0  0  0  0  0  0  0  0  0  0  0
   -0.2911    1.4984    2.3017 H   0  0  0  0  0  0  0  0  0  0  0  0
    4.3935    1.6065    1.0920 H   0  0  0  0  0  0  0  0  0  0  0  0
    3.8441    3.1749    0.5500 H   0  0  0  0  0  0  0  0  0  0  0  0
    3.1120    1.1191    3.1520 H   0  0  0  0  0  0  0  0  0  0  0  0
    2.6277   -0.1234    2.0167 H   0  0  0  0  0  0  0  0  0  0  0  0
    1.4187    0.7267    2.9796 H   0  0  0  0  0  0  0  0  0  0  0  0
    4.5332    1.5656   -1.2645 H   0  0  0  0  0  0  0  0  0  0  0  0
    2.9806    2.3365   -1.4777 H   0  0  0  0  0  0  0  0  0  0  0  0
    2.6451   -0.2221   -0.0341 H   0  0  0  0  0  0  0  0  0  0  0  0
    0.7392   -0.4518    0.8595 H   0  0  0  0  0  0  0  0  0  0  0  0
    1.0313    1.2972   -1.5769 H   0  0  0  0  0  0  0  0  0  0  0  0
   -0.3824   -0.7988   -1.9557 H   0  0  0  0  0  0  0  0  0  0  0  0
    0.9195   -1.7324   -1.2848 H   0  0  0  0  0  0  0  0  0  0  0  0
    2.3687    0.9107   -3.6540 H   0  0  0  0  0  0  0  0  0  0  0  0
    0.6832    0.3957   -3.7822 H   0  0  0  0  0  0  0  0  0  0  0  0
    1.9531   -0.8151   -3.5735 H   0  0  0  0  0  0  0  0  0  0  0  0
   -3.0147    1.1887   -2.0321 H   0  0  0  0  0  0  0  0  0  0  0  0
   -2.5517   -0.4144   -1.4266 H   0  0  0  0  0  0  0  0  0  0  0  0
    6.0036   -1.6228   -2.5269 H   0  0  0  0  0  0  0  0  0  0  0  0
    6.1671   -2.7713   -1.1828 H   0  0  0  0  0  0  0  0  0  0  0  0
    4.8177   -2.9580   -2.3214 H   0  0  0  0  0  0  0  0  0  0  0  0
   -3.2385   -2.9055    0.7463 H   0  0  0  0  0  0  0  0  0  0  0  0
   -2.3232   -3.9121   -0.3976 H   0  0  0  0  0  0  0  0  0  0  0  0
   -3.1847   -4.6615    0.9508 H   0  0  0  0  0  0  0  0  0  0  0  0
   -1.8272   -5.1681    2.8725 H   0  0  0  0  0  0  0  0  0  0  0  0
   -0.2356   -4.2788    3.1784 H   0  0  0  0  0  0  0  0  0  0  0  0
   -6.7939    0.7147   -0.2853 H   0  0  0  0  0  0  0  0  0  0  0  0
   -7.2014   -0.7563   -1.1923 H   0  0  0  0  0  0  0  0  0  0  0  0
   -6.3044   -0.9006    0.3335 H   0  0  0  0  0  0  0  0  0  0  0  0
  1 10  1  0  0  0  0
  1 11  1  0  0  0  0
  2 12  1  0  0  0  0
  2 22  1  0  0  0  0
  3 17  1  0  0  0  0
  3 25  1  0  0  0  0
  4 18  1  0  0  0  0
  4 26  1  0  0  0  0
  5 22  2  0  0  0  0
  6 24  1  0  0  0  0
  6 29  1  0  0  0  0
  7 25  2  0  0  0  0
  8 26  2  0  0  0  0
  9 29  2  0  0  0  0
 10 11  1  0  0  0  0
 10 13  1  0  0  0  0
 10 14  1  0  0  0  0
 11 12  1  0  0  0  0
 11 33  1  0  0  0  0
 12 16  1  0  0  0  0
 12 34  1  0  0  0  0
 13 15  1  0  0  0  0
 13 35  1  0  0  0  0
 13 36  1  0  0  0  0
 14 37  1  0  0  0  0
 14 38  1  0  0  0  0
 14 39  1  0  0  0  0
 15 17  1  0  0  0  0
 15 40  1  0  0  0  0
 15 41  1  0  0  0  0
 16 18  1  0  0  0  0
 16 21  2  0  0  0  0
 17 19  1  0  0  0  0
 17 42  1  0  0  0  0
 18 20  1  0  0  0  0
 18 43  1  0  0  0  0
 19 20  1  0  0  0  0
 19 23  1  0  0  0  0
 19 44  1  0  0  0  0
 20 45  1  0  0  0  0
 20 46  1  0  0  0  0
 21 22  1  0  0  0  0
 21 24  1  0  0  0  0
 23 47  1  0  0  0  0
 23 48  1  0  0  0  0
 23 49  1  0  0  0  0
 24 50  1  0  0  0  0
 24 51  1  0  0  0  0
 25 27  1  0  0  0  0
 26 28  1  0  0  0  0
 27 52  1  0  0  0  0
 27 53  1  0  0  0  0
 27 54  1  0  0  0  0
 28 30  1  0  0  0  0
 28 31  2  0  0  0  0
 29 32  1  0  0  0  0
 30 55  1  0  0  0  0
 30 56  1  0  0  0  0
 30 57  1  0  0  0  0
 31 58  1  0  0  0  0
 31 59  1  0  0  0  0
 32 60  1  0  0  0  0
 32 61  1  0  0  0  0
 32 62  1  0  0  0  0
M  END
> <PUBCHEM_COMPOUND_CID>
11719358

> <PUBCHEM_CONFORMER_RMSD>
1

> <PUBCHEM_CONFORMER_DIVERSEORDER>
1
8
11
10
9
5
2
6
3
4
7

> <PUBCHEM_MMFF94_PARTIAL_CHARGES>
31
1 -0.3
10 -0.04
11 -0.05
12 0.51
13 0.09
14 0.09
16 -0.28
17 0.28
18 0.42
2 -0.43
21 -0.12
22 0.71
24 0.42
25 0.66
26 0.71
27 0.06
28 -0.12
29 0.66
3 -0.43
30 0.14
31 -0.3
32 0.06
33 0.1
4 -0.43
5 -0.57
58 0.15
59 0.15
6 -0.43
7 -0.57
8 -0.57
9 -0.57

> <PUBCHEM_EFFECTIVE_ROTOR_COUNT>
9.6

> <PUBCHEM_PHARMACOPHORE_FEATURES>
6
1 1 acceptor
1 5 acceptor
1 7 acceptor
1 8 acceptor
1 9 acceptor
5 2 12 16 21 22 rings

> <PUBCHEM_HEAVY_ATOM_COUNT>
32

> <PUBCHEM_ATOM_DEF_STEREO_COUNT>
6

> <PUBCHEM_ATOM_UDEF_STEREO_COUNT>
0

> <PUBCHEM_BOND_DEF_STEREO_COUNT>
0

> <PUBCHEM_BOND_UDEF_STEREO_COUNT>
0

> <PUBCHEM_ISOTOPIC_ATOM_COUNT>
0

> <PUBCHEM_COMPONENT_COUNT>
1

> <PUBCHEM_CACTVS_TAUTO_COUNT>
1

> <PUBCHEM_CONFORMER_ID>
00B2D2BE00000001

> <PUBCHEM_MMFF94_ENERGY>
66.3937

> <PUBCHEM_FEATURE_SELFOVERLAP>
30.45

> <PUBCHEM_SHAPE_FINGERPRINT>
10190108 129 18263662697196484689
108634 29 18194673989627938579
10906281 52 18055910154588784689
11578080 2 18045510960727675820
12107698 1 18060412495637152332
12293681 25 18198062675558616802
12422481 6 16916773085556417525
14784336 7 18122059806847781890
17909252 39 17704067395666851255
19319366 153 18260817191010594831
20691752 17 18409450250003760065
20775438 99 17984956414343012087
21781051 124 17821734961835836131
22393880 68 18268137674491939853
23419403 2 17841455909296050011
23559900 14 18336830900397733060
244849 19 18126284374680536338
3052486 1 17824818091066085603
484989 97 18261405480590483211
57527585 103 17695395479103322790
6669772 16 18268693064980581954

> <PUBCHEM_SHAPE_MULTIPOLES>
605.72
9.63
4.69
2.56
4.92
3.73
-0.63
1.54
-6.3
1.56
3.97
-0.97
0.6
2.36

> <PUBCHEM_SHAPE_SELFOVERLAP>
1256.675

> <PUBCHEM_SHAPE_VOLUME>
344.9

> <PUBCHEM_COORDINATE_TYPE>
2
5
10

$$$$
