11710937
  -OEChem-03292013303D

 47 51  0     1  0  0  0  0  0999 V2000
   -2.7692    1.6119   -1.9111 O   0  0  0  0  0  0  0  0  0  0  0  0
   -1.8702   -1.2154    0.2736 O   0  0  0  0  0  0  0  0  0  0  0  0
   -1.8900    3.7715    0.5123 O   0  0  0  0  0  0  0  0  0  0  0  0
    2.9494    2.7532    0.9637 O   0  0  0  0  0  0  0  0  0  0  0  0
    0.6126   -2.2997   -1.0565 O   0  0  0  0  0  0  0  0  0  0  0  0
   -3.3431   -2.4135   -1.0360 O   0  0  0  0  0  0  0  0  0  0  0  0
    4.9798    1.2125    0.8171 O   0  0  0  0  0  0  0  0  0  0  0  0
   -2.9591    1.9676   -0.5294 C   0  0  1  0  0  0  0  0  0  0  0  0
   -2.8722    0.5407   -0.9631 C   0  0  2  0  0  0  0  0  0  0  0  0
   -1.6250   -0.2505   -0.7498 C   0  0  1  0  0  0  0  0  0  0  0  0
   -1.7917    2.6354    0.0672 C   0  0  0  0  0  0  0  0  0  0  0  0
   -0.4264    0.5612   -0.3261 C   0  0  0  0  0  0  0  0  0  0  0  0
   -4.3300    2.4949   -0.2630 C   0  0  0  0  0  0  0  0  0  0  0  0
   -0.5018    1.9051    0.0885 C   0  0  0  0  0  0  0  0  0  0  0  0
    0.8474   -0.0082   -0.2885 C   0  0  0  0  0  0  0  0  0  0  0  0
    1.9993    0.6872    0.1337 C   0  0  0  0  0  0  0  0  0  0  0  0
    0.6455    2.6125    0.5162 C   0  0  0  0  0  0  0  0  0  0  0  0
    1.9022    2.0036    0.5406 C   0  0  0  0  0  0  0  0  0  0  0  0
    1.2919   -1.3837   -0.6471 C   0  0  0  0  0  0  0  0  0  0  0  0
    3.1518   -0.1840    0.0569 C   0  0  0  0  0  0  0  0  0  0  0  0
    2.7479   -1.4413   -0.4124 C   0  0  0  0  0  0  0  0  0  0  0  0
   -2.9324   -2.0501    0.0584 C   0  0  0  0  0  0  0  0  0  0  0  0
   -3.5403   -2.4533    1.3904 C   0  0  0  0  0  0  0  0  0  0  0  0
    4.4845    0.0367    0.3589 C   0  0  0  0  0  0  0  0  0  0  0  0
    3.6182   -2.4975   -0.5962 C   0  0  0  0  0  0  0  0  0  0  0  0
    5.3894   -1.0172    0.1819 C   0  0  0  0  0  0  0  0  0  0  0  0
    4.9601   -2.2714   -0.2910 C   0  0  0  0  0  0  0  0  0  0  0  0
   -4.6089   -1.4447    1.7947 C   0  0  0  0  0  0  0  0  0  0  0  0
   -4.1199   -3.8635    1.3161 C   0  0  0  0  0  0  0  0  0  0  0  0
   -3.7812   -0.0367   -1.0437 H   0  0  0  0  0  0  0  0  0  0  0  0
   -1.3837   -0.7675   -1.6874 H   0  0  0  0  0  0  0  0  0  0  0  0
   -4.4067    3.5427   -0.5721 H   0  0  0  0  0  0  0  0  0  0  0  0
   -5.1060    1.9368   -0.7984 H   0  0  0  0  0  0  0  0  0  0  0  0
   -4.5559    2.4365    0.8068 H   0  0  0  0  0  0  0  0  0  0  0  0
    0.5549    3.6516    0.8273 H   0  0  0  0  0  0  0  0  0  0  0  0
   -2.7419   -2.4634    2.1430 H   0  0  0  0  0  0  0  0  0  0  0  0
    3.2826   -3.4611   -0.9605 H   0  0  0  0  0  0  0  0  0  0  0  0
    2.6437    3.6459    1.1985 H   0  0  0  0  0  0  0  0  0  0  0  0
    6.4432   -0.8742    0.4104 H   0  0  0  0  0  0  0  0  0  0  0  0
    5.6845   -3.0714   -0.4189 H   0  0  0  0  0  0  0  0  0  0  0  0
   -5.0509   -1.7082    2.7610 H   0  0  0  0  0  0  0  0  0  0  0  0
   -5.4123   -1.3966    1.0512 H   0  0  0  0  0  0  0  0  0  0  0  0
   -4.1825   -0.4393    1.8808 H   0  0  0  0  0  0  0  0  0  0  0  0
   -4.4995   -4.1803    2.2931 H   0  0  0  0  0  0  0  0  0  0  0  0
   -3.3550   -4.5811    0.9997 H   0  0  0  0  0  0  0  0  0  0  0  0
   -4.9441   -3.9211    0.5965 H   0  0  0  0  0  0  0  0  0  0  0  0
    4.4288    1.9355    0.4818 H   0  0  0  0  0  0  0  0  0  0  0  0
  1  8  1  0  0  0  0
  1  9  1  0  0  0  0
  2 10  1  0  0  0  0
  2 22  1  0  0  0  0
  3 11  2  0  0  0  0
  4 18  1  0  0  0  0
  4 38  1  0  0  0  0
  5 19  2  0  0  0  0
  6 22  2  0  0  0  0
  7 24  1  0  0  0  0
  7 47  1  0  0  0  0
  8  9  1  0  0  0  0
  8 11  1  0  0  0  0
  8 13  1  0  0  0  0
  9 10  1  0  0  0  0
  9 30  1  0  0  0  0
 10 12  1  0  0  0  0
 10 31  1  0  0  0  0
 11 14  1  0  0  0  0
 12 14  1  0  0  0  0
 12 15  2  0  0  0  0
 13 32  1  0  0  0  0
 13 33  1  0  0  0  0
 13 34  1  0  0  0  0
 14 17  2  0  0  0  0
 15 16  1  0  0  0  0
 15 19  1  0  0  0  0
 16 18  2  0  0  0  0
 16 20  1  0  0  0  0
 17 18  1  0  0  0  0
 17 35  1  0  0  0  0
 19 21  1  0  0  0  0
 20 21  2  0  0  0  0
 20 24  1  0  0  0  0
 21 25  1  0  0  0  0
 22 23  1  0  0  0  0
 23 28  1  0  0  0  0
 23 29  1  0  0  0  0
 23 36  1  0  0  0  0
 24 26  2  0  0  0  0
 25 27  2  0  0  0  0
 25 37  1  0  0  0  0
 26 27  1  0  0  0  0
 26 39  1  0  0  0  0
 27 40  1  0  0  0  0
 28 41  1  0  0  0  0
 28 42  1  0  0  0  0
 28 43  1  0  0  0  0
 29 44  1  0  0  0  0
 29 45  1  0  0  0  0
 29 46  1  0  0  0  0
M  END
> <PUBCHEM_COMPOUND_CID>
11710937

> <PUBCHEM_CONFORMER_RMSD>
0.8

> <PUBCHEM_CONFORMER_DIVERSEORDER>
1
2
3
4

> <PUBCHEM_MMFF94_PARTIAL_CHARGES>
32
1 -0.3
10 0.52
11 0.48
12 -0.14
13 0.09
14 0.09
15 0.09
17 -0.15
18 0.08
19 0.4
2 -0.43
21 0.09
22 0.66
23 0.06
24 0.08
25 -0.15
26 -0.15
27 -0.15
3 -0.57
30 0.1
35 0.15
37 0.15
38 0.45
39 0.15
4 -0.53
40 0.15
47 0.45
5 -0.57
6 -0.57
7 -0.53
8 0.05
9 -0.05

> <PUBCHEM_EFFECTIVE_ROTOR_COUNT>
3.4

> <PUBCHEM_PHARMACOPHORE_FEATURES>
11
1 1 acceptor
1 3 acceptor
1 4 donor
1 5 acceptor
1 6 acceptor
1 7 donor
3 23 28 29 hydrophobe
5 15 16 19 20 21 rings
6 12 14 15 16 17 18 rings
6 20 21 24 25 26 27 rings
7 1 8 9 10 11 12 14 rings

> <PUBCHEM_HEAVY_ATOM_COUNT>
29

> <PUBCHEM_ATOM_DEF_STEREO_COUNT>
3

> <PUBCHEM_ATOM_UDEF_STEREO_COUNT>
0

> <PUBCHEM_BOND_DEF_STEREO_COUNT>
0

> <PUBCHEM_BOND_UDEF_STEREO_COUNT>
0

> <PUBCHEM_ISOTOPIC_ATOM_COUNT>
0

> <PUBCHEM_COMPONENT_COUNT>
1

> <PUBCHEM_CACTVS_TAUTO_COUNT>
31

> <PUBCHEM_CONFORMER_ID>
00B2B1D900000001

> <PUBCHEM_MMFF94_ENERGY>
94.7542

> <PUBCHEM_FEATURE_SELFOVERLAP>
56.009

> <PUBCHEM_SHAPE_FINGERPRINT>
10675989 125 16825017444418150604
10906281 52 17986400983542731716
1100329 8 16539048737618615973
11135609 12 18261396680075581409
11578080 2 16772077402669957113
12422481 6 18341910609821870491
12553582 1 18195817481494407855
12633257 1 18198646422339706947
13140716 1 18412547621582654705
133893 2 15337402779064741163
13402501 40 18339642244334933903
13544653 18 18337110175971750135
14223421 5 18339360867588550492
14363568 33 17833559268051072961
14790565 3 17765999402368026521
15042514 8 18335709317091460025
15196674 1 18200021846703121020
15475509 84 17916325920971195849
17492 89 18408604773376268098
1813 80 17314514931973084855
19591789 44 17547849015969284740
20739085 24 18123765397835846657
21033648 144 18336533925053467084
21033648 29 17631146672570015258
21267235 1 18057323881923452332
221490 88 18411418427857603216
22182313 1 18340193202518449892
23559900 14 18269827645733728384
2748010 2 18269261508081494117
3178227 256 18123200004943593089
335352 9 18198899202307765972
3380486 145 18122339353536761255
350125 39 18338804519168941108
3737641 26 18194978549753204366
4015057 19 18200572740614998029
4058900 60 17540536821384723525
4073 2 18336827490616134730
5104073 3 18410848850927842104
5309563 4 18121501520891272747
56638632 10 17056101171935939848
70251023 43 18125421250059007407
9709674 26 18342731875998107252

> <PUBCHEM_SHAPE_MULTIPOLES>
555.72
10.18
4.44
1.19
5.88
0.14
-0.03
5.25
-1.94
-4.13
-1.01
-1.09
0.33
2.61

> <PUBCHEM_SHAPE_SELFOVERLAP>
1256.322

> <PUBCHEM_SHAPE_VOLUME>
291.7

> <PUBCHEM_COORDINATE_TYPE>
2
5
10

$$$$
