REMARK  Name = 11717831
REMARK  9 active torsions:
REMARK  status: ('A' for Active; 'I' for Inactive)
REMARK    1  A    between atoms: C_3  and  C_13
REMARK    2  A    between atoms: C_4  and  C_22
REMARK    3  A    between atoms: C_5  and  C_24
REMARK    4  A    between atoms: C_6  and  S_25
REMARK    5  A    between atoms: C_10  and  O_16
REMARK    6  A    between atoms: O_16  and  C_17
REMARK    7  A    between atoms: C_17  and  C_18
REMARK    8  A    between atoms: S_25  and  C_26
REMARK    9  A    between atoms: C_26  and  C_29
REMARK                            x       y       z     vdW  Elec       q    Type
REMARK                         _______ _______ _______ _____ _____    ______ ____
ROOT
ATOM      1  N   UNL     1      -3.316   1.067   0.313  0.00  0.00    -0.384 NA
ATOM      2  N   UNL     1      -3.107   3.416   0.149  0.00  0.00    -0.332 N 
ATOM      3  C   UNL     1      -0.535   0.782   0.073  0.00  0.00    +0.012 C 
ATOM      4  C   UNL     1      -1.352  -0.340   0.217  0.00  0.00    +0.172 C 
ATOM      5  C   UNL     1      -1.122   2.048   0.051  0.00  0.00    +0.109 C 
ATOM      6  C   UNL     1      -2.719  -0.146   0.331  0.00  0.00    +0.154 C 
ATOM      7  C   UNL     1      -2.499   2.135   0.172  0.00  0.00    +0.187 C 
ATOM      8  H   UNL     1      -4.085   3.499   0.234  0.00  0.00    +0.145 HD
ATOM      9  H   UNL     1      -2.552   4.223   0.047  0.00  0.00    +0.145 HD
ENDROOT
BRANCH   3  13
ATOM     10  C   UNL     1       3.665   0.358  -0.289  0.00  0.00    +0.139 C 
ATOM     11  C   UNL     1       3.085   0.500   0.972  0.00  0.00    +0.037 C 
ATOM     12  C   UNL     1       2.863   0.355  -1.430  0.00  0.00    +0.037 C 
ATOM     13  C   UNL     1       0.899   0.636  -0.050  0.00  0.00    -0.002 C 
ATOM     14  C   UNL     1       1.702   0.639   1.091  0.00  0.00    +0.003 C 
ATOM     15  C   UNL     1       1.480   0.494  -1.310  0.00  0.00    +0.003 C 
BRANCH  10  16
ATOM     16  O   UNL     1       5.014   0.223  -0.406  0.00  0.00    -0.475 OA
BRANCH  16  17
ATOM     17  C   UNL     1       5.700  -0.406   0.676  0.00  0.00    +0.205 C 
BRANCH  17  18
ATOM     18  C   UNL     1       6.914  -1.131   0.135  0.00  0.00    +0.044 C 
ATOM     19  C   UNL     1       6.700  -2.213  -0.860  0.00  0.00    +0.004 C 
ATOM     20  C   UNL     1       7.125  -2.545   0.540  0.00  0.00    +0.004 C 
ENDBRANCH  17  18
ENDBRANCH  16  17
ENDBRANCH  10  16
ENDBRANCH   3  13
BRANCH   4  22
ATOM     21  N   UNL     1      -0.315  -2.714   0.260  0.00  0.00    -0.195 NA
ATOM     22  C   UNL     1      -0.777  -1.656   0.240  0.00  0.00    +0.084 C 
ENDBRANCH   4  22
BRANCH   5  24
ATOM     23  N   UNL     1       0.327   4.179  -0.215  0.00  0.00    -0.191 NA
ATOM     24  C   UNL     1      -0.319   3.229  -0.097  0.00  0.00    +0.104 C 
ENDBRANCH   5  24
BRANCH   6  25
ATOM     25  S   UNL     1      -3.860  -1.517   0.521  0.00  0.00    -0.076 S 
BRANCH  25  26
ATOM     26  C   UNL     1      -5.348  -0.857  -0.276  0.00  0.00    +0.149 C 
BRANCH  26  29
ATOM     27  O   UNL     1      -6.862  -2.349   0.851  0.00  0.00    -0.274 OA
ATOM     28  N   UNL     1      -6.901  -2.290  -1.447  0.00  0.00    -0.328 N 
ATOM     29  C   UNL     1      -6.440  -1.896  -0.211  0.00  0.00    +0.231 C 
ATOM     30  H   UNL     1      -7.615  -2.965  -1.513  0.00  0.00    +0.145 HD
ATOM     31  H   UNL     1      -6.518  -1.897  -2.264  0.00  0.00    +0.145 HD
ENDBRANCH  26  29
ENDBRANCH  25  26
ENDBRANCH   6  25
TORSDOF 9
