REMARK  Name = 11712263
REMARK  7 active torsions:
REMARK  status: ('A' for Active; 'I' for Inactive)
REMARK    1  A    between atoms: N_1  and  C_8
REMARK    2  A    between atoms: C_2  and  C_19
REMARK    3  A    between atoms: C_8  and  C_10
REMARK    4  A    between atoms: C_10  and  C_16
REMARK    5  A    between atoms: C_16  and  O_17
REMARK    6  A    between atoms: C_19  and  N_22
REMARK    7  A    between atoms: N_24  and  C_34
REMARK                            x       y       z     vdW  Elec       q    Type
REMARK                         _______ _______ _______ _____ _____    ______ ____
ROOT
ATOM      1  N   UNL     1      -3.525   1.205  -0.064  0.00  0.00    +0.387 N 
ATOM      2  C   UNL     1      -0.735   1.762  -0.770  0.00  0.00    +0.016 C 
ATOM      3  C   UNL     1      -3.053   2.590  -0.190  0.00  0.00    -0.077 C 
ATOM      4  C   UNL     1      -2.450   0.318   0.401  0.00  0.00    -0.077 C 
ATOM      5  C   UNL     1      -1.887   2.688  -1.176  0.00  0.00    -0.021 C 
ATOM      6  C   UNL     1      -1.263   0.338  -0.565  0.00  0.00    -0.021 C 
ATOM      7  H   UNL     1      -3.818   0.887  -0.987  0.00  0.00    -0.080 HD
ENDROOT
BRANCH   1   8
ATOM      8  C   UNL     1      -4.672   1.136   0.842  0.00  0.00    -0.066 C 
BRANCH   8  10
ATOM      9  O   UNL     1      -7.976  -1.010  -0.752  0.00  0.00    -0.354 OA
ATOM     10  C   UNL     1      -5.551  -0.084   0.542  0.00  0.00    +0.076 C 
ATOM     11  C   UNL     1      -6.950   0.102   1.152  0.00  0.00    +0.041 C 
ATOM     12  C   UNL     1      -5.659  -0.307  -0.975  0.00  0.00    +0.041 C 
ATOM     13  C   UNL     1      -7.926  -0.970   0.673  0.00  0.00    +0.143 C 
ATOM     14  C   UNL     1      -6.715  -1.353  -1.322  0.00  0.00    +0.143 C 
BRANCH  10  16
ATOM     15  O   UNL     1      -4.482  -2.263   0.589  0.00  0.00    -0.250 OA
ATOM     16  C   UNL     1      -4.869  -1.268   1.184  0.00  0.00    +0.311 C 
BRANCH  16  17
ATOM     17  O   UNL     1      -4.743  -1.081   2.521  0.00  0.00    -0.480 OA
ATOM     18  H   UNL     1      -5.061  -0.294   2.916  0.00  0.00    +0.295 HD
ENDBRANCH  16  17
ENDBRANCH  10  16
ENDBRANCH   8  10
ENDBRANCH   1   8
BRANCH   2  19
ATOM     19  C   UNL     1       0.383   1.789  -1.809  0.00  0.00    +0.091 C 
BRANCH  19  22
ATOM     20  O   UNL     1       2.603   2.644  -0.289  0.00  0.00    -0.249 OA
ATOM     21  O   UNL     1       2.770  -1.544  -1.389  0.00  0.00    -0.246 OA
ATOM     22  N   UNL     1       1.499   0.966  -1.406  0.00  0.00    -0.286 N 
ATOM     23  N   UNL     1       3.549   0.493  -0.364  0.00  0.00    -0.214 N 
ATOM     24  N   UNL     1       4.801  -1.430  -0.190  0.00  0.00    -0.281 N 
ATOM     25  C   UNL     1       2.560   1.468  -0.653  0.00  0.00    +0.323 C 
ATOM     26  C   UNL     1       4.727   0.762   0.389  0.00  0.00    +0.088 A 
ATOM     27  C   UNL     1       3.597  -0.920  -0.737  0.00  0.00    +0.339 A 
ATOM     28  C   UNL     1       5.477  -0.411   0.488  0.00  0.00    +0.080 A 
ATOM     29  C   UNL     1       5.177   1.931   0.979  0.00  0.00    +0.019 C 
ATOM     30  C   UNL     1       6.682  -0.467   1.165  0.00  0.00    +0.019 C 
ATOM     31  C   UNL     1       6.395   1.895   1.669  0.00  0.00    +0.002 C 
ATOM     32  C   UNL     1       7.140   0.708   1.761  0.00  0.00    +0.002 C 
ATOM     33  H   UNL     1       1.512   0.018  -1.672  0.00  0.00    +0.151 HD
BRANCH  24  34
ATOM     34  C   UNL     1       5.279  -2.786  -0.300  0.00  0.00    +0.090 C 
ATOM     35  C   UNL     1       4.301  -3.752   0.357  0.00  0.00    +0.025 C 
ATOM     36  C   UNL     1       5.515  -3.148  -1.760  0.00  0.00    +0.025 C 
ENDBRANCH  24  34
ENDBRANCH  19  22
ENDBRANCH   2  19
TORSDOF 7
