REMARK  Name = 11719358
REMARK  8 active torsions:
REMARK  status: ('A' for Active; 'I' for Inactive)
REMARK    1  A    between atoms: C_11  and  O_18
REMARK    2  A    between atoms: C_12  and  O_22
REMARK    3  A    between atoms: C_15  and  C_28
REMARK    4  A    between atoms: O_18  and  C_20
REMARK    5  A    between atoms: O_22  and  C_24
REMARK    6  A    between atoms: C_24  and  C_25
REMARK    7  A    between atoms: C_28  and  O_29
REMARK    8  A    between atoms: O_29  and  C_31
REMARK                            x       y       z     vdW  Elec       q    Type
REMARK                         _______ _______ _______ _____ _____    ______ ____
ROOT
ATOM      1  O   UNL     1       1.754   3.107   1.948  0.00  0.00    -0.352 OA
ATOM      2  O   UNL     1      -1.314   2.895   1.264  0.00  0.00    -0.442 OA
ATOM      3  O   UNL     1      -3.277   3.223   0.123  0.00  0.00    -0.245 OA
ATOM      4  C   UNL     1       2.301   1.925   1.347  0.00  0.00    +0.122 C 
ATOM      5  C   UNL     1       0.999   2.520   0.880  0.00  0.00    +0.184 C 
ATOM      6  C   UNL     1      -0.296   1.882   1.279  0.00  0.00    +0.220 C 
ATOM      7  C   UNL     1       3.568   2.113   0.576  0.00  0.00    +0.033 C 
ATOM      8  C   UNL     1       2.344   0.852   2.416  0.00  0.00    +0.032 C 
ATOM      9  C   UNL     1       3.510   1.592  -0.870  0.00  0.00    +0.046 C 
ATOM     10  C   UNL     1      -0.827   0.837   0.348  0.00  0.00    +0.043 C 
ATOM     11  C   UNL     1       2.833   0.212  -1.011  0.00  0.00    +0.169 C 
ATOM     12  C   UNL     1      -0.096  -0.469   0.162  0.00  0.00    +0.191 C 
ATOM     13  C   UNL     1       1.474   0.313  -1.758  0.00  0.00    +0.044 C 
ATOM     14  C   UNL     1       0.459  -0.736  -1.255  0.00  0.00    +0.052 C 
ATOM     15  C   UNL     1      -1.990   1.227  -0.183  0.00  0.00    +0.096 C 
ATOM     16  C   UNL     1      -2.295   2.549   0.386  0.00  0.00    +0.341 C 
ATOM     17  C   UNL     1       1.634   0.190  -3.279  0.00  0.00    +0.004 C 
ENDROOT
BRANCH  11  18
ATOM     18  O   UNL     1       3.708  -0.672  -1.714  0.00  0.00    -0.452 OA
BRANCH  18  20
ATOM     19  O   UNL     1       4.724  -1.262   0.275  0.00  0.00    -0.250 OA
ATOM     20  C   UNL     1       4.605  -1.346  -0.940  0.00  0.00    +0.317 C 
ATOM     21  C   UNL     1       5.450  -2.230  -1.807  0.00  0.00    +0.121 C 
ENDBRANCH  18  20
ENDBRANCH  11  18
BRANCH  12  22
ATOM     22  O   UNL     1      -0.958  -1.544   0.549  0.00  0.00    -0.445 OA
BRANCH  22  24
ATOM     23  O   UNL     1       0.849  -2.698   1.386  0.00  0.00    -0.245 OA
ATOM     24  C   UNL     1      -0.347  -2.598   1.153  0.00  0.00    +0.337 C 
BRANCH  24  25
ATOM     25  C   UNL     1      -1.364  -3.631   1.495  0.00  0.00    +0.054 C 
ATOM     26  C   UNL     1      -2.595  -3.787   0.656  0.00  0.00    +0.038 C 
ATOM     27  C   UNL     1      -1.126  -4.397   2.569  0.00  0.00    +0.002 C 
ENDBRANCH  24  25
ENDBRANCH  22  24
ENDBRANCH  12  22
BRANCH  15  28
ATOM     28  C   UNL     1      -2.924   0.571  -1.130  0.00  0.00    +0.241 C 
BRANCH  28  29
ATOM     29  O   UNL     1      -4.203   0.412  -0.533  0.00  0.00    -0.443 OA
BRANCH  29  31
ATOM     30  O   UNL     1      -4.999  -0.583  -2.460  0.00  0.00    -0.250 OA
ATOM     31  C   UNL     1      -5.155  -0.184  -1.314  0.00  0.00    +0.318 C 
ATOM     32  C   UNL     1      -6.445  -0.285  -0.558  0.00  0.00    +0.121 C 
ENDBRANCH  29  31
ENDBRANCH  28  29
ENDBRANCH  15  28
TORSDOF 8
