REMARK  Name = 11710937
REMARK  5 active torsions:
REMARK  status: ('A' for Active; 'I' for Inactive)
REMARK    1  A    between atoms: C_6  and  O_26
REMARK    2  A    between atoms: C_14  and  O_22
REMARK    3  A    between atoms: C_18  and  O_24
REMARK    4  A    between atoms: O_26  and  C_28
REMARK    5  A    between atoms: C_28  and  C_29
REMARK                            x       y       z     vdW  Elec       q    Type
REMARK                         _______ _______ _______ _____ _____    ______ ____
ROOT
ATOM      1  O   UNL     1      -2.769   1.612  -1.911  0.00  0.00    -0.344 OA
ATOM      2  O   UNL     1      -1.890   3.772   0.512  0.00  0.00    -0.289 OA
ATOM      3  O   UNL     1       0.613  -2.300  -1.056  0.00  0.00    -0.287 OA
ATOM      4  C   UNL     1      -2.959   1.968  -0.529  0.00  0.00    +0.176 C 
ATOM      5  C   UNL     1      -2.872   0.541  -0.963  0.00  0.00    +0.191 C 
ATOM      6  C   UNL     1      -1.625  -0.251  -0.750  0.00  0.00    +0.221 C 
ATOM      7  C   UNL     1      -1.792   2.635   0.067  0.00  0.00    +0.200 C 
ATOM      8  C   UNL     1      -0.426   0.561  -0.326  0.00  0.00    +0.026 C 
ATOM      9  C   UNL     1      -4.330   2.495  -0.263  0.00  0.00    +0.040 C 
ATOM     10  C   UNL     1      -0.502   1.905   0.088  0.00  0.00    +0.040 C 
ATOM     11  C   UNL     1       0.847  -0.008  -0.288  0.00  0.00    +0.042 C 
ATOM     12  C   UNL     1       1.999   0.687   0.134  0.00  0.00    +0.040 C 
ATOM     13  C   UNL     1       0.645   2.612   0.516  0.00  0.00    +0.039 C 
ATOM     14  C   UNL     1       1.902   2.004   0.541  0.00  0.00    +0.134 C 
ATOM     15  C   UNL     1       1.292  -1.384  -0.647  0.00  0.00    +0.196 C 
ATOM     16  C   UNL     1       3.152  -0.184   0.057  0.00  0.00    +0.040 C 
ATOM     17  C   UNL     1       2.748  -1.441  -0.412  0.00  0.00    +0.042 C 
ATOM     18  C   UNL     1       4.484   0.037   0.359  0.00  0.00    +0.134 C 
ATOM     19  C   UNL     1       3.618  -2.498  -0.596  0.00  0.00    +0.003 C 
ATOM     20  C   UNL     1       5.389  -1.017   0.182  0.00  0.00    +0.037 C 
ATOM     21  C   UNL     1       4.960  -2.271  -0.291  0.00  0.00    +0.003 C 
ENDROOT
BRANCH  14  22
ATOM     22  O   UNL     1       2.949   2.753   0.964  0.00  0.00    -0.506 OA
ATOM     23  H   UNL     1       3.809   2.382   0.995  0.00  0.00    +0.292 HD
ENDBRANCH  14  22
BRANCH  18  24
ATOM     24  O   UNL     1       4.980   1.212   0.817  0.00  0.00    -0.506 OA
ATOM     25  H   UNL     1       4.407   1.942   0.949  0.00  0.00    +0.292 HD
ENDBRANCH  18  24
BRANCH   6  26
ATOM     26  O   UNL     1      -1.870  -1.215   0.274  0.00  0.00    -0.445 OA
BRANCH  26  28
ATOM     27  O   UNL     1      -3.343  -2.413  -1.036  0.00  0.00    -0.250 OA
ATOM     28  C   UNL     1      -2.932  -2.050   0.058  0.00  0.00    +0.317 C 
BRANCH  28  29
ATOM     29  C   UNL     1      -3.540  -2.453   1.390  0.00  0.00    +0.099 C 
ATOM     30  C   UNL     1      -4.609  -1.445   1.795  0.00  0.00    +0.012 C 
ATOM     31  C   UNL     1      -4.120  -3.864   1.316  0.00  0.00    +0.012 C 
ENDBRANCH  28  29
ENDBRANCH  26  28
ENDBRANCH   6  26
TORSDOF 5
