REMARK  Name = 11711225
REMARK  7 active torsions:
REMARK  status: ('A' for Active; 'I' for Inactive)
REMARK    1  A    between atoms: C_11  and  O_18
REMARK    2  A    between atoms: C_13  and  O_22
REMARK    3  A    between atoms: C_15  and  C_28
REMARK    4  A    between atoms: O_18  and  C_20
REMARK    5  A    between atoms: O_22  and  C_24
REMARK    6  A    between atoms: C_24  and  C_25
REMARK    7  A    between atoms: C_28  and  O_29
REMARK                            x       y       z     vdW  Elec       q    Type
REMARK                         _______ _______ _______ _____ _____    ______ ____
ROOT
ATOM      1  O   UNL     1       0.858   2.547   2.291  0.00  0.00    -0.352 OA
ATOM      2  O   UNL     1      -1.915   2.568   0.796  0.00  0.00    -0.442 OA
ATOM      3  O   UNL     1      -3.484   3.100  -0.791  0.00  0.00    -0.245 OA
ATOM      4  C   UNL     1       1.507   1.388   1.750  0.00  0.00    +0.122 C 
ATOM      5  C   UNL     1       0.400   2.092   1.010  0.00  0.00    +0.184 C 
ATOM      6  C   UNL     1      -0.975   1.500   0.988  0.00  0.00    +0.220 C 
ATOM      7  C   UNL     1       2.942   1.563   1.365  0.00  0.00    +0.033 C 
ATOM      8  C   UNL     1       1.222   0.232   2.687  0.00  0.00    +0.032 C 
ATOM      9  C   UNL     1       3.259   1.164  -0.085  0.00  0.00    +0.046 C 
ATOM     10  C   UNL     1      -1.268   0.565  -0.144  0.00  0.00    +0.042 C 
ATOM     11  C   UNL     1       2.599  -0.158  -0.529  0.00  0.00    +0.169 C 
ATOM     12  C   UNL     1       1.497   0.081  -1.599  0.00  0.00    +0.044 C 
ATOM     13  C   UNL     1      -0.559  -0.761  -0.248  0.00  0.00    +0.191 C 
ATOM     14  C   UNL     1       0.349  -0.945  -1.484  0.00  0.00    +0.052 C 
ATOM     15  C   UNL     1      -2.231   1.063  -0.927  0.00  0.00    +0.081 C 
ATOM     16  C   UNL     1      -2.633   2.351  -0.341  0.00  0.00    +0.339 C 
ATOM     17  C   UNL     1       2.060   0.071  -3.026  0.00  0.00    +0.004 C 
ENDROOT
BRANCH  11  18
ATOM     18  O   UNL     1       3.602  -1.032  -1.053  0.00  0.00    -0.452 OA
BRANCH  18  20
ATOM     19  O   UNL     1       4.754  -0.921   0.947  0.00  0.00    -0.250 OA
ATOM     20  C   UNL     1       4.623  -1.328  -0.200  0.00  0.00    +0.317 C 
ATOM     21  C   UNL     1       5.592  -2.248  -0.879  0.00  0.00    +0.121 C 
ENDBRANCH  18  20
ENDBRANCH  11  18
BRANCH  13  22
ATOM     22  O   UNL     1      -1.530  -1.812  -0.207  0.00  0.00    -0.445 OA
BRANCH  22  24
ATOM     23  O   UNL     1      -2.213  -1.105   1.875  0.00  0.00    -0.245 OA
ATOM     24  C   UNL     1      -2.290  -1.865   0.919  0.00  0.00    +0.337 C 
BRANCH  24  25
ATOM     25  C   UNL     1      -3.247  -3.002   0.819  0.00  0.00    +0.054 C 
ATOM     26  C   UNL     1      -3.260  -3.874  -0.399  0.00  0.00    +0.038 C 
ATOM     27  C   UNL     1      -4.078  -3.200   1.853  0.00  0.00    +0.002 C 
ENDBRANCH  24  25
ENDBRANCH  22  24
ENDBRANCH  13  22
BRANCH  15  28
ATOM     28  C   UNL     1      -2.894   0.541  -2.146  0.00  0.00    +0.170 C 
BRANCH  28  29
ATOM     29  O   UNL     1      -2.688   1.425  -3.239  0.00  0.00    -0.377 OA
ATOM     30  H   UNL     1      -3.127   1.071  -4.028  0.00  0.00    +0.211 HD
ENDBRANCH  28  29
ENDBRANCH  15  28
TORSDOF 7
