11711225
  -OEChem-03292013303D

 57 59  0     1  0  0  0  0  0999 V2000
    0.8580    2.5470    2.2908 O   0  0  0  0  0  0  0  0  0  0  0  0
   -1.9151    2.5679    0.7961 O   0  0  0  0  0  0  0  0  0  0  0  0
    3.6016   -1.0321   -1.0526 O   0  0  0  0  0  0  0  0  0  0  0  0
   -1.5301   -1.8123   -0.2068 O   0  0  0  0  0  0  0  0  0  0  0  0
   -3.4836    3.0996   -0.7912 O   0  0  0  0  0  0  0  0  0  0  0  0
   -2.6875    1.4251   -3.2391 O   0  0  0  0  0  0  0  0  0  0  0  0
    4.7541   -0.9209    0.9465 O   0  0  0  0  0  0  0  0  0  0  0  0
   -2.2130   -1.1055    1.8746 O   0  0  0  0  0  0  0  0  0  0  0  0
    1.5070    1.3878    1.7497 C   0  0  1  0  0  0  0  0  0  0  0  0
    0.4003    2.0924    1.0102 C   0  0  1  0  0  0  0  0  0  0  0  0
   -0.9745    1.4998    0.9877 C   0  0  2  0  0  0  0  0  0  0  0  0
    2.9415    1.5635    1.3655 C   0  0  0  0  0  0  0  0  0  0  0  0
    1.2224    0.2319    2.6867 C   0  0  0  0  0  0  0  0  0  0  0  0
    3.2587    1.1643   -0.0854 C   0  0  0  0  0  0  0  0  0  0  0  0
   -1.2682    0.5651   -0.1440 C   0  0  0  0  0  0  0  0  0  0  0  0
    2.5992   -0.1580   -0.5293 C   0  0  1  0  0  0  0  0  0  0  0  0
    1.4969    0.0806   -1.5987 C   0  0  2  0  0  0  0  0  0  0  0  0
   -0.5591   -0.7611   -0.2483 C   0  0  2  0  0  0  0  0  0  0  0  0
    0.3492   -0.9450   -1.4843 C   0  0  0  0  0  0  0  0  0  0  0  0
   -2.2306    1.0632   -0.9273 C   0  0  0  0  0  0  0  0  0  0  0  0
   -2.6330    2.3512   -0.3405 C   0  0  0  0  0  0  0  0  0  0  0  0
    2.0596    0.0715   -3.0264 C   0  0  0  0  0  0  0  0  0  0  0  0
   -2.8943    0.5410   -2.1459 C   0  0  0  0  0  0  0  0  0  0  0  0
    4.6232   -1.3281   -0.1999 C   0  0  0  0  0  0  0  0  0  0  0  0
   -2.2901   -1.8647    0.9190 C   0  0  0  0  0  0  0  0  0  0  0  0
    5.5918   -2.2480   -0.8793 C   0  0  0  0  0  0  0  0  0  0  0  0
   -3.2469   -3.0019    0.8187 C   0  0  0  0  0  0  0  0  0  0  0  0
   -3.2597   -3.8742   -0.3991 C   0  0  0  0  0  0  0  0  0  0  0  0
   -4.0778   -3.2001    1.8525 C   0  0  0  0  0  0  0  0  0  0  0  0
    0.6304    2.7138    0.1555 H   0  0  0  0  0  0  0  0  0  0  0  0
   -1.2498    1.0634    1.9469 H   0  0  0  0  0  0  0  0  0  0  0  0
    3.2386    2.6114    1.5024 H   0  0  0  0  0  0  0  0  0  0  0  0
    3.5792    0.9921    2.0491 H   0  0  0  0  0  0  0  0  0  0  0  0
    1.7845    0.3848    3.6166 H   0  0  0  0  0  0  0  0  0  0  0  0
    0.1782    0.1260    2.9830 H   0  0  0  0  0  0  0  0  0  0  0  0
    1.5558   -0.7251    2.2808 H   0  0  0  0  0  0  0  0  0  0  0  0
    4.3440    1.1850   -0.2359 H   0  0  0  0  0  0  0  0  0  0  0  0
    2.8930    1.9796   -0.7239 H   0  0  0  0  0  0  0  0  0  0  0  0
    2.1720   -0.6866    0.3191 H   0  0  0  0  0  0  0  0  0  0  0  0
    1.0534    1.0698   -1.4524 H   0  0  0  0  0  0  0  0  0  0  0  0
    0.0641   -0.9113    0.6329 H   0  0  0  0  0  0  0  0  0  0  0  0
   -0.2733   -0.9039   -2.3868 H   0  0  0  0  0  0  0  0  0  0  0  0
    0.7599   -1.9638   -1.4753 H   0  0  0  0  0  0  0  0  0  0  0  0
    2.8918    0.7764   -3.1235 H   0  0  0  0  0  0  0  0  0  0  0  0
    2.4122   -0.9236   -3.3174 H   0  0  0  0  0  0  0  0  0  0  0  0
    1.2876    0.3709   -3.7439 H   0  0  0  0  0  0  0  0  0  0  0  0
   -2.5327   -0.4503   -2.4309 H   0  0  0  0  0  0  0  0  0  0  0  0
   -3.9731    0.4564   -1.9797 H   0  0  0  0  0  0  0  0  0  0  0  0
   -1.7300    1.4675   -3.4058 H   0  0  0  0  0  0  0  0  0  0  0  0
    6.4114   -2.4820   -0.1939 H   0  0  0  0  0  0  0  0  0  0  0  0
    5.0893   -3.1794   -1.1521 H   0  0  0  0  0  0  0  0  0  0  0  0
    6.0070   -1.7603   -1.7648 H   0  0  0  0  0  0  0  0  0  0  0  0
   -3.4849   -3.2829   -1.2930 H   0  0  0  0  0  0  0  0  0  0  0  0
   -2.2879   -4.3601   -0.5346 H   0  0  0  0  0  0  0  0  0  0  0  0
   -4.0153   -4.6641   -0.3286 H   0  0  0  0  0  0  0  0  0  0  0  0
   -4.7981   -4.0122    1.8396 H   0  0  0  0  0  0  0  0  0  0  0  0
   -4.0727   -2.5715    2.7367 H   0  0  0  0  0  0  0  0  0  0  0  0
  1  9  1  0  0  0  0
  1 10  1  0  0  0  0
  2 11  1  0  0  0  0
  2 21  1  0  0  0  0
  3 16  1  0  0  0  0
  3 24  1  0  0  0  0
  4 18  1  0  0  0  0
  4 25  1  0  0  0  0
  5 21  2  0  0  0  0
  6 23  1  0  0  0  0
  6 49  1  0  0  0  0
  7 24  2  0  0  0  0
  8 25  2  0  0  0  0
  9 10  1  0  0  0  0
  9 12  1  0  0  0  0
  9 13  1  0  0  0  0
 10 11  1  0  0  0  0
 10 30  1  0  0  0  0
 11 15  1  0  0  0  0
 11 31  1  0  0  0  0
 12 14  1  0  0  0  0
 12 32  1  0  0  0  0
 12 33  1  0  0  0  0
 13 34  1  0  0  0  0
 13 35  1  0  0  0  0
 13 36  1  0  0  0  0
 14 16  1  0  0  0  0
 14 37  1  0  0  0  0
 14 38  1  0  0  0  0
 15 18  1  0  0  0  0
 15 20  2  0  0  0  0
 16 17  1  0  0  0  0
 16 39  1  0  0  0  0
 17 19  1  0  0  0  0
 17 22  1  0  0  0  0
 17 40  1  0  0  0  0
 18 19  1  0  0  0  0
 18 41  1  0  0  0  0
 19 42  1  0  0  0  0
 19 43  1  0  0  0  0
 20 21  1  0  0  0  0
 20 23  1  0  0  0  0
 22 44  1  0  0  0  0
 22 45  1  0  0  0  0
 22 46  1  0  0  0  0
 23 47  1  0  0  0  0
 23 48  1  0  0  0  0
 24 26  1  0  0  0  0
 25 27  1  0  0  0  0
 26 50  1  0  0  0  0
 26 51  1  0  0  0  0
 26 52  1  0  0  0  0
 27 28  1  0  0  0  0
 27 29  2  0  0  0  0
 28 53  1  0  0  0  0
 28 54  1  0  0  0  0
 28 55  1  0  0  0  0
 29 56  1  0  0  0  0
 29 57  1  0  0  0  0
M  END
> <PUBCHEM_COMPOUND_CID>
11711225

> <PUBCHEM_CONFORMER_RMSD>
1

> <PUBCHEM_CONFORMER_DIVERSEORDER>
1
9
7
5
6
4
8
3
2

> <PUBCHEM_MMFF94_PARTIAL_CHARGES>
29
1 -0.3
10 -0.05
11 0.51
12 0.09
13 0.09
15 -0.28
16 0.28
18 0.42
2 -0.43
20 -0.12
21 0.71
23 0.42
24 0.66
25 0.71
26 0.06
27 -0.12
28 0.14
29 -0.3
3 -0.43
30 0.1
4 -0.43
49 0.4
5 -0.57
56 0.15
57 0.15
6 -0.68
7 -0.57
8 -0.57
9 -0.04

> <PUBCHEM_EFFECTIVE_ROTOR_COUNT>
7.6

> <PUBCHEM_PHARMACOPHORE_FEATURES>
7
1 1 acceptor
1 5 acceptor
1 6 acceptor
1 6 donor
1 7 acceptor
1 8 acceptor
5 2 11 15 20 21 rings

> <PUBCHEM_HEAVY_ATOM_COUNT>
29

> <PUBCHEM_ATOM_DEF_STEREO_COUNT>
6

> <PUBCHEM_ATOM_UDEF_STEREO_COUNT>
0

> <PUBCHEM_BOND_DEF_STEREO_COUNT>
0

> <PUBCHEM_BOND_UDEF_STEREO_COUNT>
0

> <PUBCHEM_ISOTOPIC_ATOM_COUNT>
0

> <PUBCHEM_COMPONENT_COUNT>
1

> <PUBCHEM_CACTVS_TAUTO_COUNT>
1

> <PUBCHEM_CONFORMER_ID>
00B2B2F900000001

> <PUBCHEM_MMFF94_ENERGY>
68.9204

> <PUBCHEM_FEATURE_SELFOVERLAP>
35.525

> <PUBCHEM_SHAPE_FINGERPRINT>
10764073 3 18057630727693752907
10906281 52 17488472871266317096
11578080 2 18336547234666441765
12035759 4 16153978157860325339
12293681 25 18125696110590682527
12633257 1 17773062867049174643
12643181 29 18046915871176681918
13140716 1 18060149708532508760
133893 2 16987422299704301528
13583140 156 18201714068408111414
15163728 17 17028508579691795805
15664445 248 17612327641812877509
1813 80 17826237586315641467
23419403 2 18270959180157622061
23559900 14 18334850653859322006
3380486 145 17982436402695988319
484985 159 18126022485118861626
57527585 103 17843430421531206294
59755656 520 18117842097079994143

> <PUBCHEM_SHAPE_MULTIPOLES>
549.85
8.2
3.87
2.69
6.5
1.21
0.79
6.78
0.42
-4.27
-0.88
-0.31
-0.79
2.97

> <PUBCHEM_SHAPE_SELFOVERLAP>
1148.869

> <PUBCHEM_SHAPE_VOLUME>
310.8

> <PUBCHEM_COORDINATE_TYPE>
2
5
10

$$$$
