REMARK  Name = 11711453
REMARK  11 active torsions:
REMARK  status: ('A' for Active; 'I' for Inactive)
REMARK    1  A    between atoms: C_1  and  C_29
REMARK    2  A    between atoms: C_2  and  C_32
REMARK    3  A    between atoms: C_3  and  C_11
REMARK    4  A    between atoms: C_7  and  O_23
REMARK    5  A    between atoms: C_9  and  O_27
REMARK    6  A    between atoms: C_10  and  O_25
REMARK    7  A    between atoms: C_14  and  O_17
REMARK    8  A    between atoms: C_15  and  O_19
REMARK    9  A    between atoms: C_16  and  O_21
REMARK   10  A    between atoms: C_29  and  O_30
REMARK   11  A    between atoms: C_32  and  O_33
REMARK                            x       y       z     vdW  Elec       q    Type
REMARK                         _______ _______ _______ _____ _____    ______ ____
ROOT
ATOM      1  C   UNL     1       0.616   2.428  -0.117  0.00  0.00    +0.040 C 
ATOM      2  C   UNL     1       2.145   2.656  -0.037  0.00  0.00    +0.037 C 
ATOM      3  C   UNL     1       0.226   1.055   0.526  0.00  0.00    +0.050 C 
ATOM      4  C   UNL     1       2.860   1.536  -0.806  0.00  0.00    +0.029 C 
ATOM      5  C   UNL     1       1.241  -0.066   0.311  0.00  0.00    +0.015 C 
ATOM      6  C   UNL     1       2.479   0.169  -0.310  0.00  0.00    -0.020 C 
ATOM      7  C   UNL     1       0.966  -1.360   0.793  0.00  0.00    +0.171 C 
ATOM      8  C   UNL     1       3.377  -0.895  -0.502  0.00  0.00    +0.036 C 
ATOM      9  C   UNL     1       1.871  -2.406   0.612  0.00  0.00    +0.202 C 
ATOM     10  C   UNL     1       3.074  -2.175  -0.044  0.00  0.00    +0.175 C 
ENDROOT
BRANCH   3  11
ATOM     11  C   UNL     1      -1.182   0.648   0.088  0.00  0.00    -0.012 C 
ATOM     12  C   UNL     1      -2.189   0.544   1.037  0.00  0.00    +0.036 C 
ATOM     13  C   UNL     1      -1.432   0.388  -1.252  0.00  0.00    +0.036 C 
ATOM     14  C   UNL     1      -2.716   0.016  -1.651  0.00  0.00    +0.175 C 
ATOM     15  C   UNL     1      -3.473   0.172   0.637  0.00  0.00    +0.175 C 
ATOM     16  C   UNL     1      -3.736  -0.092  -0.707  0.00  0.00    +0.202 C 
BRANCH  14  17
ATOM     17  O   UNL     1      -2.960  -0.236  -2.968  0.00  0.00    -0.468 OA
ATOM     18  C   UNL     1      -2.780  -1.579  -3.414  0.00  0.00    +0.253 C 
ENDBRANCH  14  17
BRANCH  15  19
ATOM     19  O   UNL     1      -4.461   0.072   1.570  0.00  0.00    -0.468 OA
ATOM     20  C   UNL     1      -4.636  -1.198   2.196  0.00  0.00    +0.253 C 
ENDBRANCH  15  19
BRANCH  16  21
ATOM     21  O   UNL     1      -4.992  -0.453  -1.097  0.00  0.00    -0.501 OA
ATOM     22  H   UNL     1      -5.169  -0.630  -2.000  0.00  0.00    +0.292 HD
ENDBRANCH  16  21
ENDBRANCH   3  11
BRANCH   7  23
ATOM     23  O   UNL     1      -0.189  -1.620   1.478  0.00  0.00    -0.469 OA
ATOM     24  C   UNL     1      -0.052  -2.104   2.810  0.00  0.00    +0.253 C 
ENDBRANCH   7  23
BRANCH  10  25
ATOM     25  O   UNL     1       3.968  -3.184  -0.235  0.00  0.00    -0.468 OA
ATOM     26  C   UNL     1       3.842  -3.943  -1.436  0.00  0.00    +0.253 C 
ENDBRANCH  10  25
BRANCH   9  27
ATOM     27  O   UNL     1       1.582  -3.653   1.082  0.00  0.00    -0.501 OA
ATOM     28  H   UNL     1       0.772  -3.810   1.525  0.00  0.00    +0.292 HD
ENDBRANCH   9  27
BRANCH   1  29
ATOM     29  C   UNL     1      -0.168   3.571   0.548  0.00  0.00    +0.138 C 
BRANCH  29  30
ATOM     30  O   UNL     1       0.145   3.573   1.925  0.00  0.00    -0.382 OA
ATOM     31  H   UNL     1      -0.340   4.288   2.366  0.00  0.00    +0.210 HD
ENDBRANCH  29  30
ENDBRANCH   1  29
BRANCH   2  32
ATOM     32  C   UNL     1       2.586   4.010  -0.602  0.00  0.00    +0.138 C 
BRANCH  32  33
ATOM     33  O   UNL     1       3.985   4.128  -0.433  0.00  0.00    -0.382 OA
ATOM     34  H   UNL     1       4.283   4.981  -0.786  0.00  0.00    +0.210 HD
ENDBRANCH  32  33
ENDBRANCH   2  32
TORSDOF 11
