REMARK  Name = 11711675
REMARK  16 active torsions:
REMARK  status: ('A' for Active; 'I' for Inactive)
REMARK    1  A    between atoms: C_2  and  C_26
REMARK    2  A    between atoms: C_3  and  O_10
REMARK    3  A    between atoms: C_5  and  O_12
REMARK    4  A    between atoms: O_12  and  C_14
REMARK    5  A    between atoms: C_14  and  C_15
REMARK    6  A    between atoms: C_16  and  C_17
REMARK    7  A    between atoms: C_17  and  O_18
REMARK    8  A    between atoms: C_17  and  C_20
REMARK    9  A    between atoms: C_20  and  C_21
REMARK   10  A    between atoms: C_21  and  C_22
REMARK   11  A    between atoms: C_22  and  C_23
REMARK   12  A    between atoms: C_23  and  C_24
REMARK   13  A    between atoms: C_26  and  O_27
REMARK   14  A    between atoms: C_26  and  C_29
REMARK   15  A    between atoms: C_29  and  C_32
REMARK   16  A    between atoms: C_32  and  O_33
REMARK                            x       y       z     vdW  Elec       q    Type
REMARK                         _______ _______ _______ _____ _____    ______ ____
ROOT
ATOM      1  O   UNL     1      -3.335  -0.362   0.100  0.00  0.00    -0.353 OA
ATOM      2  C   UNL     1      -3.599   0.996   0.483  0.00  0.00    +0.142 C 
ATOM      3  C   UNL     1      -2.451   1.912  -0.002  0.00  0.00    +0.141 C 
ATOM      4  C   UNL     1      -1.071   1.397   0.441  0.00  0.00    +0.072 C 
ATOM      5  C   UNL     1      -0.913  -0.082   0.060  0.00  0.00    +0.198 C 
ATOM      6  C   UNL     1      -2.101  -0.907   0.568  0.00  0.00    +0.155 C 
ATOM      7  C   UNL     1      -3.853   1.093   1.997  0.00  0.00    +0.035 C 
ATOM      8  C   UNL     1       0.059   2.244  -0.161  0.00  0.00    +0.006 C 
ATOM      9  C   UNL     1      -2.030  -2.350   0.074  0.00  0.00    +0.036 C 
ENDROOT
BRANCH   3  10
ATOM     10  O   UNL     1      -2.623   3.244   0.473  0.00  0.00    -0.382 OA
ATOM     11  H   UNL     1      -3.492   3.576   0.198  0.00  0.00    +0.210 HD
ENDBRANCH   3  10
BRANCH   5  12
ATOM     12  O   UNL     1       0.307  -0.603   0.597  0.00  0.00    -0.447 OA
BRANCH  12  14
ATOM     13  O   UNL     1       1.076  -1.052  -1.535  0.00  0.00    -0.245 OA
ATOM     14  C   UNL     1       1.206  -1.050  -0.322  0.00  0.00    +0.341 C 
BRANCH  14  15
ATOM     15  C   UNL     1       2.388  -1.546   0.414  0.00  0.00    +0.080 C 
ATOM     16  C   UNL     1       3.433  -2.049  -0.258  0.00  0.00    +0.009 C 
BRANCH  16  17
ATOM     17  C   UNL     1       4.668  -2.579   0.416  0.00  0.00    +0.133 C 
BRANCH  17  18
ATOM     18  O   UNL     1       4.776  -3.974   0.124  0.00  0.00    -0.380 OA
ATOM     19  H   UNL     1       3.969  -4.428   0.414  0.00  0.00    +0.211 HD
ENDBRANCH  17  18
BRANCH  17  20
ATOM     20  C   UNL     1       5.955  -1.884  -0.050  0.00  0.00    +0.034 C 
BRANCH  20  21
ATOM     21  C   UNL     1       5.978  -0.384   0.259  0.00  0.00    +0.003 C 
BRANCH  21  22
ATOM     22  C   UNL     1       7.293   0.253  -0.196  0.00  0.00    +0.000 C 
BRANCH  22  23
ATOM     23  C   UNL     1       7.382   1.751   0.113  0.00  0.00    +0.000 C 
BRANCH  23  24
ATOM     24  C   UNL     1       8.664   2.403  -0.405  0.00  0.00    +0.000 C 
ATOM     25  C   UNL     1       8.671   3.901  -0.137  0.00  0.00    +0.000 C 
ENDBRANCH  23  24
ENDBRANCH  22  23
ENDBRANCH  21  22
ENDBRANCH  20  21
ENDBRANCH  17  20
ENDBRANCH  16  17
ENDBRANCH  14  15
ENDBRANCH  12  14
ENDBRANCH   5  12
BRANCH   2  26
ATOM     26  C   UNL     1      -4.908   1.369  -0.233  0.00  0.00    +0.148 C 
BRANCH  26  27
ATOM     27  O   UNL     1      -4.630   1.284  -1.630  0.00  0.00    -0.381 OA
ATOM     28  H   UNL     1      -3.893   1.876  -1.850  0.00  0.00    +0.210 HD
ENDBRANCH  26  27
BRANCH  26  29
ATOM     29  C   UNL     1      -6.075   0.433   0.120  0.00  0.00    +0.128 C 
ATOM     30  C   UNL     1      -7.373   0.780  -0.607  0.00  0.00    +0.014 C 
BRANCH  29  32
ATOM     31  O   UNL     1      -5.474  -1.421  -1.351  0.00  0.00    -0.250 OA
ATOM     32  C   UNL     1      -5.715  -1.008  -0.224  0.00  0.00    +0.316 C 
BRANCH  32  33
ATOM     33  O   UNL     1      -5.704  -1.811   0.872  0.00  0.00    -0.480 OA
ATOM     34  H   UNL     1      -5.895  -1.453   1.717  0.00  0.00    +0.295 HD
ENDBRANCH  32  33
ENDBRANCH  29  32
ENDBRANCH  26  29
ENDBRANCH   2  26
TORSDOF 16
