REMARK  Name = 11722425
REMARK  6 active torsions:
REMARK  status: ('A' for Active; 'I' for Inactive)
REMARK    1  A    between atoms: C_3  and  O_12
REMARK    2  A    between atoms: C_3  and  C_18
REMARK    3  A    between atoms: C_8  and  O_14
REMARK    4  A    between atoms: C_11  and  O_16
REMARK    5  A    between atoms: C_18  and  C_19
REMARK    6  A    between atoms: C_24  and  O_25
REMARK                            x       y       z     vdW  Elec       q    Type
REMARK                         _______ _______ _______ _____ _____    ______ ____
ROOT
ATOM      1  O   UNL     1       0.600  -1.265   0.800  0.00  0.00    -0.472 OA
ATOM      2  O   UNL     1       1.393   2.688   0.006  0.00  0.00    -0.289 OA
ATOM      3  C   UNL     1      -0.278   1.005   0.474  0.00  0.00    +0.187 C 
ATOM      4  C   UNL     1      -0.160  -0.208   1.390  0.00  0.00    +0.240 C 
ATOM      5  C   UNL     1       1.125   1.505   0.179  0.00  0.00    +0.207 C 
ATOM      6  C   UNL     1       2.171   0.463   0.085  0.00  0.00    +0.105 C 
ATOM      7  C   UNL     1       1.845  -0.863   0.388  0.00  0.00    +0.147 C 
ATOM      8  C   UNL     1       3.463   0.795  -0.329  0.00  0.00    +0.142 C 
ATOM      9  C   UNL     1       2.807  -1.863   0.241  0.00  0.00    +0.074 C 
ATOM     10  C   UNL     1       4.426  -0.207  -0.456  0.00  0.00    +0.073 C 
ATOM     11  C   UNL     1       4.097  -1.534  -0.176  0.00  0.00    +0.140 C 
ENDROOT
BRANCH   3  12
ATOM     12  O   UNL     1      -0.983   2.023   1.169  0.00  0.00    -0.376 OA
ATOM     13  H   UNL     1      -1.883   1.717   1.364  0.00  0.00    +0.211 HD
ENDBRANCH   3  12
BRANCH   8  14
ATOM     14  O   UNL     1       3.834   2.070  -0.634  0.00  0.00    -0.505 OA
ATOM     15  H   UNL     1       3.214   2.769  -0.560  0.00  0.00    +0.292 HD
ENDBRANCH   8  14
BRANCH  11  16
ATOM     16  O   UNL     1       5.037  -2.510  -0.310  0.00  0.00    -0.505 OA
ATOM     17  H   UNL     1       4.818  -3.401  -0.123  0.00  0.00    +0.292 HD
ENDBRANCH  11  16
BRANCH   3  18
ATOM     18  C   UNL     1      -1.006   0.690  -0.831  0.00  0.00    +0.065 C 
BRANCH  18  19
ATOM     19  C   UNL     1      -2.402   0.191  -0.581  0.00  0.00    -0.019 C 
ATOM     20  C   UNL     1      -2.625  -1.170  -0.424  0.00  0.00    -0.001 C 
ATOM     21  C   UNL     1      -3.451   1.099  -0.510  0.00  0.00    -0.001 C 
ATOM     22  C   UNL     1      -3.921  -1.633  -0.193  0.00  0.00    +0.036 C 
ATOM     23  C   UNL     1      -4.746   0.636  -0.278  0.00  0.00    +0.036 C 
ATOM     24  C   UNL     1      -4.981  -0.730  -0.120  0.00  0.00    +0.134 C 
BRANCH  24  25
ATOM     25  O   UNL     1      -6.245  -1.182   0.107  0.00  0.00    -0.506 OA
ATOM     26  H   UNL     1      -6.402  -2.100   0.214  0.00  0.00    +0.292 HD
ENDBRANCH  24  25
ENDBRANCH  18  19
ENDBRANCH   3  18
TORSDOF 6
