11722425
  -OEChem-03292013303D

 36 38  0     1  0  0  0  0  0999 V2000
    0.6002   -1.2646    0.8001 O   0  0  0  0  0  0  0  0  0  0  0  0
   -0.9831    2.0228    1.1688 O   0  0  0  0  0  0  0  0  0  0  0  0
    1.3929    2.6880    0.0059 O   0  0  0  0  0  0  0  0  0  0  0  0
    3.8342    2.0701   -0.6339 O   0  0  0  0  0  0  0  0  0  0  0  0
    5.0374   -2.5096   -0.3101 O   0  0  0  0  0  0  0  0  0  0  0  0
   -6.2449   -1.1820    0.1074 O   0  0  0  0  0  0  0  0  0  0  0  0
   -0.2778    1.0051    0.4742 C   0  0  2  0  0  0  0  0  0  0  0  0
   -1.0061    0.6902   -0.8311 C   0  0  0  0  0  0  0  0  0  0  0  0
   -0.1595   -0.2079    1.3904 C   0  0  0  0  0  0  0  0  0  0  0  0
    1.1250    1.5048    0.1794 C   0  0  0  0  0  0  0  0  0  0  0  0
    2.1711    0.4631    0.0854 C   0  0  0  0  0  0  0  0  0  0  0  0
   -2.4025    0.1911   -0.5805 C   0  0  0  0  0  0  0  0  0  0  0  0
    1.8449   -0.8630    0.3876 C   0  0  0  0  0  0  0  0  0  0  0  0
    3.4635    0.7952   -0.3290 C   0  0  0  0  0  0  0  0  0  0  0  0
    2.8070   -1.8635    0.2410 C   0  0  0  0  0  0  0  0  0  0  0  0
   -2.6254   -1.1703   -0.4241 C   0  0  0  0  0  0  0  0  0  0  0  0
   -3.4510    1.0986   -0.5097 C   0  0  0  0  0  0  0  0  0  0  0  0
    4.4256   -0.2073   -0.4556 C   0  0  0  0  0  0  0  0  0  0  0  0
    4.0971   -1.5342   -0.1759 C   0  0  0  0  0  0  0  0  0  0  0  0
   -3.9209   -1.6328   -0.1926 C   0  0  0  0  0  0  0  0  0  0  0  0
   -4.7464    0.6360   -0.2781 C   0  0  0  0  0  0  0  0  0  0  0  0
   -4.9814   -0.7298   -0.1196 C   0  0  0  0  0  0  0  0  0  0  0  0
   -0.4551   -0.0419   -1.4360 H   0  0  0  0  0  0  0  0  0  0  0  0
   -1.0615    1.5913   -1.4581 H   0  0  0  0  0  0  0  0  0  0  0  0
    0.3216    0.0759    2.3390 H   0  0  0  0  0  0  0  0  0  0  0  0
   -1.1325   -0.6019    1.6996 H   0  0  0  0  0  0  0  0  0  0  0  0
   -1.0758    2.7870    0.5744 H   0  0  0  0  0  0  0  0  0  0  0  0
    2.5492   -2.8968    0.4609 H   0  0  0  0  0  0  0  0  0  0  0  0
   -1.8119   -1.8868   -0.4911 H   0  0  0  0  0  0  0  0  0  0  0  0
   -3.2814    2.1644   -0.6339 H   0  0  0  0  0  0  0  0  0  0  0  0
    5.4353    0.0338   -0.7797 H   0  0  0  0  0  0  0  0  0  0  0  0
   -4.0979   -2.6982   -0.0724 H   0  0  0  0  0  0  0  0  0  0  0  0
   -5.5640    1.3498   -0.2237 H   0  0  0  0  0  0  0  0  0  0  0  0
    4.7692    2.0813   -0.9008 H   0  0  0  0  0  0  0  0  0  0  0  0
    4.6394   -3.3657   -0.0762 H   0  0  0  0  0  0  0  0  0  0  0  0
   -6.8522   -0.4226    0.1273 H   0  0  0  0  0  0  0  0  0  0  0  0
  1  9  1  0  0  0  0
  1 13  1  0  0  0  0
  2  7  1  0  0  0  0
  2 27  1  0  0  0  0
  3 10  2  0  0  0  0
  4 14  1  0  0  0  0
  4 34  1  0  0  0  0
  5 19  1  0  0  0  0
  5 35  1  0  0  0  0
  6 22  1  0  0  0  0
  6 36  1  0  0  0  0
  7  8  1  0  0  0  0
  7  9  1  0  0  0  0
  7 10  1  0  0  0  0
  8 12  1  0  0  0  0
  8 23  1  0  0  0  0
  8 24  1  0  0  0  0
  9 25  1  0  0  0  0
  9 26  1  0  0  0  0
 10 11  1  0  0  0  0
 11 13  1  0  0  0  0
 11 14  2  0  0  0  0
 12 16  2  0  0  0  0
 12 17  1  0  0  0  0
 13 15  2  0  0  0  0
 14 18  1  0  0  0  0
 15 19  1  0  0  0  0
 15 28  1  0  0  0  0
 16 20  1  0  0  0  0
 16 29  1  0  0  0  0
 17 21  2  0  0  0  0
 17 30  1  0  0  0  0
 18 19  2  0  0  0  0
 18 31  1  0  0  0  0
 20 22  2  0  0  0  0
 20 32  1  0  0  0  0
 21 22  1  0  0  0  0
 21 33  1  0  0  0  0
M  END
> <PUBCHEM_COMPOUND_CID>
11722425

> <PUBCHEM_CONFORMER_RMSD>
0.6

> <PUBCHEM_CONFORMER_DIVERSEORDER>
1
4
5
6
2
3

> <PUBCHEM_MMFF94_PARTIAL_CHARGES>
32
1 -0.36
10 0.42
11 0.09
12 -0.14
13 0.08
14 0.08
15 -0.15
16 -0.15
17 -0.15
18 -0.15
19 0.08
2 -0.68
20 -0.15
21 -0.15
22 0.08
27 0.4
28 0.15
29 0.15
3 -0.57
30 0.15
31 0.15
32 0.15
33 0.15
34 0.45
35 0.45
36 0.45
4 -0.53
5 -0.53
6 -0.53
7 0.34
8 0.14
9 0.28

> <PUBCHEM_EFFECTIVE_ROTOR_COUNT>
2.6

> <PUBCHEM_PHARMACOPHORE_FEATURES>
10
1 1 acceptor
1 2 acceptor
1 2 donor
1 3 acceptor
1 4 donor
1 5 donor
1 6 donor
6 1 7 9 10 11 13 rings
6 11 13 14 15 18 19 rings
6 12 16 17 20 21 22 rings

> <PUBCHEM_HEAVY_ATOM_COUNT>
22

> <PUBCHEM_ATOM_DEF_STEREO_COUNT>
1

> <PUBCHEM_ATOM_UDEF_STEREO_COUNT>
0

> <PUBCHEM_BOND_DEF_STEREO_COUNT>
0

> <PUBCHEM_BOND_UDEF_STEREO_COUNT>
0

> <PUBCHEM_ISOTOPIC_ATOM_COUNT>
0

> <PUBCHEM_COMPONENT_COUNT>
1

> <PUBCHEM_CACTVS_TAUTO_COUNT>
24

> <PUBCHEM_CONFORMER_ID>
00B2DEB900000001

> <PUBCHEM_MMFF94_ENERGY>
65.0298

> <PUBCHEM_FEATURE_SELFOVERLAP>
50.783

> <PUBCHEM_SHAPE_FINGERPRINT>
10498660 4 16878486970001886773
11135609 187 18192437583273376804
11961588 58 15864366778198389206
12107183 9 18125447402109292737
12236239 1 18130791135366549777
12553582 1 18272355473814685119
12596602 18 12966835836813855759
12670546 177 18187367614475747454
12730499 353 18263371463183353136
12788726 201 17703522020783181785
12892183 10 10951760902263170581
13167823 11 18410009927360400127
14251764 38 8574168158152343431
14341114 176 18409453609268902911
14576447 43 18410293584449613262
15196674 1 18409728456731287295
15238133 3 16773530914640778267
15536298 74 18411132562854636329
17492 89 18196934370871417934
17844677 252 18409173194869864517
18186145 218 17821720624459281590
193927 3 17988650636220766254
19784866 240 18200599094576205894
200 152 18342175544589210898
20645477 70 18410012130731409478
21267235 1 18411987935661979454
21475661 188 13191779501204093902
221357 26 18408037416706662823
221490 88 18335706103849326283
22393880 68 17968930894822857327
22950370 63 18342740732526554915
23379529 103 18272377421435840774
23402539 116 18339920403486362478
23522609 53 18055663783118119473
23559900 14 18412535501073974280
2838139 119 15864363484243356158
2871803 45 18113610192836332055
3004659 81 18334293141556264094
3323516 105 18334572464432352645
3411729 13 15840409583427658648
4214541 1 18409728422614395485
4280585 95 17405150621651669758
46194498 28 17676487301877909181
465052 167 18201442506026035567
4921388 177 16732994154033572259
4990 188 18186799179653884000
5104073 3 18412542098428630145
5281201 14 18113898255923681604
54040823 5 18272374200072497156
6287921 2 17824545403286735549
633830 44 17603583036631214733
6786 2 16478221031445685808
77779 3 18408884044791532837
9709674 26 18262518225143996483

> <PUBCHEM_SHAPE_MULTIPOLES>
417.53
11.08
2.33
0.89
6.72
0.24
-0.15
-5.1
2.06
-1.77
-0.02
0.03
0.1
-0.09

> <PUBCHEM_SHAPE_SELFOVERLAP>
926.882

> <PUBCHEM_SHAPE_VOLUME>
220.8

> <PUBCHEM_COORDINATE_TYPE>
2
5
10

$$$$
