REMARK  Name = 11724428
REMARK  4 active torsions:
REMARK  status: ('A' for Active; 'I' for Inactive)
REMARK    1  A    between atoms: C_3  and  O_21
REMARK    2  A    between atoms: C_5  and  O_23
REMARK    3  A    between atoms: C_18  and  O_25
REMARK    4  A    between atoms: C_19  and  O_27
REMARK                            x       y       z     vdW  Elec       q    Type
REMARK                         _______ _______ _______ _____ _____    ______ ____
ROOT
ATOM      1  O   UNL     1       0.752  -2.105   0.259  0.00  0.00    -0.449 OA
ATOM      2  O   UNL     1       0.047  -0.951  -1.629  0.00  0.00    -0.245 OA
ATOM      3  C   UNL     1      -3.161   1.216  -0.556  0.00  0.00    +0.142 C 
ATOM      4  C   UNL     1      -2.845   2.226   0.564  0.00  0.00    +0.037 C 
ATOM      5  C   UNL     1      -3.847  -0.071  -0.066  0.00  0.00    +0.159 C 
ATOM      6  C   UNL     1      -1.781   3.264   0.162  0.00  0.00    +0.029 C 
ATOM      7  C   UNL     1      -0.140  -3.223   0.035  0.00  0.00    +0.174 C 
ATOM      8  C   UNL     1      -1.441  -3.028   0.829  0.00  0.00    +0.069 C 
ATOM      9  C   UNL     1      -2.889  -0.979   0.657  0.00  0.00    +0.001 C 
ATOM     10  C   UNL     1      -2.407  -2.114   0.129  0.00  0.00    -0.025 C 
ATOM     11  C   UNL     1      -0.361   2.781  -0.005  0.00  0.00    -0.026 C 
ATOM     12  C   UNL     1       1.516   1.149   0.164  0.00  0.00    +0.012 C 
ATOM     13  C   UNL     1       0.607  -4.458   0.531  0.00  0.00    +0.048 C 
ATOM     14  C   UNL     1       0.124   1.585   0.363  0.00  0.00    -0.004 C 
ATOM     15  C   UNL     1       1.817  -0.156  -0.263  0.00  0.00    +0.109 C 
ATOM     16  C   UNL     1       0.757  -1.101  -0.651  0.00  0.00    +0.344 C 
ATOM     17  C   UNL     1       2.583   2.004   0.480  0.00  0.00    +0.037 C 
ATOM     18  C   UNL     1       3.143  -0.589  -0.393  0.00  0.00    +0.143 C 
ATOM     19  C   UNL     1       3.907   1.574   0.353  0.00  0.00    +0.137 C 
ATOM     20  C   UNL     1       4.186   0.280  -0.083  0.00  0.00    +0.073 C 
ENDROOT
BRANCH   3  21
ATOM     21  O   UNL     1      -4.013   1.854  -1.513  0.00  0.00    -0.382 OA
ATOM     22  H   UNL     1      -3.591   2.667  -1.830  0.00  0.00    +0.210 HD
ENDBRANCH   3  21
BRANCH   5  23
ATOM     23  O   UNL     1      -4.928   0.263   0.804  0.00  0.00    -0.378 OA
ATOM     24  H   UNL     1      -5.547   0.848   0.340  0.00  0.00    +0.211 HD
ENDBRANCH   5  23
BRANCH  18  25
ATOM     25  O   UNL     1       3.446  -1.841  -0.837  0.00  0.00    -0.505 OA
ATOM     26  H   UNL     1       2.759  -2.441  -1.051  0.00  0.00    +0.292 HD
ENDBRANCH  18  25
BRANCH  19  27
ATOM     27  O   UNL     1       4.927   2.421   0.662  0.00  0.00    -0.505 OA
ATOM     28  H   UNL     1       4.741   3.291   0.955  0.00  0.00    +0.292 HD
ENDBRANCH  19  27
TORSDOF 4
