REMARK  Name = 11723633
REMARK  7 active torsions:
REMARK  status: ('A' for Active; 'I' for Inactive)
REMARK    1  A    between atoms: C_4  and  C_9
REMARK    2  A    between atoms: C_4  and  O_12
REMARK    3  A    between atoms: C_5  and  O_14
REMARK    4  A    between atoms: C_5  and  C_18
REMARK    5  A    between atoms: C_7  and  O_16
REMARK    6  A    between atoms: C_18  and  C_19
REMARK    7  A    between atoms: C_18  and  O_25
REMARK                            x       y       z     vdW  Elec       q    Type
REMARK                         _______ _______ _______ _____ _____    ______ ____
ROOT
ATOM      1  O   UNL     1       3.153   1.923  -0.230  0.00  0.00    -0.270 OA
ATOM      2  N   UNL     1       1.044   1.702   0.613  0.00  0.00    -0.273 N 
ATOM      3  N   UNL     1       1.216  -1.033   0.512  0.00  0.00    -0.206 NA
ATOM      4  C   UNL     1       2.165  -0.282  -0.318  0.00  0.00    +0.249 C 
ATOM      5  C   UNL     1      -0.211   0.990   0.670  0.00  0.00    +0.247 C 
ATOM      6  C   UNL     1       2.181   1.207   0.018  0.00  0.00    +0.271 C 
ATOM      7  C   UNL     1       0.157  -0.442   0.929  0.00  0.00    +0.245 C 
ATOM      8  H   UNL     1       1.088   2.595   1.023  0.00  0.00    +0.152 HD
ENDROOT
BRANCH   4   9
ATOM      9  C   UNL     1       3.549  -0.874  -0.032  0.00  0.00    +0.056 C 
ATOM     10  C   UNL     1       4.606  -0.203  -0.905  0.00  0.00    +0.005 C 
ATOM     11  C   UNL     1       3.896  -0.727   1.446  0.00  0.00    +0.005 C 
ENDBRANCH   4   9
BRANCH   4  12
ATOM     12  O   UNL     1       1.983  -0.369  -1.729  0.00  0.00    -0.328 OA
ATOM     13  C   UNL     1       1.952  -1.720  -2.160  0.00  0.00    +0.177 C 
ENDBRANCH   4  12
BRANCH   5  14
ATOM     14  O   UNL     1      -0.933   1.504   1.779  0.00  0.00    -0.362 OA
ATOM     15  H   UNL     1      -1.170   2.429   1.610  0.00  0.00    +0.213 HD
ENDBRANCH   5  14
BRANCH   7  16
ATOM     16  O   UNL     1      -0.762  -1.123   1.645  0.00  0.00    -0.457 OA
ATOM     17  C   UNL     1      -0.410  -2.475   1.887  0.00  0.00    +0.254 C 
ENDBRANCH   7  16
BRANCH   5  18
ATOM     18  C   UNL     1      -1.048   1.167  -0.588  0.00  0.00    +0.184 C 
BRANCH  18  19
ATOM     19  C   UNL     1      -2.348   0.400  -0.520  0.00  0.00    +0.009 C 
ATOM     20  C   UNL     1      -2.391  -0.904  -0.983  0.00  0.00    -0.002 C 
ATOM     21  C   UNL     1      -3.472   1.018   0.004  0.00  0.00    -0.002 C 
ATOM     22  C   UNL     1      -3.592  -1.612  -0.920  0.00  0.00    -0.000 C 
ATOM     23  C   UNL     1      -4.673   0.310   0.067  0.00  0.00    -0.000 C 
ATOM     24  C   UNL     1      -4.732  -1.005  -0.395  0.00  0.00    -0.000 C 
ENDBRANCH  18  19
BRANCH  18  25
ATOM     25  O   UNL     1      -1.331   2.551  -0.787  0.00  0.00    -0.376 OA
ATOM     26  H   UNL     1      -0.499   3.048  -0.831  0.00  0.00    +0.211 HD
ENDBRANCH  18  25
ENDBRANCH   5  18
TORSDOF 7
