REMARK  Name = 11729785
REMARK  14 active torsions:
REMARK  status: ('A' for Active; 'I' for Inactive)
REMARK    1  A    between atoms: C_2  and  C_9
REMARK    2  A    between atoms: C_3  and  C_7
REMARK    3  A    between atoms: C_4  and  C_21
REMARK    4  A    between atoms: C_9  and  C_10
REMARK    5  A    between atoms: C_10  and  C_11
REMARK    6  A    between atoms: C_10  and  C_13
REMARK    7  A    between atoms: C_13  and  O_14
REMARK    8  A    between atoms: C_13  and  C_16
REMARK    9  A    between atoms: C_16  and  C_18
REMARK   10  A    between atoms: C_18  and  O_19
REMARK   11  A    between atoms: C_21  and  C_23
REMARK   12  A    between atoms: C_21  and  C_33
REMARK   13  A    between atoms: C_24  and  C_30
REMARK   14  A    between atoms: C_30  and  O_31
REMARK                            x       y       z     vdW  Elec       q    Type
REMARK                         _______ _______ _______ _____ _____    ______ ____
ROOT
ATOM      1  O   UNL     1      -1.233  -0.129  -0.873  0.00  0.00    -0.361 OA
ATOM      2  C   UNL     1      -2.563   0.415  -1.000  0.00  0.00    +0.093 C 
ATOM      3  C   UNL     1      -2.729  -1.709   0.056  0.00  0.00    +0.030 C 
ATOM      4  C   UNL     1      -1.328  -1.518  -0.512  0.00  0.00    +0.119 C 
ATOM      5  C   UNL     1      -3.527  -0.760  -0.818  0.00  0.00    +0.030 C 
ATOM      6  C   UNL     1      -2.699   1.054  -2.379  0.00  0.00    +0.030 C 
ENDROOT
BRANCH   3   7
ATOM      7  C   UNL     1      -3.227  -3.143   0.009  0.00  0.00    +0.003 C 
ATOM      8  C   UNL     1      -4.679  -3.248   0.443  0.00  0.00    +0.000 C 
ENDBRANCH   3   7
BRANCH   2   9
ATOM      9  C   UNL     1      -2.736   1.472   0.093  0.00  0.00    +0.030 C 
BRANCH   9  10
ATOM     10  C   UNL     1      -1.848   2.727  -0.068  0.00  0.00    +0.030 C 
BRANCH  10  11
ATOM     11  C   UNL     1      -2.140   3.813   1.000  0.00  0.00    +0.002 C 
ATOM     12  C   UNL     1      -3.591   4.272   1.046  0.00  0.00    +0.000 C 
ENDBRANCH  10  11
BRANCH  10  13
ATOM     13  C   UNL     1      -0.327   2.400  -0.101  0.00  0.00    +0.122 C 
BRANCH  13  14
ATOM     14  O   UNL     1       0.070   1.752   1.111  0.00  0.00    -0.384 OA
ATOM     15  H   UNL     1      -0.506   0.989   1.274  0.00  0.00    +0.210 HD
ENDBRANCH  13  14
BRANCH  13  16
ATOM     16  C   UNL     1       0.614   3.595  -0.309  0.00  0.00    +0.138 C 
BRANCH  16  18
ATOM     17  O   UNL     1       2.580   2.188  -0.638  0.00  0.00    -0.250 OA
ATOM     18  C   UNL     1       2.090   3.251  -0.282  0.00  0.00    +0.316 C 
BRANCH  18  19
ATOM     19  O   UNL     1       2.839   4.298   0.153  0.00  0.00    -0.480 OA
ATOM     20  H   UNL     1       2.422   5.095   0.416  0.00  0.00    +0.295 HD
ENDBRANCH  18  19
ENDBRANCH  16  18
ENDBRANCH  13  16
ENDBRANCH  10  13
ENDBRANCH   9  10
ENDBRANCH   2   9
BRANCH   4  21
ATOM     21  C   UNL     1      -0.217  -1.858   0.466  0.00  0.00    +0.049 C 
BRANCH  21  23
ATOM     22  N   UNL     1       3.554  -0.970  -1.214  0.00  0.00    -0.301 N 
ATOM     23  C   UNL     1       1.150  -1.532  -0.123  0.00  0.00    -0.015 C 
ATOM     24  C   UNL     1       2.174  -1.120   0.698  0.00  0.00    +0.069 C 
ATOM     25  C   UNL     1       1.312  -1.667  -1.484  0.00  0.00    +0.012 C 
ATOM     26  C   UNL     1       3.399  -0.838   0.110  0.00  0.00    +0.124 C 
ATOM     27  C   UNL     1       2.559  -1.371  -2.017  0.00  0.00    +0.061 C 
ATOM     28  C   UNL     1       4.855  -0.667  -1.804  0.00  0.00    +0.113 C 
BRANCH  24  30
ATOM     29  O   UNL     1       1.666   0.058   2.718  0.00  0.00    -0.245 OA
ATOM     30  C   UNL     1       2.022  -0.973   2.138  0.00  0.00    +0.335 C 
BRANCH  30  31
ATOM     31  O   UNL     1       2.319  -2.118   2.811  0.00  0.00    -0.477 OA
ATOM     32  H   UNL     1       2.587  -2.882   2.340  0.00  0.00    +0.295 HD
ENDBRANCH  30  31
ENDBRANCH  24  30
ENDBRANCH  21  23
BRANCH  21  33
ATOM     33  C   UNL     1      -0.326  -3.329   0.934  0.00  0.00    +0.007 C 
ATOM     34  C   UNL     1      -0.033  -4.343  -0.165  0.00  0.00    +0.000 C 
ENDBRANCH  21  33
ENDBRANCH   4  21
TORSDOF 14
