REMARK  Name = 11729714
REMARK  6 active torsions:
REMARK  status: ('A' for Active; 'I' for Inactive)
REMARK    1  A    between atoms: C_9  and  O_23
REMARK    2  A    between atoms: C_12  and  C_26
REMARK    3  A    between atoms: C_13  and  O_29
REMARK    4  A    between atoms: C_15  and  C_19
REMARK    5  A    between atoms: C_26  and  O_27
REMARK    6  A    between atoms: O_29  and  C_31
REMARK                            x       y       z     vdW  Elec       q    Type
REMARK                         _______ _______ _______ _____ _____    ______ ____
ROOT
ATOM      1  O   UNL     1       3.859  -1.237  -0.421  0.00  0.00    -0.448 OA
ATOM      2  O   UNL     1       3.217  -3.383  -0.630  0.00  0.00    -0.250 OA
ATOM      3  C   UNL     1       1.103  -0.465  -0.821  0.00  0.00    +0.017 C 
ATOM      4  C   UNL     1      -0.352  -0.078  -0.346  0.00  0.00    +0.035 C 
ATOM      5  C   UNL     1      -1.456  -1.217  -0.441  0.00  0.00    +0.027 C 
ATOM      6  C   UNL     1       1.514  -1.759  -0.081  0.00  0.00    +0.099 C 
ATOM      7  C   UNL     1      -0.888  -2.468   0.282  0.00  0.00    +0.005 C 
ATOM      8  C   UNL     1       0.492  -2.888  -0.233  0.00  0.00    +0.011 C 
ATOM      9  C   UNL     1      -0.888   1.291  -0.832  0.00  0.00    +0.155 C 
ATOM     10  C   UNL     1       2.120   0.593  -0.319  0.00  0.00    +0.049 C 
ATOM     11  C   UNL     1       1.246  -0.574  -2.352  0.00  0.00    +0.001 C 
ATOM     12  C   UNL     1      -2.732  -0.697   0.233  0.00  0.00    +0.052 C 
ATOM     13  C   UNL     1      -2.079   1.720   0.046  0.00  0.00    +0.217 C 
ATOM     14  C   UNL     1      -1.906  -1.644  -1.858  0.00  0.00    +0.005 C 
ATOM     15  C   UNL     1       3.585   0.185  -0.547  0.00  0.00    +0.194 C 
ATOM     16  C   UNL     1       2.916  -2.209  -0.435  0.00  0.00    +0.317 C 
ATOM     17  C   UNL     1      -3.007   0.605   0.429  0.00  0.00    +0.021 C 
ENDROOT
BRANCH  15  19
ATOM     18  O   UNL     1       5.851   2.558   1.107  0.00  0.00    -0.448 OA
ATOM     19  C   UNL     1       4.499   0.947   0.337  0.00  0.00    +0.058 C 
ATOM     20  C   UNL     1       4.949   0.564   1.617  0.00  0.00    +0.043 C 
ATOM     21  C   UNL     1       5.071   2.163   0.067  0.00  0.00    +0.179 C 
ATOM     22  C   UNL     1       5.771   1.579   2.046  0.00  0.00    +0.180 C 
ENDBRANCH  15  19
BRANCH   9  23
ATOM     23  O   UNL     1      -1.264   1.244  -2.202  0.00  0.00    -0.380 OA
ATOM     24  H   UNL     1      -0.503   0.972  -2.737  0.00  0.00    +0.211 HD
ENDBRANCH   9  23
BRANCH  12  26
ATOM     25  O   UNL     1      -4.697  -1.999  -0.018  0.00  0.00    -0.245 OA
ATOM     26  C   UNL     1      -3.780  -1.622   0.690  0.00  0.00    +0.337 C 
BRANCH  26  27
ATOM     27  O   UNL     1      -3.530  -1.950   1.981  0.00  0.00    -0.442 OA
ATOM     28  C   UNL     1      -4.471  -2.852   2.572  0.00  0.00    +0.256 C 
ENDBRANCH  26  27
ENDBRANCH  12  26
BRANCH  13  29
ATOM     29  O   UNL     1      -2.795   2.766  -0.604  0.00  0.00    -0.445 OA
BRANCH  29  31
ATOM     30  O   UNL     1      -4.107   3.055   1.276  0.00  0.00    -0.250 OA
ATOM     31  C   UNL     1      -3.788   3.349   0.132  0.00  0.00    +0.318 C 
ATOM     32  C   UNL     1      -4.450   4.426  -0.674  0.00  0.00    +0.121 C 
ENDBRANCH  29  31
ENDBRANCH  13  29
TORSDOF 6
