REMARK  Name = 11724682
REMARK  8 active torsions:
REMARK  status: ('A' for Active; 'I' for Inactive)
REMARK    1  A    between atoms: N_1  and  C1*_13
REMARK    2  A    between atoms: N_2  and  C_27
REMARK    3  A    between atoms: C2*_14  and  O2*_17
REMARK    4  A    between atoms: C3*_15  and  O3*_19
REMARK    5  A    between atoms: C4*_16  and  C5*_21
REMARK    6  A    between atoms: C5*_21  and  O5*_22
REMARK    7  A    between atoms: C_27  and  C_28
REMARK    8  A    between atoms: C_28  and  C_29
REMARK                            x       y       z     vdW  Elec       q    Type
REMARK                         _______ _______ _______ _____ _____    ______ ____
ROOT
ATOM      1  N   UNL     1      -0.100  -0.130  -0.496  0.00  0.00    -0.208 N 
ATOM      2  N   UNL     1      -2.234   0.581  -1.185  0.00  0.00    -0.296 N 
ATOM      3  N   UNL     1      -1.736  -1.650  -0.434  0.00  0.00    -0.367 NA
ATOM      4  N   UNL     1       1.748  -1.484   0.315  0.00  0.00    -0.227 NA
ATOM      5  N   UNL     1       1.033  -3.765   0.806  0.00  0.00    -0.227 NA
ATOM      6  C   UNL     1      -1.426  -0.402  -0.720  0.00  0.00    +0.245 C 
ATOM      7  C   UNL     1       0.468  -1.287  -0.034  0.00  0.00    +0.170 C 
ATOM      8  C   UNL     1      -0.561  -2.214  -0.004  0.00  0.00    +0.196 C 
ATOM      9  C   UNL     1      -0.242  -3.494   0.436  0.00  0.00    +0.155 C 
ATOM     10  C   UNL     1       1.936  -2.758   0.724  0.00  0.00    +0.253 C 
ATOM     11  H   UNL     1      -1.833   1.465  -1.347  0.00  0.00    +0.150 HD
ATOM     12  N   UNL     1      -1.225  -4.497   0.503  0.00  0.00    -0.341 N 
ATOM     13  H   UNL     1      -0.988  -5.399   0.816  0.00  0.00    +0.144 HD
ATOM     14  H   UNL     1      -2.151  -4.296   0.236  0.00  0.00    +0.144 HD
ENDROOT
BRANCH   1  16
ATOM     15  O4* UNL     1       1.949   0.891  -1.124  0.00  0.00    -0.333 OA
ATOM     16  C1* UNL     1       0.592   1.144  -0.701  0.00  0.00    +0.230 C 
ATOM     17  C2* UNL     1       0.653   2.017   0.554  0.00  0.00    +0.187 C 
ATOM     18  C3* UNL     1       2.083   1.829   1.026  0.00  0.00    +0.171 C 
ATOM     19  C4* UNL     1       2.833   1.650  -0.282  0.00  0.00    +0.175 C 
BRANCH  17  20
ATOM     20  O2* UNL     1       0.402   3.374   0.194  0.00  0.00    -0.378 OA
ATOM     21  H2* UNL     1      -0.517   3.466  -0.103  0.00  0.00    +0.211 HD
ENDBRANCH  17  20
BRANCH  18  22
ATOM     22  O3* UNL     1       2.575   2.918   1.776  0.00  0.00    -0.379 OA
ATOM     23  H3* UNL     1       2.070   2.997   2.601  0.00  0.00    +0.211 HD
ENDBRANCH  18  22
BRANCH  19  24
ATOM     24  C5* UNL     1       4.152   0.914  -0.128  0.00  0.00    +0.169 C 
BRANCH  24  25
ATOM     25  O5* UNL     1       4.757   0.794  -1.403  0.00  0.00    -0.379 OA
ATOM     26  H5* UNL     1       5.602   0.325  -1.317  0.00  0.00    +0.211 HD
ENDBRANCH  24  25
ENDBRANCH  19  24
ENDBRANCH   1  16
BRANCH   2  27
ATOM     27  C   UNL     1      -3.649   0.418  -1.461  0.00  0.00    +0.090 C 
BRANCH  27  28
ATOM     28  C   UNL     1      -4.478   0.680  -0.206  0.00  0.00    +0.021 C 
BRANCH  28  29
ATOM     29  C   UNL     1      -4.321   2.111   0.317  0.00  0.00    +0.002 C 
ATOM     30  C   UNL     1      -5.208   2.360   1.526  0.00  0.00    +0.000 C 
ENDBRANCH  28  29
ENDBRANCH  27  28
ENDBRANCH   2  27
TORSDOF 8
