REMARK  Name = 11722553
REMARK  12 active torsions:
REMARK  status: ('A' for Active; 'I' for Inactive)
REMARK    1  A    between atoms: N_2  and  CA_7
REMARK    2  A    between atoms: N_3  and  CA_16
REMARK    3  A    between atoms: CA_7  and  C_9
REMARK    4  A    between atoms: CA_7  and  CB_12
REMARK    5  A    between atoms: C_9  and  O_10
REMARK    6  A    between atoms: CB_12  and  CG_13
REMARK    7  A    between atoms: CA_16  and  C_18
REMARK    8  A    between atoms: CA_16  and  CB_21
REMARK    9  A    between atoms: C_18  and  O_19
REMARK   10  A    between atoms: CB_21  and  CG_22
REMARK   11  A    between atoms: CG_22  and  CD_24
REMARK   12  A    between atoms: CD_24  and  OE1_25
REMARK                            x       y       z     vdW  Elec       q    Type
REMARK                         _______ _______ _______ _____ _____    ______ ____
ROOT
ATOM      1  O   UNL     1       0.317  -0.213   2.015  0.00  0.00    -0.253 OA
ATOM      2  N   UNL     1       1.381   0.312   0.021  0.00  0.00    -0.281 N 
ATOM      3  N   UNL     1      -0.709  -0.651  -0.021  0.00  0.00    -0.281 N 
ATOM      4  C   ACE A   0       0.327  -0.187   0.785  0.00  0.00    +0.301 C 
ATOM      5  H   UNL     1       1.302   0.292  -0.960  0.00  0.00    +0.151 HD
ATOM      6  H   UNL     1      -0.607  -0.587  -0.998  0.00  0.00    +0.151 HD
ENDROOT
BRANCH   2   7
ATOM      7  CA  UNL     1       2.581   0.856   0.603  0.00  0.00    +0.172 C 
BRANCH   7   9
ATOM      8  OXT UNL     1       4.088   2.710   0.217  0.00  0.00    -0.248 OA
ATOM      9  C   UNL     1       3.144   2.034  -0.177  0.00  0.00    +0.332 C 
BRANCH   9  10
ATOM     10  O   UNL     1       2.481   2.316  -1.324  0.00  0.00    -0.479 OA
ATOM     11  H   UNL     1       1.764   1.777  -1.596  0.00  0.00    +0.295 HD
ENDBRANCH   9  10
ENDBRANCH   7   9
BRANCH   7  12
ATOM     12  CB  UNL     1       3.631  -0.228   0.890  0.00  0.00    +0.031 C 
BRANCH  12  13
ATOM     13  CG  UNL     1       3.953  -1.234  -0.239  0.00  0.00    +0.002 C 
ATOM     14  CD1 UNL     1       4.961  -2.309   0.161  0.00  0.00    +0.000 C 
ATOM     15  CD2 UNL     1       4.481  -0.470  -1.460  0.00  0.00    +0.000 C 
ENDBRANCH  12  13
ENDBRANCH   7  12
ENDBRANCH   2   7
BRANCH   3  16
ATOM     16  CA  UNL     1      -1.927  -1.222   0.507  0.00  0.00    +0.173 C 
BRANCH  16  18
ATOM     17  OXT UNL     1      -1.853  -2.564  -1.523  0.00  0.00    -0.248 OA
ATOM     18  C   UNL     1      -2.366  -2.320  -0.439  0.00  0.00    +0.332 C 
BRANCH  18  19
ATOM     19  O   UNL     1      -3.392  -3.050   0.072  0.00  0.00    -0.479 OA
ATOM     20  H   UNL     1      -3.755  -2.827   0.907  0.00  0.00    +0.295 HD
ENDBRANCH  18  19
ENDBRANCH  16  18
BRANCH  16  21
ATOM     21  CB  UNL     1      -3.007  -0.167   0.775  0.00  0.00    +0.043 C 
BRANCH  21  22
ATOM     22  CG  UNL     1      -3.509   0.604  -0.453  0.00  0.00    +0.112 C 
BRANCH  22  24
ATOM     23  OE2 UNL     1      -5.003   1.887   0.981  0.00  0.00    -0.250 OA
ATOM     24  CD  UNL     1      -4.564   1.640  -0.134  0.00  0.00    +0.314 C 
BRANCH  24  25
ATOM     25  OE1 UNL     1      -5.014   2.258  -1.258  0.00  0.00    -0.480 OA
ATOM     26  HE1 UNL     1      -4.648   2.038  -2.092  0.00  0.00    +0.295 HD
ENDBRANCH  24  25
ENDBRANCH  22  24
ENDBRANCH  21  22
ENDBRANCH  16  21
ENDBRANCH   3  16
TORSDOF 12
