11723633
  -OEChem-03292013303D

 45 46  0     1  0  0  0  0  0999 V2000
    1.9833   -0.3690   -1.7287 O   0  0  0  0  0  0  0  0  0  0  0  0
   -0.9333    1.5039    1.7788 O   0  0  0  0  0  0  0  0  0  0  0  0
   -0.7623   -1.1231    1.6451 O   0  0  0  0  0  0  0  0  0  0  0  0
   -1.3309    2.5512   -0.7870 O   0  0  0  0  0  0  0  0  0  0  0  0
    3.1530    1.9225   -0.2297 O   0  0  0  0  0  0  0  0  0  0  0  0
    1.0440    1.7015    0.6125 N   0  0  0  0  0  0  0  0  0  0  0  0
    1.2162   -1.0330    0.5116 N   0  0  0  0  0  0  0  0  0  0  0  0
    2.1654   -0.2823   -0.3184 C   0  0  1  0  0  0  0  0  0  0  0  0
   -0.2112    0.9902    0.6703 C   0  0  2  0  0  0  0  0  0  0  0  0
    3.5491   -0.8740   -0.0323 C   0  0  0  0  0  0  0  0  0  0  0  0
   -1.0476    1.1667   -0.5884 C   0  0  1  0  0  0  0  0  0  0  0  0
    2.1814    1.2067    0.0185 C   0  0  0  0  0  0  0  0  0  0  0  0
    0.1567   -0.4423    0.9290 C   0  0  0  0  0  0  0  0  0  0  0  0
    4.6057   -0.2032   -0.9046 C   0  0  0  0  0  0  0  0  0  0  0  0
    3.8958   -0.7273    1.4460 C   0  0  0  0  0  0  0  0  0  0  0  0
   -2.3484    0.4003   -0.5204 C   0  0  0  0  0  0  0  0  0  0  0  0
   -2.3911   -0.9045   -0.9832 C   0  0  0  0  0  0  0  0  0  0  0  0
   -3.4722    1.0175    0.0038 C   0  0  0  0  0  0  0  0  0  0  0  0
    1.9523   -1.7195   -2.1604 C   0  0  0  0  0  0  0  0  0  0  0  0
   -0.4097   -2.4755    1.8865 C   0  0  0  0  0  0  0  0  0  0  0  0
   -3.5916   -1.6120   -0.9204 C   0  0  0  0  0  0  0  0  0  0  0  0
   -4.6726    0.3100    0.0668 C   0  0  0  0  0  0  0  0  0  0  0  0
   -4.7322   -1.0049   -0.3954 C   0  0  0  0  0  0  0  0  0  0  0  0
    3.5638   -1.9505   -0.2425 H   0  0  0  0  0  0  0  0  0  0  0  0
   -0.4963    0.8389   -1.4784 H   0  0  0  0  0  0  0  0  0  0  0  0
    1.0351    2.6854    0.8622 H   0  0  0  0  0  0  0  0  0  0  0  0
    5.0497    0.6853   -0.4449 H   0  0  0  0  0  0  0  0  0  0  0  0
    5.4467   -0.8997   -1.0212 H   0  0  0  0  0  0  0  0  0  0  0  0
    4.2830    0.0447   -1.9192 H   0  0  0  0  0  0  0  0  0  0  0  0
    3.9315    0.3151    1.7774 H   0  0  0  0  0  0  0  0  0  0  0  0
    4.8860   -1.1562    1.6403 H   0  0  0  0  0  0  0  0  0  0  0  0
    3.1901   -1.2635    2.0887 H   0  0  0  0  0  0  0  0  0  0  0  0
   -1.6706    0.9031    1.9779 H   0  0  0  0  0  0  0  0  0  0  0  0
   -0.4795    3.0171   -0.8474 H   0  0  0  0  0  0  0  0  0  0  0  0
   -1.5106   -1.3862   -1.3985 H   0  0  0  0  0  0  0  0  0  0  0  0
   -3.4501    2.0362    0.3792 H   0  0  0  0  0  0  0  0  0  0  0  0
    2.9573   -2.1369   -2.2665 H   0  0  0  0  0  0  0  0  0  0  0  0
    1.5126   -1.7252   -3.1632 H   0  0  0  0  0  0  0  0  0  0  0  0
    1.3255   -2.3618   -1.5350 H   0  0  0  0  0  0  0  0  0  0  0  0
   -1.2111   -2.9284    2.4779 H   0  0  0  0  0  0  0  0  0  0  0  0
    0.5137   -2.5478    2.4711 H   0  0  0  0  0  0  0  0  0  0  0  0
   -0.3319   -3.0390    0.9504 H   0  0  0  0  0  0  0  0  0  0  0  0
   -3.6380   -2.6356   -1.2806 H   0  0  0  0  0  0  0  0  0  0  0  0
   -5.5604    0.7816    0.4779 H   0  0  0  0  0  0  0  0  0  0  0  0
   -5.6667   -1.5559   -0.3458 H   0  0  0  0  0  0  0  0  0  0  0  0
  1  8  1  0  0  0  0
  1 19  1  0  0  0  0
  2  9  1  0  0  0  0
  2 33  1  0  0  0  0
  3 13  1  0  0  0  0
  3 20  1  0  0  0  0
  4 11  1  0  0  0  0
  4 34  1  0  0  0  0
  5 12  2  0  0  0  0
  6  9  1  0  0  0  0
  6 12  1  0  0  0  0
  6 26  1  0  0  0  0
  7  8  1  0  0  0  0
  7 13  2  0  0  0  0
  8 10  1  0  0  0  0
  8 12  1  0  0  0  0
  9 11  1  0  0  0  0
  9 13  1  0  0  0  0
 10 14  1  0  0  0  0
 10 15  1  0  0  0  0
 10 24  1  0  0  0  0
 11 16  1  0  0  0  0
 11 25  1  0  0  0  0
 14 27  1  0  0  0  0
 14 28  1  0  0  0  0
 14 29  1  0  0  0  0
 15 30  1  0  0  0  0
 15 31  1  0  0  0  0
 15 32  1  0  0  0  0
 16 17  2  0  0  0  0
 16 18  1  0  0  0  0
 17 21  1  0  0  0  0
 17 35  1  0  0  0  0
 18 22  2  0  0  0  0
 18 36  1  0  0  0  0
 19 37  1  0  0  0  0
 19 38  1  0  0  0  0
 19 39  1  0  0  0  0
 20 40  1  0  0  0  0
 20 41  1  0  0  0  0
 20 42  1  0  0  0  0
 21 23  2  0  0  0  0
 21 43  1  0  0  0  0
 22 23  1  0  0  0  0
 22 44  1  0  0  0  0
 23 45  1  0  0  0  0
M  END
> <PUBCHEM_COMPOUND_CID>
11723633

> <PUBCHEM_CONFORMER_RMSD>
0.8

> <PUBCHEM_CONFORMER_DIVERSEORDER>
3
2
1
4
5
6

> <PUBCHEM_MMFF94_PARTIAL_CHARGES>
28
1 -0.56
11 0.42
12 0.57
13 0.54
16 -0.14
17 -0.15
18 -0.15
19 0.28
2 -0.68
20 0.28
21 -0.15
22 -0.15
23 -0.15
26 0.37
3 -0.43
33 0.4
34 0.4
35 0.15
36 0.15
4 -0.68
43 0.15
44 0.15
45 0.15
5 -0.57
6 -0.73
7 -0.7
8 0.59
9 0.64

> <PUBCHEM_EFFECTIVE_ROTOR_COUNT>
5.6

> <PUBCHEM_PHARMACOPHORE_FEATURES>
10
1 1 acceptor
1 2 acceptor
1 2 donor
1 4 acceptor
1 4 donor
1 5 acceptor
1 6 donor
3 10 14 15 hydrophobe
6 16 17 18 21 22 23 rings
6 6 7 8 9 12 13 rings

> <PUBCHEM_HEAVY_ATOM_COUNT>
23

> <PUBCHEM_ATOM_DEF_STEREO_COUNT>
3

> <PUBCHEM_ATOM_UDEF_STEREO_COUNT>
0

> <PUBCHEM_BOND_DEF_STEREO_COUNT>
0

> <PUBCHEM_BOND_UDEF_STEREO_COUNT>
0

> <PUBCHEM_ISOTOPIC_ATOM_COUNT>
0

> <PUBCHEM_COMPONENT_COUNT>
1

> <PUBCHEM_CACTVS_TAUTO_COUNT>
2

> <PUBCHEM_CONFORMER_ID>
00B2E37100000003

> <PUBCHEM_MMFF94_ENERGY>
84.8613

> <PUBCHEM_FEATURE_SELFOVERLAP>
50.807

> <PUBCHEM_SHAPE_FINGERPRINT>
10062212 137 17679285382802898184
10863032 1 18060136600012629269
10906281 52 18268730410095955368
11578080 2 17388844129349518972
12293681 25 18195273098901462806
12596599 1 18271535242857246547
12670546 177 18411707594777986516
12788726 201 18338806610792011064
13149001 5 17532945015426755205
13224815 77 18259699012905563989
13583140 156 15068903126141451408
14115302 16 17676214588629174318
14178342 30 17844529894831064432
15163728 17 16881907735428498900
15209289 33 18334010588569032211
16945 1 18338497669414448492
17349148 13 17968656013133051922
17980427 23 15504907977368202788
1813 80 18408612461188146509
18186145 218 18186512224451793661
18981168 100 12253025328823841471
192875 21 16370729201221956885
19422 9 18342455967562782037
200 152 18060422417253958540
20691752 17 17895460523164898397
21033650 10 18046933505736418492
23184049 59 11312060971718522265
23227448 37 13552057557849083903
23402539 116 18187078434317112740
23419403 2 17980772849855176312
23557571 272 17988360365018995360
23559900 14 17918273147405284736
2748010 2 18046081607478554946
2871803 45 18261660550439794301
3286 77 17967801722499218124
3323516 105 18342173414296039985
5104073 3 18343017830889393785
633830 44 18261106392163212461
9981440 41 17190361527570878337

> <PUBCHEM_SHAPE_MULTIPOLES>
434.02
8.09
2.15
1.65
2.04
0.22
-0.12
-1.36
1.67
0.29
-0.19
-0.72
-0.82
-0.03

> <PUBCHEM_SHAPE_SELFOVERLAP>
922.829

> <PUBCHEM_SHAPE_VOLUME>
240

> <PUBCHEM_COORDINATE_TYPE>
2
5
10

$$$$
