REMARK  Name = 11722683
REMARK  9 active torsions:
REMARK  status: ('A' for Active; 'I' for Inactive)
REMARK    1  A    between atoms: C_1  and  C_16
REMARK    2  A    between atoms: C_3  and  C_4
REMARK    3  A    between atoms: C_5  and  C_6
REMARK    4  A    between atoms: C_7  and  C_8
REMARK    5  A    between atoms: C_8  and  C_11
REMARK    6  A    between atoms: C_8  and  O_14
REMARK    7  A    between atoms: C_16  and  C_17
REMARK    8  A    between atoms: C_16  and  O_25
REMARK    9  A    between atoms: C_17  and  C_22
REMARK                            x       y       z     vdW  Elec       q    Type
REMARK                         _______ _______ _______ _____ _____    ______ ____
ROOT
ATOM      1  C   UNL     1       2.389   1.034   0.096  0.00  0.00    -0.017 C 
ATOM      2  C   UNL     1       2.789   1.953   1.225  0.00  0.00    +0.029 C 
ATOM      3  C   UNL     1       1.145   0.528  -0.046  0.00  0.00    -0.006 C 
ENDROOT
BRANCH   3   4
ATOM      4  C   UNL     1       0.673  -0.356  -1.092  0.00  0.00    -0.001 C 
ATOM      5  C   UNL     1      -0.590  -0.807  -1.147  0.00  0.00    -0.000 C 
BRANCH   5   6
ATOM      6  C   UNL     1      -1.596  -0.454  -0.168  0.00  0.00    -0.002 C 
ATOM      7  C   UNL     1      -2.860  -0.905  -0.222  0.00  0.00    +0.010 C 
BRANCH   7   8
ATOM      8  C   UNL     1      -3.970  -0.597   0.751  0.00  0.00    +0.191 C 
BRANCH   8  11
ATOM      9  O   UNL     1      -5.626   1.162   0.756  0.00  0.00    -0.433 OA
ATOM     10  N   UNL     1      -7.145   0.514  -0.790  0.00  0.00    -0.203 NA
ATOM     11  C   UNL     1      -5.260  -0.010   0.217  0.00  0.00    +0.175 C 
ATOM     12  C   UNL     1      -6.143  -0.418  -0.703  0.00  0.00    +0.138 C 
ATOM     13  C   UNL     1      -6.786   1.420   0.092  0.00  0.00    +0.285 C 
ENDBRANCH   8  11
BRANCH   8  14
ATOM     14  O   UNL     1      -4.304  -1.813   1.430  0.00  0.00    -0.373 OA
ATOM     15  H   UNL     1      -3.498  -2.217   1.786  0.00  0.00    +0.211 HD
ENDBRANCH   8  14
ENDBRANCH   7   8
ENDBRANCH   5   6
ENDBRANCH   3   4
BRANCH   1  16
ATOM     16  C   UNL     1       3.523   0.665  -0.869  0.00  0.00    +0.137 C 
BRANCH  16  17
ATOM     17  C   UNL     1       4.409  -0.549  -0.433  0.00  0.00    +0.097 C 
ATOM     18  C   UNL     1       3.532  -1.815  -0.286  0.00  0.00    +0.012 C 
ATOM     19  C   UNL     1       5.484  -0.867  -1.495  0.00  0.00    +0.012 C 
BRANCH  17  22
ATOM     20  O   UNL     1       4.934  -1.010   1.906  0.00  0.00    -0.275 OA
ATOM     21  N   UNL     1       5.925   0.814   0.952  0.00  0.00    -0.329 N 
ATOM     22  C   UNL     1       5.100  -0.289   0.922  0.00  0.00    +0.221 C 
ATOM     23  H   UNL     1       6.404   1.049   1.780  0.00  0.00    +0.145 HD
ATOM     24  H   UNL     1       6.036   1.368   0.146  0.00  0.00    +0.145 HD
ENDBRANCH  17  22
ENDBRANCH  16  17
BRANCH  16  25
ATOM     25  O   UNL     1       4.376   1.796  -1.098  0.00  0.00    -0.380 OA
ATOM     26  H   UNL     1       5.087   1.547  -1.709  0.00  0.00    +0.211 HD
ENDBRANCH  16  25
ENDBRANCH   1  16
TORSDOF 9
