11722683
  -OEChem-03292013303D

 44 44  0     1  0  0  0  0  0999 V2000
    4.3764    1.7963   -1.0978 O   0  0  0  0  0  0  0  0  0  0  0  0
    4.9339   -1.0097    1.9062 O   0  0  0  0  0  0  0  0  0  0  0  0
   -5.6262    1.1619    0.7563 O   0  0  0  0  0  0  0  0  0  0  0  0
   -4.3043   -1.8125    1.4300 O   0  0  0  0  0  0  0  0  0  0  0  0
    5.9251    0.8140    0.9520 N   0  0  0  0  0  0  0  0  0  0  0  0
   -7.1446    0.5145   -0.7897 N   0  0  0  0  0  0  0  0  0  0  0  0
    4.4086   -0.5486   -0.4330 C   0  0  0  0  0  0  0  0  0  0  0  0
    3.5230    0.6653   -0.8691 C   0  0  1  0  0  0  0  0  0  0  0  0
    3.5318   -1.8147   -0.2856 C   0  0  0  0  0  0  0  0  0  0  0  0
    5.4836   -0.8670   -1.4953 C   0  0  0  0  0  0  0  0  0  0  0  0
    2.3890    1.0345    0.0960 C   0  0  0  0  0  0  0  0  0  0  0  0
    5.1001   -0.2893    0.9222 C   0  0  0  0  0  0  0  0  0  0  0  0
    2.7895    1.9529    1.2249 C   0  0  0  0  0  0  0  0  0  0  0  0
    1.1448    0.5283   -0.0459 C   0  0  0  0  0  0  0  0  0  0  0  0
    0.6730   -0.3560   -1.0924 C   0  0  0  0  0  0  0  0  0  0  0  0
   -0.5901   -0.8074   -1.1470 C   0  0  0  0  0  0  0  0  0  0  0  0
   -3.9698   -0.5965    0.7514 C   0  0  1  0  0  0  0  0  0  0  0  0
   -1.5960   -0.4538   -0.1683 C   0  0  0  0  0  0  0  0  0  0  0  0
   -2.8595   -0.9047   -0.2218 C   0  0  0  0  0  0  0  0  0  0  0  0
   -5.2597   -0.0096    0.2174 C   0  0  0  0  0  0  0  0  0  0  0  0
   -6.1425   -0.4177   -0.7028 C   0  0  0  0  0  0  0  0  0  0  0  0
   -6.7860    1.4198    0.0923 C   0  0  0  0  0  0  0  0  0  0  0  0
    3.1145    0.4423   -1.8604 H   0  0  0  0  0  0  0  0  0  0  0  0
    4.1491   -2.6828   -0.0208 H   0  0  0  0  0  0  0  0  0  0  0  0
    2.7856   -1.7197    0.5092 H   0  0  0  0  0  0  0  0  0  0  0  0
    3.0269   -2.0646   -1.2237 H   0  0  0  0  0  0  0  0  0  0  0  0
    6.1508   -0.0174   -1.6744 H   0  0  0  0  0  0  0  0  0  0  0  0
    6.1141   -1.7057   -1.1776 H   0  0  0  0  0  0  0  0  0  0  0  0
    5.0233   -1.1336   -2.4532 H   0  0  0  0  0  0  0  0  0  0  0  0
    3.2786    2.8590    0.8559 H   0  0  0  0  0  0  0  0  0  0  0  0
    3.4442    1.4544    1.9412 H   0  0  0  0  0  0  0  0  0  0  0  0
    1.9088    2.2852    1.7870 H   0  0  0  0  0  0  0  0  0  0  0  0
    3.8248    2.5106   -1.4608 H   0  0  0  0  0  0  0  0  0  0  0  0
    0.4488    0.8511    0.7189 H   0  0  0  0  0  0  0  0  0  0  0  0
    6.0599    1.4175    0.1478 H   0  0  0  0  0  0  0  0  0  0  0  0
    6.4245    1.0671    1.7981 H   0  0  0  0  0  0  0  0  0  0  0  0
    1.3441   -0.6647   -1.8844 H   0  0  0  0  0  0  0  0  0  0  0  0
   -0.8799   -1.4631   -1.9638 H   0  0  0  0  0  0  0  0  0  0  0  0
   -3.5897    0.0856    1.5233 H   0  0  0  0  0  0  0  0  0  0  0  0
   -1.3670    0.2004    0.6624 H   0  0  0  0  0  0  0  0  0  0  0  0
   -3.1363   -1.5735   -1.0368 H   0  0  0  0  0  0  0  0  0  0  0  0
   -6.1422   -1.3082   -1.3131 H   0  0  0  0  0  0  0  0  0  0  0  0
   -3.4983   -2.1425    1.8633 H   0  0  0  0  0  0  0  0  0  0  0  0
   -7.2960    2.3357    0.3513 H   0  0  0  0  0  0  0  0  0  0  0  0
  1  8  1  0  0  0  0
  1 33  1  0  0  0  0
  2 12  2  0  0  0  0
  3 20  1  0  0  0  0
  3 22  1  0  0  0  0
  4 17  1  0  0  0  0
  4 43  1  0  0  0  0
  5 12  1  0  0  0  0
  5 35  1  0  0  0  0
  5 36  1  0  0  0  0
  6 21  1  0  0  0  0
  6 22  2  0  0  0  0
  7  8  1  0  0  0  0
  7  9  1  0  0  0  0
  7 10  1  0  0  0  0
  7 12  1  0  0  0  0
  8 11  1  0  0  0  0
  8 23  1  0  0  0  0
  9 24  1  0  0  0  0
  9 25  1  0  0  0  0
  9 26  1  0  0  0  0
 10 27  1  0  0  0  0
 10 28  1  0  0  0  0
 10 29  1  0  0  0  0
 11 13  1  0  0  0  0
 11 14  2  0  0  0  0
 13 30  1  0  0  0  0
 13 31  1  0  0  0  0
 13 32  1  0  0  0  0
 14 15  1  0  0  0  0
 14 34  1  0  0  0  0
 15 16  2  0  0  0  0
 15 37  1  0  0  0  0
 16 18  1  0  0  0  0
 16 38  1  0  0  0  0
 17 19  1  0  0  0  0
 17 20  1  0  0  0  0
 17 39  1  0  0  0  0
 18 19  2  0  0  0  0
 18 40  1  0  0  0  0
 19 41  1  0  0  0  0
 20 21  2  0  0  0  0
 21 42  1  0  0  0  0
 22 44  1  0  0  0  0
M  END
> <PUBCHEM_COMPOUND_CID>
11722683

> <PUBCHEM_CONFORMER_RMSD>
0.8

> <PUBCHEM_CONFORMER_DIVERSEORDER>
4
180
75
143
322
220
174
66
170
128
319
231
221
187
287
328
154
268
206
58
251
124
156
259
264
261
127
273
135
190
95
10
225
316
118
267
227
269
276
167
277
279
307
236
248
293
275
71
29
292
198
111
327
147
54
151
168
44
280
195
317
318
53
281
179
258
142
80
192
243
291
329
169
40
148
161
83
321
299
183
282
215
270
2
64
320
153
211
33
263
286
146
15
254
203
23
113
89
217
205
138
306
285
302
62
278
164
233
79
104
309
296
155
184
189
57
81
74
86
197
323
237
230
11
158
242
109
312
149
219
311
68
245
294
46
331
200
120
304
63
140
232
114
121
177
129
213
249
90
50
239
265
107
19
43
60
186
199
257
298
274
27
253
108
315
9
106
47
210
196
17
181
191
325
202
14
150
144
134
82
301
52
314
289
157
137
55
313
272
241
160
283
182
125
31
6
310
222
252
303
103
178
12
207
244
300
100
209
96
176
240
330
116
35
284
163
7
133
59
123
93
208
122
115
332
224
48
49
88
262
326
297
159
228
97
37
255
290
56
131
126
235
139
234
30
18
24
78
324
91
295
226
65
73
3
229
22
271
67
250
288
72
201
171
256
305
20
188
247
110
173
45
172
132
193
85
102
99
223
130
76
185
194
119
112
51
308
8
77
16
162
5
32
152
136
42
98
1
260
21
84
266
87
94
41
13
165
25
101
105
39
246
238
38
141
214
166
175
92
218
26
36
70
145
117
216
28
212
34
69
204
61

> <PUBCHEM_MMFF94_PARTIAL_CHARGES>
31
1 -0.68
11 -0.28
12 0.57
13 0.14
14 -0.15
15 -0.15
16 -0.15
17 0.6
18 -0.15
19 -0.29
2 -0.57
20 -0.04
21 0.08
22 0.33
3 -0.28
33 0.4
34 0.15
35 0.37
36 0.37
37 0.15
38 0.15
4 -0.68
40 0.15
41 0.15
42 0.15
43 0.4
44 0.15
5 -0.8
6 -0.57
7 0.06
8 0.42

> <PUBCHEM_EFFECTIVE_ROTOR_COUNT>
7

> <PUBCHEM_PHARMACOPHORE_FEATURES>
9
1 1 acceptor
1 1 donor
1 13 hydrophobe
1 2 acceptor
1 4 acceptor
1 4 donor
1 5 donor
3 7 9 10 hydrophobe
5 3 6 20 21 22 rings

> <PUBCHEM_HEAVY_ATOM_COUNT>
22

> <PUBCHEM_ATOM_DEF_STEREO_COUNT>
0

> <PUBCHEM_ATOM_UDEF_STEREO_COUNT>
2

> <PUBCHEM_BOND_DEF_STEREO_COUNT>
3

> <PUBCHEM_BOND_UDEF_STEREO_COUNT>
0

> <PUBCHEM_ISOTOPIC_ATOM_COUNT>
0

> <PUBCHEM_COMPONENT_COUNT>
1

> <PUBCHEM_CACTVS_TAUTO_COUNT>
2

> <PUBCHEM_CONFORMER_ID>
00B2DFBB00000004

> <PUBCHEM_MMFF94_ENERGY>
49.4885

> <PUBCHEM_FEATURE_SELFOVERLAP>
45.676

> <PUBCHEM_SHAPE_FINGERPRINT>
10299344 5 10809345525563773125
11089746 13 18272646861955476069
11545043 162 18261401100108398219
11796584 16 18260835920666367746
12166972 35 16200434662826965891
12236239 1 16128657436096644095
12616971 3 14779551226802219215
12730499 353 10881398729755052640
12778500 126 17894908486459859680
13533116 47 18338799992273859254
14123256 10 9799689311691744766
1420 363 12035448337423025589
14251758 9 18411704287769154255
14251764 18 18409725188055472884
14528608 73 13110967517442431454
146900 427 13045949044169235756
15142383 8 18334570235835098884
15183329 4 18334861597784209945
15348495 7 17822579416440147161
15537594 2 13479129116579868681
17844677 252 17095240319745456173
19489759 90 18410856569221403577
20157964 124 17203328918156879943
20281389 69 18113337514353804405
21150785 3 10015578437391776058
21344244 181 14490474128192480616
220451 1 17022908964297096443
23035841 295 12612751311512619905
23081809 10 17603589668335325487
23559900 14 18260838115367820807
239999 70 13623531251621015514
2767999 5 17203891864242582193
2838139 119 18201715138182151925
300161 21 17704069616223069526
3004659 81 18408046204088645532
312425 54 17385441050772312233
34797466 226 9727348073787388810
351380 180 18060139838676485161
351380 3 14851604397302958891
4073 2 17241336900678153930
4325135 7 11312054357363359129
4340502 62 9367345916475837988
5104073 3 18041282178877505865
59755656 215 18338521845875360111
59755656 520 18113896079472884663
8509985 295 18131070433074396576
8988823 20 15123507004375906450

> <PUBCHEM_SHAPE_MULTIPOLES>
419.31
19.55
1.66
1.35
22.39
0.39
-0.32
2.64
-0.5
-0.89
-0.11
-1.1
-0.18
0.55

> <PUBCHEM_SHAPE_SELFOVERLAP>
853.65

> <PUBCHEM_SHAPE_VOLUME>
244.6

> <PUBCHEM_COORDINATE_TYPE>
2
5
10

$$$$
