11729785
  -OEChem-03292013303D

 69 70  0     1  0  0  0  0  0999 V2000
   -1.2328   -0.1288   -0.8733 O   0  0  0  0  0  0  0  0  0  0  0  0
    0.0702    1.7523    1.1113 O   0  0  0  0  0  0  0  0  0  0  0  0
    2.8389    4.2980    0.1531 O   0  0  0  0  0  0  0  0  0  0  0  0
    2.3193   -2.1175    2.8112 O   0  0  0  0  0  0  0  0  0  0  0  0
    2.5799    2.1882   -0.6381 O   0  0  0  0  0  0  0  0  0  0  0  0
    1.6658    0.0575    2.7179 O   0  0  0  0  0  0  0  0  0  0  0  0
    3.5542   -0.9699   -1.2144 N   0  3  0  0  0  0  0  0  0  0  0  0
   -2.5633    0.4146   -0.9996 C   0  0  1  0  0  0  0  0  0  0  0  0
   -2.7294   -1.7092    0.0564 C   0  0  1  0  0  0  0  0  0  0  0  0
   -1.3276   -1.5183   -0.5116 C   0  0  2  0  0  0  0  0  0  0  0  0
   -3.5275   -0.7599   -0.8176 C   0  0  0  0  0  0  0  0  0  0  0  0
   -2.7356    1.4723    0.0929 C   0  0  0  0  0  0  0  0  0  0  0  0
   -0.2174   -1.8579    0.4663 C   0  0  1  0  0  0  0  0  0  0  0  0
   -3.2271   -3.1435    0.0086 C   0  0  0  0  0  0  0  0  0  0  0  0
   -1.8476    2.7271   -0.0683 C   0  0  2  0  0  0  0  0  0  0  0  0
   -2.6990    1.0538   -2.3787 C   0  0  0  0  0  0  0  0  0  0  0  0
   -0.3264   -3.3293    0.9343 C   0  0  0  0  0  0  0  0  0  0  0  0
   -0.3270    2.3997   -0.1007 C   0  0  1  0  0  0  0  0  0  0  0  0
    1.1502   -1.5322   -0.1234 C   0  0  0  0  0  0  0  0  0  0  0  0
   -2.1399    3.8129    0.9996 C   0  0  0  0  0  0  0  0  0  0  0  0
   -4.6794   -3.2484    0.4426 C   0  0  0  0  0  0  0  0  0  0  0  0
   -0.0330   -4.3435   -0.1646 C   0  0  0  0  0  0  0  0  0  0  0  0
    0.6142    3.5948   -0.3087 C   0  0  0  0  0  0  0  0  0  0  0  0
    2.1740   -1.1197    0.6980 C   0  0  0  0  0  0  0  0  0  0  0  0
    1.3124   -1.6674   -1.4841 C   0  0  0  0  0  0  0  0  0  0  0  0
   -3.5914    4.2724    1.0462 C   0  0  0  0  0  0  0  0  0  0  0  0
    3.3986   -0.8376    0.1100 C   0  0  0  0  0  0  0  0  0  0  0  0
    2.5589   -1.3713   -2.0169 C   0  0  0  0  0  0  0  0  0  0  0  0
    2.0901    3.2507   -0.2824 C   0  0  0  0  0  0  0  0  0  0  0  0
    2.0223   -0.9727    2.1378 C   0  0  0  0  0  0  0  0  0  0  0  0
    4.8552   -0.6674   -1.8041 C   0  0  0  0  0  0  0  0  0  0  0  0
   -2.7690   -1.3464    1.0922 H   0  0  0  0  0  0  0  0  0  0  0  0
   -1.2768   -2.0897   -1.4442 H   0  0  0  0  0  0  0  0  0  0  0  0
   -3.7484   -1.2353   -1.7820 H   0  0  0  0  0  0  0  0  0  0  0  0
   -4.4821   -0.4603   -0.3731 H   0  0  0  0  0  0  0  0  0  0  0  0
   -3.7878    1.7793    0.0990 H   0  0  0  0  0  0  0  0  0  0  0  0
   -2.5308    1.0330    1.0776 H   0  0  0  0  0  0  0  0  0  0  0  0
   -0.3677   -1.2132    1.3425 H   0  0  0  0  0  0  0  0  0  0  0  0
   -2.7037   -3.8586    0.6271 H   0  0  0  0  0  0  0  0  0  0  0  0
   -3.1524   -3.5266   -1.0174 H   0  0  0  0  0  0  0  0  0  0  0  0
   -2.0931    3.2013   -1.0270 H   0  0  0  0  0  0  0  0  0  0  0  0
   -1.8699    1.7285   -2.6135 H   0  0  0  0  0  0  0  0  0  0  0  0
   -2.6613    0.2846   -3.1598 H   0  0  0  0  0  0  0  0  0  0  0  0
   -3.6460    1.5927   -2.4843 H   0  0  0  0  0  0  0  0  0  0  0  0
   -1.2057   -3.5274    1.5393 H   0  0  0  0  0  0  0  0  0  0  0  0
    0.4718   -3.4876    1.6729 H   0  0  0  0  0  0  0  0  0  0  0  0
   -0.1026    1.7260   -0.9286 H   0  0  0  0  0  0  0  0  0  0  0  0
   -1.5443    4.7079    0.7951 H   0  0  0  0  0  0  0  0  0  0  0  0
   -1.8495    3.4518    1.9932 H   0  0  0  0  0  0  0  0  0  0  0  0
   -4.9948   -4.2973    0.4503 H   0  0  0  0  0  0  0  0  0  0  0  0
   -5.3485   -2.7147   -0.2389 H   0  0  0  0  0  0  0  0  0  0  0  0
   -4.8192   -2.8485    1.4521 H   0  0  0  0  0  0  0  0  0  0  0  0
   -0.1717   -5.3549    0.2335 H   0  0  0  0  0  0  0  0  0  0  0  0
   -0.7020   -4.2400   -1.0219 H   0  0  0  0  0  0  0  0  0  0  0  0
    1.0017   -4.2863   -0.5145 H   0  0  0  0  0  0  0  0  0  0  0  0
    0.3948    4.1009   -1.2544 H   0  0  0  0  0  0  0  0  0  0  0  0
    0.4747    4.3087    0.5104 H   0  0  0  0  0  0  0  0  0  0  0  0
    0.5568   -2.0198   -2.1718 H   0  0  0  0  0  0  0  0  0  0  0  0
   -4.2488    3.4905    1.4368 H   0  0  0  0  0  0  0  0  0  0  0  0
   -3.9449    4.5652    0.0527 H   0  0  0  0  0  0  0  0  0  0  0  0
   -3.6884    5.1386    1.7090 H   0  0  0  0  0  0  0  0  0  0  0  0
    0.9750    1.4204    0.9922 H   0  0  0  0  0  0  0  0  0  0  0  0
    4.2625   -0.5113    0.6776 H   0  0  0  0  0  0  0  0  0  0  0  0
    2.7735   -1.4644   -3.0747 H   0  0  0  0  0  0  0  0  0  0  0  0
    4.7261   -0.3484   -2.8420 H   0  0  0  0  0  0  0  0  0  0  0  0
    5.4609   -1.5761   -1.7542 H   0  0  0  0  0  0  0  0  0  0  0  0
    5.3286    0.1435   -1.2435 H   0  0  0  0  0  0  0  0  0  0  0  0
    3.7967    4.0862    0.1544 H   0  0  0  0  0  0  0  0  0  0  0  0
    2.2113   -2.0092    3.7802 H   0  0  0  0  0  0  0  0  0  0  0  0
  1  8  1  0  0  0  0
  1 10  1  0  0  0  0
  2 18  1  0  0  0  0
  2 62  1  0  0  0  0
  3 29  1  0  0  0  0
  3 68  1  0  0  0  0
  4 30  1  0  0  0  0
  4 69  1  0  0  0  0
  5 29  2  0  0  0  0
  6 30  2  0  0  0  0
  7 27  2  0  0  0  0
  7 28  1  0  0  0  0
  7 31  1  0  0  0  0
  8 11  1  0  0  0  0
  8 12  1  0  0  0  0
  8 16  1  0  0  0  0
  9 10  1  0  0  0  0
  9 11  1  0  0  0  0
  9 14  1  0  0  0  0
  9 32  1  0  0  0  0
 10 13  1  0  0  0  0
 10 33  1  0  0  0  0
 11 34  1  0  0  0  0
 11 35  1  0  0  0  0
 12 15  1  0  0  0  0
 12 36  1  0  0  0  0
 12 37  1  0  0  0  0
 13 17  1  0  0  0  0
 13 19  1  0  0  0  0
 13 38  1  0  0  0  0
 14 21  1  0  0  0  0
 14 39  1  0  0  0  0
 14 40  1  0  0  0  0
 15 18  1  0  0  0  0
 15 20  1  0  0  0  0
 15 41  1  0  0  0  0
 16 42  1  0  0  0  0
 16 43  1  0  0  0  0
 16 44  1  0  0  0  0
 17 22  1  0  0  0  0
 17 45  1  0  0  0  0
 17 46  1  0  0  0  0
 18 23  1  0  0  0  0
 18 47  1  0  0  0  0
 19 24  2  0  0  0  0
 19 25  1  0  0  0  0
 20 26  1  0  0  0  0
 20 48  1  0  0  0  0
 20 49  1  0  0  0  0
 21 50  1  0  0  0  0
 21 51  1  0  0  0  0
 21 52  1  0  0  0  0
 22 53  1  0  0  0  0
 22 54  1  0  0  0  0
 22 55  1  0  0  0  0
 23 29  1  0  0  0  0
 23 56  1  0  0  0  0
 23 57  1  0  0  0  0
 24 27  1  0  0  0  0
 24 30  1  0  0  0  0
 25 28  2  0  0  0  0
 25 58  1  0  0  0  0
 26 59  1  0  0  0  0
 26 60  1  0  0  0  0
 26 61  1  0  0  0  0
 27 63  1  0  0  0  0
 28 64  1  0  0  0  0
 31 65  1  0  0  0  0
 31 66  1  0  0  0  0
 31 67  1  0  0  0  0
M  CHG  1   7   1
M  END
> <PUBCHEM_COMPOUND_CID>
11729785

> <PUBCHEM_CONFORMER_RMSD>
1.2

> <PUBCHEM_CONFORMER_DIVERSEORDER>
1
6
8
4
3
7
5
12
10
9
11
2

> <PUBCHEM_MMFF94_PARTIAL_CHARGES>
26
1 -0.56
10 0.28
13 0.14
18 0.28
19 -0.14
2 -0.68
23 0.06
24 0.09
25 -0.15
27 0.21
28 0.21
29 0.66
3 -0.65
30 0.63
31 0.49
4 -0.65
5 -0.57
58 0.15
6 -0.57
62 0.4
63 0.15
64 0.15
68 0.5
69 0.5
7 -0.21
8 0.28

> <PUBCHEM_EFFECTIVE_ROTOR_COUNT>
12

> <PUBCHEM_PHARMACOPHORE_FEATURES>
14
1 1 acceptor
1 2 acceptor
1 2 donor
1 21 hydrophobe
1 22 hydrophobe
1 26 hydrophobe
1 3 acceptor
1 4 acceptor
1 5 acceptor
1 6 acceptor
3 3 5 29 anion
3 4 6 30 anion
5 1 8 9 10 11 rings
6 7 19 24 25 27 28 rings

> <PUBCHEM_HEAVY_ATOM_COUNT>
31

> <PUBCHEM_ATOM_DEF_STEREO_COUNT>
6

> <PUBCHEM_ATOM_UDEF_STEREO_COUNT>
0

> <PUBCHEM_BOND_DEF_STEREO_COUNT>
0

> <PUBCHEM_BOND_UDEF_STEREO_COUNT>
0

> <PUBCHEM_ISOTOPIC_ATOM_COUNT>
0

> <PUBCHEM_COMPONENT_COUNT>
1

> <PUBCHEM_CACTVS_TAUTO_COUNT>
1

> <PUBCHEM_CONFORMER_ID>
00B2FB7900000001

> <PUBCHEM_MMFF94_ENERGY>
104.9701

> <PUBCHEM_FEATURE_SELFOVERLAP>
71.169

> <PUBCHEM_SHAPE_FINGERPRINT>
1100329 8 18339651049071021397
11640471 11 17605282778618446310
12156800 1 16547003987898111353
12553582 1 17977659814683935860
12788726 201 18334581248131739667
13009979 54 17824807971838839474
13140716 1 18409734006261810135
13402501 40 17761496185087028492
13583140 156 16083069355830737045
13965767 371 17535753988510153092
14790565 3 17764607420884768868
19311894 1 18266188218900764214
19319366 153 17461178572710552624
19591789 44 16753247437136657943
19930381 70 17838063958536534581
20600515 1 18268691841231400944
20642791 35 18410579513238656397
20691752 17 17619889687551028441
20905425 154 17975122455210160942
23419403 2 17320744798662063939
23558518 356 18336842973277307284
23559900 14 18411131442053451455
3052486 1 18194674869890538552
3298306 158 17833258006581815341
3380486 77 17540771107412892753
3411729 13 17904203973068553259
3493558 16 16969755479844593322
59755656 215 18049728721781318196
81228 2 17982712105146904093

> <PUBCHEM_SHAPE_MULTIPOLES>
597.77
6.86
6.28
1.96
0.64
2.12
0.55
0.44
-1.31
-4.13
1.25
1.44
-0.28
-0.91

> <PUBCHEM_SHAPE_SELFOVERLAP>
1230.937

> <PUBCHEM_SHAPE_VOLUME>
345.8

> <PUBCHEM_COORDINATE_TYPE>
2
5
10

$$$$
