REMARK  Name = 11729521
REMARK  15 active torsions:
REMARK  status: ('A' for Active; 'I' for Inactive)
REMARK    1  A    between atoms: N_1  and  C_3
REMARK    2  A    between atoms: N_1  and  C_15
REMARK    3  A    between atoms: N_1  and  C_27
REMARK    4  A    between atoms: C_3  and  C_4
REMARK    5  A    between atoms: C_4  and  O_5
REMARK    6  A    between atoms: O_5  and  C_6
REMARK    7  A    between atoms: C_11  and  N_12
REMARK    8  A    between atoms: C_15  and  C_16
REMARK    9  A    between atoms: C_16  and  O_17
REMARK   10  A    between atoms: O_17  and  C_18
REMARK   11  A    between atoms: C_23  and  N_24
REMARK   12  A    between atoms: C_27  and  C_28
REMARK   13  A    between atoms: C_28  and  O_29
REMARK   14  A    between atoms: O_29  and  C_30
REMARK   15  A    between atoms: C_35  and  N_36
REMARK                            x       y       z     vdW  Elec       q    Type
REMARK                         _______ _______ _______ _____ _____    ______ ____
ROOT
ATOM      1  N   UNL     1      -0.030   0.019  -0.904  0.00  0.00    +0.395 N 
ATOM      2  H   UNL     1      -0.021   0.027   0.116  0.00  0.00    -0.079 HD
ENDROOT
BRANCH   1   3
ATOM      3  C   UNL     1      -1.178   0.800  -1.364  0.00  0.00    -0.029 C 
BRANCH   3   4
ATOM      4  C   UNL     1      -2.475   0.211  -0.833  0.00  0.00    +0.183 C 
BRANCH   4   5
ATOM      5  O   UNL     1      -3.559   1.009  -1.290  0.00  0.00    -0.478 OA
BRANCH   5   6
ATOM      6  C   UNL     1      -4.672   1.054  -0.491  0.00  0.00    +0.139 C 
ATOM      7  C   UNL     1      -4.995  -0.041   0.302  0.00  0.00    +0.038 C 
ATOM      8  C   UNL     1      -5.467   2.194  -0.483  0.00  0.00    +0.038 C 
ATOM      9  C   UNL     1      -6.128   0.004   1.115  0.00  0.00    +0.017 C 
ATOM     10  C   UNL     1      -6.600   2.240   0.330  0.00  0.00    +0.017 C 
ATOM     11  C   UNL     1      -6.930   1.145   1.128  0.00  0.00    +0.042 C 
BRANCH  11  12
ATOM     12  N   UNL     1      -8.075   1.191   1.950  0.00  0.00    -0.357 N 
ATOM     13  H   UNL     1      -8.308   0.418   2.514  0.00  0.00    +0.142 HD
ATOM     14  H   UNL     1      -8.642   1.996   1.960  0.00  0.00    +0.142 HD
ENDBRANCH  11  12
ENDBRANCH   5   6
ENDBRANCH   4   5
ENDBRANCH   3   4
ENDBRANCH   1   3
BRANCH   1  15
ATOM     15  C   UNL     1       1.218   0.614  -1.382  0.00  0.00    -0.029 C 
BRANCH  15  16
ATOM     16  C   UNL     1       1.389   2.020  -0.829  0.00  0.00    +0.183 C 
BRANCH  16  17
ATOM     17  O   UNL     1       2.619   2.551  -1.304  0.00  0.00    -0.478 OA
BRANCH  17  18
ATOM     18  C   UNL     1       3.245   3.470  -0.503  0.00  0.00    +0.139 C 
ATOM     19  C   UNL     1       2.489   4.292   0.323  0.00  0.00    +0.038 C 
ATOM     20  C   UNL     1       4.632   3.569  -0.525  0.00  0.00    +0.038 C 
ATOM     21  C   UNL     1       3.127   5.227   1.139  0.00  0.00    +0.017 C 
ATOM     22  C   UNL     1       5.270   4.504   0.290  0.00  0.00    +0.017 C 
ATOM     23  C   UNL     1       4.518   5.333   1.122  0.00  0.00    +0.042 C 
BRANCH  23  24
ATOM     24  N   UNL     1       5.163   6.278   1.947  0.00  0.00    -0.357 N 
ATOM     25  H   UNL     1       4.631   6.863   2.534  0.00  0.00    +0.142 HD
ATOM     26  H   UNL     1       6.144   6.352   1.935  0.00  0.00    +0.142 HD
ENDBRANCH  23  24
ENDBRANCH  17  18
ENDBRANCH  16  17
ENDBRANCH  15  16
ENDBRANCH   1  15
BRANCH   1  27
ATOM     27  C   UNL     1      -0.141  -1.367  -1.355  0.00  0.00    -0.029 C 
BRANCH  27  28
ATOM     28  C   UNL     1       1.028  -2.194  -0.844  0.00  0.00    +0.183 C 
BRANCH  28  29
ATOM     29  O   UNL     1       0.870  -3.534  -1.291  0.00  0.00    -0.478 OA
BRANCH  29  30
ATOM     30  C   UNL     1       1.403  -4.517  -0.498  0.00  0.00    +0.139 C 
ATOM     31  C   UNL     1       2.527  -4.245   0.273  0.00  0.00    +0.038 C 
ATOM     32  C   UNL     1       0.813  -5.775  -0.473  0.00  0.00    +0.038 C 
ATOM     33  C   UNL     1       3.070  -5.245   1.079  0.00  0.00    +0.017 C 
ATOM     34  C   UNL     1       1.355  -6.776   0.334  0.00  0.00    +0.017 C 
ATOM     35  C   UNL     1       2.484  -6.511   1.110  0.00  0.00    +0.042 C 
BRANCH  35  36
ATOM     36  N   UNL     1       3.032  -7.522   1.926  0.00  0.00    -0.357 N 
ATOM     37  H   UNL     1       3.829  -7.334   2.474  0.00  0.00    +0.142 HD
ATOM     38  H   UNL     1       2.619  -8.415   1.948  0.00  0.00    +0.142 HD
ENDBRANCH  35  36
ENDBRANCH  29  30
ENDBRANCH  28  29
ENDBRANCH  27  28
ENDBRANCH   1  27
TORSDOF 15
