REMARK  Name = 11723200
REMARK  8 active torsions:
REMARK  status: ('A' for Active; 'I' for Inactive)
REMARK    1  A    between atoms: N_2  and  C_5
REMARK    2  A    between atoms: C_3  and  C_18
REMARK    3  A    between atoms: C_6  and  C_14
REMARK    4  A    between atoms: C_9  and  O_11
REMARK    5  A    between atoms: C_14  and  O_15
REMARK    6  A    between atoms: C_17  and  C_19
REMARK    7  A    between atoms: C_22  and  O_25
REMARK    8  A    between atoms: C_23  and  O_27
REMARK                            x       y       z     vdW  Elec       q    Type
REMARK                         _______ _______ _______ _____ _____    ______ ____
ROOT
ATOM      1  O   UNL     1       0.534  -2.133   0.164  0.00  0.00    -0.270 OA
ATOM      2  N   UNL     1       1.490   0.007   0.031  0.00  0.00    -0.280 N 
ATOM      3  C   UNL     1       0.451  -0.912   0.097  0.00  0.00    +0.250 C 
ATOM      4  H   UNL     1       1.230   0.956  -0.017  0.00  0.00    +0.155 HD
ENDROOT
BRANCH   2   5
ATOM      5  C   UNL     1       2.880  -0.265   0.025  0.00  0.00    +0.057 C 
ATOM      6  C   UNL     1       3.796   0.771  -0.045  0.00  0.00    +0.092 C 
ATOM      7  C   UNL     1       3.290  -1.587   0.090  0.00  0.00    +0.018 C 
ATOM      8  C   UNL     1       5.160   0.479  -0.050  0.00  0.00    +0.044 C 
ATOM      9  C   UNL     1       5.589  -0.847   0.016  0.00  0.00    +0.134 C 
ATOM     10  C   UNL     1       4.654  -1.880   0.086  0.00  0.00    +0.038 C 
BRANCH   9  11
ATOM     11  O   UNL     1       6.920  -1.132   0.012  0.00  0.00    -0.506 OA
ATOM     12  H   UNL     1       7.548  -0.439  -0.035  0.00  0.00    +0.292 HD
ENDBRANCH   9  11
BRANCH   6  14
ATOM     13  O   UNL     1       2.349   2.628   0.383  0.00  0.00    -0.245 OA
ATOM     14  C   UNL     1       3.381   2.167  -0.112  0.00  0.00    +0.339 C 
BRANCH  14  15
ATOM     15  O   UNL     1       4.269   2.939  -0.793  0.00  0.00    -0.477 OA
ATOM     16  H   UNL     1       5.043   2.554  -1.156  0.00  0.00    +0.295 HD
ENDBRANCH  14  15
ENDBRANCH   6  14
ENDBRANCH   2   5
BRANCH   3  18
ATOM     17  C   UNL     1      -2.025  -0.934   0.123  0.00  0.00    +0.005 C 
ATOM     18  C   UNL     1      -0.876  -0.223   0.080  0.00  0.00    +0.058 C 
BRANCH  17  19
ATOM     19  C   UNL     1      -3.364  -0.367   0.102  0.00  0.00    +0.003 C 
ATOM     20  C   UNL     1      -4.452  -1.160  -0.265  0.00  0.00    +0.040 C 
ATOM     21  C   UNL     1      -3.561   0.969   0.449  0.00  0.00    +0.003 C 
ATOM     22  C   UNL     1      -5.736  -0.616  -0.285  0.00  0.00    +0.167 C 
ATOM     23  C   UNL     1      -5.932   0.721   0.062  0.00  0.00    +0.167 C 
ATOM     24  C   UNL     1      -4.845   1.513   0.429  0.00  0.00    +0.040 C 
BRANCH  22  25
ATOM     25  O   UNL     1      -6.790  -1.400  -0.646  0.00  0.00    -0.503 OA
ATOM     26  H   UNL     1      -6.649  -2.297  -0.877  0.00  0.00    +0.292 HD
ENDBRANCH  22  25
BRANCH  23  27
ATOM     27  O   UNL     1      -7.182   1.263   0.046  0.00  0.00    -0.503 OA
ATOM     28  H   UNL     1      -7.918   0.738  -0.199  0.00  0.00    +0.292 HD
ENDBRANCH  23  27
ENDBRANCH  17  19
ENDBRANCH   3  18
TORSDOF 8
