11733480
  -OEChem-03292013303D

 62 64  0     1  0  0  0  0  0999 V2000
   -3.0691    0.8294   -0.5716 O   0  0  0  0  0  0  0  0  0  0  0  0
   -4.5078   -0.6831    0.4708 O   0  0  0  0  0  0  0  0  0  0  0  0
   -2.4825    4.4154   -0.1136 O   0  0  0  0  0  0  0  0  0  0  0  0
   -3.5887    3.5886    2.4258 O   0  0  0  0  0  0  0  0  0  0  0  0
   -5.5532    1.4268    2.0403 O   0  0  0  0  0  0  0  0  0  0  0  0
   -0.4732    1.6923   -1.0261 O   0  0  0  0  0  0  0  0  0  0  0  0
    0.9853    1.9498   -2.7994 O   0  0  0  0  0  0  0  0  0  0  0  0
    0.7365   -4.1639   -0.0028 O   0  0  0  0  0  0  0  0  0  0  0  0
    7.7293    0.4539    0.0096 O   0  0  0  0  0  0  0  0  0  0  0  0
    7.0926   -1.0055    2.2871 O   0  0  0  0  0  0  0  0  0  0  0  0
   -2.6560    3.0585    0.2862 C   0  0  1  0  0  0  0  0  0  0  0  0
   -3.8887    2.9497    1.1839 C   0  0  1  0  0  0  0  0  0  0  0  0
   -2.8108    2.1804   -0.9577 C   0  0  1  0  0  0  0  0  0  0  0  0
   -4.2599    1.4889    1.4395 C   0  0  2  0  0  0  0  0  0  0  0  0
   -4.2979    0.6888    0.1375 C   0  0  1  0  0  0  0  0  0  0  0  0
   -1.5459    2.1811   -1.8104 C   0  0  0  0  0  0  0  0  0  0  0  0
   -5.0041   -1.4136   -0.6400 C   0  0  0  0  0  0  0  0  0  0  0  0
   -4.7657   -2.9041   -0.4248 C   0  0  0  0  0  0  0  0  0  0  0  0
   -3.2985   -3.2402   -0.3122 C   0  0  0  0  0  0  0  0  0  0  0  0
    0.7434    1.6283   -1.6469 C   0  0  0  0  0  0  0  0  0  0  0  0
   -2.5663   -3.5592   -1.4557 C   0  0  0  0  0  0  0  0  0  0  0  0
   -2.6748   -3.2316    0.9355 C   0  0  0  0  0  0  0  0  0  0  0  0
    1.7290    1.0968   -0.6783 C   0  0  0  0  0  0  0  0  0  0  0  0
   -1.2103   -3.8694   -1.3515 C   0  0  0  0  0  0  0  0  0  0  0  0
   -1.3188   -3.5422    1.0397 C   0  0  0  0  0  0  0  0  0  0  0  0
   -0.5866   -3.8610   -0.1039 C   0  0  0  0  0  0  0  0  0  0  0  0
    3.0059    0.9386   -1.0547 C   0  0  0  0  0  0  0  0  0  0  0  0
    4.0788    0.4302   -0.1818 C   0  0  0  0  0  0  0  0  0  0  0  0
    5.4136    0.6830   -0.4978 C   0  0  0  0  0  0  0  0  0  0  0  0
    3.7594   -0.3036    0.9607 C   0  0  0  0  0  0  0  0  0  0  0  0
    6.4292    0.2021    0.3288 C   0  0  0  0  0  0  0  0  0  0  0  0
    4.7749   -0.7846    1.7871 C   0  0  0  0  0  0  0  0  0  0  0  0
    6.1098   -0.5317    1.4712 C   0  0  0  0  0  0  0  0  0  0  0  0
    7.9711    1.2112   -1.1746 C   0  0  0  0  0  0  0  0  0  0  0  0
   -1.7680    2.7730    0.8626 H   0  0  0  0  0  0  0  0  0  0  0  0
   -4.7344    3.4995    0.7545 H   0  0  0  0  0  0  0  0  0  0  0  0
   -3.6362    2.5406   -1.5860 H   0  0  0  0  0  0  0  0  0  0  0  0
   -3.5594    1.0328    2.1491 H   0  0  0  0  0  0  0  0  0  0  0  0
   -5.1325    1.0353   -0.4888 H   0  0  0  0  0  0  0  0  0  0  0  0
   -1.3200    3.1908   -2.1719 H   0  0  0  0  0  0  0  0  0  0  0  0
   -1.6854    1.5137   -2.6694 H   0  0  0  0  0  0  0  0  0  0  0  0
   -3.2644    4.6795   -0.6279 H   0  0  0  0  0  0  0  0  0  0  0  0
   -2.8532    3.1086    2.8433 H   0  0  0  0  0  0  0  0  0  0  0  0
   -6.1912    1.8269    1.4251 H   0  0  0  0  0  0  0  0  0  0  0  0
   -4.5114   -1.0960   -1.5678 H   0  0  0  0  0  0  0  0  0  0  0  0
   -6.0781   -1.2194   -0.7370 H   0  0  0  0  0  0  0  0  0  0  0  0
   -5.2142   -3.4754   -1.2466 H   0  0  0  0  0  0  0  0  0  0  0  0
   -5.2735   -3.2312    0.4916 H   0  0  0  0  0  0  0  0  0  0  0  0
   -3.0407   -3.5670   -2.4334 H   0  0  0  0  0  0  0  0  0  0  0  0
   -3.2336   -2.9850    1.8343 H   0  0  0  0  0  0  0  0  0  0  0  0
    1.3679    0.8743    0.3191 H   0  0  0  0  0  0  0  0  0  0  0  0
   -0.6449   -4.1161   -2.2461 H   0  0  0  0  0  0  0  0  0  0  0  0
   -0.8446   -3.5316    2.0174 H   0  0  0  0  0  0  0  0  0  0  0  0
    3.3143    1.2031   -2.0636 H   0  0  0  0  0  0  0  0  0  0  0  0
    5.6065    1.2599   -1.3965 H   0  0  0  0  0  0  0  0  0  0  0  0
    2.7360   -0.5422    1.2349 H   0  0  0  0  0  0  0  0  0  0  0  0
    1.0024   -4.1061    0.9310 H   0  0  0  0  0  0  0  0  0  0  0  0
    4.5127   -1.3588    2.6718 H   0  0  0  0  0  0  0  0  0  0  0  0
    6.6850   -1.4882    3.0266 H   0  0  0  0  0  0  0  0  0  0  0  0
    9.0567    1.3158   -1.2734 H   0  0  0  0  0  0  0  0  0  0  0  0
    7.5609    2.2239   -1.0973 H   0  0  0  0  0  0  0  0  0  0  0  0
    7.6208    0.6851   -2.0692 H   0  0  0  0  0  0  0  0  0  0  0  0
  1 13  1  0  0  0  0
  1 15  1  0  0  0  0
  2 15  1  0  0  0  0
  2 17  1  0  0  0  0
  3 11  1  0  0  0  0
  3 42  1  0  0  0  0
  4 12  1  0  0  0  0
  4 43  1  0  0  0  0
  5 14  1  0  0  0  0
  5 44  1  0  0  0  0
  6 16  1  0  0  0  0
  6 20  1  0  0  0  0
  7 20  2  0  0  0  0
  8 26  1  0  0  0  0
  8 57  1  0  0  0  0
  9 31  1  0  0  0  0
  9 34  1  0  0  0  0
 10 33  1  0  0  0  0
 10 59  1  0  0  0  0
 11 12  1  0  0  0  0
 11 13  1  0  0  0  0
 11 35  1  0  0  0  0
 12 14  1  0  0  0  0
 12 36  1  0  0  0  0
 13 16  1  0  0  0  0
 13 37  1  0  0  0  0
 14 15  1  0  0  0  0
 14 38  1  0  0  0  0
 15 39  1  0  0  0  0
 16 40  1  0  0  0  0
 16 41  1  0  0  0  0
 17 18  1  0  0  0  0
 17 45  1  0  0  0  0
 17 46  1  0  0  0  0
 18 19  1  0  0  0  0
 18 47  1  0  0  0  0
 18 48  1  0  0  0  0
 19 21  2  0  0  0  0
 19 22  1  0  0  0  0
 20 23  1  0  0  0  0
 21 24  1  0  0  0  0
 21 49  1  0  0  0  0
 22 25  2  0  0  0  0
 22 50  1  0  0  0  0
 23 27  2  0  0  0  0
 23 51  1  0  0  0  0
 24 26  2  0  0  0  0
 24 52  1  0  0  0  0
 25 26  1  0  0  0  0
 25 53  1  0  0  0  0
 27 28  1  0  0  0  0
 27 54  1  0  0  0  0
 28 29  2  0  0  0  0
 28 30  1  0  0  0  0
 29 31  1  0  0  0  0
 29 55  1  0  0  0  0
 30 32  2  0  0  0  0
 30 56  1  0  0  0  0
 31 33  2  0  0  0  0
 32 33  1  0  0  0  0
 32 58  1  0  0  0  0
 34 60  1  0  0  0  0
 34 61  1  0  0  0  0
 34 62  1  0  0  0  0
M  END
> <PUBCHEM_COMPOUND_CID>
11733480

> <PUBCHEM_CONFORMER_RMSD>
1.2

> <PUBCHEM_CONFORMER_DIVERSEORDER>
4
80
123
59
53
120
84
10
89
41
32
36
50
38
57
68
112
124
65
96
45
79
97
110
28
85
93
63
90
49
100
99
82
107
126
48
51
15
23
29
74
11
117
102
25
7
76
111
109
119
3
13
21
105
77
64
103
22
75
72
81
27
95
98
55
92
106
87
67
69
2
104
47
60
83
91
43
30
61
44
118
78
62
8
125
116
34
46
114
73
94
121
108
31
39
16
20
86
42
56
88
122
58
24
12
9
33
6
101
52
71
17
14
66
35
37
19
115
54
40
5
18
1
113
26
70

> <PUBCHEM_MMFF94_PARTIAL_CHARGES>
48
1 -0.56
10 -0.53
11 0.28
12 0.28
13 0.28
14 0.28
15 0.56
16 0.28
17 0.28
18 0.14
19 -0.14
2 -0.56
20 0.71
21 -0.15
22 -0.15
23 -0.14
24 -0.15
25 -0.15
26 0.08
27 -0.18
28 0.03
29 -0.15
3 -0.68
30 -0.15
31 0.08
32 -0.15
33 0.08
34 0.28
4 -0.68
42 0.4
43 0.4
44 0.4
49 0.15
5 -0.68
50 0.15
51 0.15
52 0.15
53 0.15
54 0.15
55 0.15
56 0.15
57 0.45
58 0.15
59 0.45
6 -0.43
7 -0.57
8 -0.53
9 -0.36

> <PUBCHEM_EFFECTIVE_ROTOR_COUNT>
11.2

> <PUBCHEM_PHARMACOPHORE_FEATURES>
15
1 1 acceptor
1 10 donor
1 2 acceptor
1 3 acceptor
1 3 donor
1 4 acceptor
1 4 donor
1 5 acceptor
1 5 donor
1 7 acceptor
1 8 donor
1 9 acceptor
6 1 11 12 13 14 15 rings
6 19 21 22 24 25 26 rings
6 28 29 30 31 32 33 rings

> <PUBCHEM_HEAVY_ATOM_COUNT>
34

> <PUBCHEM_ATOM_DEF_STEREO_COUNT>
5

> <PUBCHEM_ATOM_UDEF_STEREO_COUNT>
0

> <PUBCHEM_BOND_DEF_STEREO_COUNT>
1

> <PUBCHEM_BOND_UDEF_STEREO_COUNT>
0

> <PUBCHEM_ISOTOPIC_ATOM_COUNT>
0

> <PUBCHEM_COMPONENT_COUNT>
1

> <PUBCHEM_CACTVS_TAUTO_COUNT>
6

> <PUBCHEM_CONFORMER_ID>
00B309E800000004

> <PUBCHEM_MMFF94_ENERGY>
100.7022

> <PUBCHEM_FEATURE_SELFOVERLAP>
76.182

> <PUBCHEM_SHAPE_FINGERPRINT>
10290309 65 17979080383712544045
10815517 723 18335140912239409862
10939801 23 18190742140916907598
12522641 33 17899112946902198765
12788726 201 18123205746559785887
14020679 6 17846781775991237737
14026016 164 18261109729031366266
14068700 675 18196363934594346895
14395042 24 18337965597252926603
14705955 166 17632585924563942921
14856354 85 18342738511992059948
14950920 106 18342452672980695776
15297060 5 18272654541389163683
15320294 125 18261119586408325535
15328829 1 17676779781325398678
15444296 121 18272660060448707000
17818456 19 18265897041223783518
21796203 349 17899168110739188449
229767 44 18335139786673414235
44575985 13 16298673901577571650
5085150 59 18337940234821618855
581034 39 18339360760425488531
9982175 49 17895485846434754516

> <PUBCHEM_SHAPE_MULTIPOLES>
641.01
17.28
5.97
2.01
36.97
3.03
-0.22
-1.99
-5.61
-10.44
0.06
0.35
-0.92
-3.79

> <PUBCHEM_SHAPE_SELFOVERLAP>
1352.794

> <PUBCHEM_SHAPE_VOLUME>
356.3

> <PUBCHEM_COORDINATE_TYPE>
2
5
10

$$$$
