REMARK  Name = 11733480
REMARK  15 active torsions:
REMARK  status: ('A' for Active; 'I' for Inactive)
REMARK    1  A    between atoms: C_2  and  O_7
REMARK    2  A    between atoms: C_3  and  O_9
REMARK    3  A    between atoms: C_4  and  C_24
REMARK    4  A    between atoms: C_5  and  O_11
REMARK    5  A    between atoms: C_6  and  O_13
REMARK    6  A    between atoms: O_13  and  C_14
REMARK    7  A    between atoms: C_14  and  C_15
REMARK    8  A    between atoms: C_15  and  C_16
REMARK    9  A    between atoms: C_21  and  O_22
REMARK   10  A    between atoms: C_24  and  O_25
REMARK   11  A    between atoms: O_25  and  C_27
REMARK   12  A    between atoms: C_27  and  C_28
REMARK   13  A    between atoms: C_29  and  C_30
REMARK   14  A    between atoms: C_33  and  O_36
REMARK   15  A    between atoms: C_35  and  O_38
REMARK                            x       y       z     vdW  Elec       q    Type
REMARK                         _______ _______ _______ _____ _____    ______ ____
ROOT
ATOM      1  O   UNL     1      -3.069   0.829  -0.572  0.00  0.00    -0.325 OA
ATOM      2  C   UNL     1      -2.656   3.058   0.286  0.00  0.00    +0.171 C 
ATOM      3  C   UNL     1      -3.889   2.950   1.184  0.00  0.00    +0.172 C 
ATOM      4  C   UNL     1      -2.811   2.180  -0.958  0.00  0.00    +0.190 C 
ATOM      5  C   UNL     1      -4.260   1.489   1.440  0.00  0.00    +0.196 C 
ATOM      6  C   UNL     1      -4.298   0.689   0.138  0.00  0.00    +0.266 C 
ENDROOT
BRANCH   2   7
ATOM      7  O   UNL     1      -2.482   4.415  -0.114  0.00  0.00    -0.379 OA
ATOM      8  H   UNL     1      -2.384   4.974   0.673  0.00  0.00    +0.211 HD
ENDBRANCH   2   7
BRANCH   3   9
ATOM      9  O   UNL     1      -3.589   3.589   2.426  0.00  0.00    -0.379 OA
ATOM     10  H   UNL     1      -3.353   4.516   2.264  0.00  0.00    +0.211 HD
ENDBRANCH   3   9
BRANCH   5  11
ATOM     11  O   UNL     1      -5.553   1.427   2.040  0.00  0.00    -0.378 OA
ATOM     12  H   UNL     1      -5.549   1.930   2.870  0.00  0.00    +0.211 HD
ENDBRANCH   5  11
BRANCH   6  13
ATOM     13  O   UNL     1      -4.508  -0.683   0.471  0.00  0.00    -0.328 OA
BRANCH  13  14
ATOM     14  C   UNL     1      -5.004  -1.414  -0.640  0.00  0.00    +0.150 C 
BRANCH  14  15
ATOM     15  C   UNL     1      -4.766  -2.904  -0.425  0.00  0.00    +0.058 C 
BRANCH  15  16
ATOM     16  C   UNL     1      -3.299  -3.240  -0.312  0.00  0.00    -0.019 C 
ATOM     17  C   UNL     1      -2.566  -3.559  -1.456  0.00  0.00    -0.001 C 
ATOM     18  C   UNL     1      -2.675  -3.232   0.935  0.00  0.00    -0.001 C 
ATOM     19  C   UNL     1      -1.210  -3.869  -1.351  0.00  0.00    +0.036 C 
ATOM     20  C   UNL     1      -1.319  -3.542   1.040  0.00  0.00    +0.036 C 
ATOM     21  C   UNL     1      -0.587  -3.861  -0.104  0.00  0.00    +0.134 C 
BRANCH  21  22
ATOM     22  O   UNL     1       0.737  -4.164  -0.003  0.00  0.00    -0.506 OA
ATOM     23  H   UNL     1       1.228  -4.378  -0.771  0.00  0.00    +0.292 HD
ENDBRANCH  21  22
ENDBRANCH  15  16
ENDBRANCH  14  15
ENDBRANCH  13  14
ENDBRANCH   6  13
BRANCH   4  24
ATOM     24  C   UNL     1      -1.546   2.181  -1.810  0.00  0.00    +0.241 C 
BRANCH  24  25
ATOM     25  O   UNL     1      -0.473   1.692  -1.026  0.00  0.00    -0.443 OA
BRANCH  25  27
ATOM     26  O   UNL     1       0.985   1.950  -2.799  0.00  0.00    -0.245 OA
ATOM     27  C   UNL     1       0.743   1.628  -1.647  0.00  0.00    +0.341 C 
BRANCH  27  28
ATOM     28  C   UNL     1       1.729   1.097  -0.678  0.00  0.00    +0.082 C 
ATOM     29  C   UNL     1       3.006   0.939  -1.055  0.00  0.00    +0.007 C 
BRANCH  29  30
ATOM     30  C   UNL     1       4.079   0.430  -0.182  0.00  0.00    +0.003 C 
ATOM     31  C   UNL     1       5.414   0.683  -0.498  0.00  0.00    +0.040 C 
ATOM     32  C   UNL     1       3.759  -0.304   0.961  0.00  0.00    +0.003 C 
ATOM     33  C   UNL     1       6.429   0.202   0.329  0.00  0.00    +0.172 C 
ATOM     34  C   UNL     1       4.775  -0.785   1.787  0.00  0.00    +0.040 C 
ATOM     35  C   UNL     1       6.110  -0.532   1.471  0.00  0.00    +0.168 C 
BRANCH  33  36
ATOM     36  O   UNL     1       7.729   0.454   0.010  0.00  0.00    -0.468 OA
ATOM     37  C   UNL     1       7.971   1.211  -1.175  0.00  0.00    +0.253 C 
ENDBRANCH  33  36
BRANCH  35  38
ATOM     38  O   UNL     1       7.093  -1.006   2.287  0.00  0.00    -0.503 OA
ATOM     39  H   UNL     1       7.992  -0.840   2.082  0.00  0.00    +0.292 HD
ENDBRANCH  35  38
ENDBRANCH  29  30
ENDBRANCH  27  28
ENDBRANCH  25  27
ENDBRANCH  24  25
ENDBRANCH   4  24
TORSDOF 15
