11737492
  -OEChem-03292013303D

 35 37  0     1  0  0  0  0  0999 V2000
   -1.3410   -1.8752    1.7711 O   0  0  0  0  0  0  0  0  0  0  0  0
   -3.3428   -2.1097   -0.0560 O   0  0  0  0  0  0  0  0  0  0  0  0
   -4.9314    1.5475    0.4193 O   0  0  0  0  0  0  0  0  0  0  0  0
    0.4144    0.1700    0.0921 N   0  0  0  0  0  0  0  0  0  0  0  0
    1.8268    1.7536    0.7671 N   0  0  0  0  0  0  0  0  0  0  0  0
    1.9966   -1.5070   -0.6712 N   0  0  0  0  0  0  0  0  0  0  0  0
    4.2980   -0.7509   -0.3736 N   0  0  0  0  0  0  0  0  0  0  0  0
    4.8379    1.3851    0.5610 N   0  0  0  0  0  0  0  0  0  0  0  0
   -0.8583   -0.5051   -0.1849 C   0  0  1  0  0  0  0  0  0  0  0  0
   -3.2036    0.2446   -0.5919 C   0  0  2  0  0  0  0  0  0  0  0  0
   -1.7227   -0.7040    1.0692 C   0  0  1  0  0  0  0  0  0  0  0  0
   -3.1463   -0.8165    0.5170 C   0  0  2  0  0  0  0  0  0  0  0  0
   -1.7840    0.2328   -1.1319 C   0  0  0  0  0  0  0  0  0  0  0  0
   -3.5988    1.6173   -0.0523 C   0  0  0  0  0  0  0  0  0  0  0  0
   -1.4311    0.7453   -2.3187 C   0  0  0  0  0  0  0  0  0  0  0  0
    1.6661   -0.3190   -0.1427 C   0  0  0  0  0  0  0  0  0  0  0  0
    0.5606    1.4161    0.6376 C   0  0  0  0  0  0  0  0  0  0  0  0
    2.5287    0.6783    0.2834 C   0  0  0  0  0  0  0  0  0  0  0  0
    3.8914    0.4295    0.1529 C   0  0  0  0  0  0  0  0  0  0  0  0
    3.3395   -1.6326   -0.7475 C   0  0  0  0  0  0  0  0  0  0  0  0
   -0.6082   -1.4823   -0.6179 H   0  0  0  0  0  0  0  0  0  0  0  0
   -3.9134   -0.0716   -1.3671 H   0  0  0  0  0  0  0  0  0  0  0  0
   -1.6478    0.1460    1.7573 H   0  0  0  0  0  0  0  0  0  0  0  0
   -3.9007   -0.6925    1.2991 H   0  0  0  0  0  0  0  0  0  0  0  0
   -3.5549    2.3739   -0.8431 H   0  0  0  0  0  0  0  0  0  0  0  0
   -2.9524    1.9417    0.7698 H   0  0  0  0  0  0  0  0  0  0  0  0
   -0.4103    0.6823   -2.6792 H   0  0  0  0  0  0  0  0  0  0  0  0
   -2.1610    1.2343   -2.9549 H   0  0  0  0  0  0  0  0  0  0  0  0
   -1.9825   -2.0052    2.4901 H   0  0  0  0  0  0  0  0  0  0  0  0
   -2.7336   -2.2262   -0.8034 H   0  0  0  0  0  0  0  0  0  0  0  0
   -0.2806    2.0349    0.9188 H   0  0  0  0  0  0  0  0  0  0  0  0
   -5.1651    2.4310    0.7516 H   0  0  0  0  0  0  0  0  0  0  0  0
    3.7009   -2.5665   -1.1646 H   0  0  0  0  0  0  0  0  0  0  0  0
    4.5370    2.2662    0.9552 H   0  0  0  0  0  0  0  0  0  0  0  0
    5.8224    1.1804    0.4569 H   0  0  0  0  0  0  0  0  0  0  0  0
  1 11  1  0  0  0  0
  1 29  1  0  0  0  0
  2 12  1  0  0  0  0
  2 30  1  0  0  0  0
  3 14  1  0  0  0  0
  3 32  1  0  0  0  0
  4  9  1  0  0  0  0
  4 16  1  0  0  0  0
  4 17  1  0  0  0  0
  5 17  2  0  0  0  0
  5 18  1  0  0  0  0
  6 16  2  0  0  0  0
  6 20  1  0  0  0  0
  7 19  1  0  0  0  0
  7 20  2  0  0  0  0
  8 19  1  0  0  0  0
  8 34  1  0  0  0  0
  8 35  1  0  0  0  0
  9 11  1  0  0  0  0
  9 13  1  0  0  0  0
  9 21  1  0  0  0  0
 10 12  1  0  0  0  0
 10 13  1  0  0  0  0
 10 14  1  0  0  0  0
 10 22  1  0  0  0  0
 11 12  1  0  0  0  0
 11 23  1  0  0  0  0
 12 24  1  0  0  0  0
 13 15  2  0  0  0  0
 14 25  1  0  0  0  0
 14 26  1  0  0  0  0
 15 27  1  0  0  0  0
 15 28  1  0  0  0  0
 16 18  1  0  0  0  0
 17 31  1  0  0  0  0
 18 19  2  0  0  0  0
 20 33  1  0  0  0  0
M  END
> <PUBCHEM_COMPOUND_CID>
11737492

> <PUBCHEM_CONFORMER_RMSD>
0.6

> <PUBCHEM_CONFORMER_DIVERSEORDER>
5
14
19
6
15
13
8
18
1
7
16
10
4
12
17
9
3
2
11

> <PUBCHEM_MMFF94_PARTIAL_CHARGES>
29
1 -0.68
10 0.14
11 0.28
12 0.28
13 -0.28
14 0.28
15 -0.3
16 0.11
17 0.04
18 0.23
19 0.41
2 -0.68
20 0.47
27 0.15
28 0.15
29 0.4
3 -0.68
30 0.4
31 0.15
32 0.4
33 0.15
34 0.4
35 0.4
4 0.05
5 -0.57
6 -0.57
7 -0.62
8 -0.9
9 0.39

> <PUBCHEM_EFFECTIVE_ROTOR_COUNT>
2.8

> <PUBCHEM_PHARMACOPHORE_FEATURES>
14
1 1 acceptor
1 1 donor
1 2 acceptor
1 2 donor
1 3 acceptor
1 3 donor
1 8 cation
1 8 donor
3 4 5 17 cation
3 4 6 16 cation
3 6 7 20 cation
5 4 5 16 17 18 rings
5 9 10 11 12 13 rings
6 6 7 16 18 19 20 rings

> <PUBCHEM_HEAVY_ATOM_COUNT>
20

> <PUBCHEM_ATOM_DEF_STEREO_COUNT>
4

> <PUBCHEM_ATOM_UDEF_STEREO_COUNT>
0

> <PUBCHEM_BOND_DEF_STEREO_COUNT>
0

> <PUBCHEM_BOND_UDEF_STEREO_COUNT>
0

> <PUBCHEM_ISOTOPIC_ATOM_COUNT>
0

> <PUBCHEM_COMPONENT_COUNT>
1

> <PUBCHEM_CACTVS_TAUTO_COUNT>
3

> <PUBCHEM_CONFORMER_ID>
00B3199400000005

> <PUBCHEM_MMFF94_ENERGY>
46.9885

> <PUBCHEM_FEATURE_SELFOVERLAP>
71.664

> <PUBCHEM_SHAPE_FINGERPRINT>
1100329 8 16752689361744270857
11132069 177 17894630340351582077
11471102 20 18273210885555925236
12236239 1 16630527349156499159
12507560 40 18342744026666127273
12592029 89 17203048474557850687
12633257 1 18040705987519259824
12670546 56 13326574008614051710
13214271 11 18271803548952628781
13296908 3 18412825785329315206
13544592 145 18261962821221280454
13583140 156 17631728387024243827
13675066 3 17917425449641371576
14115302 16 18188224121127745076
15196674 1 18343019999742395390
15219456 202 18410856572746315550
15375358 24 18411417319587242466
15653759 3 18260546744696704756
18186145 218 18187359887840014334
19049666 15 18335699390915532858
200 152 17632291311339853511
20645476 183 16916775310570912829
20645477 56 17748823008006955492
20645477 70 17917429783474344302
23402539 116 17386272281473369774
23557571 272 17894629241003692684
23559900 14 18335702703068787930
25 1 18337668594913671219
296302 2 18413671322682240144
3286 77 18340764965670597895
34934 24 17775277270877719720
5104073 3 18413386540448928074
77492 1 16630807729101198126
81228 2 17605276392318607803
8272917 22 17774165582817141535
9709674 26 18337677515434566826

> <PUBCHEM_SHAPE_MULTIPOLES>
369.08
8.49
1.89
1.31
2.51
0.26
0.43
-1.48
-0.39
-0.36
-0.35
-0.65
0.05
1.07

> <PUBCHEM_SHAPE_SELFOVERLAP>
803.655

> <PUBCHEM_SHAPE_VOLUME>
200.5

> <PUBCHEM_COORDINATE_TYPE>
2
5
10

$$$$
