REMARK  Name = 11737492
REMARK  5 active torsions:
REMARK  status: ('A' for Active; 'I' for Inactive)
REMARK    1  A    between atoms: C_1  and  N_7
REMARK    2  A    between atoms: C_2  and  C_23
REMARK    3  A    between atoms: C_3  and  O_19
REMARK    4  A    between atoms: C_4  and  O_21
REMARK    5  A    between atoms: C_23  and  O_24
REMARK                            x       y       z     vdW  Elec       q    Type
REMARK                         _______ _______ _______ _____ _____    ______ ____
ROOT
ATOM      1  C   UNL     1      -0.858  -0.505  -0.185  0.00  0.00    +0.124 C 
ATOM      2  C   UNL     1      -3.204   0.245  -0.592  0.00  0.00    +0.079 C 
ATOM      3  C   UNL     1      -1.723  -0.704   1.069  0.00  0.00    +0.159 C 
ATOM      4  C   UNL     1      -3.146  -0.817   0.517  0.00  0.00    +0.145 C 
ATOM      5  C   UNL     1      -1.784   0.233  -1.132  0.00  0.00    -0.019 C 
ATOM      6  C   UNL     1      -1.431   0.745  -2.319  0.00  0.00    -0.007 C 
ENDROOT
BRANCH   1   7
ATOM      7  N   UNL     1       0.414   0.170   0.092  0.00  0.00    -0.267 N 
ATOM      8  N   UNL     1       1.827   1.754   0.767  0.00  0.00    -0.242 NA
ATOM      9  N   UNL     1       1.997  -1.507  -0.671  0.00  0.00    -0.228 NA
ATOM     10  N   UNL     1       4.298  -0.751  -0.374  0.00  0.00    -0.229 NA
ATOM     11  C   UNL     1       1.666  -0.319  -0.143  0.00  0.00    +0.151 C 
ATOM     12  C   UNL     1       0.561   1.416   0.638  0.00  0.00    +0.221 C 
ATOM     13  C   UNL     1       2.529   0.678   0.283  0.00  0.00    +0.140 C 
ATOM     14  C   UNL     1       3.891   0.429   0.153  0.00  0.00    +0.143 C 
ATOM     15  C   UNL     1       3.340  -1.633  -0.748  0.00  0.00    +0.253 C 
ATOM     16  N   UNL     1       4.838   1.385   0.561  0.00  0.00    -0.342 N 
ATOM     17  H   UNL     1       5.800   1.198   0.464  0.00  0.00    +0.144 HD
ATOM     18  H   UNL     1       4.539   2.241   0.944  0.00  0.00    +0.144 HD
ENDBRANCH   1   7
BRANCH   3  19
ATOM     19  O   UNL     1      -1.341  -1.875   1.771  0.00  0.00    -0.380 OA
ATOM     20  H   UNL     1      -0.437  -1.771   2.107  0.00  0.00    +0.211 HD
ENDBRANCH   3  19
BRANCH   4  21
ATOM     21  O   UNL     1      -3.343  -2.110  -0.056  0.00  0.00    -0.382 OA
ATOM     22  H   UNL     1      -4.246  -2.175  -0.404  0.00  0.00    +0.210 HD
ENDBRANCH   4  21
BRANCH   2  23
ATOM     23  C   UNL     1      -3.599   1.617  -0.052  0.00  0.00    +0.144 C 
BRANCH  23  24
ATOM     24  O   UNL     1      -4.931   1.548   0.419  0.00  0.00    -0.382 OA
ATOM     25  H   UNL     1      -5.197   2.414   0.766  0.00  0.00    +0.210 HD
ENDBRANCH  23  24
ENDBRANCH   2  23
TORSDOF 5
