11743687
  -OEChem-03292013303D

 48 51  0     1  0  0  0  0  0999 V2000
    3.0441   -1.9472    0.6461 S   0  0  0  0  0  0  0  0  0  0  0  0
    0.3504    1.1784   -0.6784 O   0  0  0  0  0  0  0  0  0  0  0  0
    2.4073   -1.9193    1.9483 O   0  0  0  0  0  0  0  0  0  0  0  0
    4.1699   -2.8224    0.3772 O   0  0  0  0  0  0  0  0  0  0  0  0
   -0.8555   -1.5206   -2.2116 O   0  0  0  0  0  0  0  0  0  0  0  0
   -0.0319    1.0275    1.6049 O   0  0  0  0  0  0  0  0  0  0  0  0
    1.8579   -2.1870   -0.5829 N   0  0  2  0  0  0  0  0  0  0  0  0
   -1.2875   -1.5888    0.1024 N   0  0  0  0  0  0  0  0  0  0  0  0
   -3.2347   -1.9946    1.3827 N   0  0  0  0  0  0  0  0  0  0  0  0
    3.5770   -0.3112    0.3001 C   0  0  0  0  0  0  0  0  0  0  0  0
    2.6772    0.5668   -0.3071 C   0  0  0  0  0  0  0  0  0  0  0  0
    0.8907   -1.1265   -0.7103 C   0  0  0  0  0  0  0  0  0  0  0  0
    1.2817    0.1542   -0.5751 C   0  0  0  0  0  0  0  0  0  0  0  0
    4.8974    0.0443    0.5831 C   0  0  0  0  0  0  0  0  0  0  0  0
    1.4377   -3.5950   -0.7990 C   0  0  0  0  0  0  0  0  0  0  0  0
    3.1557    1.8431   -0.6441 C   0  0  0  0  0  0  0  0  0  0  0  0
   -0.5090   -1.4333   -1.0356 C   0  0  0  0  0  0  0  0  0  0  0  0
    5.3423    1.3200    0.2530 C   0  0  0  0  0  0  0  0  0  0  0  0
    4.4745    2.2172   -0.3640 C   0  0  0  0  0  0  0  0  0  0  0  0
   -0.2352    1.5162    0.5035 C   0  0  0  0  0  0  0  0  0  0  0  0
   -2.6707   -1.8861    0.1675 C   0  0  0  0  0  0  0  0  0  0  0  0
   -1.2274    2.5993    0.2764 C   0  0  0  0  0  0  0  0  0  0  0  0
   -3.3305   -2.0419   -1.0325 C   0  0  0  0  0  0  0  0  0  0  0  0
   -2.3405    2.6627    1.0881 C   0  0  0  0  0  0  0  0  0  0  0  0
   -1.0022    3.5058   -0.7383 C   0  0  0  0  0  0  0  0  0  0  0  0
   -3.2715    3.6793    0.8752 C   0  0  0  0  0  0  0  0  0  0  0  0
   -1.9333    4.5225   -0.9510 C   0  0  0  0  0  0  0  0  0  0  0  0
   -4.6889   -2.3348   -0.9803 C   0  0  0  0  0  0  0  0  0  0  0  0
   -3.0679    4.6091   -0.1442 C   0  0  0  0  0  0  0  0  0  0  0  0
   -4.5562   -2.2799    1.3939 C   0  0  0  0  0  0  0  0  0  0  0  0
   -5.3209   -2.4577    0.2521 C   0  0  0  0  0  0  0  0  0  0  0  0
    5.5829   -0.6533    1.0547 H   0  0  0  0  0  0  0  0  0  0  0  0
    0.7552   -3.9190   -0.0080 H   0  0  0  0  0  0  0  0  0  0  0  0
    0.9434   -3.6971   -1.7701 H   0  0  0  0  0  0  0  0  0  0  0  0
    2.3076   -4.2579   -0.8165 H   0  0  0  0  0  0  0  0  0  0  0  0
    2.5066    2.5688   -1.1293 H   0  0  0  0  0  0  0  0  0  0  0  0
    6.3655    1.6132    0.4683 H   0  0  0  0  0  0  0  0  0  0  0  0
    4.8215    3.2118   -0.6296 H   0  0  0  0  0  0  0  0  0  0  0  0
   -0.8420   -1.4845    1.0114 H   0  0  0  0  0  0  0  0  0  0  0  0
   -2.9113   -1.9621   -2.0210 H   0  0  0  0  0  0  0  0  0  0  0  0
   -2.5122    1.9417    1.8817 H   0  0  0  0  0  0  0  0  0  0  0  0
   -0.1207    3.4702   -1.3711 H   0  0  0  0  0  0  0  0  0  0  0  0
   -4.1556    3.7463    1.5026 H   0  0  0  0  0  0  0  0  0  0  0  0
   -1.7734    5.2489   -1.7425 H   0  0  0  0  0  0  0  0  0  0  0  0
   -5.2554   -2.4671   -1.8974 H   0  0  0  0  0  0  0  0  0  0  0  0
   -3.7925    5.4010   -0.3096 H   0  0  0  0  0  0  0  0  0  0  0  0
   -5.0017   -2.3651    2.3795 H   0  0  0  0  0  0  0  0  0  0  0  0
   -6.3787   -2.6853    0.3170 H   0  0  0  0  0  0  0  0  0  0  0  0
  1  3  2  0  0  0  0
  1  4  2  0  0  0  0
  1  7  1  0  0  0  0
  1 10  1  0  0  0  0
  2 13  1  0  0  0  0
  2 20  1  0  0  0  0
  5 17  2  0  0  0  0
  6 20  2  0  0  0  0
  7 12  1  0  0  0  0
  7 15  1  0  0  0  0
  8 17  1  0  0  0  0
  8 21  1  0  0  0  0
  8 39  1  0  0  0  0
  9 21  1  0  0  0  0
  9 30  2  0  0  0  0
 10 11  1  0  0  0  0
 10 14  2  0  0  0  0
 11 13  1  0  0  0  0
 11 16  2  0  0  0  0
 12 13  2  0  0  0  0
 12 17  1  0  0  0  0
 14 18  1  0  0  0  0
 14 32  1  0  0  0  0
 15 33  1  0  0  0  0
 15 34  1  0  0  0  0
 15 35  1  0  0  0  0
 16 19  1  0  0  0  0
 16 36  1  0  0  0  0
 18 19  2  0  0  0  0
 18 37  1  0  0  0  0
 19 38  1  0  0  0  0
 20 22  1  0  0  0  0
 21 23  2  0  0  0  0
 22 24  2  0  0  0  0
 22 25  1  0  0  0  0
 23 28  1  0  0  0  0
 23 40  1  0  0  0  0
 24 26  1  0  0  0  0
 24 41  1  0  0  0  0
 25 27  2  0  0  0  0
 25 42  1  0  0  0  0
 26 29  2  0  0  0  0
 26 43  1  0  0  0  0
 27 29  1  0  0  0  0
 27 44  1  0  0  0  0
 28 31  2  0  0  0  0
 28 45  1  0  0  0  0
 29 46  1  0  0  0  0
 30 31  1  0  0  0  0
 30 47  1  0  0  0  0
 31 48  1  0  0  0  0
M  END
> <PUBCHEM_COMPOUND_CID>
11743687

> <PUBCHEM_CONFORMER_RMSD>
0.8

> <PUBCHEM_CONFORMER_DIVERSEORDER>
1
21
30
35
49
42
58
20
34
31
62
38
64
55
22
43
54
39
50
40
4
41
61
53
33
32
12
25
46
26
2
59
27
57
6
7
3
47
5
51
19
16
15
66
8
17
63
13
37
48
29
60
44
10
52
45
28
11
18
24
9
14
23
56
36
65

> <PUBCHEM_MMFF94_PARTIAL_CHARGES>
45
1 1.45
10 -0.01
11 0.03
12 0.21
13 0.05
14 -0.15
15 0.36
16 -0.15
17 0.62
18 -0.15
19 -0.15
2 -0.23
20 0.63
21 0.43
22 0.09
23 -0.15
24 -0.15
25 -0.15
26 -0.15
27 -0.15
28 -0.15
29 -0.15
3 -0.65
30 0.16
31 -0.15
32 0.15
36 0.15
37 0.15
38 0.15
39 0.37
4 -0.65
40 0.15
41 0.15
42 0.15
43 0.15
44 0.15
45 0.15
46 0.15
47 0.15
48 0.15
5 -0.57
6 -0.57
7 -0.68
8 -0.55
9 -0.62

> <PUBCHEM_EFFECTIVE_ROTOR_COUNT>
6.2

> <PUBCHEM_PHARMACOPHORE_FEATURES>
10
1 3 acceptor
1 4 acceptor
1 5 acceptor
1 6 acceptor
1 8 donor
1 9 acceptor
6 1 7 10 11 12 13 rings
6 10 11 14 16 18 19 rings
6 22 24 25 26 27 29 rings
6 9 21 23 28 30 31 rings

> <PUBCHEM_HEAVY_ATOM_COUNT>
31

> <PUBCHEM_ATOM_DEF_STEREO_COUNT>
0

> <PUBCHEM_ATOM_UDEF_STEREO_COUNT>
0

> <PUBCHEM_BOND_DEF_STEREO_COUNT>
0

> <PUBCHEM_BOND_UDEF_STEREO_COUNT>
0

> <PUBCHEM_ISOTOPIC_ATOM_COUNT>
0

> <PUBCHEM_COMPONENT_COUNT>
1

> <PUBCHEM_CACTVS_TAUTO_COUNT>
3

> <PUBCHEM_CONFORMER_ID>
00B331C700000001

> <PUBCHEM_MMFF94_ENERGY>
106.6476

> <PUBCHEM_FEATURE_SELFOVERLAP>
50.784

> <PUBCHEM_SHAPE_FINGERPRINT>
10006869 2 18341324582523682277
10190108 129 18266765599595945538
10670039 82 18339939194369294148
10675989 125 18048596220341494916
10688039 33 18336547213512910085
10930396 42 17694472117349463048
1100329 8 17978508629312802186
11421498 54 18335979882487300810
12058002 1 17532115897654675198
12166972 35 17770216382501829831
12422481 6 18127436487415884739
12741549 16 17751058414204694701
12788726 201 18335411400489155016
13004483 165 18267297810394829369
13140716 1 18195517105205189450
13149001 5 17409675167295420503
13540713 4 18130224836219755174
13583140 156 17171239508186873696
13911987 19 17828216715482099868
13965767 371 17485124896982686187
14028597 1 17821993329081139216
140371 6 18188783871240866330
14363568 33 17832145292398826089
14840074 17 18057050317875379050
14955137 171 17977397344873953102
15439362 3 17402891619351518641
15775530 1 17843139016785423127
19427546 62 17979356352773257253
20642791 105 18340194237911776912
20721686 124 17034713047062361373
20739085 24 18052826033083256545
21641784 216 18263659496343471564
22311459 1 18339360903103641518
23558518 356 18261397698056215514
23559900 14 17768528288144145470
3380486 145 18266482960884272785
3493558 16 17967524701372231837
350125 39 18413392038613519636
469060 322 18338248179191417737
513202 73 18340778069595173742
6004065 56 18049999193432052835
653340 110 18412260623235673560
7164475 11 18409730660065360380
9777508 108 18267302028173870929

> <PUBCHEM_SHAPE_MULTIPOLES>
597.53
9.84
6.09
1.36
1.75
5.73
0.08
-3.63
1.78
-6.31
-0.53
-0.61
-0.45
-0.53

> <PUBCHEM_SHAPE_SELFOVERLAP>
1304.581

> <PUBCHEM_SHAPE_VOLUME>
324.6

> <PUBCHEM_COORDINATE_TYPE>
2
5
10

$$$$
