REMARK  Name = 11743687
REMARK  4 active torsions:
REMARK  status: ('A' for Active; 'I' for Inactive)
REMARK    1  A    between atoms: C_7  and  C_16
REMARK    2  A    between atoms: C_8  and  O_24
REMARK    3  A    between atoms: O_24  and  C_26
REMARK    4  A    between atoms: C_26  and  C_27
REMARK                            x       y       z     vdW  Elec       q    Type
REMARK                         _______ _______ _______ _____ _____    ______ ____
ROOT
ATOM      1  S   UNL     1       3.044  -1.947   0.646  0.00  0.00    +0.077 S 
ATOM      2  O   UNL     1       2.407  -1.919   1.948  0.00  0.00    -0.150 OA
ATOM      3  O   UNL     1       4.170  -2.822   0.377  0.00  0.00    -0.150 OA
ATOM      4  N   UNL     1       1.858  -2.187  -0.583  0.00  0.00    -0.181 N 
ATOM      5  C   UNL     1       3.577  -0.311   0.300  0.00  0.00    +0.128 C 
ATOM      6  C   UNL     1       2.677   0.567  -0.307  0.00  0.00    +0.055 C 
ATOM      7  C   UNL     1       0.891  -1.127  -0.710  0.00  0.00    +0.157 C 
ATOM      8  C   UNL     1       1.282   0.154  -0.575  0.00  0.00    +0.169 C 
ATOM      9  C   UNL     1       4.897   0.044   0.583  0.00  0.00    +0.020 C 
ATOM     10  C   UNL     1       1.438  -3.595  -0.799  0.00  0.00    +0.139 C 
ATOM     11  C   UNL     1       3.156   1.843  -0.644  0.00  0.00    +0.004 C 
ATOM     12  C   UNL     1       5.342   1.320   0.253  0.00  0.00    +0.001 C 
ATOM     13  C   UNL     1       4.474   2.217  -0.364  0.00  0.00    +0.000 C 
ENDROOT
BRANCH   7  16
ATOM     14  O   UNL     1      -0.856  -1.521  -2.212  0.00  0.00    -0.268 OA
ATOM     15  N   UNL     1      -1.288  -1.589   0.102  0.00  0.00    -0.265 N 
ATOM     16  C   UNL     1      -0.509  -1.433  -1.036  0.00  0.00    +0.269 C 
ATOM     17  H   UNL     1      -0.825  -1.480   0.964  0.00  0.00    +0.157 HD
ATOM     18  N   UNL     1      -3.235  -1.995   1.383  0.00  0.00    -0.229 NA
ATOM     19  C   UNL     1      -2.671  -1.886   0.168  0.00  0.00    +0.134 C 
ATOM     20  C   UNL     1      -3.330  -2.042  -1.032  0.00  0.00    +0.034 C 
ATOM     21  C   UNL     1      -4.689  -2.335  -0.980  0.00  0.00    +0.004 C 
ATOM     22  C   UNL     1      -4.556  -2.280   1.394  0.00  0.00    +0.100 C 
ATOM     23  C   UNL     1      -5.321  -2.458   0.252  0.00  0.00    +0.021 C 
ENDBRANCH   7  16
BRANCH   8  24
ATOM     24  O   UNL     1       0.350   1.178  -0.678  0.00  0.00    -0.420 OA
BRANCH  24  26
ATOM     25  O   UNL     1      -0.032   1.028   1.605  0.00  0.00    -0.244 OA
ATOM     26  C   UNL     1      -0.235   1.516   0.503  0.00  0.00    +0.346 C 
BRANCH  26  27
ATOM     27  C   UNL     1      -1.227   2.599   0.276  0.00  0.00    +0.076 C 
ATOM     28  C   UNL     1      -2.341   2.663   1.088  0.00  0.00    +0.006 C 
ATOM     29  C   UNL     1      -1.002   3.506  -0.738  0.00  0.00    +0.006 C 
ATOM     30  C   UNL     1      -3.272   3.679   0.875  0.00  0.00    +0.000 C 
ATOM     31  C   UNL     1      -1.933   4.522  -0.951  0.00  0.00    +0.000 C 
ATOM     32  C   UNL     1      -3.068   4.609  -0.144  0.00  0.00    +0.000 C 
ENDBRANCH  26  27
ENDBRANCH  24  26
ENDBRANCH   8  24
TORSDOF 4
