REMARK  Name = 11744644
REMARK  10 active torsions:
REMARK  status: ('A' for Active; 'I' for Inactive)
REMARK    1  A    between atoms: N_2  and  C_5
REMARK    2  A    between atoms: C_3  and  C_20
REMARK    3  A    between atoms: C_5  and  C_6
REMARK    4  A    between atoms: C_5  and  C_10
REMARK    5  A    between atoms: C_10  and  C_14
REMARK    6  A    between atoms: C_20  and  C_21
REMARK    7  A    between atoms: C_21  and  C_22
REMARK    8  A    between atoms: C_21  and  N_29
REMARK    9  A    between atoms: C_30  and  C_32
REMARK   10  A    between atoms: C_33  and  C_34
REMARK                            x       y       z     vdW  Elec       q    Type
REMARK                         _______ _______ _______ _____ _____    ______ ____
ROOT
ATOM      1  O   UNL     1       1.156   2.643   1.260  0.00  0.00    -0.275 OA
ATOM      2  N   UNL     1       0.721   0.562   2.195  0.00  0.00    -0.300 N 
ATOM      3  C   UNL     1       0.400   1.866   1.837  0.00  0.00    +0.225 C 
ATOM      4  H   UNL     1       0.041   0.019   2.656  0.00  0.00    +0.150 HD
ENDROOT
BRANCH   2   5
ATOM      5  C   UNL     1       2.005  -0.030   1.921  0.00  0.00    +0.130 C 
BRANCH   5   6
ATOM      6  C   UNL     1       2.418  -1.106   2.943  0.00  0.00    +0.025 C 
ATOM      7  C   UNL     1       1.478  -2.313   2.877  0.00  0.00    +0.002 C 
ATOM      8  C   UNL     1       2.490  -0.584   4.381  0.00  0.00    +0.002 C 
ENDBRANCH   5   6
BRANCH   5  10
ATOM      9  O   UNL     1       0.957  -1.052  -0.008  0.00  0.00    -0.294 OA
ATOM     10  C   UNL     1       1.973  -0.571   0.496  0.00  0.00    +0.177 C 
BRANCH  10  14
ATOM     11  O   UNL     1       2.629   1.519  -1.582  0.00  0.00    -0.274 OA
ATOM     12  O   UNL     1       4.289  -2.508  -3.050  0.00  0.00    -0.275 OA
ATOM     13  N   UNL     1       3.466  -0.383  -2.615  0.00  0.00    -0.255 N 
ATOM     14  C   UNL     1       3.245  -0.445  -0.304  0.00  0.00    +0.144 C 
ATOM     15  C   UNL     1       3.702  -1.823  -0.794  0.00  0.00    +0.093 C 
ATOM     16  C   UNL     1       3.063   0.377  -1.547  0.00  0.00    +0.235 C 
ATOM     17  C   UNL     1       3.870  -1.651  -2.285  0.00  0.00    +0.229 C 
ATOM     18  C   UNL     1       5.011  -2.259  -0.151  0.00  0.00    +0.011 C 
ATOM     19  H   UNL     1       3.465  -0.047  -3.540  0.00  0.00    +0.158 HD
ENDBRANCH  10  14
ENDBRANCH   5  10
ENDBRANCH   2   5
BRANCH   3  20
ATOM     20  C   UNL     1      -1.025   2.224   2.236  0.00  0.00    +0.109 C 
BRANCH  20  21
ATOM     21  C   UNL     1      -2.059   1.940   1.136  0.00  0.00    +0.103 C 
BRANCH  21  22
ATOM     22  C   UNL     1      -1.767   2.731  -0.123  0.00  0.00    -0.004 C 
ATOM     23  C   UNL     1      -2.317   4.002  -0.292  0.00  0.00    -0.003 C 
ATOM     24  C   UNL     1      -0.947   2.189  -1.113  0.00  0.00    -0.003 C 
ATOM     25  C   UNL     1      -2.048   4.730  -1.450  0.00  0.00    -0.000 C 
ATOM     26  C   UNL     1      -0.677   2.918  -2.272  0.00  0.00    -0.000 C 
ATOM     27  C   UNL     1      -1.228   4.188  -2.440  0.00  0.00    -0.000 C 
ENDBRANCH  21  22
BRANCH  21  29
ATOM     28  O   UNL     1      -4.372   0.463   0.208  0.00  0.00    -0.270 OA
ATOM     29  N   UNL     1      -2.136   0.526   0.838  0.00  0.00    -0.298 N 
ATOM     30  C   UNL     1      -3.294  -0.090   0.398  0.00  0.00    +0.246 C 
ATOM     31  H   UNL     1      -1.327  -0.023   0.954  0.00  0.00    +0.150 HD
BRANCH  30  32
ATOM     32  C   UNL     1      -3.091  -1.548   0.169  0.00  0.00    +0.058 C 
ATOM     33  C   UNL     1      -4.107  -2.310  -0.261  0.00  0.00    +0.004 C 
BRANCH  33  34
ATOM     34  C   UNL     1      -3.971  -3.731  -0.499  0.00  0.00    -0.004 C 
ATOM     35  C   UNL     1      -4.980  -4.502  -0.929  0.00  0.00    -0.026 C 
ATOM     36  C   UNL     1      -4.852  -5.969  -1.178  0.00  0.00    +0.031 C 
ENDBRANCH  33  34
ENDBRANCH  30  32
ENDBRANCH  21  29
ENDBRANCH  20  21
ENDBRANCH   3  20
TORSDOF 10
