REMARK  Name = 11743072
REMARK  9 active torsions:
REMARK  status: ('A' for Active; 'I' for Inactive)
REMARK    1  A    between atoms: C_3  and  O_15
REMARK    2  A    between atoms: C_7  and  O_31
REMARK    3  A    between atoms: O_15  and  C_21
REMARK    4  A    between atoms: C_17  and  O_22
REMARK    5  A    between atoms: C_18  and  O_24
REMARK    6  A    between atoms: C_19  and  O_26
REMARK    7  A    between atoms: C_20  and  C_28
REMARK    8  A    between atoms: C_28  and  O_29
REMARK    9  A    between atoms: O_31  and  C_33
REMARK                            x       y       z     vdW  Elec       q    Type
REMARK                         _______ _______ _______ _____ _____    ______ ____
ROOT
ATOM      1  O   UNL     1       2.961  -2.248  -0.576  0.00  0.00    -0.458 OA
ATOM      2  O   UNL     1       4.333   1.498   0.252  0.00  0.00    -0.286 OA
ATOM      3  C   UNL     1      -0.035  -0.915   1.019  0.00  0.00    +0.139 A 
ATOM      4  C   UNL     1       0.851  -1.783   0.377  0.00  0.00    +0.047 A 
ATOM      5  C   UNL     1       0.367   0.385   1.334  0.00  0.00    +0.047 A 
ATOM      6  C   UNL     1       2.137  -1.349   0.053  0.00  0.00    +0.150 A 
ATOM      7  C   UNL     1       1.652   0.822   1.011  0.00  0.00    +0.153 A 
ATOM      8  C   UNL     1       2.534  -0.051   0.369  0.00  0.00    +0.108 A 
ATOM      9  C   UNL     1       0.415  -3.173   0.040  0.00  0.00    +0.037 C 
ATOM     10  C   UNL     1      -0.587   1.310   2.023  0.00  0.00    +0.037 C 
ATOM     11  C   UNL     1       3.896   0.380   0.016  0.00  0.00    +0.204 C 
ATOM     12  C   UNL     1       4.244  -1.844  -0.909  0.00  0.00    +0.126 C 
ATOM     13  C   UNL     1       4.741  -0.624  -0.658  0.00  0.00    +0.075 C 
ATOM     14  C   UNL     1       5.047  -2.909  -1.588  0.00  0.00    +0.073 C 
ENDROOT
BRANCH   3  15
ATOM     15  O   UNL     1      -1.292  -1.334   1.335  0.00  0.00    -0.451 OA
BRANCH  15  21
ATOM     16  O   UNL     1      -1.961   0.030  -0.435  0.00  0.00    -0.316 OA
ATOM     17  C   UNL     1      -4.733  -0.524   0.073  0.00  0.00    +0.173 C 
ATOM     18  C   UNL     1      -4.279   0.606  -0.851  0.00  0.00    +0.169 C 
ATOM     19  C   UNL     1      -3.629  -0.912   1.057  0.00  0.00    +0.210 C 
ATOM     20  C   UNL     1      -2.914   0.288  -1.468  0.00  0.00    +0.177 C 
ATOM     21  C   UNL     1      -2.294  -1.118   0.342  0.00  0.00    +0.318 C 
BRANCH  17  22
ATOM     22  O   UNL     1      -5.877  -0.070   0.797  0.00  0.00    -0.379 OA
ATOM     23  H   UNL     1      -6.578   0.176   0.173  0.00  0.00    +0.211 HD
ENDBRANCH  17  22
BRANCH  18  24
ATOM     24  O   UNL     1      -5.237   0.779  -1.891  0.00  0.00    -0.379 OA
ATOM     25  H   UNL     1      -6.103   0.980  -1.503  0.00  0.00    +0.211 HD
ENDBRANCH  18  24
BRANCH  19  26
ATOM     26  O   UNL     1      -3.981  -2.134   1.706  0.00  0.00    -0.377 OA
ATOM     27  H   UNL     1      -4.828  -2.023   2.166  0.00  0.00    +0.211 HD
ENDBRANCH  19  26
BRANCH  20  28
ATOM     28  C   UNL     1      -2.386   1.452  -2.300  0.00  0.00    +0.169 C 
BRANCH  28  29
ATOM     29  O   UNL     1      -1.122   1.093  -2.828  0.00  0.00    -0.379 OA
ATOM     30  H   UNL     1      -0.774   1.824  -3.361  0.00  0.00    +0.211 HD
ENDBRANCH  28  29
ENDBRANCH  20  28
ENDBRANCH  15  21
ENDBRANCH   3  15
BRANCH   7  31
ATOM     31  O   UNL     1       2.012   2.096   1.336  0.00  0.00    -0.424 OA
BRANCH  31  33
ATOM     32  O   UNL     1       1.230   2.804  -0.754  0.00  0.00    -0.250 OA
ATOM     33  C   UNL     1       1.739   3.040   0.334  0.00  0.00    +0.322 C 
ATOM     34  C   UNL     1       2.169   4.404   0.785  0.00  0.00    +0.122 C 
ENDBRANCH  31  33
ENDBRANCH   7  31
TORSDOF 9
