REMARK  Name = 11742283
REMARK  10 active torsions:
REMARK  status: ('A' for Active; 'I' for Inactive)
REMARK    1  A    between atoms: C_1  and  C_7
REMARK    2  A    between atoms: C_2  and  C_15
REMARK    3  A    between atoms: C_3  and  O_27
REMARK    4  A    between atoms: C_4  and  O_31
REMARK    5  A    between atoms: C_5  and  O_23
REMARK    6  A    between atoms: C_6  and  O_25
REMARK    7  A    between atoms: C_12  and  O_13
REMARK    8  A    between atoms: C_20  and  O_21
REMARK    9  A    between atoms: O_27  and  C_29
REMARK   10  A    between atoms: O_31  and  C_33
REMARK                            x       y       z     vdW  Elec       q    Type
REMARK                         _______ _______ _______ _____ _____    ______ ____
ROOT
ATOM      1  C   UNL     1       1.387  -0.183  -0.319  0.00  0.00    +0.074 A 
ATOM      2  C   UNL     1      -1.384   0.182  -0.320  0.00  0.00    +0.074 A 
ATOM      3  C   UNL     1       0.848   1.107  -0.319  0.00  0.00    +0.185 A 
ATOM      4  C   UNL     1      -0.850  -1.107  -0.319  0.00  0.00    +0.185 A 
ATOM      5  C   UNL     1      -0.535   1.289  -0.320  0.00  0.00    +0.172 A 
ATOM      6  C   UNL     1       0.533  -1.289  -0.319  0.00  0.00    +0.172 A 
ENDROOT
BRANCH   1   7
ATOM      7  C   UNL     1       2.821  -0.371  -0.320  0.00  0.00    +0.006 C 
ATOM      8  C   UNL     1       3.513  -0.462  -1.528  0.00  0.00    +0.003 C 
ATOM      9  C   UNL     1       3.513  -0.464   0.888  0.00  0.00    +0.003 C 
ATOM     10  C   UNL     1       4.896  -0.644  -1.528  0.00  0.00    +0.037 C 
ATOM     11  C   UNL     1       4.896  -0.646   0.888  0.00  0.00    +0.037 C 
ATOM     12  C   UNL     1       5.587  -0.737  -0.320  0.00  0.00    +0.134 C 
BRANCH  12  13
ATOM     13  O   UNL     1       6.936  -0.916  -0.321  0.00  0.00    -0.506 OA
ATOM     14  H   UNL     1       7.400  -0.977  -1.132  0.00  0.00    +0.292 HD
ENDBRANCH  12  13
ENDBRANCH   1   7
BRANCH   2  15
ATOM     15  C   UNL     1      -2.824   0.371  -0.320  0.00  0.00    +0.006 C 
ATOM     16  C   UNL     1      -3.510   0.461  -1.528  0.00  0.00    +0.003 C 
ATOM     17  C   UNL     1      -3.510   0.463   0.888  0.00  0.00    +0.003 C 
ATOM     18  C   UNL     1      -4.893   0.644  -1.528  0.00  0.00    +0.037 C 
ATOM     19  C   UNL     1      -4.893   0.646   0.887  0.00  0.00    +0.037 C 
ATOM     20  C   UNL     1      -5.584   0.737  -0.321  0.00  0.00    +0.134 C 
BRANCH  20  21
ATOM     21  O   UNL     1      -6.933   0.916  -0.321  0.00  0.00    -0.506 OA
ATOM     22  H   UNL     1      -7.398   0.977  -1.132  0.00  0.00    +0.292 HD
ENDBRANCH  20  21
ENDBRANCH   2  15
BRANCH   5  23
ATOM     23  O   UNL     1      -1.043   2.556  -0.321  0.00  0.00    -0.503 OA
ATOM     24  H   UNL     1      -1.970   2.689  -0.321  0.00  0.00    +0.292 HD
ENDBRANCH   5  23
BRANCH   6  25
ATOM     25  O   UNL     1       1.040  -2.556  -0.320  0.00  0.00    -0.503 OA
ATOM     26  H   UNL     1       1.968  -2.689  -0.320  0.00  0.00    +0.292 HD
ENDBRANCH   6  25
BRANCH   3  27
ATOM     27  O   UNL     1       1.666   2.200  -0.319  0.00  0.00    -0.421 OA
BRANCH  27  29
ATOM     28  O   UNL     1       1.637   2.165   2.021  0.00  0.00    -0.250 OA
ATOM     29  C   UNL     1       2.007   2.656   0.963  0.00  0.00    +0.322 C 
ATOM     30  C   UNL     1       2.904   3.853   0.856  0.00  0.00    +0.122 C 
ENDBRANCH  27  29
ENDBRANCH   3  27
BRANCH   4  31
ATOM     31  O   UNL     1      -1.669  -2.200  -0.319  0.00  0.00    -0.421 OA
BRANCH  31  33
ATOM     32  O   UNL     1      -1.640  -2.165   2.021  0.00  0.00    -0.250 OA
ATOM     33  C   UNL     1      -2.010  -2.655   0.963  0.00  0.00    +0.322 C 
ATOM     34  C   UNL     1      -2.907  -3.853   0.856  0.00  0.00    +0.122 C 
ENDBRANCH  31  33
ENDBRANCH   4  31
TORSDOF 10
