REMARK  Name = 11742629
REMARK  9 active torsions:
REMARK  status: ('A' for Active; 'I' for Inactive)
REMARK    1  A    between atoms: C_1  and  C_3
REMARK    2  A    between atoms: C_1  and  O_19
REMARK    3  A    between atoms: C_1  and  C_33
REMARK    4  A    between atoms: C_3  and  C_7
REMARK    5  A    between atoms: O_19  and  C_25
REMARK    6  A    between atoms: C_21  and  O_27
REMARK    7  A    between atoms: C_22  and  O_29
REMARK    8  A    between atoms: C_23  and  O_31
REMARK    9  A    between atoms: C_33  and  O_34
REMARK                            x       y       z     vdW  Elec       q    Type
REMARK                         _______ _______ _______ _____ _____    ______ ____
ROOT
ATOM      1  C   UNL     1      -1.225  -0.871   0.674  0.00  0.00    +0.210 C 
ENDROOT
BRANCH   1   3
ATOM      2  O   UNL     1      -0.189   1.077  -0.297  0.00  0.00    -0.287 OA
ATOM      3  C   UNL     1      -0.063  -0.094   0.059  0.00  0.00    +0.221 C 
BRANCH   3   7
ATOM      4  N   UNL     1       2.699   1.269   0.117  0.00  0.00    -0.352 N 
ATOM      5  N   UNL     1       1.216  -2.078  -0.332  0.00  0.00    -0.240 NA
ATOM      6  C   UNL     1       2.429  -0.063  -0.081  0.00  0.00    +0.077 A 
ATOM      7  C   UNL     1       1.257  -0.761  -0.125  0.00  0.00    +0.134 C 
ATOM      8  C   UNL     1       3.650  -0.714  -0.255  0.00  0.00    +0.016 A 
ATOM      9  C   UNL     1       4.678   0.277  -0.155  0.00  0.00    +0.017 A 
ATOM     10  C   UNL     1       4.054   1.503   0.077  0.00  0.00    +0.057 A 
ATOM     11  C   UNL     1       3.643  -2.100  -0.476  0.00  0.00    -0.001 C 
ATOM     12  C   UNL     1       2.397  -2.713  -0.502  0.00  0.00    +0.095 C 
ATOM     13  C   UNL     1       6.086   0.243  -0.242  0.00  0.00    +0.001 C 
ATOM     14  C   UNL     1       4.766   2.699   0.227  0.00  0.00    +0.017 C 
ATOM     15  C   UNL     1       4.868  -2.926  -0.678  0.00  0.00    +0.033 C 
ATOM     16  C   UNL     1       6.811   1.430  -0.095  0.00  0.00    +0.000 C 
ATOM     17  C   UNL     1       6.159   2.639   0.137  0.00  0.00    +0.001 C 
ATOM     18  H   UNL     1       2.016   1.962   0.268  0.00  0.00    +0.166 HD
ENDBRANCH   3   7
ENDBRANCH   1   3
BRANCH   1  19
ATOM     19  O   UNL     1      -2.379  -0.043   0.656  0.00  0.00    -0.321 OA
BRANCH  19  25
ATOM     20  O   UNL     1      -3.888  -1.056  -0.870  0.00  0.00    -0.329 OA
ATOM     21  C   UNL     1      -5.135   1.161   0.462  0.00  0.00    +0.171 C 
ATOM     22  C   UNL     1      -5.391   0.868  -1.017  0.00  0.00    +0.167 C 
ATOM     23  C   UNL     1      -4.728  -0.110   1.210  0.00  0.00    +0.196 C 
ATOM     24  C   UNL     1      -4.193   0.123  -1.621  0.00  0.00    +0.147 C 
ATOM     25  C   UNL     1      -3.568  -0.810   0.504  0.00  0.00    +0.266 C 
ATOM     26  C   UNL     1      -4.460  -0.321  -3.057  0.00  0.00    +0.035 C 
BRANCH  21  27
ATOM     27  O   UNL     1      -6.316   1.709   1.043  0.00  0.00    -0.379 OA
ATOM     28  H   UNL     1      -6.568   2.514   0.565  0.00  0.00    +0.211 HD
ENDBRANCH  21  27
BRANCH  22  29
ATOM     29  O   UNL     1      -5.589   2.110  -1.687  0.00  0.00    -0.379 OA
ATOM     30  H   UNL     1      -6.347   2.571  -1.297  0.00  0.00    +0.211 HD
ENDBRANCH  22  29
BRANCH  23  31
ATOM     31  O   UNL     1      -5.827  -1.023   1.252  0.00  0.00    -0.378 OA
ATOM     32  H   UNL     1      -6.579  -0.603   1.696  0.00  0.00    +0.211 HD
ENDBRANCH  23  31
ENDBRANCH  19  25
ENDBRANCH   1  19
BRANCH   1  33
ATOM     33  C   UNL     1      -0.965  -1.283   2.119  0.00  0.00    +0.175 C 
BRANCH  33  34
ATOM     34  O   UNL     1      -0.796  -0.141   2.953  0.00  0.00    -0.379 OA
ATOM     35  H   UNL     1      -0.632  -0.428   3.865  0.00  0.00    +0.211 HD
ENDBRANCH  33  34
ENDBRANCH   1  33
TORSDOF 9
