REMARK  Name = 11748945
REMARK  5 active torsions:
REMARK  status: ('A' for Active; 'I' for Inactive)
REMARK    1  A    between atoms: C_3  and  C_22
REMARK    2  A    between atoms: C_3  and  O_24
REMARK    3  A    between atoms: C_6  and  O_26
REMARK    4  A    between atoms: C_9  and  O_28
REMARK    5  A    between atoms: C_10  and  O_30
REMARK                            x       y       z     vdW  Elec       q    Type
REMARK                         _______ _______ _______ _____ _____    ______ ____
ROOT
ATOM      1  O   UNL     1       2.155   2.693   0.317  0.00  0.00    -0.286 OA
ATOM      2  O   UNL     1       2.272  -2.615  -0.272  0.00  0.00    -0.286 OA
ATOM      3  C   UNL     1      -4.045   0.574   0.287  0.00  0.00    +0.146 C 
ATOM      4  C   UNL     1      -3.949  -0.839   0.847  0.00  0.00    +0.068 C 
ATOM      5  C   UNL     1      -2.786   1.378   0.619  0.00  0.00    +0.063 C 
ATOM      6  C   UNL     1      -2.741  -1.599   0.296  0.00  0.00    +0.138 C 
ATOM      7  C   UNL     1      -1.497   0.619   0.415  0.00  0.00    +0.016 A 
ATOM      8  C   UNL     1      -1.467  -0.782   0.294  0.00  0.00    +0.037 A 
ATOM      9  C   UNL     1      -0.293   1.343   0.388  0.00  0.00    +0.133 A 
ATOM     10  C   UNL     1      -0.231  -1.425   0.098  0.00  0.00    +0.135 A 
ATOM     11  C   UNL     1       0.932   0.690   0.212  0.00  0.00    +0.078 A 
ATOM     12  C   UNL     1       0.962  -0.694   0.062  0.00  0.00    +0.078 A 
ATOM     13  C   UNL     1       2.182   1.476   0.182  0.00  0.00    +0.199 C 
ATOM     14  C   UNL     1       2.246  -1.399  -0.136  0.00  0.00    +0.199 C 
ATOM     15  C   UNL     1       3.466   0.773  -0.014  0.00  0.00    +0.042 C 
ATOM     16  C   UNL     1       3.497  -0.614  -0.168  0.00  0.00    +0.042 C 
ATOM     17  C   UNL     1       4.659   1.506  -0.046  0.00  0.00    +0.003 C 
ATOM     18  C   UNL     1       4.720  -1.269  -0.354  0.00  0.00    +0.003 C 
ATOM     19  C   UNL     1       5.876   0.849  -0.232  0.00  0.00    +0.000 C 
ATOM     20  C   UNL     1       5.906  -0.535  -0.386  0.00  0.00    +0.000 C 
ENDROOT
BRANCH   3  22
ATOM     21  O   UNL     1      -3.628   1.151  -1.994  0.00  0.00    -0.294 OA
ATOM     22  C   UNL     1      -4.346   0.565  -1.185  0.00  0.00    +0.175 C 
ATOM     23  C   UNL     1      -5.567  -0.199  -1.622  0.00  0.00    +0.075 C 
ENDBRANCH   3  22
BRANCH   3  24
ATOM     24  O   UNL     1      -5.182   1.210   0.865  0.00  0.00    -0.379 OA
ATOM     25  H   UNL     1      -5.071   1.259   1.828  0.00  0.00    +0.211 HD
ENDBRANCH   3  24
BRANCH   6  26
ATOM     26  O   UNL     1      -2.566  -2.779   1.080  0.00  0.00    -0.380 OA
ATOM     27  H   UNL     1      -3.388  -3.295   1.075  0.00  0.00    +0.211 HD
ENDBRANCH   6  26
BRANCH   9  28
ATOM     28  O   UNL     1      -0.353   2.700   0.545  0.00  0.00    -0.506 OA
ATOM     29  H   UNL     1      -1.181   3.122   0.662  0.00  0.00    +0.292 HD
ENDBRANCH   9  28
BRANCH  10  30
ATOM     30  O   UNL     1      -0.222  -2.779  -0.098  0.00  0.00    -0.506 OA
ATOM     31  H   UNL     1      -1.024  -3.261  -0.073  0.00  0.00    +0.292 HD
ENDBRANCH  10  30
TORSDOF 5
