REMARK  Name = 11749858
REMARK  9 active torsions:
REMARK  status: ('A' for Active; 'I' for Inactive)
REMARK    1  A    between atoms: N_2  and  C_19
REMARK    2  A    between atoms: C_3  and  C_8
REMARK    3  A    between atoms: C_6  and  C_14
REMARK    4  A    between atoms: C_14  and  N_15
REMARK    5  A    between atoms: C_19  and  C_20
REMARK    6  A    between atoms: C_20  and  O_21
REMARK    7  A    between atoms: O_21  and  C_22
REMARK    8  A    between atoms: C_25  and  C_30
REMARK    9  A    between atoms: N_29  and  O_32
REMARK                            x       y       z     vdW  Elec       q    Type
REMARK                         _______ _______ _______ _____ _____    ______ ____
ROOT
ATOM      1  O   UNL     1       1.152   2.121  -1.620  0.00  0.00    -0.267 OA
ATOM      2  N   UNL     1       0.831   2.808   0.548  0.00  0.00    -0.295 N 
ATOM      3  C   UNL     1       1.438   1.961  -0.406  0.00  0.00    +0.280 C 
ATOM      4  H   UNL     1       1.060   2.677   1.496  0.00  0.00    +0.150 HD
ENDROOT
BRANCH   3   8
ATOM      5  O   UNL     1       2.599   0.953   1.411  0.00  0.00    -0.449 OA
ATOM      6  C   UNL     1       3.111   0.038  -0.580  0.00  0.00    -0.001 A 
ATOM      7  C   UNL     1       3.859  -0.639   0.419  0.00  0.00    +0.032 A 
ATOM      8  C   UNL     1       2.365   0.992   0.073  0.00  0.00    +0.192 A 
ATOM      9  C   UNL     1       3.509  -0.040   1.624  0.00  0.00    +0.145 A 
ATOM     10  C   UNL     1       4.791  -1.690   0.437  0.00  0.00    +0.003 C 
ATOM     11  C   UNL     1       4.026  -0.415   2.863  0.00  0.00    +0.037 C 
ATOM     12  C   UNL     1       5.329  -2.090   1.668  0.00  0.00    +0.000 C 
ATOM     13  C   UNL     1       4.952  -1.462   2.858  0.00  0.00    +0.003 C 
BRANCH   6  14
ATOM     14  C   UNL     1       3.130  -0.228  -2.032  0.00  0.00    -0.047 C 
BRANCH  14  15
ATOM     15  N   UNL     1       3.062  -1.671  -2.276  0.00  0.00    +0.387 N 
ATOM     16  C   UNL     1       3.546  -1.983  -3.619  0.00  0.00    -0.100 C 
ATOM     17  C   UNL     1       1.694  -2.153  -2.099  0.00  0.00    -0.100 C 
ATOM     18  H   UNL     1       3.661  -2.145  -1.600  0.00  0.00    -0.079 HD
ENDBRANCH  14  15
ENDBRANCH   6  14
ENDBRANCH   3   8
BRANCH   2  19
ATOM     19  C   UNL     1      -0.106   3.857   0.212  0.00  0.00    +0.137 C 
BRANCH  19  20
ATOM     20  C   UNL     1      -1.536   3.348   0.213  0.00  0.00    +0.227 C 
BRANCH  20  21
ATOM     21  O   UNL     1      -1.675   2.328  -0.767  0.00  0.00    -0.474 OA
BRANCH  21  22
ATOM     22  C   UNL     1      -2.610   1.357  -0.520  0.00  0.00    +0.139 C 
ATOM     23  C   UNL     1      -2.423   0.066  -1.014  0.00  0.00    +0.037 C 
ATOM     24  C   UNL     1      -3.751   1.661   0.223  0.00  0.00    +0.037 C 
ATOM     25  C   UNL     1      -4.517  -0.618  -0.021  0.00  0.00    +0.056 C 
ATOM     26  C   UNL     1      -3.376  -0.921  -0.764  0.00  0.00    +0.008 C 
ATOM     27  C   UNL     1      -4.704   0.674   0.472  0.00  0.00    +0.008 C 
BRANCH  25  30
ATOM     28  O   UNL     1      -5.662  -2.598  -0.550  0.00  0.00    -0.268 OA
ATOM     29  N   UNL     1      -6.279  -1.510   1.386  0.00  0.00    -0.193 N 
ATOM     30  C   UNL     1      -5.510  -1.647   0.239  0.00  0.00    +0.268 C 
ATOM     31  H   UNL     1      -6.153  -0.754   2.004  0.00  0.00    +0.183 HD
BRANCH  29  32
ATOM     32  O   UNL     1      -7.245  -2.499   1.622  0.00  0.00    -0.295 OA
ATOM     33  H   UNL     1      -7.717  -2.300   2.446  0.00  0.00    +0.241 HD
ENDBRANCH  29  32
ENDBRANCH  25  30
ENDBRANCH  21  22
ENDBRANCH  20  21
ENDBRANCH  19  20
ENDBRANCH   2  19
TORSDOF 9
