REMARK  Name = 11743862
REMARK  6 active torsions:
REMARK  status: ('A' for Active; 'I' for Inactive)
REMARK    1  A    between atoms: C_1  and  C_7
REMARK    2  A    between atoms: C_1  and  C_13
REMARK    3  A    between atoms: C_1  and  C_24
REMARK    4  A    between atoms: C_12  and  S_18
REMARK    5  A    between atoms: S_18  and  C_21
REMARK    6  A    between atoms: C_24  and  C_26
REMARK                            x       y       z     vdW  Elec       q    Type
REMARK                         _______ _______ _______ _____ _____    ______ ____
ROOT
ATOM      1  C   UNL     1       0.879   1.197   0.123  0.00  0.00    +0.099 C 
ENDROOT
BRANCH   1   7
ATOM      2  S   UNL     1       4.913  -1.208  -1.581  0.00  0.00    -0.022 S 
ATOM      3  F   UNL     1       7.322  -2.370  -1.128  0.00  0.00    -0.195 F 
ATOM      4  O   UNL     1       2.476   0.737   1.875  0.00  0.00    -0.274 OA
ATOM      5  N   UNL     1       2.962   0.053  -0.322  0.00  0.00    -0.264 N 
ATOM      6  N   UNL     1       4.895  -0.698   0.953  0.00  0.00    -0.220 NA
ATOM      7  C   UNL     1       2.200   0.645   0.683  0.00  0.00    +0.231 C 
ATOM      8  C   UNL     1       4.206  -0.560  -0.158  0.00  0.00    +0.168 C 
ATOM      9  C   UNL     1       6.258  -1.721  -0.649  0.00  0.00    +0.191 C 
ATOM     10  C   UNL     1       6.071  -1.364   0.669  0.00  0.00    +0.137 C 
ATOM     11  H   UNL     1       2.588   0.068  -1.232  0.00  0.00    +0.157 HD
ENDBRANCH   1   7
BRANCH   1  13
ATOM     12  C   UNL     1      -2.152  -1.865   0.167  0.00  0.00    +0.106 C 
ATOM     13  C   UNL     1      -0.190   0.118   0.139  0.00  0.00    -0.014 C 
ATOM     14  C   UNL     1      -1.728  -1.321  -1.045  0.00  0.00    +0.018 C 
ATOM     15  C   UNL     1      -1.596  -1.418   1.365  0.00  0.00    +0.018 C 
ATOM     16  C   UNL     1      -0.747  -0.330  -1.060  0.00  0.00    -0.002 C 
ATOM     17  C   UNL     1      -0.615  -0.426   1.351  0.00  0.00    -0.002 C 
BRANCH  12  18
ATOM     18  S   UNL     1      -3.381  -3.105   0.184  0.00  0.00    +0.007 S 
ATOM     19  O   UNL     1      -3.381  -3.765  -1.110  0.00  0.00    -0.169 OA
ATOM     20  O   UNL     1      -3.283  -3.867   1.419  0.00  0.00    -0.169 OA
BRANCH  18  21
ATOM     21  C   UNL     1      -4.983  -2.181   0.310  0.00  0.00    +0.134 C 
ATOM     22  C   UNL     1      -6.119  -2.949  -0.301  0.00  0.00    +0.026 C 
ATOM     23  C   UNL     1      -5.511  -1.792  -1.040  0.00  0.00    +0.026 C 
ENDBRANCH  18  21
ENDBRANCH  12  18
ENDBRANCH   1  13
BRANCH   1  24
ATOM     24  C   UNL     1       0.453   2.468   0.884  0.00  0.00    +0.014 C 
BRANCH  24  26
ATOM     25  O   UNL     1      -2.098   5.419  -0.846  0.00  0.00    -0.354 OA
ATOM     26  C   UNL     1      -0.804   3.114   0.307  0.00  0.00    +0.006 C 
ATOM     27  C   UNL     1      -0.589   3.539  -1.149  0.00  0.00    +0.032 C 
ATOM     28  C   UNL     1      -1.238   4.322   1.144  0.00  0.00    +0.032 C 
ATOM     29  C   UNL     1      -1.804   4.295  -1.674  0.00  0.00    +0.142 C 
ATOM     30  C   UNL     1      -2.417   5.034   0.491  0.00  0.00    +0.142 C 
ENDBRANCH  24  26
ENDBRANCH   1  24
TORSDOF 6
