REMARK  Name = 11740108
REMARK  5 active torsions:
REMARK  status: ('A' for Active; 'I' for Inactive)
REMARK    1  A    between atoms: C_4  and  O_20
REMARK    2  A    between atoms: C_14  and  O_26
REMARK    3  A    between atoms: C_15  and  O_22
REMARK    4  A    between atoms: C_17  and  O_24
REMARK    5  A    between atoms: C_18  and  O_28
REMARK                            x       y       z     vdW  Elec       q    Type
REMARK                         _______ _______ _______ _____ _____    ______ ____
ROOT
ATOM      1  O   UNL     1       1.377  -1.424   1.034  0.00  0.00    -0.472 OA
ATOM      2  O   UNL     1      -1.278  -2.284   1.583  0.00  0.00    -0.472 OA
ATOM      3  O   UNL     1       0.708   2.622   1.175  0.00  0.00    -0.288 OA
ATOM      4  C   UNL     1      -0.141   0.418   1.697  0.00  0.00    +0.205 C 
ATOM      5  C   UNL     1       0.638  -0.831   2.112  0.00  0.00    +0.244 C 
ATOM      6  C   UNL     1      -1.314   0.043   0.816  0.00  0.00    +0.049 C 
ATOM      7  C   UNL     1      -0.349  -1.890   2.599  0.00  0.00    +0.252 C 
ATOM      8  C   UNL     1       0.825   1.405   1.069  0.00  0.00    +0.210 C 
ATOM      9  C   UNL     1      -1.809  -1.271   0.828  0.00  0.00    +0.141 C 
ATOM     10  C   UNL     1       1.940   0.828   0.295  0.00  0.00    +0.105 C 
ATOM     11  C   UNL     1       2.144  -0.551   0.316  0.00  0.00    +0.147 C 
ATOM     12  C   UNL     1      -1.958   0.992   0.004  0.00  0.00    +0.042 C 
ATOM     13  C   UNL     1      -2.888  -1.631   0.015  0.00  0.00    +0.077 C 
ATOM     14  C   UNL     1       2.772   1.654  -0.468  0.00  0.00    +0.142 C 
ATOM     15  C   UNL     1      -3.042   0.631  -0.798  0.00  0.00    +0.172 C 
ATOM     16  C   UNL     1       3.164  -1.111  -0.456  0.00  0.00    +0.074 C 
ATOM     17  C   UNL     1      -3.504  -0.681  -0.797  0.00  0.00    +0.175 C 
ATOM     18  C   UNL     1       3.993  -0.290  -1.222  0.00  0.00    +0.145 C 
ATOM     19  C   UNL     1       3.799   1.090  -1.224  0.00  0.00    +0.074 C 
ENDROOT
BRANCH   4  20
ATOM     20  O   UNL     1      -0.642   1.045   2.879  0.00  0.00    -0.372 OA
ATOM     21  H   UNL     1      -1.268   0.450   3.320  0.00  0.00    +0.211 HD
ENDBRANCH   4  20
BRANCH  15  22
ATOM     22  O   UNL     1      -3.640   1.575  -1.578  0.00  0.00    -0.468 OA
ATOM     23  C   UNL     1      -4.719   2.305  -0.998  0.00  0.00    +0.253 C 
ENDBRANCH  15  22
BRANCH  17  24
ATOM     24  O   UNL     1      -4.558  -1.047  -1.578  0.00  0.00    -0.468 OA
ATOM     25  C   UNL     1      -4.260  -1.505  -2.896  0.00  0.00    +0.253 C 
ENDBRANCH  17  24
BRANCH  14  26
ATOM     26  O   UNL     1       2.616   3.006  -0.524  0.00  0.00    -0.505 OA
ATOM     27  H   UNL     1       1.936   3.421  -0.029  0.00  0.00    +0.292 HD
ENDBRANCH  14  26
BRANCH  18  28
ATOM     28  O   UNL     1       4.991  -0.839  -1.967  0.00  0.00    -0.471 OA
ATOM     29  C   UNL     1       5.133  -2.257  -1.918  0.00  0.00    +0.252 C 
ENDBRANCH  18  28
TORSDOF 5
