11748945
  -OEChem-03292013303D

 43 46  0     1  0  0  0  0  0999 V2000
   -5.1824    1.2103    0.8654 O   0  0  0  0  0  0  0  0  0  0  0  0
   -2.5662   -2.7785    1.0800 O   0  0  0  0  0  0  0  0  0  0  0  0
   -0.3530    2.7005    0.5452 O   0  0  0  0  0  0  0  0  0  0  0  0
   -0.2216   -2.7785   -0.0982 O   0  0  0  0  0  0  0  0  0  0  0  0
   -3.6279    1.1505   -1.9942 O   0  0  0  0  0  0  0  0  0  0  0  0
    2.1550    2.6933    0.3173 O   0  0  0  0  0  0  0  0  0  0  0  0
    2.2725   -2.6154   -0.2716 O   0  0  0  0  0  0  0  0  0  0  0  0
   -4.0454    0.5742    0.2873 C   0  0  2  0  0  0  0  0  0  0  0  0
   -3.9492   -0.8393    0.8471 C   0  0  0  0  0  0  0  0  0  0  0  0
   -2.7860    1.3777    0.6187 C   0  0  0  0  0  0  0  0  0  0  0  0
   -2.7407   -1.5988    0.2962 C   0  0  1  0  0  0  0  0  0  0  0  0
   -1.4968    0.6186    0.4146 C   0  0  0  0  0  0  0  0  0  0  0  0
   -1.4672   -0.7824    0.2944 C   0  0  0  0  0  0  0  0  0  0  0  0
   -0.2928    1.3430    0.3882 C   0  0  0  0  0  0  0  0  0  0  0  0
   -0.2314   -1.4248    0.0981 C   0  0  0  0  0  0  0  0  0  0  0  0
   -4.3459    0.5646   -1.1853 C   0  0  0  0  0  0  0  0  0  0  0  0
    0.9318    0.6901    0.2122 C   0  0  0  0  0  0  0  0  0  0  0  0
    0.9623   -0.6937    0.0624 C   0  0  0  0  0  0  0  0  0  0  0  0
    2.1821    1.4764    0.1819 C   0  0  0  0  0  0  0  0  0  0  0  0
    2.2456   -1.3985   -0.1361 C   0  0  0  0  0  0  0  0  0  0  0  0
   -5.5666   -0.1992   -1.6219 C   0  0  0  0  0  0  0  0  0  0  0  0
    3.4663    0.7733   -0.0144 C   0  0  0  0  0  0  0  0  0  0  0  0
    3.4968   -0.6141   -0.1684 C   0  0  0  0  0  0  0  0  0  0  0  0
    4.6588    1.5061   -0.0465 C   0  0  0  0  0  0  0  0  0  0  0  0
    4.7200   -1.2692   -0.3545 C   0  0  0  0  0  0  0  0  0  0  0  0
    5.8756    0.8493   -0.2322 C   0  0  0  0  0  0  0  0  0  0  0  0
    5.9061   -0.5353   -0.3857 C   0  0  0  0  0  0  0  0  0  0  0  0
   -4.8663   -1.4182    0.6794 H   0  0  0  0  0  0  0  0  0  0  0  0
   -3.8801   -0.7845    1.9441 H   0  0  0  0  0  0  0  0  0  0  0  0
   -2.8269    1.6829    1.6738 H   0  0  0  0  0  0  0  0  0  0  0  0
   -2.7797    2.3100    0.0391 H   0  0  0  0  0  0  0  0  0  0  0  0
   -2.9440   -1.9081   -0.7368 H   0  0  0  0  0  0  0  0  0  0  0  0
   -5.1685    2.1483    0.6081 H   0  0  0  0  0  0  0  0  0  0  0  0
   -3.3852   -3.2987    1.0131 H   0  0  0  0  0  0  0  0  0  0  0  0
   -5.3623   -1.2721   -1.6126 H   0  0  0  0  0  0  0  0  0  0  0  0
   -6.4239    0.0293   -0.9849 H   0  0  0  0  0  0  0  0  0  0  0  0
   -5.8241    0.0952   -2.6441 H   0  0  0  0  0  0  0  0  0  0  0  0
    0.5227    3.0668    0.7375 H   0  0  0  0  0  0  0  0  0  0  0  0
   -1.1197   -3.1377   -0.1576 H   0  0  0  0  0  0  0  0  0  0  0  0
    4.6616    2.5864    0.0708 H   0  0  0  0  0  0  0  0  0  0  0  0
    4.7705   -2.3479   -0.4766 H   0  0  0  0  0  0  0  0  0  0  0  0
    6.8005    1.4183   -0.2571 H   0  0  0  0  0  0  0  0  0  0  0  0
    6.8549   -1.0442   -0.5300 H   0  0  0  0  0  0  0  0  0  0  0  0
  1  8  1  0  0  0  0
  1 33  1  0  0  0  0
  2 11  1  0  0  0  0
  2 34  1  0  0  0  0
  3 14  1  0  0  0  0
  3 38  1  0  0  0  0
  4 15  1  0  0  0  0
  4 39  1  0  0  0  0
  5 16  2  0  0  0  0
  6 19  2  0  0  0  0
  7 20  2  0  0  0  0
  8  9  1  0  0  0  0
  8 10  1  0  0  0  0
  8 16  1  0  0  0  0
  9 11  1  0  0  0  0
  9 28  1  0  0  0  0
  9 29  1  0  0  0  0
 10 12  1  0  0  0  0
 10 30  1  0  0  0  0
 10 31  1  0  0  0  0
 11 13  1  0  0  0  0
 11 32  1  0  0  0  0
 12 13  2  0  0  0  0
 12 14  1  0  0  0  0
 13 15  1  0  0  0  0
 14 17  2  0  0  0  0
 15 18  2  0  0  0  0
 16 21  1  0  0  0  0
 17 18  1  0  0  0  0
 17 19  1  0  0  0  0
 18 20  1  0  0  0  0
 19 22  1  0  0  0  0
 20 23  1  0  0  0  0
 21 35  1  0  0  0  0
 21 36  1  0  0  0  0
 21 37  1  0  0  0  0
 22 23  1  0  0  0  0
 22 24  2  0  0  0  0
 23 25  2  0  0  0  0
 24 26  1  0  0  0  0
 24 40  1  0  0  0  0
 25 27  1  0  0  0  0
 25 41  1  0  0  0  0
 26 27  2  0  0  0  0
 26 42  1  0  0  0  0
 27 43  1  0  0  0  0
M  END
> <PUBCHEM_COMPOUND_CID>
11748945

> <PUBCHEM_CONFORMER_RMSD>
0.6

> <PUBCHEM_CONFORMER_DIVERSEORDER>
2
3
4
11
10
6
9
1
7
8
5

> <PUBCHEM_MMFF94_PARTIAL_CHARGES>
34
1 -0.68
10 0.14
11 0.42
12 -0.14
13 -0.14
14 0.08
15 0.08
16 0.45
17 0.09
18 0.09
19 0.4
2 -0.68
20 0.4
21 0.06
22 0.09
23 0.09
24 -0.15
25 -0.15
26 -0.15
27 -0.15
3 -0.53
33 0.4
34 0.4
38 0.45
39 0.45
4 -0.53
40 0.15
41 0.15
42 0.15
43 0.15
5 -0.57
6 -0.57
7 -0.57
8 0.34

> <PUBCHEM_EFFECTIVE_ROTOR_COUNT>
1.8

> <PUBCHEM_PHARMACOPHORE_FEATURES>
13
1 1 acceptor
1 1 donor
1 2 acceptor
1 2 donor
1 3 donor
1 4 donor
1 5 acceptor
1 6 acceptor
1 7 acceptor
6 12 13 14 15 17 18 rings
6 17 18 19 20 22 23 rings
6 22 23 24 25 26 27 rings
6 8 9 10 11 12 13 rings

> <PUBCHEM_HEAVY_ATOM_COUNT>
27

> <PUBCHEM_ATOM_DEF_STEREO_COUNT>
0

> <PUBCHEM_ATOM_UDEF_STEREO_COUNT>
2

> <PUBCHEM_BOND_DEF_STEREO_COUNT>
0

> <PUBCHEM_BOND_UDEF_STEREO_COUNT>
0

> <PUBCHEM_ISOTOPIC_ATOM_COUNT>
0

> <PUBCHEM_COMPONENT_COUNT>
1

> <PUBCHEM_CACTVS_TAUTO_COUNT>
54

> <PUBCHEM_CONFORMER_ID>
00B3465100000002

> <PUBCHEM_MMFF94_ENERGY>
85.1372

> <PUBCHEM_FEATURE_SELFOVERLAP>
66.046

> <PUBCHEM_SHAPE_FINGERPRINT>
105312 117 17749378244499696447
10693767 8 18059560365483275758
10906281 52 18270982157852840969
10967382 1 18339930324665462202
11112241 14 16986292032100738112
12011746 2 18411702076029691660
12236239 1 17561082492918033161
12403259 415 18260545623752938877
12788726 201 18200309892694997384
12838862 33 18339908386642712960
12969540 114 18337378392299866359
13140716 1 18339931509902317408
13402501 40 18409451396827989075
13583140 156 17022623074352410337
13862211 1 18342172237786152750
14294032 229 16056043417084381937
14790565 3 18196664998843457353
15099037 51 18411700997723874788
15183329 4 18408884023348344708
15196674 1 18411705417535405306
15788980 27 16877944936217312840
15880784 105 16559025017101683752
1601671 61 18409450289111496528
17349148 13 18272930501084124528
18608769 82 18334298712830558155
19591789 44 18268153239236837170
200 152 17775283858977600769
20775438 99 16621191577031599071
21033648 144 18410287055645980844
21033648 29 18113605777478654901
21267235 1 18339936985938354634
21279426 13 18338802208729522790
21421861 104 17968937462366255066
21521239 73 18130489925590127471
21709351 56 18336827601715234662
21857420 4 12776229612060091084
21859007 373 17969758853487589596
221357 26 18339912758629348293
221490 88 18265342887642498130
22182313 1 18268450038403925078
22393880 68 18336812165834861799
23402539 116 18060701675779916933
23559900 14 18412544349276543728
23569914 152 16976735785337521572
3004659 81 18261397733228317614
335352 9 18411705370285444990
34797466 226 15625939897960570672
34934 24 18411138026106128850
350125 39 18265623254560149595
3545911 37 18408326591990100906
3680242 22 18335703780883994842
4015057 19 18342452694571258753
4214541 1 18409172137917233762
4340502 62 16950290580832306594
484989 97 18194116541955619039
5104073 3 18410858797924484690
5283173 99 18187640258831275756
59755656 215 18339649949907521166
9709674 26 18199197200097380566

> <PUBCHEM_SHAPE_MULTIPOLES>
514.56
12.24
2.59
1.02
3.57
0.54
0.37
-1.36
2.96
0.38
-0.42
-1.56
-0.09
0.6

> <PUBCHEM_SHAPE_SELFOVERLAP>
1165.313

> <PUBCHEM_SHAPE_VOLUME>
264.9

> <PUBCHEM_COORDINATE_TYPE>
2
5
10

$$$$
