REMARK  Name = 11750881
REMARK  7 active torsions:
REMARK  status: ('A' for Active; 'I' for Inactive)
REMARK    1  A    between atoms: C_6  and  O_21
REMARK    2  A    between atoms: C_7  and  O_27
REMARK    3  A    between atoms: C_9  and  O_19
REMARK    4  A    between atoms: O_21  and  C_23
REMARK    5  A    between atoms: C_23  and  C_24
REMARK    6  A    between atoms: O_27  and  C_29
REMARK    7  A    between atoms: C_29  and  C_30
REMARK                            x       y       z     vdW  Elec       q    Type
REMARK                         _______ _______ _______ _____ _____    ______ ____
ROOT
ATOM      1  O   UNL     1       2.884   0.609   0.529  0.00  0.00    -0.449 OA
ATOM      2  O   UNL     1       3.675   2.103  -1.032  0.00  0.00    -0.245 OA
ATOM      3  O   UNL     1      -0.631  -3.574  -1.069  0.00  0.00    -0.289 OA
ATOM      4  C   UNL     1       1.024  -0.300  -0.631  0.00  0.00    +0.113 C 
ATOM      5  C   UNL     1       2.023  -0.555   0.504  0.00  0.00    +0.177 C 
ATOM      6  C   UNL     1      -0.279   0.407  -0.178  0.00  0.00    +0.219 C 
ATOM      7  C   UNL     1      -1.265  -0.457   0.652  0.00  0.00    +0.240 C 
ATOM      8  C   UNL     1       2.934  -1.789   0.338  0.00  0.00    +0.048 C 
ATOM      9  C   UNL     1      -1.818  -1.740  -0.024  0.00  0.00    +0.183 C 
ATOM     10  C   UNL     1       1.856   0.586  -1.503  0.00  0.00    +0.060 C 
ATOM     11  C   UNL     1       2.212  -3.141   0.195  0.00  0.00    +0.026 C 
ATOM     12  C   UNL     1       2.921   1.208  -0.695  0.00  0.00    +0.337 C 
ATOM     13  C   UNL     1      -0.824  -2.908  -0.052  0.00  0.00    +0.200 C 
ATOM     14  C   UNL     1      -3.103  -2.245   0.654  0.00  0.00    +0.041 C 
ATOM     15  C   UNL     1       1.205  -3.361   1.299  0.00  0.00    -0.023 C 
ATOM     16  C   UNL     1       3.228  -4.287   0.188  0.00  0.00    +0.005 C 
ATOM     17  C   UNL     1      -0.129  -3.263   1.214  0.00  0.00    +0.035 C 
ATOM     18  C   UNL     1       1.740   0.795  -2.816  0.00  0.00    +0.002 C 
ENDROOT
BRANCH   9  19
ATOM     19  O   UNL     1      -2.146  -1.429  -1.377  0.00  0.00    -0.376 OA
ATOM     20  H   UNL     1      -1.355  -1.106  -1.836  0.00  0.00    +0.211 HD
ENDBRANCH   9  19
BRANCH   6  21
ATOM     21  O   UNL     1       0.041   1.542   0.644  0.00  0.00    -0.445 OA
BRANCH  21  23
ATOM     22  O   UNL     1       0.862   2.753  -1.133  0.00  0.00    -0.245 OA
ATOM     23  C   UNL     1       0.825   2.485   0.060  0.00  0.00    +0.337 C 
BRANCH  23  24
ATOM     24  C   UNL     1       1.650   3.156   1.103  0.00  0.00    +0.054 C 
ATOM     25  C   UNL     1       1.528   2.752   2.540  0.00  0.00    +0.038 C 
ATOM     26  C   UNL     1       2.488   4.121   0.697  0.00  0.00    +0.002 C 
ENDBRANCH  23  24
ENDBRANCH  21  23
ENDBRANCH   6  21
BRANCH   7  27
ATOM     27  O   UNL     1      -2.382   0.400   0.963  0.00  0.00    -0.446 OA
BRANCH  27  29
ATOM     28  O   UNL     1      -2.668   1.014  -1.241  0.00  0.00    -0.250 OA
ATOM     29  C   UNL     1      -3.100   0.827  -0.112  0.00  0.00    +0.317 C 
BRANCH  29  30
ATOM     30  C   UNL     1      -4.541   1.052   0.313  0.00  0.00    +0.099 C 
ATOM     31  C   UNL     1      -4.713   2.482   0.811  0.00  0.00    +0.012 C 
ATOM     32  C   UNL     1      -5.498   0.755  -0.839  0.00  0.00    +0.012 C 
ENDBRANCH  29  30
ENDBRANCH  27  29
ENDBRANCH   7  27
TORSDOF 7
