11752064
  -OEChem-03292013303D

 71 77  0     1  0  0  0  0  0999 V2000
    4.1982    1.4174    1.6720 O   0  0  0  0  0  0  0  0  0  0  0  0
   -2.0821   -0.9749    1.0525 O   0  0  0  0  0  0  0  0  0  0  0  0
    6.8097    0.3130    1.6930 O   0  0  0  0  0  0  0  0  0  0  0  0
    4.5460   -1.7708   -2.0071 O   0  0  0  0  0  0  0  0  0  0  0  0
    0.0210   -0.9410    1.9189 O   0  0  0  0  0  0  0  0  0  0  0  0
   -4.8813   -0.9615    0.8253 O   0  0  0  0  0  0  0  0  0  0  0  0
   -6.8502   -1.2890    1.8733 O   0  0  0  0  0  0  0  0  0  0  0  0
    4.7990    0.8484    0.4805 C   0  0  1  0  0  0  0  0  0  0  0  0
    1.8747    0.8633    0.1278 C   0  0  2  0  0  0  0  0  0  0  0  0
    2.6869   -0.2801   -0.5519 C   0  0  1  0  0  0  0  0  0  0  0  0
    4.1486   -0.4866    0.0476 C   0  0  1  0  0  0  0  0  0  0  0  0
    0.4890    0.9608   -0.5264 C   0  0  1  0  0  0  0  0  0  0  0  0
   -0.3372   -0.3255   -0.4363 C   0  0  1  0  0  0  0  0  0  0  0  0
    4.0118    2.1396    0.4592 C   0  0  1  0  0  0  0  0  0  0  0  0
    2.6115    2.1982   -0.0211 C   0  0  0  0  0  0  0  0  0  0  0  0
   -1.7090    0.0928   -1.0036 C   0  0  2  0  0  0  0  0  0  0  0  0
    1.8480   -1.5934   -0.5910 C   0  0  0  0  0  0  0  0  0  0  0  0
    0.4263   -1.4340   -1.1568 C   0  0  0  0  0  0  0  0  0  0  0  0
   -0.4789    2.0239   -0.0422 C   0  0  0  0  0  0  0  0  0  0  0  0
    6.3096    0.9581    0.5234 C   0  0  2  0  0  0  0  0  0  0  0  0
   -1.7578    1.6338   -0.7848 C   0  0  0  0  0  0  0  0  0  0  0  0
   -2.7259   -0.7357   -0.2084 C   0  0  2  0  0  0  0  0  0  0  0  0
    5.0226   -1.1461   -1.0577 C   0  0  0  0  0  0  0  0  0  0  0  0
   -0.7323   -0.7705    0.9723 C   0  0  0  0  0  0  0  0  0  0  0  0
    4.1400   -1.4601    1.2467 C   0  0  0  0  0  0  0  0  0  0  0  0
    6.9486    0.3612   -0.7219 C   0  0  0  0  0  0  0  0  0  0  0  0
    6.5243   -1.0835   -0.9011 C   0  0  0  0  0  0  0  0  0  0  0  0
   -4.0661   -0.0498    0.0685 C   0  0  1  0  0  0  0  0  0  0  0  0
   -3.0170   -2.0919   -0.8673 C   0  0  0  0  0  0  0  0  0  0  0  0
   -4.7785    0.3215   -1.2200 C   0  0  0  0  0  0  0  0  0  0  0  0
   -6.1538    0.8348   -0.8928 C   0  0  0  0  0  0  0  0  0  0  0  0
   -6.1909   -0.6722    1.0420 C   0  0  0  0  0  0  0  0  0  0  0  0
   -6.8016    0.4053    0.2087 C   0  0  0  0  0  0  0  0  0  0  0  0
   -6.7028    1.8157   -1.8913 C   0  0  0  0  0  0  0  0  0  0  0  0
   -8.1503    0.8786    0.6698 C   0  0  0  0  0  0  0  0  0  0  0  0
    1.7677    0.6422    1.1955 H   0  0  0  0  0  0  0  0  0  0  0  0
    2.8156    0.0309   -1.6007 H   0  0  0  0  0  0  0  0  0  0  0  0
    0.6655    1.1705   -1.5955 H   0  0  0  0  0  0  0  0  0  0  0  0
    4.5319    3.0810    0.3427 H   0  0  0  0  0  0  0  0  0  0  0  0
    2.6193    2.5117   -1.0723 H   0  0  0  0  0  0  0  0  0  0  0  0
    2.0863    2.9803    0.5391 H   0  0  0  0  0  0  0  0  0  0  0  0
   -1.7940   -0.1024   -2.0797 H   0  0  0  0  0  0  0  0  0  0  0  0
    1.7584   -2.0090    0.4177 H   0  0  0  0  0  0  0  0  0  0  0  0
    2.3589   -2.3571   -1.1856 H   0  0  0  0  0  0  0  0  0  0  0  0
    0.4914   -1.2101   -2.2290 H   0  0  0  0  0  0  0  0  0  0  0  0
   -0.0780   -2.3997   -1.0664 H   0  0  0  0  0  0  0  0  0  0  0  0
   -0.1648    3.0389   -0.3030 H   0  0  0  0  0  0  0  0  0  0  0  0
   -0.6244    1.9773    1.0427 H   0  0  0  0  0  0  0  0  0  0  0  0
    6.6087    2.0104    0.5974 H   0  0  0  0  0  0  0  0  0  0  0  0
   -2.6288    2.0273   -0.2627 H   0  0  0  0  0  0  0  0  0  0  0  0
   -1.7519    2.1165   -1.7714 H   0  0  0  0  0  0  0  0  0  0  0  0
    3.4211   -1.1449    2.0107 H   0  0  0  0  0  0  0  0  0  0  0  0
    3.8949   -2.4829    0.9400 H   0  0  0  0  0  0  0  0  0  0  0  0
    5.1181   -1.5218    1.7331 H   0  0  0  0  0  0  0  0  0  0  0  0
    8.0410    0.4024   -0.6420 H   0  0  0  0  0  0  0  0  0  0  0  0
    6.6533    0.9455   -1.6023 H   0  0  0  0  0  0  0  0  0  0  0  0
    6.8250   -1.7140   -0.0587 H   0  0  0  0  0  0  0  0  0  0  0  0
    6.9903   -1.4923   -1.8045 H   0  0  0  0  0  0  0  0  0  0  0  0
   -3.9248    0.8153    0.7271 H   0  0  0  0  0  0  0  0  0  0  0  0
   -2.1302   -2.7305   -0.8671 H   0  0  0  0  0  0  0  0  0  0  0  0
   -3.7631   -2.6785   -0.3212 H   0  0  0  0  0  0  0  0  0  0  0  0
   -3.3435   -1.9943   -1.9065 H   0  0  0  0  0  0  0  0  0  0  0  0
    7.7775    0.4070    1.6896 H   0  0  0  0  0  0  0  0  0  0  0  0
   -4.9145   -0.5317   -1.8927 H   0  0  0  0  0  0  0  0  0  0  0  0
   -4.2164    1.0849   -1.7663 H   0  0  0  0  0  0  0  0  0  0  0  0
   -6.1619    2.7650   -1.8234 H   0  0  0  0  0  0  0  0  0  0  0  0
   -7.7680    2.0198   -1.7621 H   0  0  0  0  0  0  0  0  0  0  0  0
   -6.5822    1.4230   -2.9070 H   0  0  0  0  0  0  0  0  0  0  0  0
   -8.4357    1.8416    0.2394 H   0  0  0  0  0  0  0  0  0  0  0  0
   -8.1561    1.0193    1.7566 H   0  0  0  0  0  0  0  0  0  0  0  0
   -8.9192    0.1426    0.4137 H   0  0  0  0  0  0  0  0  0  0  0  0
  1  8  1  0  0  0  0
  1 14  1  0  0  0  0
  2 22  1  0  0  0  0
  2 24  1  0  0  0  0
  3 20  1  0  0  0  0
  3 63  1  0  0  0  0
  4 23  2  0  0  0  0
  5 24  2  0  0  0  0
  6 28  1  0  0  0  0
  6 32  1  0  0  0  0
  7 32  2  0  0  0  0
  8 11  1  0  0  0  0
  8 14  1  0  0  0  0
  8 20  1  0  0  0  0
  9 10  1  0  0  0  0
  9 12  1  0  0  0  0
  9 15  1  0  0  0  0
  9 36  1  0  0  0  0
 10 11  1  0  0  0  0
 10 17  1  0  0  0  0
 10 37  1  0  0  0  0
 11 23  1  0  0  0  0
 11 25  1  0  0  0  0
 12 13  1  0  0  0  0
 12 19  1  0  0  0  0
 12 38  1  0  0  0  0
 13 16  1  0  0  0  0
 13 18  1  0  0  0  0
 13 24  1  0  0  0  0
 14 15  1  0  0  0  0
 14 39  1  0  0  0  0
 15 40  1  0  0  0  0
 15 41  1  0  0  0  0
 16 21  1  0  0  0  0
 16 22  1  0  0  0  0
 16 42  1  0  0  0  0
 17 18  1  0  0  0  0
 17 43  1  0  0  0  0
 17 44  1  0  0  0  0
 18 45  1  0  0  0  0
 18 46  1  0  0  0  0
 19 21  1  0  0  0  0
 19 47  1  0  0  0  0
 19 48  1  0  0  0  0
 20 26  1  0  0  0  0
 20 49  1  0  0  0  0
 21 50  1  0  0  0  0
 21 51  1  0  0  0  0
 22 28  1  0  0  0  0
 22 29  1  0  0  0  0
 23 27  1  0  0  0  0
 25 52  1  0  0  0  0
 25 53  1  0  0  0  0
 25 54  1  0  0  0  0
 26 27  1  0  0  0  0
 26 55  1  0  0  0  0
 26 56  1  0  0  0  0
 27 57  1  0  0  0  0
 27 58  1  0  0  0  0
 28 30  1  0  0  0  0
 28 59  1  0  0  0  0
 29 60  1  0  0  0  0
 29 61  1  0  0  0  0
 29 62  1  0  0  0  0
 30 31  1  0  0  0  0
 30 64  1  0  0  0  0
 30 65  1  0  0  0  0
 31 33  2  0  0  0  0
 31 34  1  0  0  0  0
 32 33  1  0  0  0  0
 33 35  1  0  0  0  0
 34 66  1  0  0  0  0
 34 67  1  0  0  0  0
 34 68  1  0  0  0  0
 35 69  1  0  0  0  0
 35 70  1  0  0  0  0
 35 71  1  0  0  0  0
M  END
> <PUBCHEM_COMPOUND_CID>
11752064

> <PUBCHEM_CONFORMER_RMSD>
0.8

> <PUBCHEM_CONFORMER_DIVERSEORDER>
1
3
2

> <PUBCHEM_MMFF94_PARTIAL_CHARGES>
26
1 -0.3
11 0.16
13 0.06
14 -0.05
15 0.09
2 -0.43
20 0.38
22 0.28
23 0.45
24 0.66
27 0.06
28 0.28
3 -0.68
30 0.14
31 -0.28
32 0.71
33 -0.12
34 0.14
35 0.14
39 0.1
4 -0.57
5 -0.57
6 -0.43
63 0.4
7 -0.57
8 -0.04

> <PUBCHEM_EFFECTIVE_ROTOR_COUNT>
3.8

> <PUBCHEM_PHARMACOPHORE_FEATURES>
12
1 1 acceptor
1 3 acceptor
1 3 donor
1 4 acceptor
1 5 acceptor
1 7 acceptor
5 12 13 16 19 21 rings
5 2 13 16 22 24 rings
6 6 28 30 31 32 33 rings
6 8 11 20 23 26 27 rings
6 9 10 12 13 17 18 rings
7 1 8 9 10 11 14 15 rings

> <PUBCHEM_HEAVY_ATOM_COUNT>
35

> <PUBCHEM_ATOM_DEF_STEREO_COUNT>
11

> <PUBCHEM_ATOM_UDEF_STEREO_COUNT>
0

> <PUBCHEM_BOND_DEF_STEREO_COUNT>
0

> <PUBCHEM_BOND_UDEF_STEREO_COUNT>
0

> <PUBCHEM_ISOTOPIC_ATOM_COUNT>
0

> <PUBCHEM_COMPONENT_COUNT>
1

> <PUBCHEM_CACTVS_TAUTO_COUNT>
2

> <PUBCHEM_CONFORMER_ID>
00B3528000000001

> <PUBCHEM_MMFF94_ENERGY>
115.3285

> <PUBCHEM_FEATURE_SELFOVERLAP>
61.507

> <PUBCHEM_SHAPE_FINGERPRINT>
10 15 18334010626838765168
10299344 5 15430037660497353601
10319926 262 17821731659037256651
11181472 205 16199887080403764056
11456790 92 18060137618226003266
12166972 35 17132115740928869056
12236239 1 16128656362259802892
13533116 47 16773801359909688710
13782708 43 17895199956458594563
13811026 1 18410291397778217326
13914758 101 16917355813786776913
14068700 675 14261631733768770739
14170010 4 18202284706410800260
14251764 18 15574716906396175411
14849402 71 14996581615042414079
14856354 85 14836401441974134773
15131766 46 14187569807637730706
15183329 4 17988922267163887725
15361156 5 18336270153620233388
15419008 47 18333448733864719125
15849732 13 18341898498193313559
16090146 7 16443645509815424256
18608769 82 17822013133244003051
19841028 212 17169259353108971042
20105231 36 18335149686589089562
20511986 3 17632282510630273286
21033648 29 18339068406771370664
21057603 130 14764071100823302372
21267235 1 18412831262024346116
21781051 124 17023198127222972403
21792934 111 18200303330701945106
21859007 373 18262508200627278021
23081809 10 16128656345138118471
23522609 53 15358276874538020839
23559900 14 18334292106490322812
24771293 8 18128240372303255048
249057 3 18131915970554208286
255183 451 16413249425668045982
3004659 81 17530971297512850212
3178227 256 18411142436973809418
335352 9 18342176682523442821
350125 39 18342740715236227948
3633792 109 17703794674165675527
394071 54 18060143145579594644
397830 11 18265340680219517403
4073 2 18336548338552170922
4093350 32 17703792496343248974
4340502 62 17240196634606995810
5104073 3 18337388214969193673
5265222 85 17459204021625894542
59755656 215 18335979792155603572
6086070 43 17059766840786642179
7226269 152 18113615681984170277

> <PUBCHEM_SHAPE_MULTIPOLES>
679.2
20.64
2.02
1.54
13.59
0.34
-0.14
2.31
-1.75
-0.59
0.21
0.33
-0.29
2.35

> <PUBCHEM_SHAPE_SELFOVERLAP>
1501.353

> <PUBCHEM_SHAPE_VOLUME>
362.4

> <PUBCHEM_COORDINATE_TYPE>
2
5
10

$$$$
