REMARK  Name = 11752064
REMARK  2 active torsions:
REMARK  status: ('A' for Active; 'I' for Inactive)
REMARK    1  A    between atoms: C_17  and  O_35
REMARK    2  A    between atoms: C_19  and  C_28
REMARK                            x       y       z     vdW  Elec       q    Type
REMARK                         _______ _______ _______ _____ _____    ______ ____
ROOT
ATOM      1  O   UNL     1       4.198   1.417   1.672  0.00  0.00    -0.353 OA
ATOM      2  O   UNL     1      -2.082  -0.975   1.052  0.00  0.00    -0.452 OA
ATOM      3  O   UNL     1       4.546  -1.771  -2.007  0.00  0.00    -0.296 OA
ATOM      4  O   UNL     1       0.021  -0.941   1.919  0.00  0.00    -0.250 OA
ATOM      5  C   UNL     1       4.799   0.848   0.480  0.00  0.00    +0.148 C 
ATOM      6  C   UNL     1       1.875   0.863   0.128  0.00  0.00    +0.003 C 
ATOM      7  C   UNL     1       2.687  -0.280  -0.552  0.00  0.00    +0.009 C 
ATOM      8  C   UNL     1       4.149  -0.487   0.048  0.00  0.00    +0.079 C 
ATOM      9  C   UNL     1       0.489   0.961  -0.526  0.00  0.00    +0.010 C 
ATOM     10  C   UNL     1      -0.337  -0.326  -0.436  0.00  0.00    +0.093 C 
ATOM     11  C   UNL     1       4.012   2.140   0.459  0.00  0.00    +0.143 C 
ATOM     12  C   UNL     1       2.611   2.198  -0.021  0.00  0.00    +0.032 C 
ATOM     13  C   UNL     1      -1.709   0.093  -1.004  0.00  0.00    +0.050 C 
ATOM     14  C   UNL     1       1.848  -1.593  -0.591  0.00  0.00    +0.001 C 
ATOM     15  C   UNL     1       0.426  -1.434  -1.157  0.00  0.00    +0.011 C 
ATOM     16  C   UNL     1      -0.479   2.024  -0.042  0.00  0.00    +0.001 C 
ATOM     17  C   UNL     1       6.310   0.958   0.523  0.00  0.00    +0.138 C 
ATOM     18  C   UNL     1      -1.758   1.634  -0.785  0.00  0.00    +0.004 C 
ATOM     19  C   UNL     1      -2.726  -0.736  -0.208  0.00  0.00    +0.173 C 
ATOM     20  C   UNL     1       5.023  -1.146  -1.058  0.00  0.00    +0.152 C 
ATOM     21  C   UNL     1      -0.732  -0.770   0.972  0.00  0.00    +0.316 C 
ATOM     22  C   UNL     1       4.140  -1.460   1.247  0.00  0.00    +0.010 C 
ATOM     23  C   UNL     1       6.949   0.361  -0.722  0.00  0.00    +0.040 C 
ATOM     24  C   UNL     1       6.524  -1.083  -0.901  0.00  0.00    +0.067 C 
ATOM     25  C   UNL     1      -3.017  -2.092  -0.867  0.00  0.00    +0.047 C 
ENDROOT
BRANCH  19  28
ATOM     26  O   UNL     1      -4.881  -0.962   0.825  0.00  0.00    -0.445 OA
ATOM     27  O   UNL     1      -6.850  -1.289   1.873  0.00  0.00    -0.245 OA
ATOM     28  C   UNL     1      -4.066  -0.050   0.069  0.00  0.00    +0.209 C 
ATOM     29  C   UNL     1      -4.779   0.322  -1.220  0.00  0.00    +0.069 C 
ATOM     30  C   UNL     1      -6.154   0.835  -0.893  0.00  0.00    -0.038 C 
ATOM     31  C   UNL     1      -6.191  -0.672   1.042  0.00  0.00    +0.337 C 
ATOM     32  C   UNL     1      -6.802   0.405   0.209  0.00  0.00    +0.046 C 
ATOM     33  C   UNL     1      -6.703   1.816  -1.891  0.00  0.00    +0.026 C 
ATOM     34  C   UNL     1      -8.150   0.879   0.670  0.00  0.00    +0.037 C 
ENDBRANCH  19  28
BRANCH  17  35
ATOM     35  O   UNL     1       6.810   0.313   1.693  0.00  0.00    -0.382 OA
ATOM     36  H   UNL     1       6.395   0.702   2.479  0.00  0.00    +0.210 HD
ENDBRANCH  17  35
TORSDOF 2
