REMARK  Name = 11755199
REMARK  6 active torsions:
REMARK  status: ('A' for Active; 'I' for Inactive)
REMARK    1  A    between atoms: C_6  and  O_23
REMARK    2  A    between atoms: C_8  and  O_29
REMARK    3  A    between atoms: C_10  and  C_27
REMARK    4  A    between atoms: C_16  and  O_25
REMARK    5  A    between atoms: O_29  and  C_31
REMARK    6  A    between atoms: C_35  and  O_37
REMARK                            x       y       z     vdW  Elec       q    Type
REMARK                         _______ _______ _______ _____ _____    ______ ____
ROOT
ATOM      1  O   UNL     1       5.223   2.130   0.455  0.00  0.00    -0.291 OA
ATOM      2  O   UNL     1       4.351  -2.300  -0.805  0.00  0.00    -0.272 OA
ATOM      3  O   UNL     1       0.368  -4.381   0.413  0.00  0.00    -0.287 OA
ATOM      4  N   UNL     1       2.950  -0.437  -0.247  0.00  0.00    -0.251 N 
ATOM      5  C   UNL     1       0.124   1.052   0.400  0.00  0.00    +0.054 C 
ATOM      6  C   UNL     1       0.412  -0.304  -0.354  0.00  0.00    +0.140 C 
ATOM      7  C   UNL     1      -1.364   0.961   0.883  0.00  0.00    +0.038 C 
ATOM      8  C   UNL     1      -2.003  -0.153   0.056  0.00  0.00    +0.139 C 
ATOM      9  C   UNL     1      -0.845  -1.098  -0.048  0.00  0.00    +0.015 C 
ATOM     10  C   UNL     1       3.110   1.023  -0.083  0.00  0.00    +0.136 C 
ATOM     11  C   UNL     1       1.703  -1.089  -0.126  0.00  0.00    +0.063 C 
ATOM     12  C   UNL     1       1.142   1.477   1.452  0.00  0.00    -0.044 C 
ATOM     13  C   UNL     1       2.464   1.478   1.194  0.00  0.00    -0.010 C 
ATOM     14  C   UNL     1      -2.131   2.275   0.719  0.00  0.00    +0.003 C 
ATOM     15  C   UNL     1       4.623   1.115   0.118  0.00  0.00    +0.203 C 
ATOM     16  C   UNL     1       5.303  -0.177  -0.220  0.00  0.00    +0.210 C 
ATOM     17  C   UNL     1      -0.887  -2.405   0.221  0.00  0.00    +0.038 C 
ATOM     18  C   UNL     1       4.170  -1.134  -0.477  0.00  0.00    +0.261 C 
ATOM     19  C   UNL     1       1.638  -2.408   0.155  0.00  0.00    +0.055 C 
ATOM     20  C   UNL     1       0.678   1.951   2.804  0.00  0.00    +0.026 C 
ATOM     21  C   UNL     1       0.369  -3.164   0.260  0.00  0.00    +0.196 C 
ATOM     22  C   UNL     1       6.213  -0.034  -1.427  0.00  0.00    +0.047 C 
ENDROOT
BRANCH   6  23
ATOM     23  O   UNL     1       0.378  -0.056  -1.775  0.00  0.00    -0.377 OA
ATOM     24  H   UNL     1      -0.423   0.444  -1.997  0.00  0.00    +0.211 HD
ENDBRANCH   6  23
BRANCH  16  25
ATOM     25  O   UNL     1       6.022  -0.599   0.914  0.00  0.00    -0.372 OA
ATOM     26  H   UNL     1       5.418  -0.682   1.668  0.00  0.00    +0.211 HD
ENDBRANCH  16  25
BRANCH  10  27
ATOM     27  C   UNL     1       2.845   1.855  -1.344  0.00  0.00    +0.030 C 
ATOM     28  C   UNL     1       3.354   3.272  -1.180  0.00  0.00    +0.003 C 
ENDBRANCH  10  27
BRANCH   8  29
ATOM     29  O   UNL     1      -3.120  -0.714   0.723  0.00  0.00    -0.329 OA
BRANCH  29  31
ATOM     30  O   UNL     1      -4.608   0.686  -0.421  0.00  0.00    -0.331 OA
ATOM     31  C   UNL     1      -4.294  -0.664  -0.080  0.00  0.00    +0.235 C 
ATOM     32  C   UNL     1      -5.437  -1.282   0.720  0.00  0.00    +0.064 C 
ATOM     33  C   UNL     1      -6.751  -1.190  -0.049  0.00  0.00    +0.037 C 
ATOM     34  C   UNL     1      -5.766   0.788  -1.260  0.00  0.00    +0.144 C 
ATOM     35  C   UNL     1      -7.003   0.237  -0.536  0.00  0.00    +0.138 C 
ATOM     36  C   UNL     1      -5.912   2.252  -1.656  0.00  0.00    +0.035 C 
BRANCH  35  37
ATOM     37  O   UNL     1      -7.321   1.038   0.601  0.00  0.00    -0.382 OA
ATOM     38  H   UNL     1      -8.104   0.675   1.044  0.00  0.00    +0.210 HD
ENDBRANCH  35  37
ENDBRANCH  29  31
ENDBRANCH   8  29
TORSDOF 6
