REMARK  Name = 117604931
REMARK  2 active torsions:
REMARK  status: ('A' for Active; 'I' for Inactive)
REMARK    1  A    between atoms: C_11  and  C_23
REMARK    2  A    between atoms: C_12  and  C_14
REMARK                            x       y       z     vdW  Elec       q    Type
REMARK                         _______ _______ _______ _____ _____    ______ ____
ROOT
ATOM      1  O   UNL     1      -2.875  -2.307  -1.058  0.00  0.00    -0.270 OA
ATOM      2  N   UNL     1      -1.146  -1.274   0.130  0.00  0.00    -0.269 N 
ATOM      3  N   UNL     1       1.573  -0.760   0.052  0.00  0.00    -0.293 N 
ATOM      4  N   UNL     1       2.214  -2.813  -0.303  0.00  0.00    -0.132 NA
ATOM      5  N   UNL     1       3.326  -1.990  -0.327  0.00  0.00    -0.126 NA
ATOM      6  C   UNL     1      -0.271  -2.467   0.062  0.00  0.00    +0.134 C 
ATOM      7  C   UNL     1      -0.624  -0.118   0.888  0.00  0.00    +0.119 C 
ATOM      8  C   UNL     1       0.690   0.360   0.282  0.00  0.00    +0.130 C 
ATOM      9  C   UNL     1       1.160  -2.058  -0.069  0.00  0.00    +0.162 A 
ATOM     10  C   UNL     1      -0.480  -3.365   1.280  0.00  0.00    +0.030 C 
ATOM     11  C   UNL     1       2.918  -0.759  -0.112  0.00  0.00    +0.205 A 
ATOM     12  C   UNL     1      -2.429  -1.351  -0.425  0.00  0.00    +0.249 C 
ENDROOT
BRANCH  12  14
ATOM     13  F   UNL     1      -5.861   3.028   0.192  0.00  0.00    -0.204 F 
ATOM     14  C   UNL     1      -3.329  -0.202  -0.263  0.00  0.00    +0.054 C 
ATOM     15  C   UNL     1      -3.340   0.815  -1.217  0.00  0.00    +0.007 C 
ATOM     16  C   UNL     1      -4.174  -0.128   0.845  0.00  0.00    +0.007 C 
ATOM     17  C   UNL     1      -4.195   1.907  -1.063  0.00  0.00    +0.030 C 
ATOM     18  C   UNL     1      -5.029   0.963   0.999  0.00  0.00    +0.030 C 
ATOM     19  C   UNL     1      -5.039   1.981   0.045  0.00  0.00    +0.140 C 
ENDBRANCH  12  14
BRANCH  11  23
ATOM     20  S   UNL     1       5.455   0.293  -0.309  0.00  0.00    +0.060 S 
ATOM     21  N   UNL     1       3.334   1.605   0.141  0.00  0.00    -0.343 NA
ATOM     22  N   UNL     1       5.658   1.943  -0.119  0.00  0.00    -0.147 NA
ATOM     23  C   UNL     1       3.756   0.378  -0.075  0.00  0.00    +0.225 C 
ATOM     24  C   UNL     1       4.440   2.437   0.105  0.00  0.00    +0.072 C 
ATOM     25  C   UNL     1       4.266   3.884   0.318  0.00  0.00    +0.130 C 
ENDBRANCH  11  23
TORSDOF 2
