REMARK  Name = 11762505
REMARK  6 active torsions:
REMARK  status: ('A' for Active; 'I' for Inactive)
REMARK    1  A    between atoms: C_5  and  O_28
REMARK    2  A    between atoms: C_8  and  O_30
REMARK    3  A    between atoms: C_9  and  O_26
REMARK    4  A    between atoms: C_19  and  O_32
REMARK    5  A    between atoms: C_24  and  O_34
REMARK    6  A    between atoms: C_25  and  O_36
REMARK                            x       y       z     vdW  Elec       q    Type
REMARK                         _______ _______ _______ _____ _____    ______ ____
ROOT
ATOM      1  O   UNL     1      -0.465  -0.235  -1.566  0.00  0.00    -0.472 OA
ATOM      2  O   UNL     1      -4.266   0.538   1.291  0.00  0.00    -0.480 OA
ATOM      3  O   UNL     1       1.961  -1.583  -2.163  0.00  0.00    -0.472 OA
ATOM      4  O   UNL     1       1.126   3.362  -0.429  0.00  0.00    -0.288 OA
ATOM      5  C   UNL     1       1.513   1.245  -1.528  0.00  0.00    +0.205 C 
ATOM      6  C   UNL     1      -4.691  -0.829   1.145  0.00  0.00    +0.160 C 
ATOM      7  C   UNL     1       0.536   0.416  -2.360  0.00  0.00    +0.244 C 
ATOM      8  C   UNL     1      -4.396  -1.369  -0.272  0.00  0.00    +0.178 C 
ATOM      9  C   UNL     1      -2.924  -1.219  -0.656  0.00  0.00    +0.173 C 
ATOM     10  C   UNL     1      -2.358   0.100  -0.183  0.00  0.00    +0.075 C 
ATOM     11  C   UNL     1      -1.123   0.570  -0.675  0.00  0.00    +0.146 C 
ATOM     12  C   UNL     1      -0.606   1.788  -0.229  0.00  0.00    +0.105 C 
ATOM     13  C   UNL     1       0.716   2.239  -0.706  0.00  0.00    +0.210 C 
ATOM     14  C   UNL     1      -3.058   0.882   0.745  0.00  0.00    +0.143 C 
ATOM     15  C   UNL     1       2.418   0.343  -0.717  0.00  0.00    +0.049 C 
ATOM     16  C   UNL     1       1.310  -0.690  -3.075  0.00  0.00    +0.252 C 
ATOM     17  C   UNL     1      -4.027  -1.668   2.252  0.00  0.00    +0.046 C 
ATOM     18  C   UNL     1      -6.206  -0.815   1.415  0.00  0.00    +0.046 C 
ATOM     19  C   UNL     1      -1.322   2.569   0.679  0.00  0.00    +0.142 C 
ATOM     20  C   UNL     1       2.590  -0.999  -1.094  0.00  0.00    +0.141 C 
ATOM     21  C   UNL     1      -2.548   2.116   1.159  0.00  0.00    +0.074 C 
ATOM     22  C   UNL     1       3.131   0.821   0.394  0.00  0.00    +0.042 C 
ATOM     23  C   UNL     1       3.418  -1.846  -0.350  0.00  0.00    +0.077 C 
ATOM     24  C   UNL     1       3.964  -0.025   1.129  0.00  0.00    +0.172 C 
ATOM     25  C   UNL     1       4.104  -1.359   0.760  0.00  0.00    +0.175 C 
ENDROOT
BRANCH   9  26
ATOM     26  O   UNL     1      -2.184  -2.309  -0.110  0.00  0.00    -0.346 OA
ATOM     27  C   UNL     1      -2.703  -3.558  -0.544  0.00  0.00    +0.175 C 
ENDBRANCH   9  26
BRANCH   5  28
ATOM     28  O   UNL     1       2.317   2.016  -2.421  0.00  0.00    -0.372 OA
ATOM     29  H   UNL     1       1.748   2.599  -2.947  0.00  0.00    +0.211 HD
ENDBRANCH   5  28
BRANCH   8  30
ATOM     30  O   UNL     1      -5.158  -0.650  -1.247  0.00  0.00    -0.378 OA
ATOM     31  H   UNL     1      -6.102  -0.723  -1.037  0.00  0.00    +0.211 HD
ENDBRANCH   8  30
BRANCH  19  32
ATOM     32  O   UNL     1      -0.867   3.765   1.146  0.00  0.00    -0.505 OA
ATOM     33  H   UNL     1      -0.046   4.104   0.847  0.00  0.00    +0.292 HD
ENDBRANCH  19  32
BRANCH  24  34
ATOM     34  O   UNL     1       4.636   0.470   2.207  0.00  0.00    -0.468 OA
ATOM     35  C   UNL     1       3.978   0.395   3.470  0.00  0.00    +0.253 C 
ENDBRANCH  24  34
BRANCH  25  36
ATOM     36  O   UNL     1       4.910  -2.195   1.471  0.00  0.00    -0.468 OA
ATOM     37  C   UNL     1       6.273  -2.284   1.062  0.00  0.00    +0.253 C 
ENDBRANCH  25  36
TORSDOF 6
