REMARK  Name = 11762312
REMARK  11 active torsions:
REMARK  status: ('A' for Active; 'I' for Inactive)
REMARK    1  A    between atoms: C_1  and  C_12
REMARK    2  A    between atoms: C_1  and  N_21
REMARK    3  A    between atoms: C_1  and  C_36
REMARK    4  A    between atoms: C_7  and  C_15
REMARK    5  A    between atoms: C_10  and  O_18
REMARK    6  A    between atoms: C_22  and  C_24
REMARK    7  A    between atoms: C_24  and  O_25
REMARK    8  A    between atoms: C_24  and  C_27
REMARK    9  A    between atoms: C_27  and  C_28
REMARK   10  A    between atoms: C_33  and  O_34
REMARK   11  A    between atoms: C_36  and  C_37
REMARK                            x       y       z     vdW  Elec       q    Type
REMARK                         _______ _______ _______ _____ _____    ______ ____
ROOT
ATOM      1  C   UNL     1      -0.536  -0.552  -0.241  0.00  0.00    +0.149 C 
ENDROOT
BRANCH   1  12
ATOM      2  O   UNL     1      -0.624   1.576  -1.294  0.00  0.00    -0.273 OA
ATOM      3  N   UNL     1      -2.536   0.882  -0.191  0.00  0.00    -0.273 N 
ATOM      4  C   UNL     1      -4.137   1.054   1.515  0.00  0.00    +0.021 C 
ATOM      5  C   UNL     1      -3.236   0.043   0.792  0.00  0.00    +0.078 C 
ATOM      6  C   UNL     1      -4.561   1.999   0.386  0.00  0.00    +0.031 C 
ATOM      7  C   UNL     1      -3.313   2.084  -0.496  0.00  0.00    +0.152 C 
ATOM      8  C   UNL     1      -5.290   0.438   2.301  0.00  0.00    +0.004 C 
ATOM      9  C   UNL     1      -4.014  -1.083   0.099  0.00  0.00    +0.049 C 
ATOM     10  C   UNL     1      -5.047  -1.719   1.023  0.00  0.00    +0.112 C 
ATOM     11  C   UNL     1      -6.020  -0.671   1.554  0.00  0.00    +0.029 C 
ATOM     12  C   UNL     1      -1.227   0.731  -0.629  0.00  0.00    +0.244 C 
BRANCH   7  15
ATOM     13  O   UNL     1      -3.335   1.113  -2.678  0.00  0.00    -0.274 OA
ATOM     14  N   UNL     1      -4.404   3.127  -2.371  0.00  0.00    -0.327 N 
ATOM     15  C   UNL     1      -3.678   2.039  -1.947  0.00  0.00    +0.237 C 
ATOM     16  H   UNL     1      -4.693   3.191  -3.310  0.00  0.00    +0.145 HD
ATOM     17  H   UNL     1      -4.635   3.842  -1.735  0.00  0.00    +0.145 HD
ENDBRANCH   7  15
BRANCH  10  18
ATOM     18  O   UNL     1      -5.764  -2.706   0.288  0.00  0.00    -0.384 OA
ATOM     19  H   UNL     1      -5.144  -3.372  -0.049  0.00  0.00    +0.210 HD
ENDBRANCH  10  18
ENDBRANCH   1  12
BRANCH   1  21
ATOM     20  O   UNL     1       0.608   0.564   2.170  0.00  0.00    -0.272 OA
ATOM     21  N   UNL     1       0.825  -0.154  -0.030  0.00  0.00    -0.296 N 
ATOM     22  C   UNL     1       1.295   0.377   1.169  0.00  0.00    +0.250 C 
ATOM     23  H   UNL     1       1.461  -0.262  -0.773  0.00  0.00    +0.150 HD
BRANCH  22  24
ATOM     24  C   UNL     1       2.776   0.730   1.114  0.00  0.00    +0.191 C 
BRANCH  24  25
ATOM     25  O   UNL     1       3.136   1.326   2.352  0.00  0.00    -0.376 OA
ATOM     26  H   UNL     1       2.605   2.125   2.493  0.00  0.00    +0.211 HD
ENDBRANCH  24  25
BRANCH  24  27
ATOM     27  C   UNL     1       3.622  -0.530   0.903  0.00  0.00    +0.065 C 
BRANCH  27  28
ATOM     28  C   UNL     1       5.011  -0.204   0.407  0.00  0.00    -0.019 C 
ATOM     29  C   UNL     1       5.262  -0.124  -0.963  0.00  0.00    -0.001 C 
ATOM     30  C   UNL     1       6.042   0.018   1.320  0.00  0.00    -0.001 C 
ATOM     31  C   UNL     1       6.544   0.177  -1.420  0.00  0.00    +0.036 C 
ATOM     32  C   UNL     1       7.325   0.320   0.862  0.00  0.00    +0.036 C 
ATOM     33  C   UNL     1       7.576   0.399  -0.508  0.00  0.00    +0.134 C 
BRANCH  33  34
ATOM     34  O   UNL     1       8.827   0.694  -0.954  0.00  0.00    -0.506 OA
ATOM     35  H   UNL     1       8.996   0.747  -1.874  0.00  0.00    +0.292 HD
ENDBRANCH  33  34
ENDBRANCH  27  28
ENDBRANCH  24  27
ENDBRANCH  22  24
ENDBRANCH   1  21
BRANCH   1  36
ATOM     36  C   UNL     1      -0.688  -1.588  -1.349  0.00  0.00    +0.029 C 
BRANCH  36  37
ATOM     37  C   UNL     1      -0.528  -3.046  -0.876  0.00  0.00    +0.002 C 
ATOM     38  C   UNL     1       0.845  -3.312  -0.256  0.00  0.00    +0.000 C 
ATOM     39  C   UNL     1      -0.756  -4.000  -2.052  0.00  0.00    +0.000 C 
ENDBRANCH  36  37
ENDBRANCH   1  36
TORSDOF 11
