REMARK  Name = 117646079
REMARK  8 active torsions:
REMARK  status: ('A' for Active; 'I' for Inactive)
REMARK    1  A    between atoms: C_1  and  C_4
REMARK    2  A    between atoms: C_1  and  N_18
REMARK    3  A    between atoms: C_1  and  C_25
REMARK    4  A    between atoms: N_3  and  C_6
REMARK    5  A    between atoms: C_6  and  C_11
REMARK    6  A    between atoms: C_11  and  C_14
REMARK    7  A    between atoms: C_19  and  C_23
REMARK    8  A    between atoms: C_25  and  C_27
REMARK                            x       y       z     vdW  Elec       q    Type
REMARK                         _______ _______ _______ _____ _____    ______ ____
ROOT
ATOM      1  C   UNL     1      -0.702   0.342   0.081  0.00  0.00    +0.151 C 
ENDROOT
BRANCH   1   4
ATOM      2  O   UNL     1       0.999  -0.277   1.698  0.00  0.00    -0.273 OA
ATOM      3  N   UNL     1       1.629   0.952  -0.164  0.00  0.00    -0.299 N 
ATOM      4  C   UNL     1       0.716   0.276   0.637  0.00  0.00    +0.241 C 
ATOM      5  H   UNL     1       1.311   1.365  -0.999  0.00  0.00    +0.150 HD
BRANCH   3   6
ATOM      6  C   UNL     1       3.051   1.073   0.188  0.00  0.00    +0.117 C 
ATOM      7  C   UNL     1       3.288   2.054   1.377  0.00  0.00    +0.026 C 
ATOM      8  C   UNL     1       3.797   2.116  -0.698  0.00  0.00    +0.026 C 
ATOM      9  C   UNL     1       3.461   3.189   0.352  0.00  0.00    +0.004 C 
BRANCH   6  11
ATOM     10  O   UNL     1       3.983  -0.969   1.304  0.00  0.00    -0.285 OA
ATOM     11  C   UNL     1       3.707  -0.319   0.307  0.00  0.00    +0.241 C 
BRANCH  11  14
ATOM     12  O   UNL     1       5.163  -0.662  -1.494  0.00  0.00    -0.267 OA
ATOM     13  N   UNL     1       3.075  -1.694  -1.546  0.00  0.00    -0.323 N 
ATOM     14  C   UNL     1       4.066  -0.908  -1.021  0.00  0.00    +0.279 C 
ATOM     15  H   UNL     1       3.205  -2.133  -2.417  0.00  0.00    +0.145 HD
ATOM     16  H   UNL     1       2.233  -1.820  -1.051  0.00  0.00    +0.145 HD
ENDBRANCH  11  14
ENDBRANCH   6  11
ENDBRANCH   3   6
ENDBRANCH   1   4
BRANCH   1  18
ATOM     17  O   UNL     1      -0.682  -2.161  -1.382  0.00  0.00    -0.269 OA
ATOM     18  N   UNL     1      -1.359  -0.887   0.443  0.00  0.00    -0.294 N 
ATOM     19  C   UNL     1      -1.294  -2.042  -0.323  0.00  0.00    +0.284 C 
ATOM     20  H   UNL     1      -1.882  -0.909   1.277  0.00  0.00    +0.150 HD
BRANCH  19  23
ATOM     21  F   UNL     1      -2.114  -3.121   1.625  0.00  0.00    -0.195 F 
ATOM     22  F   UNL     1      -1.520  -4.380  -0.046  0.00  0.00    -0.195 F 
ATOM     23  C   UNL     1      -2.092  -3.184   0.265  0.00  0.00    +0.330 C 
ATOM     24  C   UNL     1      -3.520  -3.190  -0.242  0.00  0.00    +0.082 C 
ENDBRANCH  19  23
ENDBRANCH   1  18
BRANCH   1  25
ATOM     25  C   UNL     1      -1.434   1.571   0.624  0.00  0.00    +0.062 C 
BRANCH  25  27
ATOM     26  F   UNL     1      -3.515   0.525   0.461  0.00  0.00    -0.240 F 
ATOM     27  C   UNL     1      -2.858   1.669   0.119  0.00  0.00    +0.136 C 
ATOM     28  C   UNL     1      -3.633   2.856   0.672  0.00  0.00    +0.033 C 
ATOM     29  C   UNL     1      -2.970   1.859  -1.387  0.00  0.00    +0.033 C 
ATOM     30  C   UNL     1      -4.407   2.337  -1.588  0.00  0.00    +0.003 C 
ATOM     31  C   UNL     1      -4.833   2.974  -0.264  0.00  0.00    +0.003 C 
ENDBRANCH  25  27
ENDBRANCH   1  25
TORSDOF 8
