117604931
  -OEChem-03292013293D

 40 43  0     1  0  0  0  0  0999 V2000
    5.4545    0.2928   -0.3087 S   0  0  0  0  0  0  0  0  0  0  0  0
   -5.8609    3.0278    0.1922 F   0  0  0  0  0  0  0  0  0  0  0  0
   -2.8750   -2.3074   -1.0578 O   0  0  0  0  0  0  0  0  0  0  0  0
   -1.1456   -1.2737    0.1297 N   0  0  0  0  0  0  0  0  0  0  0  0
    1.5735   -0.7597    0.0521 N   0  0  0  0  0  0  0  0  0  0  0  0
    2.2144   -2.8133   -0.3029 N   0  0  0  0  0  0  0  0  0  0  0  0
    3.3265   -1.9901   -0.3269 N   0  0  0  0  0  0  0  0  0  0  0  0
    3.3337    1.6046    0.1412 N   0  0  0  0  0  0  0  0  0  0  0  0
    5.6579    1.9430   -0.1190 N   0  0  0  0  0  0  0  0  0  0  0  0
   -0.2710   -2.4666    0.0617 C   0  0  1  0  0  0  0  0  0  0  0  0
   -0.6240   -0.1181    0.8880 C   0  0  0  0  0  0  0  0  0  0  0  0
    0.6899    0.3601    0.2817 C   0  0  0  0  0  0  0  0  0  0  0  0
    1.1602   -2.0576   -0.0690 C   0  0  0  0  0  0  0  0  0  0  0  0
   -0.4799   -3.3654    1.2801 C   0  0  0  0  0  0  0  0  0  0  0  0
    2.9176   -0.7588   -0.1120 C   0  0  0  0  0  0  0  0  0  0  0  0
   -2.4292   -1.3513   -0.4247 C   0  0  0  0  0  0  0  0  0  0  0  0
   -3.3292   -0.2021   -0.2625 C   0  0  0  0  0  0  0  0  0  0  0  0
    3.7564    0.3783   -0.0748 C   0  0  0  0  0  0  0  0  0  0  0  0
   -3.3397    0.8154   -1.2166 C   0  0  0  0  0  0  0  0  0  0  0  0
   -4.1739   -0.1283    0.8451 C   0  0  0  0  0  0  0  0  0  0  0  0
   -4.1946    1.9067   -1.0631 C   0  0  0  0  0  0  0  0  0  0  0  0
   -5.0288    0.9631    0.9987 C   0  0  0  0  0  0  0  0  0  0  0  0
    4.4401    2.4365    0.1053 C   0  0  0  0  0  0  0  0  0  0  0  0
   -5.0390    1.9806    0.0446 C   0  0  0  0  0  0  0  0  0  0  0  0
    4.2662    3.8836    0.3176 C   0  0  0  0  0  0  0  0  0  0  0  0
   -0.5434   -3.0397   -0.8329 H   0  0  0  0  0  0  0  0  0  0  0  0
   -0.4760   -0.4519    1.9221 H   0  0  0  0  0  0  0  0  0  0  0  0
   -1.3336    0.7109    0.9174 H   0  0  0  0  0  0  0  0  0  0  0  0
    0.5262    0.8426   -0.6879 H   0  0  0  0  0  0  0  0  0  0  0  0
    1.1568    1.0626    0.9754 H   0  0  0  0  0  0  0  0  0  0  0  0
   -0.2021   -2.8570    2.2104 H   0  0  0  0  0  0  0  0  0  0  0  0
    0.1272   -4.2744    1.2064 H   0  0  0  0  0  0  0  0  0  0  0  0
   -1.5295   -3.6657    1.3684 H   0  0  0  0  0  0  0  0  0  0  0  0
   -2.6849    0.7680   -2.0829 H   0  0  0  0  0  0  0  0  0  0  0  0
   -4.1732   -0.9155    1.5946 H   0  0  0  0  0  0  0  0  0  0  0  0
   -4.2029    2.6992   -1.8056 H   0  0  0  0  0  0  0  0  0  0  0  0
   -5.6865    1.0210    1.8609 H   0  0  0  0  0  0  0  0  0  0  0  0
    3.2145    4.1332    0.4904 H   0  0  0  0  0  0  0  0  0  0  0  0
    4.6059    4.4466   -0.5576 H   0  0  0  0  0  0  0  0  0  0  0  0
    4.8385    4.2184    1.1886 H   0  0  0  0  0  0  0  0  0  0  0  0
  1  9  1  0  0  0  0
  1 18  1  0  0  0  0
  2 24  1  0  0  0  0
  3 16  2  0  0  0  0
  4 10  1  0  0  0  0
  4 11  1  0  0  0  0
  4 16  1  0  0  0  0
  5 12  1  0  0  0  0
  5 13  1  0  0  0  0
  5 15  1  0  0  0  0
  6  7  1  0  0  0  0
  6 13  2  0  0  0  0
  7 15  2  0  0  0  0
  8 18  2  0  0  0  0
  8 23  1  0  0  0  0
  9 23  2  0  0  0  0
 10 13  1  0  0  0  0
 10 14  1  0  0  0  0
 10 26  1  0  0  0  0
 11 12  1  0  0  0  0
 11 27  1  0  0  0  0
 11 28  1  0  0  0  0
 12 29  1  0  0  0  0
 12 30  1  0  0  0  0
 14 31  1  0  0  0  0
 14 32  1  0  0  0  0
 14 33  1  0  0  0  0
 15 18  1  0  0  0  0
 16 17  1  0  0  0  0
 17 19  2  0  0  0  0
 17 20  1  0  0  0  0
 19 21  1  0  0  0  0
 19 34  1  0  0  0  0
 20 22  2  0  0  0  0
 20 35  1  0  0  0  0
 21 24  2  0  0  0  0
 21 36  1  0  0  0  0
 22 24  1  0  0  0  0
 22 37  1  0  0  0  0
 23 25  1  0  0  0  0
 25 38  1  0  0  0  0
 25 39  1  0  0  0  0
 25 40  1  0  0  0  0
M  END
> <PUBCHEM_COMPOUND_CID>
117604931

> <PUBCHEM_CONFORMER_RMSD>
0.8

> <PUBCHEM_CONFORMER_DIVERSEORDER>
1
12
13
10
3
7
8
5
6
9
2
4
11

> <PUBCHEM_MMFF94_PARTIAL_CHARGES>
28
1 0.18
10 0.48
11 0.3
12 0.26
13 0.01
15 0.19
16 0.54
17 0.09
18 0.38
19 -0.15
2 -0.19
20 -0.15
21 -0.15
22 -0.15
23 0.34
24 0.19
25 0.18
3 -0.57
34 0.15
35 0.15
36 0.15
37 0.15
4 -0.66
5 0.05
6 -0.34
7 -0.34
8 -0.57
9 -0.51

> <PUBCHEM_EFFECTIVE_ROTOR_COUNT>
3.8

> <PUBCHEM_PHARMACOPHORE_FEATURES>
9
1 3 acceptor
1 8 acceptor
3 5 6 13 cation
3 5 7 15 cation
3 8 9 23 cation
5 1 8 9 18 23 rings
5 5 6 7 13 15 rings
6 17 19 20 21 22 24 rings
6 4 5 10 11 12 13 rings

> <PUBCHEM_HEAVY_ATOM_COUNT>
25

> <PUBCHEM_ATOM_DEF_STEREO_COUNT>
1

> <PUBCHEM_ATOM_UDEF_STEREO_COUNT>
0

> <PUBCHEM_BOND_DEF_STEREO_COUNT>
0

> <PUBCHEM_BOND_UDEF_STEREO_COUNT>
0

> <PUBCHEM_ISOTOPIC_ATOM_COUNT>
0

> <PUBCHEM_COMPONENT_COUNT>
1

> <PUBCHEM_CACTVS_TAUTO_COUNT>
7

> <PUBCHEM_CONFORMER_ID>
0702824300000001

> <PUBCHEM_MMFF94_ENERGY>
46.6483

> <PUBCHEM_FEATURE_SELFOVERLAP>
48.241

> <PUBCHEM_SHAPE_FINGERPRINT>
10411042 1 17473827225723368658
11595378 159 16515953788183429628
11796584 16 12463570651671198261
12107183 9 18261375764439210682
12293681 160 17988927755783926832
12390115 104 18338809986735869597
12403259 415 18335150773167887907
12422481 6 17458620116595771052
12769317 202 18341324535506213632
12788726 201 18048581901221444459
12925494 130 18190461550694014629
13103583 49 11314577667613513263
13590594 115 17547018424902096578
13944108 23 17622444944348873769
14251764 38 18121781900783087964
14251764 75 18270970055300224057
14713325 29 18119250820393874419
14790565 3 18338802315824552312
14848178 5 9367349214778411220
14848178 96 18413383246066865912
15142526 21 18261676991548567755
17834072 32 18410009948671719212
17959699 21 18413108389871855848
17980427 26 18263065665855091350
18335252 114 18267297625700355276
18608769 82 18268430312468428331
19246450 95 17537394559023344944
19784866 34 18409165481039964035
20238998 120 17472422527010616467
20645477 56 18260548926587635543
20715895 44 18412260636611367808
21033648 29 18408600396424779328
21279426 13 18342464738123208670
21304253 335 18334583429478773628
21315764 268 18189895310378335197
22122407 14 18052268293579761393
22393880 68 18130223860855724214
23227448 37 18411981381879333791
23559900 14 18272651221611701090
283562 15 18191297381257333331
2838139 119 18412822516869635700
335352 9 18411139126535388302
3472631 163 18343865494140457645
350125 39 18335702677177327156
376196 1 18269835475422465186
474 4 18411700971785545570
5104073 3 18186803543752270091
57724786 102 18199756834583930241
59124914 9 18409166610906182112
6034566 193 18046648951036508732
633830 44 18339073796581183535
636775 72 18124874823130155952
7288768 16 18113900481096620451
7808743 9 18336824294268552763
7970288 3 9151167654063223897
9981440 41 18266171915321271762

> <PUBCHEM_SHAPE_MULTIPOLES>
475.31
13.06
4.05
0.95
0.42
0.48
0.01
13.41
-0.26
1.39
0.4
-0.87
-0.11
0.47

> <PUBCHEM_SHAPE_SELFOVERLAP>
1028.744

> <PUBCHEM_SHAPE_VOLUME>
265.1

> <PUBCHEM_COORDINATE_TYPE>
2
5
10

$$$$
