REMARK  Name = 11779021
REMARK  6 active torsions:
REMARK  status: ('A' for Active; 'I' for Inactive)
REMARK    1  A    between atoms: C_2  and  O_18
REMARK    2  A    between atoms: C_2  and  C_22
REMARK    3  A    between atoms: C_3  and  O_20
REMARK    4  A    between atoms: C_4  and  N_6
REMARK    5  A    between atoms: C_5  and  C_24
REMARK    6  A    between atoms: C_24  and  O_25
REMARK                            x       y       z     vdW  Elec       q    Type
REMARK                         _______ _______ _______ _____ _____    ______ ____
ROOT
ATOM      1  O   UNL     1       1.414   0.864   1.208  0.00  0.00    -0.332 OA
ATOM      2  C   UNL     1       2.831  -0.715   0.111  0.00  0.00    +0.198 C 
ATOM      3  C   UNL     1       1.408  -0.875  -0.408  0.00  0.00    +0.196 C 
ATOM      4  C   UNL     1       0.594  -0.197   0.686  0.00  0.00    +0.226 C 
ATOM      5  C   UNL     1       2.780   0.678   0.757  0.00  0.00    +0.185 C 
ENDROOT
BRANCH   4   6
ATOM      6  N   UNL     1      -0.685   0.344   0.226  0.00  0.00    -0.247 N 
ATOM      7  N   UNL     1      -2.148   1.786  -0.642  0.00  0.00    -0.242 NA
ATOM      8  N   UNL     1      -2.174  -1.510   0.723  0.00  0.00    -0.228 NA
ATOM      9  N   UNL     1      -4.473  -0.997   0.087  0.00  0.00    -0.229 NA
ATOM     10  C   UNL     1      -1.900  -0.280   0.262  0.00  0.00    +0.152 C 
ATOM     11  C   UNL     1      -0.887   1.582  -0.325  0.00  0.00    +0.223 C 
ATOM     12  C   UNL     1      -2.793   0.630  -0.281  0.00  0.00    +0.140 C 
ATOM     13  C   UNL     1      -4.124   0.234  -0.361  0.00  0.00    +0.143 C 
ATOM     14  C   UNL     1      -3.491  -1.780   0.594  0.00  0.00    +0.253 C 
ATOM     15  N   UNL     1      -5.098   1.093  -0.899  0.00  0.00    -0.342 N 
ATOM     16  H   UNL     1      -6.037   0.802  -0.951  0.00  0.00    +0.144 HD
ATOM     17  H   UNL     1      -4.840   1.986  -1.225  0.00  0.00    +0.144 HD
ENDBRANCH   4   6
BRANCH   2  18
ATOM     18  O   UNL     1       3.097  -1.683   1.129  0.00  0.00    -0.371 OA
ATOM     19  H   UNL     1       2.437  -1.599   1.835  0.00  0.00    +0.212 HD
ENDBRANCH   2  18
BRANCH   3  20
ATOM     20  O   UNL     1       1.020  -2.229  -0.557  0.00  0.00    -0.377 OA
ATOM     21  H   UNL     1       1.550  -2.642  -1.257  0.00  0.00    +0.211 HD
ENDBRANCH   3  20
BRANCH   2  22
ATOM     22  C   UNL     1       3.841  -0.863  -0.940  0.00  0.00    -0.047 C 
ATOM     23  C   UNL     1       4.668  -0.985  -1.801  0.00  0.00    -0.012 C 
ENDBRANCH   2  22
BRANCH   5  24
ATOM     24  C   UNL     1       3.113   1.853  -0.158  0.00  0.00    +0.170 C 
BRANCH  24  25
ATOM     25  O   UNL     1       3.008   3.050   0.591  0.00  0.00    -0.379 OA
ATOM     26  H   UNL     1       3.217   3.807   0.022  0.00  0.00    +0.211 HD
ENDBRANCH  24  25
ENDBRANCH   5  24
TORSDOF 6
