REMARK  Name = 1177
REMARK  5 active torsions:
REMARK  status: ('A' for Active; 'I' for Inactive)
REMARK    1  A    between atoms: C2*_2  and  O2*_15
REMARK    2  A    between atoms: C3*_3  and  O3*_17
REMARK    3  A    between atoms: C1*_4  and  N1_8
REMARK    4  A    between atoms: C4*_5  and  C5*_19
REMARK    5  A    between atoms: C5*_19  and  O5*_20
REMARK                            x       y       z     vdW  Elec       q    Type
REMARK                         _______ _______ _______ _____ _____    ______ ____
ROOT
ATOM      1  O4* U   A   1      -1.295  -0.734  -0.736  0.00  0.00    -0.333 OA
ATOM      2  C2* U   A   1      -1.137   1.294   0.501  0.00  0.00    +0.187 C 
ATOM      3  C3* U   A   1      -2.583   0.856   0.429  0.00  0.00    +0.171 C 
ATOM      4  C1* U   A   1      -0.498   0.453  -0.593  0.00  0.00    +0.229 C 
ATOM      5  C4* U   A   1      -2.431  -0.625   0.136  0.00  0.00    +0.175 C 
ENDROOT
BRANCH   4   8
ATOM      6  O2  U   A   1       1.798   1.885  -1.402  0.00  0.00    -0.252 OA
ATOM      7  O4  U   A   1       4.619  -1.091   0.703  0.00  0.00    -0.270 OA
ATOM      8  N1  U   A   1       0.849   0.075  -0.270  0.00  0.00    -0.217 N 
ATOM      9  N3  U   A   1       3.201   0.401  -0.354  0.00  0.00    -0.236 N 
ATOM     10  C2  U   A   1       1.931   0.863  -0.726  0.00  0.00    +0.315 C 
ATOM     11  C6  U   A   1       1.085  -1.063   0.491  0.00  0.00    +0.076 C 
ATOM     12  C5  U   A   1       2.301  -1.490   0.838  0.00  0.00    +0.074 C 
ATOM     13  C4  U   A   1       3.487  -0.726   0.401  0.00  0.00    +0.254 C 
ATOM     14  H3  U   A   1       3.971   0.933  -0.660  0.00  0.00    +0.159 HD
ENDBRANCH   4   8
BRANCH   2  15
ATOM     15  O2* U   A   1      -1.015   2.679   0.234  0.00  0.00    -0.378 OA
ATOM     16  H2* U   A   1      -1.432   3.184   0.949  0.00  0.00    +0.211 HD
ENDBRANCH   2  15
BRANCH   3  17
ATOM     17  O3* U   A   1      -3.263   1.069   1.651  0.00  0.00    -0.379 OA
ATOM     18  H3* U   A   1      -3.346   2.021   1.814  0.00  0.00    +0.211 HD
ENDBRANCH   3  17
BRANCH   5  19
ATOM     19  C5* U   A   1      -3.650  -1.235  -0.532  0.00  0.00    +0.169 C 
BRANCH  19  20
ATOM     20  O5* U   A   1      -3.402  -2.611  -0.771  0.00  0.00    -0.379 OA
ATOM     21  H5* U   A   1      -4.176  -3.010  -1.197  0.00  0.00    +0.211 HD
ENDBRANCH  19  20
ENDBRANCH   5  19
TORSDOF 5
