11778945
  -OEChem-03292013303D

 35 36  0     0  0  0  0  0  0999 V2000
   -1.2576    1.0337    2.2070 O   0  0  0  0  0  0  0  0  0  0  0  0
   -2.4258   -1.9922    1.2474 O   0  0  0  0  0  0  0  0  0  0  0  0
   -2.5880    2.4509   -0.5606 O   0  0  0  0  0  0  0  0  0  0  0  0
    5.4154    1.7699   -0.5472 O   0  0  0  0  0  0  0  0  0  0  0  0
    6.1449   -0.7840   -1.3670 O   0  0  0  0  0  0  0  0  0  0  0  0
   -6.0091   -0.6935   -1.6102 O   0  0  0  0  0  0  0  0  0  0  0  0
    1.2570    0.0361    1.3310 C   0  0  0  0  0  0  0  0  0  0  0  0
    0.1150    0.3294    0.3552 C   0  0  0  0  0  0  0  0  0  0  0  0
    2.5633   -0.1794    0.6113 C   0  0  0  0  0  0  0  0  0  0  0  0
   -1.2351    0.5644    1.0531 C   0  0  0  0  0  0  0  0  0  0  0  0
   -2.4763    0.2374    0.3603 C   0  0  0  0  0  0  0  0  0  0  0  0
    3.3920    0.9049    0.3628 C   0  0  0  0  0  0  0  0  0  0  0  0
    2.9161   -1.4587    0.2075 C   0  0  0  0  0  0  0  0  0  0  0  0
   -3.0291   -1.0373    0.4842 C   0  0  0  0  0  0  0  0  0  0  0  0
   -3.1106    1.1992   -0.4259 C   0  0  0  0  0  0  0  0  0  0  0  0
    4.6007    0.7054   -0.3040 C   0  0  0  0  0  0  0  0  0  0  0  0
    4.1248   -1.6582   -0.4595 C   0  0  0  0  0  0  0  0  0  0  0  0
    4.9671   -0.5761   -0.7152 C   0  0  0  0  0  0  0  0  0  0  0  0
   -4.2164   -1.3500   -0.1780 C   0  0  0  0  0  0  0  0  0  0  0  0
   -4.2977    0.8864   -1.0881 C   0  0  0  0  0  0  0  0  0  0  0  0
   -4.8507   -0.3883   -0.9641 C   0  0  0  0  0  0  0  0  0  0  0  0
    1.3655    0.8597    2.0486 H   0  0  0  0  0  0  0  0  0  0  0  0
    1.0135   -0.8458    1.9377 H   0  0  0  0  0  0  0  0  0  0  0  0
    0.0012   -0.5066   -0.3457 H   0  0  0  0  0  0  0  0  0  0  0  0
    0.3353    1.2277   -0.2342 H   0  0  0  0  0  0  0  0  0  0  0  0
    3.1086    1.9050    0.6802 H   0  0  0  0  0  0  0  0  0  0  0  0
    2.2657   -2.3072    0.4003 H   0  0  0  0  0  0  0  0  0  0  0  0
    4.3976   -2.6618   -0.7747 H   0  0  0  0  0  0  0  0  0  0  0  0
   -4.6423   -2.3453   -0.0774 H   0  0  0  0  0  0  0  0  0  0  0  0
   -4.7986    1.6303   -1.7028 H   0  0  0  0  0  0  0  0  0  0  0  0
   -1.6218   -1.6412    1.6624 H   0  0  0  0  0  0  0  0  0  0  0  0
   -3.1643    2.9757   -1.1422 H   0  0  0  0  0  0  0  0  0  0  0  0
    6.2058    1.4493   -1.0156 H   0  0  0  0  0  0  0  0  0  0  0  0
    6.2299   -1.7307   -1.5735 H   0  0  0  0  0  0  0  0  0  0  0  0
   -6.2464   -1.6160   -1.4132 H   0  0  0  0  0  0  0  0  0  0  0  0
  1 10  2  0  0  0  0
  2 14  1  0  0  0  0
  2 31  1  0  0  0  0
  3 15  1  0  0  0  0
  3 32  1  0  0  0  0
  4 16  1  0  0  0  0
  4 33  1  0  0  0  0
  5 18  1  0  0  0  0
  5 34  1  0  0  0  0
  6 21  1  0  0  0  0
  6 35  1  0  0  0  0
  7  8  1  0  0  0  0
  7  9  1  0  0  0  0
  7 22  1  0  0  0  0
  7 23  1  0  0  0  0
  8 10  1  0  0  0  0
  8 24  1  0  0  0  0
  8 25  1  0  0  0  0
  9 12  2  0  0  0  0
  9 13  1  0  0  0  0
 10 11  1  0  0  0  0
 11 14  2  0  0  0  0
 11 15  1  0  0  0  0
 12 16  1  0  0  0  0
 12 26  1  0  0  0  0
 13 17  2  0  0  0  0
 13 27  1  0  0  0  0
 14 19  1  0  0  0  0
 15 20  2  0  0  0  0
 16 18  2  0  0  0  0
 17 18  1  0  0  0  0
 17 28  1  0  0  0  0
 19 21  2  0  0  0  0
 19 29  1  0  0  0  0
 20 21  1  0  0  0  0
 20 30  1  0  0  0  0
M  END
> <PUBCHEM_COMPOUND_CID>
11778945

> <PUBCHEM_CONFORMER_RMSD>
0.6

> <PUBCHEM_CONFORMER_DIVERSEORDER>
2
57
18
39
41
52
15
42
36
31
21
35
40
44
37
17
47
30
56
16
34
5
53
48
7
33
43
4
27
54
45
25
50
46
8
11
49
55
10
13
3
20
23
12
1
58
14
51
6
32
22
9
38
19
24
26
29
28

> <PUBCHEM_MMFF94_PARTIAL_CHARGES>
31
1 -0.57
10 0.42
11 0.09
12 -0.15
13 -0.15
14 0.08
15 0.08
16 0.08
17 -0.15
18 0.08
19 -0.15
2 -0.53
20 -0.15
21 0.08
26 0.15
27 0.15
28 0.15
29 0.15
3 -0.53
30 0.15
31 0.45
32 0.45
33 0.45
34 0.45
35 0.45
4 -0.53
5 -0.53
6 -0.53
7 0.14
8 0.06
9 -0.14

> <PUBCHEM_EFFECTIVE_ROTOR_COUNT>
4

> <PUBCHEM_PHARMACOPHORE_FEATURES>
8
1 1 acceptor
1 2 donor
1 3 donor
1 4 donor
1 5 donor
1 6 donor
6 11 14 15 19 20 21 rings
6 9 12 13 16 17 18 rings

> <PUBCHEM_HEAVY_ATOM_COUNT>
21

> <PUBCHEM_ATOM_DEF_STEREO_COUNT>
0

> <PUBCHEM_ATOM_UDEF_STEREO_COUNT>
0

> <PUBCHEM_BOND_DEF_STEREO_COUNT>
0

> <PUBCHEM_BOND_UDEF_STEREO_COUNT>
0

> <PUBCHEM_ISOTOPIC_ATOM_COUNT>
0

> <PUBCHEM_COMPONENT_COUNT>
1

> <PUBCHEM_CACTVS_TAUTO_COUNT>
705

> <PUBCHEM_CONFORMER_ID>
00B3BB8100000002

> <PUBCHEM_MMFF94_ENERGY>
58.3155

> <PUBCHEM_FEATURE_SELFOVERLAP>
40.603

> <PUBCHEM_SHAPE_FINGERPRINT>
10014705 185 15502381131558032521
10498660 4 17894910724216753632
11089746 13 16515683364674107196
11543360 7 18408322177006450360
12553582 1 16056875827761351632
12596602 18 14405180673129759882
12670546 177 18409167688557896812
13668630 136 17346882243243839334
13675066 3 9367349219542597896
14420673 8 11167403707278595236
14528608 73 18259704510584976884
14576447 43 18060422379137524442
14849402 71 11959141148931761106
15183329 4 18261388918895227019
15188451 53 13254782539313455221
15209289 33 14045741538605804613
15348495 7 9871457729903000566
15463212 79 16733255829000266347
15475509 84 12108326197986406766
15575132 122 16951395534816773005
15961568 22 17749390438171157460
16994733 274 15358241678003970021
17780758 139 12607404351901323958
17844677 252 16630807711932015528
17870717 6 18412827971604877527
1813 80 15626227943831205752
18222031 100 16128650877349267185
19784866 240 17060053787778404631
200 152 17775283859051350059
20645477 70 17988926648278560174
20871999 31 18408602539639352873
21637258 2 15769480020270153983
221357 26 18413384336967310445
22393880 68 18408322160079937946
22646028 1 16630526219954516802
23559900 14 18337102492407262801
23596394 208 18341609317844716416
2767999 5 15502370136457644204
2871803 45 18412824685749226266
29717793 49 17989493991946407116
3004659 81 18343298141861570050
312423 11 16630530652308272848
312425 54 11095884886569407157
34797466 226 18410015476410810404
351380 3 16702018686132044775
3737641 26 13541925459984833396
4259306 186 17775286049595576990
465052 167 16558747961651478733
7970288 3 16702300156814009654
960060 61 18272929440417028324

> <PUBCHEM_SHAPE_MULTIPOLES>
396.95
14.13
1.79
1.38
6.17
0.13
0.27
-1.81
-7.75
-0.13
-0.08
-0.66
0.05
0.4

> <PUBCHEM_SHAPE_SELFOVERLAP>
856.755

> <PUBCHEM_SHAPE_VOLUME>
217.9

> <PUBCHEM_COORDINATE_TYPE>
2
5
10

$$$$
