11779374
  -OEChem-03292013303D

 35 37  0     1  0  0  0  0  0999 V2000
   -2.2235    2.9546   -0.7651 S   0  0  0  0  0  0  0  0  0  0  0  0
   -1.5924   -0.0342   -1.0753 O   0  0  0  0  0  0  0  0  0  0  0  0
   -1.8367   -2.8236    1.1718 O   0  0  0  0  0  0  0  0  0  0  0  0
   -3.9627   -1.8100   -0.2072 O   0  0  0  0  0  0  0  0  0  0  0  0
    1.2755   -2.1840   -0.5185 N   0  0  0  0  0  0  0  0  0  0  0  0
    2.5808   -1.8858   -0.3615 N   0  0  0  0  0  0  0  0  0  0  0  0
    0.8992    1.2160    0.1095 N   0  0  0  0  0  0  0  0  0  0  0  0
    3.3439    1.6038    0.3705 N   0  0  0  0  0  0  0  0  0  0  0  0
    5.0062   -0.1332    0.1616 N   0  0  0  0  0  0  0  0  0  0  0  0
   -1.7868   -1.4597    0.8042 C   0  0  2  0  0  0  0  0  0  0  0  0
   -3.1561   -0.8763    0.5106 C   0  0  1  0  0  0  0  0  0  0  0  0
   -1.0640   -1.2550   -0.5186 C   0  0  2  0  0  0  0  0  0  0  0  0
   -2.8228    0.3042   -0.3956 C   0  0  1  0  0  0  0  0  0  0  0  0
    0.4333   -1.1241   -0.3778 C   0  0  0  0  0  0  0  0  0  0  0  0
   -2.6033    1.5987    0.3745 C   0  0  0  0  0  0  0  0  0  0  0  0
    1.2516   -0.0691   -0.1117 C   0  0  0  0  0  0  0  0  0  0  0  0
    2.5994   -0.5662   -0.1052 C   0  0  0  0  0  0  0  0  0  0  0  0
    3.6716    0.3011    0.1438 C   0  0  0  0  0  0  0  0  0  0  0  0
   -2.0318    4.2789    0.4507 C   0  0  0  0  0  0  0  0  0  0  0  0
    2.0186    1.9638    0.3391 C   0  0  0  0  0  0  0  0  0  0  0  0
   -1.3101   -0.8929    1.6134 H   0  0  0  0  0  0  0  0  0  0  0  0
   -1.2904   -2.0644   -1.2247 H   0  0  0  0  0  0  0  0  0  0  0  0
   -3.7093   -0.5967    1.4122 H   0  0  0  0  0  0  0  0  0  0  0  0
   -3.5984    0.4371   -1.1599 H   0  0  0  0  0  0  0  0  0  0  0  0
   -1.7666    1.4992    1.0728 H   0  0  0  0  0  0  0  0  0  0  0  0
   -3.5043    1.8549    0.9414 H   0  0  0  0  0  0  0  0  0  0  0  0
   -0.9214   -3.1330    1.2799 H   0  0  0  0  0  0  0  0  0  0  0  0
   -4.0546   -2.6003    0.3520 H   0  0  0  0  0  0  0  0  0  0  0  0
    1.0318   -3.1452   -0.7215 H   0  0  0  0  0  0  0  0  0  0  0  0
   -1.7941    5.2117   -0.0674 H   0  0  0  0  0  0  0  0  0  0  0  0
   -1.2158    4.0473    1.1402 H   0  0  0  0  0  0  0  0  0  0  0  0
   -2.9597    4.4195    1.0112 H   0  0  0  0  0  0  0  0  0  0  0  0
    1.8319    3.0172    0.5282 H   0  0  0  0  0  0  0  0  0  0  0  0
    5.2282   -1.1047   -0.0083 H   0  0  0  0  0  0  0  0  0  0  0  0
    5.7417    0.5350    0.3474 H   0  0  0  0  0  0  0  0  0  0  0  0
  1 15  1  0  0  0  0
  1 19  1  0  0  0  0
  2 12  1  0  0  0  0
  2 13  1  0  0  0  0
  3 10  1  0  0  0  0
  3 27  1  0  0  0  0
  4 11  1  0  0  0  0
  4 28  1  0  0  0  0
  5  6  1  0  0  0  0
  5 14  1  0  0  0  0
  5 29  1  0  0  0  0
  6 17  2  0  0  0  0
  7 16  1  0  0  0  0
  7 20  2  0  0  0  0
  8 18  2  0  0  0  0
  8 20  1  0  0  0  0
  9 18  1  0  0  0  0
  9 34  1  0  0  0  0
  9 35  1  0  0  0  0
 10 11  1  0  0  0  0
 10 12  1  0  0  0  0
 10 21  1  0  0  0  0
 11 13  1  0  0  0  0
 11 23  1  0  0  0  0
 12 14  1  0  0  0  0
 12 22  1  0  0  0  0
 13 15  1  0  0  0  0
 13 24  1  0  0  0  0
 14 16  2  0  0  0  0
 15 25  1  0  0  0  0
 15 26  1  0  0  0  0
 16 17  1  0  0  0  0
 17 18  1  0  0  0  0
 19 30  1  0  0  0  0
 19 31  1  0  0  0  0
 19 32  1  0  0  0  0
 20 33  1  0  0  0  0
M  END
> <PUBCHEM_COMPOUND_CID>
11779374

> <PUBCHEM_CONFORMER_RMSD>
0.6

> <PUBCHEM_CONFORMER_DIVERSEORDER>
1
56
29
50
25
28
21
62
38
12
9
37
65
27
54
43
42
22
35
23
46
11
32
36
19
59
20
63
18
5
31
3
24
10
17
26
30
13
2
48
64
57
39
41
8
52
33
51
60
34
40
45
55
61
7
14
15
47
53
4
6
58
16
49
44

> <PUBCHEM_MMFF94_PARTIAL_CHARGES>
26
1 -0.46
10 0.28
11 0.28
12 0.46
13 0.28
14 -0.33
15 0.23
16 0.26
17 0.29
18 0.41
19 0.23
2 -0.56
20 0.47
27 0.4
28 0.4
29 0.27
3 -0.68
33 0.15
34 0.4
35 0.4
4 -0.68
5 0.3
6 -0.71
7 -0.57
8 -0.62
9 -0.9

> <PUBCHEM_EFFECTIVE_ROTOR_COUNT>
4

> <PUBCHEM_PHARMACOPHORE_FEATURES>
14
1 19 hydrophobe
1 2 acceptor
1 3 acceptor
1 3 donor
1 4 acceptor
1 4 donor
1 5 donor
1 6 acceptor
1 9 donor
3 7 8 20 cation
3 8 9 18 cation
5 2 10 11 12 13 rings
5 5 6 14 16 17 rings
6 7 8 16 17 18 20 rings

> <PUBCHEM_HEAVY_ATOM_COUNT>
20

> <PUBCHEM_ATOM_DEF_STEREO_COUNT>
4

> <PUBCHEM_ATOM_UDEF_STEREO_COUNT>
0

> <PUBCHEM_BOND_DEF_STEREO_COUNT>
0

> <PUBCHEM_BOND_UDEF_STEREO_COUNT>
0

> <PUBCHEM_ISOTOPIC_ATOM_COUNT>
0

> <PUBCHEM_COMPONENT_COUNT>
1

> <PUBCHEM_CACTVS_TAUTO_COUNT>
8

> <PUBCHEM_CONFORMER_ID>
00B3BD2E00000001

> <PUBCHEM_MMFF94_ENERGY>
52.4752

> <PUBCHEM_FEATURE_SELFOVERLAP>
71.293

> <PUBCHEM_SHAPE_FINGERPRINT>
10366900 7 18335706103981376818
10608611 8 18411417284800177654
10670039 82 18263938777478279708
10967382 1 18123468542544410125
12403259 226 18199463432055452384
12730499 353 17468757386762066069
13140716 1 18265337398305054568
13464514 151 18196091032546087844
138480 1 15960616518423696681
14223421 5 18412267237353193501
15196674 1 18412543240842476744
15442244 35 18266457599101700506
16945 1 18409738386395274647
17802600 8 18341890835296346018
19049666 15 18337393729654570598
19930381 70 17908134735385084201
200 152 18059286677830690463
20510252 161 18408322168717046569
21279426 13 18197784289628698070
21524375 3 17903921059251392517
22182313 1 18059301955282251806
22182937 141 18198065776905059721
23402539 116 18339354271157555223
23493267 7 18261950765590718786
23557571 272 18408044030645211895
23558518 356 18263369096835578125
23559900 14 18263357147851510234
23845131 108 17686350768206027849
2748010 2 18199472078041066086
5939293 188 16394930234271710373
81228 2 18114192921256530789
8809292 202 18407479959641918696
9709674 26 18411704291784995038

> <PUBCHEM_SHAPE_MULTIPOLES>
372.93
6.94
3.8
0.86
4.9
2.85
0.01
0.86
0.39
-3.54
0.54
-0.38
-0.1
0.68

> <PUBCHEM_SHAPE_SELFOVERLAP>
786.926

> <PUBCHEM_SHAPE_VOLUME>
213.1

> <PUBCHEM_COORDINATE_TYPE>
2
5
10

$$$$
