REMARK  Name = 11777784
REMARK  5 active torsions:
REMARK  status: ('A' for Active; 'I' for Inactive)
REMARK    1  A    between atoms: C_6  and  O_14
REMARK    2  A    between atoms: C_10  and  O_16
REMARK    3  A    between atoms: C_11  and  O_18
REMARK    4  A    between atoms: C_12  and  C_21
REMARK    5  A    between atoms: C_21  and  O_22
REMARK                            x       y       z     vdW  Elec       q    Type
REMARK                         _______ _______ _______ _____ _____    ______ ____
ROOT
ATOM      1  O   UNL     1      -2.948   1.098  -0.548  0.00  0.00    -0.329 OA
ATOM      2  C   UNL     1      -2.263  -1.201  -0.138  0.00  0.00    +0.049 C 
ATOM      3  C   UNL     1      -3.231  -0.063   0.236  0.00  0.00    +0.122 C 
ATOM      4  C   UNL     1      -0.829  -0.724  -0.080  0.00  0.00    -0.018 A 
ATOM      5  C   UNL     1      -0.536   0.643  -0.222  0.00  0.00    +0.063 A 
ATOM      6  C   UNL     1      -1.643   1.661  -0.379  0.00  0.00    +0.259 C 
ATOM      7  C   UNL     1       0.217  -1.644   0.084  0.00  0.00    +0.008 A 
ATOM      8  C   UNL     1      -2.564  -1.727  -1.547  0.00  0.00    +0.007 C 
ATOM      9  C   UNL     1      -3.272   0.236   1.736  0.00  0.00    +0.032 C 
ATOM     10  C   UNL     1       0.802   1.065  -0.201  0.00  0.00    +0.143 A 
ATOM     11  C   UNL     1       1.542  -1.211   0.107  0.00  0.00    +0.138 A 
ATOM     12  C   UNL     1       1.835   0.142  -0.037  0.00  0.00    +0.142 A 
ATOM     13  C   UNL     1      -0.061  -3.107   0.245  0.00  0.00    +0.034 C 
ENDROOT
BRANCH   6  14
ATOM     14  O   UNL     1      -1.606   2.562   0.726  0.00  0.00    -0.357 OA
ATOM     15  H   UNL     1      -2.314   3.219   0.632  0.00  0.00    +0.213 HD
ENDBRANCH   6  14
BRANCH  10  16
ATOM     16  O   UNL     1       1.103   2.390  -0.348  0.00  0.00    -0.505 OA
ATOM     17  H   UNL     1       0.416   3.017  -0.458  0.00  0.00    +0.292 HD
ENDBRANCH  10  16
BRANCH  11  18
ATOM     18  O   UNL     1       2.552  -2.116   0.268  0.00  0.00    -0.506 OA
ATOM     19  H   UNL     1       2.354  -3.026   0.365  0.00  0.00    +0.292 HD
ENDBRANCH  11  18
BRANCH  12  21
ATOM     20  O   UNL     1       3.634   1.577  -0.626  0.00  0.00    -0.245 OA
ATOM     21  C   UNL     1       3.222   0.594  -0.019  0.00  0.00    +0.344 C 
BRANCH  21  22
ATOM     22  O   UNL     1       4.048  -0.176   0.743  0.00  0.00    -0.477 OA
ATOM     23  H   UNL     1       3.707  -0.922   1.197  0.00  0.00    +0.295 HD
ENDBRANCH  21  22
ENDBRANCH  12  21
TORSDOF 5
