REMARK  Name = 11778669
REMARK  6 active torsions:
REMARK  status: ('A' for Active; 'I' for Inactive)
REMARK    1  A    between atoms: CA_3  and  C_23
REMARK    2  A    between atoms: CG_6  and  OD_20
REMARK    3  A    between atoms: C_7  and  CA_10
REMARK    4  A    between atoms: C_14  and  CA_15
REMARK    5  A    between atoms: CA_15  and  N_16
REMARK    6  A    between atoms: C_23  and  O_24
REMARK                            x       y       z     vdW  Elec       q    Type
REMARK                         _______ _______ _______ _____ _____    ______ ____
ROOT
ATOM      1  O   PRO A   2      -0.312  -1.037  -1.200  0.00  0.00    -0.273 OA
ATOM      2  N   HYP A   3       1.203   0.178   0.060  0.00  0.00    -0.268 N 
ATOM      3  CA  HYP A   3       2.237   0.263  -0.963  0.00  0.00    +0.177 C 
ATOM      4  CD  HYP A   3       1.585   0.913   1.263  0.00  0.00    +0.123 C 
ATOM      5  CB  HYP A   3       3.159   1.375  -0.484  0.00  0.00    +0.062 C 
ATOM      6  CG  HYP A   3       3.039   1.310   1.039  0.00  0.00    +0.132 C 
ATOM      7  C   PRO A   2      -0.025  -0.424  -0.171  0.00  0.00    +0.244 C 
ENDROOT
BRANCH   7  10
ATOM      8  O   GLY A   1      -2.289   1.851  -0.486  0.00  0.00    -0.277 OA
ATOM      9  N   PRO A   2      -2.348  -0.314   0.330  0.00  0.00    -0.275 N 
ATOM     10  CA  PRO A   2      -1.024  -0.297   0.939  0.00  0.00    +0.152 C 
ATOM     11  CB  PRO A   2      -1.006  -1.513   1.858  0.00  0.00    +0.031 C 
ATOM     12  CG  PRO A   2      -1.966  -2.487   1.178  0.00  0.00    +0.024 C 
ATOM     13  CD  PRO A   2      -3.035  -1.575   0.596  0.00  0.00    +0.094 C 
ATOM     14  C   GLY A   1      -2.901   0.803  -0.278  0.00  0.00    +0.204 C 
BRANCH  14  15
ATOM     15  CA  GLY A   1      -4.343   0.665  -0.699  0.00  0.00    +0.001 C 
BRANCH  15  16
ATOM     16  N   GLY A   1      -4.708   1.924  -1.311  0.00  0.00    +0.386 N 
ATOM     17  H1  GLY A   1      -5.680   1.884  -1.616  0.00  0.00    -0.089 HD
ATOM     18  H2  GLY A   1      -4.106   2.097  -2.116  0.00  0.00    -0.089 HD
ATOM     19  H3  GLY A   1      -4.595   2.677  -0.633  0.00  0.00    -0.089 HD
ENDBRANCH  15  16
ENDBRANCH  14  15
ENDBRANCH   7  10
BRANCH   6  20
ATOM     20  OD  HYP A   3       3.334   2.568   1.613  0.00  0.00    -0.383 OA
ATOM     21  HD  HYP A   3       3.254   2.510   2.578  0.00  0.00    +0.210 HD
ENDBRANCH   6  20
BRANCH   3  23
ATOM     22  OXT HYP A   3       3.061  -1.816  -0.043  0.00  0.00    -0.248 OA
ATOM     23  C   HYP A   3       2.932  -1.065  -0.999  0.00  0.00    +0.332 C 
BRANCH  23  24
ATOM     24  O   HYP A   3       3.406  -1.323  -2.242  0.00  0.00    -0.479 OA
ATOM     25  H   HYP A   3       3.274  -0.703  -2.932  0.00  0.00    +0.295 HD
ENDBRANCH  23  24
ENDBRANCH   3  23
TORSDOF 6
