REMARK  Name = 11779374
REMARK  5 active torsions:
REMARK  status: ('A' for Active; 'I' for Inactive)
REMARK    1  A    between atoms: C_6  and  C_17
REMARK    2  A    between atoms: C_15  and  O_19
REMARK    3  A    between atoms: C_16  and  O_21
REMARK    4  A    between atoms: C_18  and  C_23
REMARK    5  A    between atoms: C_23  and  S_24
REMARK                            x       y       z     vdW  Elec       q    Type
REMARK                         _______ _______ _______ _____ _____    ______ ____
ROOT
ATOM      1  N   UNL     1       1.276  -2.184  -0.518  0.00  0.00    -0.251 N 
ATOM      2  N   UNL     1       2.581  -1.886  -0.361  0.00  0.00    -0.181 NA
ATOM      3  N   UNL     1       0.899   1.216   0.110  0.00  0.00    -0.245 NA
ATOM      4  N   UNL     1       3.344   1.604   0.370  0.00  0.00    -0.229 NA
ATOM      5  N   UNL     1       5.006  -0.133   0.162  0.00  0.00    -0.342 N 
ATOM      6  C   UNL     1       0.433  -1.124  -0.378  0.00  0.00    +0.158 C 
ATOM      7  C   UNL     1       1.252  -0.069  -0.112  0.00  0.00    +0.099 C 
ATOM      8  C   UNL     1       2.599  -0.566  -0.105  0.00  0.00    +0.144 C 
ATOM      9  C   UNL     1       3.672   0.301   0.144  0.00  0.00    +0.143 C 
ATOM     10  C   UNL     1       2.019   1.964   0.339  0.00  0.00    +0.252 C 
ATOM     11  H   UNL     1       0.957  -3.094  -0.719  0.00  0.00    +0.169 HD
ATOM     12  H   UNL     1       5.731   0.509   0.341  0.00  0.00    +0.144 HD
ATOM     13  H   UNL     1       5.218  -1.080  -0.005  0.00  0.00    +0.144 HD
ENDROOT
BRANCH   6  17
ATOM     14  O   UNL     1      -1.592  -0.034  -1.075  0.00  0.00    -0.351 OA
ATOM     15  C   UNL     1      -1.787  -1.460   0.804  0.00  0.00    +0.169 C 
ATOM     16  C   UNL     1      -3.156  -0.876   0.511  0.00  0.00    +0.168 C 
ATOM     17  C   UNL     1      -1.064  -1.255  -0.519  0.00  0.00    +0.169 C 
ATOM     18  C   UNL     1      -2.823   0.304  -0.396  0.00  0.00    +0.155 C 
BRANCH  15  19
ATOM     19  O   UNL     1      -1.837  -2.824   1.172  0.00  0.00    -0.379 OA
ATOM     20  H   UNL     1      -2.303  -2.914   2.017  0.00  0.00    +0.211 HD
ENDBRANCH  15  19
BRANCH  16  21
ATOM     21  O   UNL     1      -3.963  -1.810  -0.207  0.00  0.00    -0.379 OA
ATOM     22  H   UNL     1      -4.176  -2.562   0.367  0.00  0.00    +0.211 HD
ENDBRANCH  16  21
BRANCH  18  23
ATOM     23  C   UNL     1      -2.603   1.599   0.374  0.00  0.00    +0.090 C 
BRANCH  23  24
ATOM     24  S   UNL     1      -2.224   2.955  -0.765  0.00  0.00    -0.137 S 
ATOM     25  C   UNL     1      -2.032   4.279   0.451  0.00  0.00    +0.069 C 
ENDBRANCH  23  24
ENDBRANCH  18  23
ENDBRANCH   6  17
TORSDOF 5
