REMARK  Name = 11778868
REMARK  12 active torsions:
REMARK  status: ('A' for Active; 'I' for Inactive)
REMARK    1  A    between atoms: C_1  and  C_4
REMARK    2  A    between atoms: C_1  and  O_14
REMARK    3  A    between atoms: C_1  and  C_16
REMARK    4  A    between atoms: N_3  and  CA_6
REMARK    5  A    between atoms: CA_6  and  CB_7
REMARK    6  A    between atoms: CA_6  and  C_11
REMARK    7  A    between atoms: C_11  and  O_12
REMARK    8  A    between atoms: C_16  and  N_17
REMARK    9  A    between atoms: C_16  and  C_21
REMARK   10  A    between atoms: C_21  and  C_22
REMARK   11  A    between atoms: C_22  and  C_23
REMARK   12  A    between atoms: C_23  and  C_25
REMARK                            x       y       z     vdW  Elec       q    Type
REMARK                         _______ _______ _______ _____ _____    ______ ____
ROOT
ATOM      1  C   UNL     1      -0.278  -2.166  -0.140  0.00  0.00    +0.166 C 
ENDROOT
BRANCH   1   4
ATOM      2  O   UNL     1       0.728  -1.238   1.855  0.00  0.00    -0.273 OA
ATOM      3  N   UNL     1       1.422  -0.451  -0.217  0.00  0.00    -0.295 N 
ATOM      4  C   ACE A   0       0.657  -1.242   0.628  0.00  0.00    +0.248 C 
ATOM      5  H   UNL     1       1.284  -0.535  -1.188  0.00  0.00    +0.150 HD
BRANCH   3   6
ATOM      6  CA  UNL     1       2.412   0.488   0.258  0.00  0.00    +0.171 C 
BRANCH   6   7
ATOM      7  CB  UNL     1       3.778  -0.213   0.420  0.00  0.00    +0.029 C 
ATOM      8  CG1 UNL     1       4.804   0.675   1.128  0.00  0.00    +0.002 C 
ATOM      9  CG2 UNL     1       4.350  -0.734  -0.902  0.00  0.00    +0.002 C 
ENDBRANCH   6   7
BRANCH   6  11
ATOM     10  OXT UNL     1       3.113   2.729  -0.366  0.00  0.00    -0.248 OA
ATOM     11  C   UNL     1       2.445   1.734  -0.623  0.00  0.00    +0.332 C 
BRANCH  11  12
ATOM     12  O   UNL     1       1.628   1.682  -1.704  0.00  0.00    -0.479 OA
ATOM     13  H   UNL     1       1.129   0.909  -1.877  0.00  0.00    +0.295 HD
ENDBRANCH  11  12
ENDBRANCH   6  11
ENDBRANCH   3   6
ENDBRANCH   1   4
BRANCH   1  14
ATOM     14  O   UNL     1      -0.315  -3.349   0.656  0.00  0.00    -0.377 OA
ATOM     15  H   UNL     1      -0.896  -4.003   0.237  0.00  0.00    +0.211 HD
ENDBRANCH   1  14
BRANCH   1  16
ATOM     16  C   UNL     1      -1.706  -1.604  -0.279  0.00  0.00    -0.029 C 
BRANCH  16  17
ATOM     17  N   UNL     1      -2.552  -2.586  -0.969  0.00  0.00    +0.384 N 
ATOM     18  H   UNL     1      -3.497  -2.215  -1.062  0.00  0.00    -0.089 HD
ATOM     19  H   UNL     1      -2.578  -3.451  -0.429  0.00  0.00    -0.089 HD
ATOM     20  H   UNL     1      -2.168  -2.774  -1.895  0.00  0.00    -0.089 HD
ENDBRANCH  16  17
BRANCH  16  21
ATOM     21  C   UNL     1      -1.715  -0.276  -1.063  0.00  0.00    -0.019 C 
BRANCH  21  22
ATOM     22  C   UNL     1      -3.101   0.355  -1.279  0.00  0.00    -0.002 C 
BRANCH  22  23
ATOM     23  C   UNL     1      -3.851   0.807  -0.007  0.00  0.00    -0.000 C 
ATOM     24  C   UNL     1      -5.167   1.478  -0.423  0.00  0.00    -0.000 C 
BRANCH  23  25
ATOM     25  C   UNL     1      -2.988   1.739   0.866  0.00  0.00    -0.000 C 
ATOM     26  C   UNL     1      -3.665   2.172   2.160  0.00  0.00    -0.000 C 
ENDBRANCH  23  25
ENDBRANCH  22  23
ENDBRANCH  21  22
ENDBRANCH  16  21
ENDBRANCH   1  16
TORSDOF 12
