REMARK  Name = 11778706
REMARK  4 active torsions:
REMARK  status: ('A' for Active; 'I' for Inactive)
REMARK    1  A    between atoms: N_2  and  C1*_12
REMARK    2  A    between atoms: C3*_13  and  O3*_16
REMARK    3  A    between atoms: C4*_15  and  C5*_18
REMARK    4  A    between atoms: C5*_18  and  O5*_19
REMARK                            x       y       z     vdW  Elec       q    Type
REMARK                         _______ _______ _______ _____ _____    ______ ____
ROOT
ATOM      1 CL   UNL     1       0.406  -3.631  -0.381  0.00  0.00    -0.032 Cl
ATOM      2  N   UNL     1       0.182  -0.969  -0.175  0.00  0.00    -0.213 N 
ATOM      3  N   UNL     1       2.288  -1.716  -0.110  0.00  0.00    -0.370 NA
ATOM      4  N   UNL     1       0.587   1.417   0.049  0.00  0.00    -0.227 NA
ATOM      5  N   UNL     1       2.972   1.903   0.234  0.00  0.00    -0.227 NA
ATOM      6  C   UNL     1       0.979   0.136  -0.034  0.00  0.00    +0.170 C 
ATOM      7  C   UNL     1       1.020  -2.056  -0.215  0.00  0.00    +0.251 C 
ATOM      8  C   UNL     1       2.276  -0.348   0.004  0.00  0.00    +0.196 C 
ATOM      9  C   UNL     1       3.294   0.590   0.144  0.00  0.00    +0.155 C 
ATOM     10  C   UNL     1       1.658   2.230   0.182  0.00  0.00    +0.253 C 
ATOM     11  N   UNL     1       4.640   0.187   0.190  0.00  0.00    -0.341 N 
ATOM     12  H   UNL     1       5.352   0.860   0.289  0.00  0.00    +0.144 HD
ATOM     13  H   UNL     1       4.871  -0.768   0.123  0.00  0.00    +0.144 HD
ENDROOT
BRANCH   2  15
ATOM     14  O4* UNL     1      -1.724   0.222  -0.934  0.00  0.00    -0.335 OA
ATOM     15  C1* UNL     1      -1.274  -0.966  -0.260  0.00  0.00    +0.202 C 
ATOM     16  C3* UNL     1      -3.305  -0.354   0.754  0.00  0.00    +0.144 C 
ATOM     17  C2* UNL     1      -1.980  -0.999   1.088  0.00  0.00    +0.083 C 
ATOM     18  C4* UNL     1      -2.930   0.690  -0.293  0.00  0.00    +0.173 C 
BRANCH  16  19
ATOM     19  O3* UNL     1      -4.150  -1.340   0.164  0.00  0.00    -0.382 OA
ATOM     20  H3* UNL     1      -4.388  -2.003   0.831  0.00  0.00    +0.210 HD
ENDBRANCH  16  19
BRANCH  18  21
ATOM     21  C5* UNL     1      -2.642   2.055   0.316  0.00  0.00    +0.169 C 
BRANCH  21  22
ATOM     22  O5* UNL     1      -2.294   2.951  -0.724  0.00  0.00    -0.379 OA
ATOM     23  H5* UNL     1      -2.107   3.826  -0.348  0.00  0.00    +0.211 HD
ENDBRANCH  21  22
ENDBRANCH  18  21
ENDBRANCH   2  15
TORSDOF 4
