REMARK  Name = 11778945
REMARK  9 active torsions:
REMARK  status: ('A' for Active; 'I' for Inactive)
REMARK    1  A    between atoms: C_2  and  C_3
REMARK    2  A    between atoms: C_2  and  C_15
REMARK    3  A    between atoms: C_4  and  O_9
REMARK    4  A    between atoms: C_5  and  O_11
REMARK    5  A    between atoms: C_8  and  O_13
REMARK    6  A    between atoms: C_15  and  C_16
REMARK    7  A    between atoms: C_16  and  C_17
REMARK    8  A    between atoms: C_20  and  O_23
REMARK    9  A    between atoms: C_22  and  O_25
REMARK                            x       y       z     vdW  Elec       q    Type
REMARK                         _______ _______ _______ _____ _____    ______ ____
ROOT
ATOM      1  O   UNL     1      -1.258   1.034   2.207  0.00  0.00    -0.291 OA
ATOM      2  C   UNL     1      -1.235   0.564   1.053  0.00  0.00    +0.179 C 
ENDROOT
BRANCH   2   3
ATOM      3  C   UNL     1      -2.476   0.237   0.360  0.00  0.00    +0.102 C 
ATOM      4  C   UNL     1      -3.029  -1.037   0.484  0.00  0.00    +0.142 C 
ATOM      5  C   UNL     1      -3.111   1.199  -0.426  0.00  0.00    +0.142 C 
ATOM      6  C   UNL     1      -4.216  -1.350  -0.178  0.00  0.00    +0.073 C 
ATOM      7  C   UNL     1      -4.298   0.886  -1.088  0.00  0.00    +0.073 C 
ATOM      8  C   UNL     1      -4.851  -0.388  -0.964  0.00  0.00    +0.140 C 
BRANCH   4   9
ATOM      9  O   UNL     1      -2.426  -1.992   1.247  0.00  0.00    -0.505 OA
ATOM     10  H   UNL     1      -1.628  -1.797   1.698  0.00  0.00    +0.292 HD
ENDBRANCH   4   9
BRANCH   5  11
ATOM     11  O   UNL     1      -2.588   2.451  -0.561  0.00  0.00    -0.505 OA
ATOM     12  H   UNL     1      -1.791   2.676  -0.122  0.00  0.00    +0.292 HD
ENDBRANCH   5  11
BRANCH   8  13
ATOM     13  O   UNL     1      -6.009  -0.694  -1.610  0.00  0.00    -0.505 OA
ATOM     14  H   UNL     1      -6.380  -1.550  -1.527  0.00  0.00    +0.292 HD
ENDBRANCH   8  13
ENDBRANCH   2   3
BRANCH   2  15
ATOM     15  C   UNL     1       0.115   0.329   0.355  0.00  0.00    +0.074 C 
BRANCH  15  16
ATOM     16  C   UNL     1       1.257   0.036   1.331  0.00  0.00    +0.035 C 
BRANCH  16  17
ATOM     17  C   UNL     1       2.563  -0.179   0.611  0.00  0.00    -0.019 C 
ATOM     18  C   UNL     1       3.392   0.905   0.363  0.00  0.00    +0.036 C 
ATOM     19  C   UNL     1       2.916  -1.459   0.207  0.00  0.00    -0.001 C 
ATOM     20  C   UNL     1       4.601   0.705  -0.304  0.00  0.00    +0.167 C 
ATOM     21  C   UNL     1       4.125  -1.658  -0.460  0.00  0.00    +0.039 C 
ATOM     22  C   UNL     1       4.967  -0.576  -0.715  0.00  0.00    +0.167 C 
BRANCH  20  23
ATOM     23  O   UNL     1       5.415   1.770  -0.547  0.00  0.00    -0.503 OA
ATOM     24  H   UNL     1       5.162   2.627  -0.268  0.00  0.00    +0.292 HD
ENDBRANCH  20  23
BRANCH  22  25
ATOM     25  O   UNL     1       6.145  -0.784  -1.367  0.00  0.00    -0.503 OA
ATOM     26  H   UNL     1       6.717  -0.063  -1.543  0.00  0.00    +0.292 HD
ENDBRANCH  22  25
ENDBRANCH  16  17
ENDBRANCH  15  16
ENDBRANCH   2  15
TORSDOF 9
