REMARK  Name = 117762967
REMARK  6 active torsions:
REMARK  status: ('A' for Active; 'I' for Inactive)
REMARK    1  A    between atoms: C_1  and  O_11
REMARK    2  A    between atoms: C_1  and  C_18
REMARK    3  A    between atoms: C_2  and  O_7
REMARK    4  A    between atoms: C_2  and  C_14
REMARK    5  A    between atoms: C_3  and  O_9
REMARK    6  A    between atoms: C_3  and  C_16
REMARK                            x       y       z     vdW  Elec       q    Type
REMARK                         _______ _______ _______ _____ _____    ______ ____
ROOT
ATOM      1  C   UNL     1       0.126  -1.465  -0.501  0.00  0.00    +0.151 C 
ATOM      2  C   UNL     1       1.197   0.825  -0.087  0.00  0.00    +0.151 C 
ATOM      3  C   UNL     1      -1.345   0.591  -0.085  0.00  0.00    +0.151 C 
ATOM      4  C   UNL     1       1.319  -0.541  -0.770  0.00  0.00    +0.069 C 
ATOM      5  C   UNL     1      -0.147   1.497  -0.396  0.00  0.00    +0.069 C 
ATOM      6  C   UNL     1      -1.218  -0.775  -0.768  0.00  0.00    +0.069 C 
ENDROOT
BRANCH   2   7
ATOM      7  O   UNL     1       1.377   0.669   1.314  0.00  0.00    -0.379 OA
ATOM      8  H   UNL     1       0.680   0.095   1.668  0.00  0.00    +0.211 HD
ENDBRANCH   2   7
BRANCH   3   9
ATOM      9  O   UNL     1      -1.492   0.405   1.317  0.00  0.00    -0.379 OA
ATOM     10  H   UNL     1      -0.702  -0.033   1.669  0.00  0.00    +0.211 HD
ENDBRANCH   3   9
BRANCH   1  11
ATOM     11  O   UNL     1       0.249  -2.603  -1.359  0.00  0.00    -0.379 OA
ATOM     12  H   UNL     1       0.219  -2.315  -2.284  0.00  0.00    +0.211 HD
ENDBRANCH   1  11
BRANCH   2  14
ATOM     13  O   UNL     1       3.170   2.167   0.227  0.00  0.00    -0.286 OA
ATOM     14  C   UNL     1       2.316   1.723  -0.533  0.00  0.00    +0.234 C 
ENDBRANCH   2  14
BRANCH   3  16
ATOM     15  O   UNL     1      -3.505   1.600   0.244  0.00  0.00    -0.286 OA
ATOM     16  C   UNL     1      -2.610   1.270  -0.527  0.00  0.00    +0.234 C 
ENDBRANCH   3  16
BRANCH   1  18
ATOM     17  O   UNL     1       0.373  -3.281   1.058  0.00  0.00    -0.286 OA
ATOM     18  C   UNL     1       0.191  -2.083   0.866  0.00  0.00    +0.234 C 
ENDBRANCH   1  18
TORSDOF 6
