11778669
  -OEChem-03292013303D

 39 40  0     1  0  0  0  0  0999 V2000
    3.3343    2.5680    1.6128 O   0  0  0  0  0  0  0  0  0  0  0  0
   -0.3118   -1.0367   -1.1999 O   0  0  0  0  0  0  0  0  0  0  0  0
    3.4062   -1.3231   -2.2420 O   0  0  0  0  0  0  0  0  0  0  0  0
    3.0605   -1.8158   -0.0434 O   0  0  0  0  0  0  0  0  0  0  0  0
   -2.2894    1.8515   -0.4861 O   0  0  0  0  0  0  0  0  0  0  0  0
    1.2029    0.1777    0.0598 N   0  0  0  0  0  0  0  0  0  0  0  0
   -2.3475   -0.3136    0.3296 N   0  0  0  0  0  0  0  0  0  0  0  0
   -4.7078    1.9238   -1.3110 N   0  0  0  0  0  0  0  0  0  0  0  0
   -1.0243   -0.2973    0.9394 C   0  0  1  0  0  0  0  0  0  0  0  0
    2.2370    0.2630   -0.9627 C   0  0  1  0  0  0  0  0  0  0  0  0
   -1.0065   -1.5134    1.8584 C   0  0  0  0  0  0  0  0  0  0  0  0
    1.5855    0.9128    1.2626 C   0  0  0  0  0  0  0  0  0  0  0  0
    3.1590    1.3747   -0.4840 C   0  0  0  0  0  0  0  0  0  0  0  0
    3.0390    1.3100    1.0386 C   0  0  1  0  0  0  0  0  0  0  0  0
   -0.0246   -0.4236   -0.1705 C   0  0  0  0  0  0  0  0  0  0  0  0
   -1.9655   -2.4868    1.1776 C   0  0  0  0  0  0  0  0  0  0  0  0
   -3.0349   -1.5746    0.5959 C   0  0  0  0  0  0  0  0  0  0  0  0
    2.9321   -1.0646   -0.9987 C   0  0  0  0  0  0  0  0  0  0  0  0
   -2.9014    0.8028   -0.2775 C   0  0  0  0  0  0  0  0  0  0  0  0
   -4.3428    0.6652   -0.6986 C   0  0  0  0  0  0  0  0  0  0  0  0
   -0.9141    0.6390    1.4906 H   0  0  0  0  0  0  0  0  0  0  0  0
    1.7769    0.4702   -1.9348 H   0  0  0  0  0  0  0  0  0  0  0  0
   -1.4060   -1.2408    2.8429 H   0  0  0  0  0  0  0  0  0  0  0  0
   -0.0115   -1.9459    2.0002 H   0  0  0  0  0  0  0  0  0  0  0  0
    1.4590    0.2850    2.1497 H   0  0  0  0  0  0  0  0  0  0  0  0
    0.9412    1.7933    1.3626 H   0  0  0  0  0  0  0  0  0  0  0  0
    4.1961    1.2610   -0.8163 H   0  0  0  0  0  0  0  0  0  0  0  0
    2.8048    2.3478   -0.8474 H   0  0  0  0  0  0  0  0  0  0  0  0
    3.7148    0.5537    1.4540 H   0  0  0  0  0  0  0  0  0  0  0  0
   -1.4473   -3.0225    0.3737 H   0  0  0  0  0  0  0  0  0  0  0  0
   -2.3774   -3.2294    1.8665 H   0  0  0  0  0  0  0  0  0  0  0  0
   -3.4790   -1.9766   -0.3188 H   0  0  0  0  0  0  0  0  0  0  0  0
   -3.8293   -1.3793    1.3243 H   0  0  0  0  0  0  0  0  0  0  0  0
    4.2462    2.7960    1.3638 H   0  0  0  0  0  0  0  0  0  0  0  0
   -4.9678    0.4779    0.1789 H   0  0  0  0  0  0  0  0  0  0  0  0
   -4.4531   -0.1524   -1.4162 H   0  0  0  0  0  0  0  0  0  0  0  0
    3.8666   -2.1882   -2.2859 H   0  0  0  0  0  0  0  0  0  0  0  0
   -5.6838    1.8892   -1.6026 H   0  0  0  0  0  0  0  0  0  0  0  0
   -4.1661    2.0660   -2.1631 H   0  0  0  0  0  0  0  0  0  0  0  0
  1 14  1  0  0  0  0
  1 34  1  0  0  0  0
  2 15  2  0  0  0  0
  3 18  1  0  0  0  0
  3 37  1  0  0  0  0
  4 18  2  0  0  0  0
  5 19  2  0  0  0  0
  6 10  1  0  0  0  0
  6 12  1  0  0  0  0
  6 15  1  0  0  0  0
  7  9  1  0  0  0  0
  7 17  1  0  0  0  0
  7 19  1  0  0  0  0
  8 20  1  0  0  0  0
  8 38  1  0  0  0  0
  8 39  1  0  0  0  0
  9 11  1  0  0  0  0
  9 15  1  0  0  0  0
  9 21  1  0  0  0  0
 10 13  1  0  0  0  0
 10 18  1  0  0  0  0
 10 22  1  0  0  0  0
 11 16  1  0  0  0  0
 11 23  1  0  0  0  0
 11 24  1  0  0  0  0
 12 14  1  0  0  0  0
 12 25  1  0  0  0  0
 12 26  1  0  0  0  0
 13 14  1  0  0  0  0
 13 27  1  0  0  0  0
 13 28  1  0  0  0  0
 14 29  1  0  0  0  0
 16 17  1  0  0  0  0
 16 30  1  0  0  0  0
 16 31  1  0  0  0  0
 17 32  1  0  0  0  0
 17 33  1  0  0  0  0
 19 20  1  0  0  0  0
 20 35  1  0  0  0  0
 20 36  1  0  0  0  0
M  END
> <PUBCHEM_COMPOUND_CID>
11778669

> <PUBCHEM_CONFORMER_RMSD>
0.8

> <PUBCHEM_CONFORMER_DIVERSEORDER>
1
5
8
7
15
12
13
9
17
10
3
16
11
14
2
6
4

> <PUBCHEM_MMFF94_PARTIAL_CHARGES>
21
1 -0.68
10 0.36
12 0.3
14 0.28
15 0.57
17 0.3
18 0.66
19 0.57
2 -0.57
20 0.33
3 -0.65
34 0.4
37 0.5
38 0.36
39 0.36
4 -0.57
5 -0.57
6 -0.66
7 -0.66
8 -0.99
9 0.36

> <PUBCHEM_EFFECTIVE_ROTOR_COUNT>
7

> <PUBCHEM_PHARMACOPHORE_FEATURES>
11
1 1 acceptor
1 1 donor
1 2 acceptor
1 3 acceptor
1 4 acceptor
1 5 acceptor
1 8 cation
1 8 donor
3 3 4 18 anion
5 6 10 12 13 14 rings
5 7 9 11 16 17 rings

> <PUBCHEM_HEAVY_ATOM_COUNT>
20

> <PUBCHEM_ATOM_DEF_STEREO_COUNT>
3

> <PUBCHEM_ATOM_UDEF_STEREO_COUNT>
0

> <PUBCHEM_BOND_DEF_STEREO_COUNT>
0

> <PUBCHEM_BOND_UDEF_STEREO_COUNT>
0

> <PUBCHEM_ISOTOPIC_ATOM_COUNT>
0

> <PUBCHEM_COMPONENT_COUNT>
1

> <PUBCHEM_CACTVS_TAUTO_COUNT>
1

> <PUBCHEM_CONFORMER_ID>
00B3BA6D00000001

> <PUBCHEM_MMFF94_ENERGY>
48.2926

> <PUBCHEM_FEATURE_SELFOVERLAP>
55.878

> <PUBCHEM_SHAPE_FINGERPRINT>
10498660 4 18040154011439330117
10608611 8 18410014376719652408
10646746 165 18259980504682407281
11543360 7 17632281403003432157
11640471 11 16588025744470266445
11725454 13 18125407982424793553
12173636 292 18113893862789413359
12403259 415 18335708221885348969
12500047 106 18259990374586065446
12707595 3 18058748917876245526
13134695 92 17845945030931641620
13294875 104 18116138987785967098
13583140 156 18342735273264620594
14178342 30 17749664207290145266
15219456 202 18341617048358659035
15295992 7 18339936908961162121
15842332 3 15719956954959858850
16752209 62 17677055741179446299
16945 1 18195541297959415314
17357990 137 16298387972076131602
173720 79 17095787890043222195
18186145 218 18410018702094519961
18219364 16 17630044012393698552
18915476 22 17988931114733116534
19049666 15 18410863156904832842
192875 21 17060059190145824818
200 152 16702305624444273319
20510252 161 18187655759916308171
20645477 56 18335143137190659601
20645477 70 17846505837147821110
20681677 76 18271526497749859407
20715346 28 18341622571749885578
21069387 34 16916509133893293814
21524375 3 17751359482922396651
21639500 275 17417816174941875090
22112679 90 16443341035061853222
22802520 49 18341339928441960704
22943178 12 18340496658831741930
23402539 116 18117545448464289823
23526113 38 18199757938242884230
23557571 272 18262806296894853817
23559900 14 18334579031827673582
238 59 17917990589896108868
2748010 2 18340499953182336750
495365 180 18342165657463862074
5161694 15 18410582759790937486
6049 1 18266762309677318346
633830 44 18338786815815024141
7615 1 16081927190735155082
77492 1 15338852966139991619
81228 2 17969513782447068083
88987 49 17894914074159375738
9709674 26 18337955696113157171

> <PUBCHEM_SHAPE_MULTIPOLES>
367.3
7.68
2.39
1.66
2.51
0.13
-0.05
-3.21
-1.88
0.89
0.43
-1.29
0.13
2.66

> <PUBCHEM_SHAPE_SELFOVERLAP>
765.377

> <PUBCHEM_SHAPE_VOLUME>
208.9

> <PUBCHEM_COORDINATE_TYPE>
2
5
10

$$$$
