REMARK  Name = 11784040
REMARK  2 active torsions:
REMARK  status: ('A' for Active; 'I' for Inactive)
REMARK    1  A    between atoms: C_9  and  C_30
REMARK    2  A    between atoms: C_30  and  O_31
REMARK                            x       y       z     vdW  Elec       q    Type
REMARK                         _______ _______ _______ _____ _____    ______ ____
ROOT
ATOM      1  O   UNL     1      -0.208  -1.912   1.568  0.00  0.00    -0.274 OA
ATOM      2  O   UNL     1      -0.542   3.617  -0.807  0.00  0.00    -0.273 OA
ATOM      3  O   UNL     1       2.869   2.089   1.641  0.00  0.00    -0.274 OA
ATOM      4  N   UNL     1       1.220   1.004   0.407  0.00  0.00    -0.229 N 
ATOM      5  N   UNL     1      -0.676   1.366  -1.414  0.00  0.00    -0.297 N 
ATOM      6  N   UNL     1      -2.520  -2.049   1.249  0.00  0.00    -0.284 N 
ATOM      7  N   UNL     1       1.718  -0.922  -0.908  0.00  0.00    -0.393 NA
ATOM      8  C   UNL     1      -1.450  -0.070   0.449  0.00  0.00    +0.116 C 
ATOM      9  C   UNL     1      -0.599   0.005  -0.861  0.00  0.00    +0.155 C 
ATOM     10  C   UNL     1      -1.019   1.073   1.417  0.00  0.00    +0.044 C 
ATOM     11  C   UNL     1       0.113   1.892   0.779  0.00  0.00    +0.159 C 
ATOM     12  C   UNL     1       0.884  -0.034  -0.473  0.00  0.00    +0.185 C 
ATOM     13  C   UNL     1      -2.950  -0.060   0.218  0.00  0.00    +0.001 C 
ATOM     14  C   UNL     1      -1.262  -1.448   1.159  0.00  0.00    +0.231 C 
ATOM     15  C   UNL     1      -0.372   2.430  -0.561  0.00  0.00    +0.241 C 
ATOM     16  C   UNL     1      -3.508  -1.242   0.702  0.00  0.00    +0.047 C 
ATOM     17  C   UNL     1       2.512   1.192   0.885  0.00  0.00    +0.242 C 
ATOM     18  C   UNL     1      -3.766   0.899  -0.360  0.00  0.00    -0.003 C 
ATOM     19  C   UNL     1       3.486   0.184   0.404  0.00  0.00    +0.151 C 
ATOM     20  C   UNL     1       3.049  -0.827  -0.466  0.00  0.00    +0.123 C 
ATOM     21  C   UNL     1      -4.859  -1.520   0.628  0.00  0.00    +0.014 C 
ATOM     22  C   UNL     1      -5.138   0.642  -0.448  0.00  0.00    -0.000 C 
ATOM     23  C   UNL     1      -5.680  -0.558   0.041  0.00  0.00    +0.001 C 
ATOM     24  C   UNL     1       4.821   0.245   0.818  0.00  0.00    -0.010 C 
ATOM     25  C   UNL     1       3.974  -1.776  -0.913  0.00  0.00    +0.028 C 
ATOM     26  C   UNL     1       5.729  -0.710   0.362  0.00  0.00    -0.004 C 
ATOM     27  C   UNL     1       5.307  -1.718  -0.502  0.00  0.00    +0.002 C 
ATOM     28  H   UNL     1      -0.933   1.521  -2.352  0.00  0.00    +0.150 HD
ATOM     29  H   UNL     1      -2.685  -2.933   1.649  0.00  0.00    +0.155 HD
ENDROOT
BRANCH   9  30
ATOM     30  C   UNL     1      -0.950  -1.031  -1.928  0.00  0.00    +0.164 C 
BRANCH  30  31
ATOM     31  O   UNL     1      -0.183  -0.760  -3.086  0.00  0.00    -0.380 OA
ATOM     32  H   UNL     1      -0.395  -1.411  -3.774  0.00  0.00    +0.211 HD
ENDBRANCH  30  31
ENDBRANCH   9  30
TORSDOF 2
