REMARK  Name = 117875026
REMARK  4 active torsions:
REMARK  status: ('A' for Active; 'I' for Inactive)
REMARK    1  A    between atoms: C_1  and  N_16
REMARK    2  A    between atoms: C_2  and  C_26
REMARK    3  A    between atoms: C_3  and  C_11
REMARK    4  A    between atoms: C_17  and  N_22
REMARK                            x       y       z     vdW  Elec       q    Type
REMARK                         _______ _______ _______ _____ _____    ______ ____
ROOT
ATOM      1  C   UNL     1      -0.457  -0.687  -0.584  0.00  0.00    +0.048 C 
ATOM      2  C   UNL     1      -1.605  -1.444  -0.350  0.00  0.00    +0.013 C 
ATOM      3  C   UNL     1       0.687  -1.295  -1.099  0.00  0.00    +0.014 C 
ATOM      4  C   UNL     1      -1.608  -2.811  -0.632  0.00  0.00    +0.001 C 
ATOM      5  C   UNL     1       0.684  -2.662  -1.380  0.00  0.00    +0.001 C 
ATOM      6  C   UNL     1      -0.463  -3.419  -1.147  0.00  0.00    +0.000 C 
ENDROOT
BRANCH   3  11
ATOM      7  S   UNL     1       4.361   0.544  -0.817  0.00  0.00    -0.025 S 
ATOM      8  O   UNL     1       2.053  -1.582   1.369  0.00  0.00    -0.269 OA
ATOM      9  O   UNL     1       6.104   0.657   1.159  0.00  0.00    -0.262 OA
ATOM     10  N   UNL     1       4.125  -0.530   1.491  0.00  0.00    -0.243 N 
ATOM     11  C   UNL     1       1.908  -0.540  -1.358  0.00  0.00    +0.012 C 
ATOM     12  C   UNL     1       2.925  -0.352  -0.496  0.00  0.00    +0.087 C 
ATOM     13  C   UNL     1       2.945  -0.906   0.878  0.00  0.00    +0.258 C 
ATOM     14  C   UNL     1       5.021   0.237   0.783  0.00  0.00    +0.283 C 
ATOM     15  H   UNL     1       4.321  -0.806   2.416  0.00  0.00    +0.159 HD
ENDBRANCH   3  11
BRANCH   1  16
ATOM     16  N   UNL     1      -0.453   0.685  -0.302  0.00  0.00    -0.310 N 
ATOM     17  C   UNL     1      -0.791   3.015  -1.036  0.00  0.00    -0.046 C 
ATOM     18  C   UNL     1      -0.195   1.644  -1.384  0.00  0.00    +0.069 C 
ATOM     19  C   UNL     1      -0.305   3.498   0.332  0.00  0.00    -0.018 C 
ATOM     20  C   UNL     1      -0.630   2.458   1.398  0.00  0.00    +0.019 C 
ATOM     21  C   UNL     1      -0.038   1.095   1.047  0.00  0.00    +0.091 C 
BRANCH  17  22
ATOM     22  N   UNL     1      -0.433   3.990  -2.064  0.00  0.00    +0.383 N 
ATOM     23  H   UNL     1      -0.760   3.661  -2.973  0.00  0.00    -0.089 HD
ATOM     24  H   UNL     1       0.580   4.102  -2.088  0.00  0.00    -0.089 HD
ATOM     25  H   UNL     1      -0.869   4.886  -1.850  0.00  0.00    -0.089 HD
ENDBRANCH  17  22
ENDBRANCH   1  16
BRANCH   2  26
ATOM     26  C   UNL     1      -2.812  -0.843   0.184  0.00  0.00    +0.001 C 
ATOM     27  C   UNL     1      -3.010  -0.787   1.564  0.00  0.00    +0.000 C 
ATOM     28  C   UNL     1      -3.774  -0.322  -0.681  0.00  0.00    +0.000 C 
ATOM     29  C   UNL     1      -4.171  -0.209   2.078  0.00  0.00    +0.000 C 
ATOM     30  C   UNL     1      -4.935   0.256  -0.167  0.00  0.00    +0.000 C 
ATOM     31  C   UNL     1      -5.133   0.312   1.213  0.00  0.00    +0.000 C 
ENDBRANCH   2  26
TORSDOF 4
