11784040
  -OEChem-03292013303D

 45 50  0     1  0  0  0  0  0999 V2000
   -0.1834   -0.7599   -3.0860 O   0  0  0  0  0  0  0  0  0  0  0  0
   -0.2080   -1.9118    1.5682 O   0  0  0  0  0  0  0  0  0  0  0  0
   -0.5418    3.6172   -0.8074 O   0  0  0  0  0  0  0  0  0  0  0  0
    2.8688    2.0893    1.6406 O   0  0  0  0  0  0  0  0  0  0  0  0
    1.2200    1.0044    0.4071 N   0  0  0  0  0  0  0  0  0  0  0  0
   -0.6763    1.3657   -1.4140 N   0  0  0  0  0  0  0  0  0  0  0  0
   -2.5199   -2.0485    1.2486 N   0  0  0  0  0  0  0  0  0  0  0  0
    1.7176   -0.9221   -0.9082 N   0  0  0  0  0  0  0  0  0  0  0  0
   -1.4502   -0.0698    0.4493 C   0  0  1  0  0  0  0  0  0  0  0  0
   -0.5988    0.0054   -0.8613 C   0  0  2  0  0  0  0  0  0  0  0  0
   -1.0194    1.0727    1.4166 C   0  0  0  0  0  0  0  0  0  0  0  0
    0.1130    1.8918    0.7794 C   0  0  2  0  0  0  0  0  0  0  0  0
    0.8844   -0.0338   -0.4726 C   0  0  0  0  0  0  0  0  0  0  0  0
   -2.9499   -0.0605    0.2181 C   0  0  0  0  0  0  0  0  0  0  0  0
   -1.2625   -1.4484    1.1589 C   0  0  0  0  0  0  0  0  0  0  0  0
   -0.9497   -1.0313   -1.9276 C   0  0  0  0  0  0  0  0  0  0  0  0
   -0.3720    2.4305   -0.5607 C   0  0  0  0  0  0  0  0  0  0  0  0
   -3.5080   -1.2424    0.7020 C   0  0  0  0  0  0  0  0  0  0  0  0
    2.5117    1.1917    0.8853 C   0  0  0  0  0  0  0  0  0  0  0  0
   -3.7656    0.8987   -0.3602 C   0  0  0  0  0  0  0  0  0  0  0  0
    3.4863    0.1840    0.4042 C   0  0  0  0  0  0  0  0  0  0  0  0
    3.0490   -0.8268   -0.4658 C   0  0  0  0  0  0  0  0  0  0  0  0
   -4.8592   -1.5205    0.6282 C   0  0  0  0  0  0  0  0  0  0  0  0
   -5.1381    0.6425   -0.4482 C   0  0  0  0  0  0  0  0  0  0  0  0
   -5.6802   -0.5581    0.0409 C   0  0  0  0  0  0  0  0  0  0  0  0
    4.8212    0.2446    0.8181 C   0  0  0  0  0  0  0  0  0  0  0  0
    3.9744   -1.7762   -0.9133 C   0  0  0  0  0  0  0  0  0  0  0  0
    5.7292   -0.7098    0.3618 C   0  0  0  0  0  0  0  0  0  0  0  0
    5.3072   -1.7185   -0.5021 C   0  0  0  0  0  0  0  0  0  0  0  0
   -0.6722    0.6647    2.3743 H   0  0  0  0  0  0  0  0  0  0  0  0
   -1.8570    1.7434    1.6458 H   0  0  0  0  0  0  0  0  0  0  0  0
    0.4506    2.7081    1.4237 H   0  0  0  0  0  0  0  0  0  0  0  0
   -1.0600    1.5387   -2.3382 H   0  0  0  0  0  0  0  0  0  0  0  0
   -2.0013   -0.9664   -2.2217 H   0  0  0  0  0  0  0  0  0  0  0  0
   -0.7479   -2.0567   -1.6012 H   0  0  0  0  0  0  0  0  0  0  0  0
   -2.7013   -2.9544    1.6644 H   0  0  0  0  0  0  0  0  0  0  0  0
   -3.3653    1.8329   -0.7370 H   0  0  0  0  0  0  0  0  0  0  0  0
   -5.2736   -2.4465    1.0104 H   0  0  0  0  0  0  0  0  0  0  0  0
    0.7442   -0.9740   -2.8902 H   0  0  0  0  0  0  0  0  0  0  0  0
   -5.7949    1.3818   -0.8991 H   0  0  0  0  0  0  0  0  0  0  0  0
   -6.7494   -0.7352   -0.0378 H   0  0  0  0  0  0  0  0  0  0  0  0
    5.1700    1.0224    1.4915 H   0  0  0  0  0  0  0  0  0  0  0  0
    3.6616   -2.5694   -1.5881 H   0  0  0  0  0  0  0  0  0  0  0  0
    6.7668   -0.6675    0.6802 H   0  0  0  0  0  0  0  0  0  0  0  0
    6.0161   -2.4612   -0.8565 H   0  0  0  0  0  0  0  0  0  0  0  0
  1 16  1  0  0  0  0
  1 39  1  0  0  0  0
  2 15  2  0  0  0  0
  3 17  2  0  0  0  0
  4 19  2  0  0  0  0
  5 12  1  0  0  0  0
  5 13  1  0  0  0  0
  5 19  1  0  0  0  0
  6 10  1  0  0  0  0
  6 17  1  0  0  0  0
  6 33  1  0  0  0  0
  7 15  1  0  0  0  0
  7 18  1  0  0  0  0
  7 36  1  0  0  0  0
  8 13  2  0  0  0  0
  8 22  1  0  0  0  0
  9 10  1  0  0  0  0
  9 11  1  0  0  0  0
  9 14  1  0  0  0  0
  9 15  1  0  0  0  0
 10 13  1  0  0  0  0
 10 16  1  0  0  0  0
 11 12  1  0  0  0  0
 11 30  1  0  0  0  0
 11 31  1  0  0  0  0
 12 17  1  0  0  0  0
 12 32  1  0  0  0  0
 14 18  1  0  0  0  0
 14 20  2  0  0  0  0
 16 34  1  0  0  0  0
 16 35  1  0  0  0  0
 18 23  2  0  0  0  0
 19 21  1  0  0  0  0
 20 24  1  0  0  0  0
 20 37  1  0  0  0  0
 21 22  1  0  0  0  0
 21 26  2  0  0  0  0
 22 27  2  0  0  0  0
 23 25  1  0  0  0  0
 23 38  1  0  0  0  0
 24 25  2  0  0  0  0
 24 40  1  0  0  0  0
 25 41  1  0  0  0  0
 26 28  1  0  0  0  0
 26 42  1  0  0  0  0
 27 29  1  0  0  0  0
 27 43  1  0  0  0  0
 28 29  2  0  0  0  0
 28 44  1  0  0  0  0
 29 45  1  0  0  0  0
M  END
> <PUBCHEM_COMPOUND_CID>
11784040

> <PUBCHEM_CONFORMER_RMSD>
0.6

> <PUBCHEM_CONFORMER_DIVERSEORDER>
1

> <PUBCHEM_MMFF94_PARTIAL_CHARGES>
39
1 -0.68
10 0.36
12 0.36
13 0.45
14 -0.14
15 0.57
16 0.28
17 0.57
18 0.12
19 0.54
2 -0.57
20 -0.15
21 0.09
22 0.18
23 -0.15
24 -0.15
25 -0.15
26 -0.15
27 -0.15
28 -0.15
29 -0.15
3 -0.57
33 0.37
36 0.37
37 0.15
38 0.15
39 0.4
4 -0.57
40 0.15
41 0.15
42 0.15
43 0.15
44 0.15
45 0.15
5 -0.42
6 -0.73
7 -0.55
8 -0.63
9 0.2

> <PUBCHEM_EFFECTIVE_ROTOR_COUNT>
1.6

> <PUBCHEM_PHARMACOPHORE_FEATURES>
12
1 1 acceptor
1 1 donor
1 2 acceptor
1 3 acceptor
1 4 acceptor
1 6 donor
1 7 donor
5 7 9 14 15 18 rings
6 14 18 20 23 24 25 rings
6 21 22 26 27 28 29 rings
6 5 8 13 19 21 22 rings
8 5 6 9 10 11 12 13 17 rings

> <PUBCHEM_HEAVY_ATOM_COUNT>
29

> <PUBCHEM_ATOM_DEF_STEREO_COUNT>
3

> <PUBCHEM_ATOM_UDEF_STEREO_COUNT>
0

> <PUBCHEM_BOND_DEF_STEREO_COUNT>
0

> <PUBCHEM_BOND_UDEF_STEREO_COUNT>
0

> <PUBCHEM_ISOTOPIC_ATOM_COUNT>
0

> <PUBCHEM_COMPONENT_COUNT>
1

> <PUBCHEM_CACTVS_TAUTO_COUNT>
4

> <PUBCHEM_CONFORMER_ID>
00B3CF6800000001

> <PUBCHEM_MMFF94_ENERGY>
107.264

> <PUBCHEM_FEATURE_SELFOVERLAP>
61.039

> <PUBCHEM_SHAPE_FINGERPRINT>
10 15 18200863051277829794
10366900 7 18339938025958860486
10369192 42 17537160625029558236
10863032 1 17971201554091465109
11578080 2 11171641242303393158
11646440 116 18334307452745815625
12011746 2 18341618105289969782
12236239 1 15697997439889003266
12403814 3 18060412487226221380
12592029 89 17632582638671159943
12788726 201 18115865213617332152
13009979 54 16950860201476456535
13134695 92 17988363775518778665
13140716 1 17630876291556970590
13402501 40 18410856551435366778
13544592 145 18408039623813457497
13544653 18 18272939331726769601
13583140 156 17557984227985584115
14294032 229 17168694221681032141
15219462 58 17610012934045575280
1601671 61 16877937218477677727
16752209 62 17313097527686813064
16945 1 17775014513041352985
17349148 13 15985109630032240613
17492 89 17975418233014244339
17980427 23 17845671295322832137
1813 80 17603864528809173268
200 152 17632574924777650619
20600515 1 18267890361473630401
21033648 29 17774708801796306753
21267235 1 17917716756563191862
21279426 13 18192992621468952487
21330990 113 17822283566091800035
21682296 61 17345205398091779726
23175994 123 18334297586789191773
23184049 59 17846501443274749965
23402539 116 18409727348708865631
23419403 2 18272356577748387217
23559900 14 18334580165678012000
23569917 315 16343985823113395047
23622692 88 17132115758198122708
24893992 56 18186521009005203321
3004659 81 17822014216187697526
335352 9 18260547827840762429
3493558 16 17201374965931047441
350125 39 18273213097780996608
465052 167 18131639997103575502
5104073 3 17987796281758730610
5283173 99 18261954042213337821
59755656 215 18187077317963550547
7226269 152 18114184099193309725
9709674 26 18046349897037912491

> <PUBCHEM_SHAPE_MULTIPOLES>
553.41
10.52
2.43
1.63
2.37
1.41
-0.7
-4.57
1.27
0.15
0.03
-0.11
-0.28
1.49

> <PUBCHEM_SHAPE_SELFOVERLAP>
1276.298

> <PUBCHEM_SHAPE_VOLUME>
279.4

> <PUBCHEM_COORDINATE_TYPE>
2
5
10

$$$$
