117875026
  -OEChem-03292013293D

 48 51  0     1  0  0  0  0  0999 V2000
    4.3606    0.5438   -0.8173 S   0  0  0  0  0  0  0  0  0  0  0  0
    2.0531   -1.5821    1.3690 O   0  0  0  0  0  0  0  0  0  0  0  0
    6.1044    0.6575    1.1594 O   0  0  0  0  0  0  0  0  0  0  0  0
   -0.4528    0.6847   -0.3020 N   0  0  2  0  0  0  0  0  0  0  0  0
   -0.4331    3.9896   -2.0643 N   0  0  0  0  0  0  0  0  0  0  0  0
    4.1251   -0.5300    1.4912 N   0  0  0  0  0  0  0  0  0  0  0  0
   -0.7913    3.0147   -1.0359 C   0  0  1  0  0  0  0  0  0  0  0  0
   -0.1945    1.6444   -1.3839 C   0  0  0  0  0  0  0  0  0  0  0  0
   -0.3047    3.4981    0.3318 C   0  0  0  0  0  0  0  0  0  0  0  0
   -0.6299    2.4575    1.3984 C   0  0  0  0  0  0  0  0  0  0  0  0
   -0.0383    1.0946    1.0469 C   0  0  0  0  0  0  0  0  0  0  0  0
   -0.4571   -0.6869   -0.5841 C   0  0  0  0  0  0  0  0  0  0  0  0
   -1.6048   -1.4444   -0.3505 C   0  0  0  0  0  0  0  0  0  0  0  0
    0.6874   -1.2954   -1.0991 C   0  0  0  0  0  0  0  0  0  0  0  0
   -1.6079   -2.8107   -0.6319 C   0  0  0  0  0  0  0  0  0  0  0  0
   -2.8120   -0.8434    0.1842 C   0  0  0  0  0  0  0  0  0  0  0  0
    0.6843   -2.6615   -1.3804 C   0  0  0  0  0  0  0  0  0  0  0  0
    1.9076   -0.5399   -1.3577 C   0  0  0  0  0  0  0  0  0  0  0  0
   -0.4634   -3.4192   -1.1468 C   0  0  0  0  0  0  0  0  0  0  0  0
   -3.0105   -0.7866    1.5637 C   0  0  0  0  0  0  0  0  0  0  0  0
   -3.7741   -0.3224   -0.6809 C   0  0  0  0  0  0  0  0  0  0  0  0
    2.9253   -0.3520   -0.4961 C   0  0  0  0  0  0  0  0  0  0  0  0
   -4.1712   -0.2088    2.0782 C   0  0  0  0  0  0  0  0  0  0  0  0
   -4.9347    0.2555   -0.1665 C   0  0  0  0  0  0  0  0  0  0  0  0
    2.9448   -0.9061    0.8782 C   0  0  0  0  0  0  0  0  0  0  0  0
   -5.1333    0.3122    1.2130 C   0  0  0  0  0  0  0  0  0  0  0  0
    5.0210    0.2369    0.7835 C   0  0  0  0  0  0  0  0  0  0  0  0
   -1.8853    2.9262   -1.0082 H   0  0  0  0  0  0  0  0  0  0  0  0
   -0.6349    1.2848   -2.3231 H   0  0  0  0  0  0  0  0  0  0  0  0
    0.8818    1.7694   -1.5424 H   0  0  0  0  0  0  0  0  0  0  0  0
    0.7786    3.6760    0.3137 H   0  0  0  0  0  0  0  0  0  0  0  0
   -0.7828    4.4496    0.5941 H   0  0  0  0  0  0  0  0  0  0  0  0
   -0.2447    2.7881    2.3694 H   0  0  0  0  0  0  0  0  0  0  0  0
   -1.7190    2.3691    1.4974 H   0  0  0  0  0  0  0  0  0  0  0  0
    1.0531    1.1632    1.0957 H   0  0  0  0  0  0  0  0  0  0  0  0
   -0.3492    0.3651    1.8027 H   0  0  0  0  0  0  0  0  0  0  0  0
   -0.8735    4.8850   -1.8569 H   0  0  0  0  0  0  0  0  0  0  0  0
   -0.8018    3.6890   -2.9656 H   0  0  0  0  0  0  0  0  0  0  0  0
   -2.4931   -3.4178   -0.4564 H   0  0  0  0  0  0  0  0  0  0  0  0
    1.5674   -3.1528   -1.7824 H   0  0  0  0  0  0  0  0  0  0  0  0
    1.9734   -0.1266   -2.3629 H   0  0  0  0  0  0  0  0  0  0  0  0
   -0.4656   -4.4829   -1.3659 H   0  0  0  0  0  0  0  0  0  0  0  0
   -2.2736   -1.1924    2.2527 H   0  0  0  0  0  0  0  0  0  0  0  0
   -3.6341   -0.3572   -1.7587 H   0  0  0  0  0  0  0  0  0  0  0  0
   -4.3261   -0.1652    3.1522 H   0  0  0  0  0  0  0  0  0  0  0  0
   -5.6836    0.6619   -0.8400 H   0  0  0  0  0  0  0  0  0  0  0  0
   -6.0369    0.7623    1.6135 H   0  0  0  0  0  0  0  0  0  0  0  0
    4.3259   -0.8146    2.4444 H   0  0  0  0  0  0  0  0  0  0  0  0
  1 22  1  0  0  0  0
  1 27  1  0  0  0  0
  2 25  2  0  0  0  0
  3 27  2  0  0  0  0
  4  8  1  0  0  0  0
  4 11  1  0  0  0  0
  4 12  1  0  0  0  0
  5  7  1  0  0  0  0
  5 37  1  0  0  0  0
  5 38  1  0  0  0  0
  6 25  1  0  0  0  0
  6 27  1  0  0  0  0
  6 48  1  0  0  0  0
  7  8  1  0  0  0  0
  7  9  1  0  0  0  0
  7 28  1  0  0  0  0
  8 29  1  0  0  0  0
  8 30  1  0  0  0  0
  9 10  1  0  0  0  0
  9 31  1  0  0  0  0
  9 32  1  0  0  0  0
 10 11  1  0  0  0  0
 10 33  1  0  0  0  0
 10 34  1  0  0  0  0
 11 35  1  0  0  0  0
 11 36  1  0  0  0  0
 12 13  1  0  0  0  0
 12 14  2  0  0  0  0
 13 15  2  0  0  0  0
 13 16  1  0  0  0  0
 14 17  1  0  0  0  0
 14 18  1  0  0  0  0
 15 19  1  0  0  0  0
 15 39  1  0  0  0  0
 16 20  2  0  0  0  0
 16 21  1  0  0  0  0
 17 19  2  0  0  0  0
 17 40  1  0  0  0  0
 18 22  2  0  0  0  0
 18 41  1  0  0  0  0
 19 42  1  0  0  0  0
 20 23  1  0  0  0  0
 20 43  1  0  0  0  0
 21 24  2  0  0  0  0
 21 44  1  0  0  0  0
 22 25  1  0  0  0  0
 23 26  2  0  0  0  0
 23 45  1  0  0  0  0
 24 26  1  0  0  0  0
 24 46  1  0  0  0  0
 26 47  1  0  0  0  0
M  END
> <PUBCHEM_COMPOUND_CID>
117875026

> <PUBCHEM_CONFORMER_RMSD>
0.8

> <PUBCHEM_CONFORMER_DIVERSEORDER>
1
7
6
2
8
9
5
3
4

> <PUBCHEM_MMFF94_PARTIAL_CHARGES>
35
1 -0.24
11 0.37
12 0.1
14 0.03
15 -0.15
17 -0.15
18 -0.18
19 -0.15
2 -0.57
20 -0.15
21 -0.15
22 0.12
23 -0.15
24 -0.15
25 0.62
26 -0.15
27 0.77
3 -0.57
37 0.36
38 0.36
39 0.15
4 -0.84
40 0.15
41 0.15
42 0.15
43 0.15
44 0.15
45 0.15
46 0.15
47 0.15
48 0.37
5 -0.99
6 -0.49
7 0.27
8 0.37

> <PUBCHEM_EFFECTIVE_ROTOR_COUNT>
4.6

> <PUBCHEM_PHARMACOPHORE_FEATURES>
9
1 2 acceptor
1 4 cation
1 5 cation
1 5 donor
1 6 donor
5 1 6 22 25 27 rings
6 12 13 14 15 17 19 rings
6 16 20 21 23 24 26 rings
6 4 7 8 9 10 11 rings

> <PUBCHEM_HEAVY_ATOM_COUNT>
27

> <PUBCHEM_ATOM_DEF_STEREO_COUNT>
0

> <PUBCHEM_ATOM_UDEF_STEREO_COUNT>
1

> <PUBCHEM_BOND_DEF_STEREO_COUNT>
1

> <PUBCHEM_BOND_UDEF_STEREO_COUNT>
0

> <PUBCHEM_ISOTOPIC_ATOM_COUNT>
0

> <PUBCHEM_COMPONENT_COUNT>
1

> <PUBCHEM_CACTVS_TAUTO_COUNT>
3

> <PUBCHEM_CONFORMER_ID>
0706A15200000001

> <PUBCHEM_MMFF94_ENERGY>
84.139

> <PUBCHEM_FEATURE_SELFOVERLAP>
45.672

> <PUBCHEM_SHAPE_FINGERPRINT>
10006869 2 17986109600345052477
10162869 55 18272098210998034779
10165383 225 17846504725226071002
10906281 52 18263939765098723781
10930396 42 18049406453495523864
1100329 8 18269274741086411144
11578080 2 17771917021657061673
12011746 2 17775565346812820250
12035758 1 18412546548141115049
12403814 3 18335692849722448148
12422481 6 18119544149712313681
12467345 10 16516240739280008453
12633257 1 18131063861964234274
12788726 201 18113909229924110948
13140716 1 18269272546453048914
133893 2 17757823807670572949
13583140 156 17458337572177263655
13965767 371 18270689662074789402
14223421 5 17981051812281448727
14394314 77 18047753995168367772
14790565 3 18272663354134806865
14840074 17 18337402629064288704
14955137 171 18125188110206168243
1601671 61 18342465845639338215
17876694 64 17458919145050891068
17980427 23 17845654879988955487
18365409 1 17203035409689726383
18769570 83 18041279868634051749
20600515 1 18130238154169515516
21033648 29 17988095417250585123
21304253 335 17630070186541591833
21304303 282 17026255723458658437
2132832 1 17769359858211099247
21330990 113 18201722816697194425
22182313 1 18193844742838132727
23559900 14 17694787320023320543
238 59 16025925331797320141
350125 39 18055083068762957654
394222 165 17317083360379709199
4409770 3 18190157041052484013
5171179 24 17766846022137028511
81228 2 17903098645917940905
90316 7 18337098055863950886
9981440 41 17694182640304554634

> <PUBCHEM_SHAPE_MULTIPOLES>
532.82
9.04
3.71
1.82
4.25
1.77
0.19
0.18
4.92
-0.84
-1.98
-0.03
0.51
-0.01

> <PUBCHEM_SHAPE_SELFOVERLAP>
1153.421

> <PUBCHEM_SHAPE_VOLUME>
292.7

> <PUBCHEM_COORDINATE_TYPE>
2
5
10

$$$$
