11780986
  -OEChem-03292013303D

 38 40  0     1  0  0  0  0  0999 V2000
    2.5503    1.4211   -2.0290 O   0  0  0  0  0  0  0  0  0  0  0  0
    4.5044    1.4159   -0.1659 O   0  0  0  0  0  0  0  0  0  0  0  0
    3.9757   -2.8098    0.8519 O   0  0  0  0  0  0  0  0  0  0  0  0
   -4.0596   -0.5599    1.6986 O   0  0  0  0  0  0  0  0  0  0  0  0
   -0.1852    0.5201    0.0431 N   0  0  0  0  0  0  0  0  0  0  0  0
   -1.5759    1.5898    1.4138 N   0  0  0  0  0  0  0  0  0  0  0  0
   -1.6624   -0.9588   -1.0982 N   0  0  0  0  0  0  0  0  0  0  0  0
   -4.1147   -1.1204   -1.1404 N   0  0  0  0  0  0  0  0  0  0  0  0
    1.0746    0.1460   -0.5977 C   0  0  2  0  0  0  0  0  0  0  0  0
    3.2796   -0.6832    0.0156 C   0  0  1  0  0  0  0  0  0  0  0  0
    1.7916   -1.0290    0.1021 C   0  0  0  0  0  0  0  0  0  0  0  0
    2.1083    1.2938   -0.6773 C   0  0  1  0  0  0  0  0  0  0  0  0
    3.2708    0.8324    0.2049 C   0  0  2  0  0  0  0  0  0  0  0  0
    4.1230   -1.4140    1.0491 C   0  0  0  0  0  0  0  0  0  0  0  0
   -1.4285    0.0153   -0.2007 C   0  0  0  0  0  0  0  0  0  0  0  0
   -0.3252    1.4679    1.0213 C   0  0  0  0  0  0  0  0  0  0  0  0
   -2.2733    0.6812    0.6543 C   0  0  0  0  0  0  0  0  0  0  0  0
   -3.7379    0.4862    0.7848 C   0  0  1  0  0  0  0  0  0  0  0  0
   -4.4091    0.1982   -0.5621 C   0  0  0  0  0  0  0  0  0  0  0  0
   -2.9067   -1.4928   -1.3683 C   0  0  0  0  0  0  0  0  0  0  0  0
    0.8175   -0.1515   -1.6222 H   0  0  0  0  0  0  0  0  0  0  0  0
    3.6530   -0.9433   -0.9846 H   0  0  0  0  0  0  0  0  0  0  0  0
    1.4711   -1.1155    1.1482 H   0  0  0  0  0  0  0  0  0  0  0  0
    1.5660   -1.9815   -0.3894 H   0  0  0  0  0  0  0  0  0  0  0  0
    1.7408    2.2810   -0.3867 H   0  0  0  0  0  0  0  0  0  0  0  0
    3.0672    1.0797    1.2545 H   0  0  0  0  0  0  0  0  0  0  0  0
    3.8054   -1.1715    2.0687 H   0  0  0  0  0  0  0  0  0  0  0  0
    5.1808   -1.1531    0.9413 H   0  0  0  0  0  0  0  0  0  0  0  0
    3.2680    2.0771   -2.0398 H   0  0  0  0  0  0  0  0  0  0  0  0
    4.4086    2.3794   -0.0767 H   0  0  0  0  0  0  0  0  0  0  0  0
    0.5036    2.0248    1.4359 H   0  0  0  0  0  0  0  0  0  0  0  0
   -4.1667    1.4101    1.1922 H   0  0  0  0  0  0  0  0  0  0  0  0
   -0.8754   -1.4169   -1.5514 H   0  0  0  0  0  0  0  0  0  0  0  0
    4.5249   -3.2530    1.5209 H   0  0  0  0  0  0  0  0  0  0  0  0
   -5.4958    0.2307   -0.4161 H   0  0  0  0  0  0  0  0  0  0  0  0
   -4.1716    0.9791   -1.2958 H   0  0  0  0  0  0  0  0  0  0  0  0
   -2.7850   -2.4599   -1.8850 H   0  0  0  0  0  0  0  0  0  0  0  0
   -5.0289   -0.6129    1.7562 H   0  0  0  0  0  0  0  0  0  0  0  0
  1 12  1  0  0  0  0
  1 29  1  0  0  0  0
  2 13  1  0  0  0  0
  2 30  1  0  0  0  0
  3 14  1  0  0  0  0
  3 34  1  0  0  0  0
  4 18  1  0  0  0  0
  4 38  1  0  0  0  0
  5  9  1  0  0  0  0
  5 15  1  0  0  0  0
  5 16  1  0  0  0  0
  6 16  2  0  0  0  0
  6 17  1  0  0  0  0
  7 15  1  0  0  0  0
  7 20  1  0  0  0  0
  7 33  1  0  0  0  0
  8 19  1  0  0  0  0
  8 20  2  0  0  0  0
  9 11  1  0  0  0  0
  9 12  1  0  0  0  0
  9 21  1  0  0  0  0
 10 11  1  0  0  0  0
 10 13  1  0  0  0  0
 10 14  1  0  0  0  0
 10 22  1  0  0  0  0
 11 23  1  0  0  0  0
 11 24  1  0  0  0  0
 12 13  1  0  0  0  0
 12 25  1  0  0  0  0
 13 26  1  0  0  0  0
 14 27  1  0  0  0  0
 14 28  1  0  0  0  0
 15 17  2  0  0  0  0
 16 31  1  0  0  0  0
 17 18  1  0  0  0  0
 18 19  1  0  0  0  0
 18 32  1  0  0  0  0
 19 35  1  0  0  0  0
 19 36  1  0  0  0  0
 20 37  1  0  0  0  0
M  END
> <PUBCHEM_COMPOUND_CID>
11780986

> <PUBCHEM_CONFORMER_RMSD>
0.6

> <PUBCHEM_CONFORMER_DIVERSEORDER>
4
13
9
20
19
11
18
15
7
2
25
17
10
21
16
14
24
5
22
3
23
8
6
12
1

> <PUBCHEM_MMFF94_PARTIAL_CHARGES>
25
1 -0.68
12 0.28
13 0.28
14 0.28
15 -0.07
16 0.04
17 0.05
18 0.46
19 0.25
2 -0.68
20 0.44
29 0.4
3 -0.68
30 0.4
31 0.15
33 0.4
34 0.4
37 0.06
38 0.4
4 -0.68
5 0.05
6 -0.57
7 -0.53
8 -0.7
9 0.26

> <PUBCHEM_EFFECTIVE_ROTOR_COUNT>
3.6

> <PUBCHEM_PHARMACOPHORE_FEATURES>
14
1 1 acceptor
1 1 donor
1 2 acceptor
1 2 donor
1 3 acceptor
1 3 donor
1 4 acceptor
1 4 donor
1 7 donor
3 5 6 16 cation
3 7 8 20 cation
5 5 6 15 16 17 rings
5 9 10 11 12 13 rings
7 7 8 15 17 18 19 20 rings

> <PUBCHEM_HEAVY_ATOM_COUNT>
20

> <PUBCHEM_ATOM_DEF_STEREO_COUNT>
5

> <PUBCHEM_ATOM_UDEF_STEREO_COUNT>
0

> <PUBCHEM_BOND_DEF_STEREO_COUNT>
0

> <PUBCHEM_BOND_UDEF_STEREO_COUNT>
0

> <PUBCHEM_ISOTOPIC_ATOM_COUNT>
0

> <PUBCHEM_COMPONENT_COUNT>
1

> <PUBCHEM_CACTVS_TAUTO_COUNT>
2

> <PUBCHEM_CONFORMER_ID>
00B3C37A00000004

> <PUBCHEM_MMFF94_ENERGY>
47.2159

> <PUBCHEM_FEATURE_SELFOVERLAP>
71.102

> <PUBCHEM_SHAPE_FINGERPRINT>
10062212 137 18272644654295150991
10366900 7 15482672372740003577
11132069 177 17274827926413514193
11578080 2 18196060357553095440
12236239 1 18413108376728393700
12403814 3 18409731759957134141
12553582 1 17917722309391396521
12633257 1 17131830949757332074
12670545 47 15410886392391605073
13167823 11 18413669102020702230
13224815 77 18201726179614239351
13538477 17 18201721764356223700
13583140 156 18334863865474428873
13631057 29 17979070814519731182
13675066 3 18334012787333805225
14081887 123 16774078440786481467
15375462 189 18343587373211399585
15848702 151 17458347455012867645
16945 1 17703802396612092097
17349148 13 18059848450609261679
1813 80 18045230349672654246
18186145 218 16008745814467932381
19026448 4 17167865287695433833
19050596 39 18202281390084176666
200 152 18408599253925970217
20645477 70 17603589621095661138
21069387 34 18186800253564662538
2255824 54 18260836999140612478
22646028 1 18412822473614000922
22646028 28 18343015584210209454
23366157 5 17984408909308186921
23402539 116 17846779615443092348
23557571 272 16630535028574043504
23559900 14 17059789835946866012
26918003 58 18187081749836615123
2748010 2 17340998606521650253
312423 11 18263941968063362784
474 4 18120653789105419540
4990 188 16153422861369625505
5104073 3 18131631201211000947
5161694 15 16081088164557724274
5281201 14 16732987530676816031
5374978 207 17847055584302981752
573450 72 18060133224236925779
5902787 121 17703785972287822289
633830 44 16732697251344306565
67856867 119 18270669965961366424
7097593 13 17984420737663690506
77492 1 18412269440692697405
90316 7 17988360382156972297

> <PUBCHEM_SHAPE_MULTIPOLES>
368.19
9.27
1.9
1.43
0.02
0.58
0.12
2.46
-0.87
1.4
-0.21
-0.29
-0.02
-2.06

> <PUBCHEM_SHAPE_SELFOVERLAP>
786.112

> <PUBCHEM_SHAPE_VOLUME>
203.2

> <PUBCHEM_COORDINATE_TYPE>
2
5
10

$$$$
