REMARK  Name = 117831302
REMARK  13 active torsions:
REMARK  status: ('A' for Active; 'I' for Inactive)
REMARK    1  A    between atoms: C_1  and  O_2
REMARK    2  A    between atoms: C_1  and  C_9
REMARK    3  A    between atoms: C_1  and  C_17
REMARK    4  A    between atoms: O_2  and  C_3
REMARK    5  A    between atoms: C_3  and  C_6
REMARK    6  A    between atoms: C_6  and  O_7
REMARK    7  A    between atoms: C_9  and  O_10
REMARK    8  A    between atoms: C_9  and  C_12
REMARK    9  A    between atoms: C_12  and  O_13
REMARK   10  A    between atoms: C_12  and  C_16
REMARK   11  A    between atoms: C_17  and  O_18
REMARK   12  A    between atoms: C_17  and  C_20
REMARK   13  A    between atoms: C_20  and  O_21
REMARK                            x       y       z     vdW  Elec       q    Type
REMARK                         _______ _______ _______ _____ _____    ______ ____
ROOT
ATOM      1  C   UNL     1      -0.059   0.586  -0.379  0.00  0.00    +0.174 C 
ENDROOT
BRANCH   1   2
ATOM      2  O   UNL     1       0.662  -0.479   0.250  0.00  0.00    -0.342 OA
BRANCH   2   3
ATOM      3  C   UNL     1       1.736  -0.919  -0.564  0.00  0.00    +0.213 C 
ATOM      4  C   UNL     1       1.223  -2.037  -1.455  0.00  0.00    +0.044 C 
BRANCH   3   6
ATOM      5  O   UNL     1       2.797  -1.441   1.559  0.00  0.00    -0.248 OA
ATOM      6  C   UNL     1       2.853  -1.403   0.337  0.00  0.00    +0.341 C 
BRANCH   6   7
ATOM      7  O   UNL     1       3.938  -1.819  -0.366  0.00  0.00    -0.479 OA
ATOM      8  H   UNL     1       3.936  -1.771  -1.302  0.00  0.00    +0.295 HD
ENDBRANCH   6   7
ENDBRANCH   3   6
ENDBRANCH   2   3
ENDBRANCH   1   2
BRANCH   1   9
ATOM      9  C   UNL     1      -1.547   0.511   0.006  0.00  0.00    +0.174 C 
BRANCH   9  10
ATOM     10  O   UNL     1      -1.611   0.362   1.429  0.00  0.00    -0.379 OA
ATOM     11  H   UNL     1      -1.080   1.056   1.851  0.00  0.00    +0.211 HD
ENDBRANCH   9  10
BRANCH   9  12
ATOM     12  C   UNL     1      -2.385  -0.585  -0.666  0.00  0.00    +0.205 C 
BRANCH  12  13
ATOM     13  O   UNL     1      -1.779  -1.840  -0.378  0.00  0.00    -0.375 OA
ATOM     14  H   UNL     1      -0.857  -1.831  -0.679  0.00  0.00    +0.211 HD
ENDBRANCH  12  13
BRANCH  12  16
ATOM     15  O   UNL     1      -4.305  -1.596   0.423  0.00  0.00    -0.286 OA
ATOM     16  C   UNL     1      -3.819  -0.645  -0.181  0.00  0.00    +0.239 C 
ENDBRANCH  12  16
ENDBRANCH   9  12
ENDBRANCH   1   9
BRANCH   1  17
ATOM     17  C   UNL     1       0.652   1.897  -0.014  0.00  0.00    +0.169 C 
BRANCH  17  18
ATOM     18  O   UNL     1       0.475   2.116   1.393  0.00  0.00    -0.379 OA
ATOM     19  H   UNL     1       0.816   1.353   1.886  0.00  0.00    +0.211 HD
ENDBRANCH  17  18
BRANCH  17  20
ATOM     20  C   UNL     1       0.100   3.124  -0.730  0.00  0.00    +0.169 C 
BRANCH  20  21
ATOM     21  O   UNL     1       1.067   4.169  -0.666  0.00  0.00    -0.379 OA
ATOM     22  H   UNL     1       0.725   4.955  -1.119  0.00  0.00    +0.211 HD
ENDBRANCH  20  21
ENDBRANCH  17  20
ENDBRANCH   1  17
TORSDOF 13
