REMARK  Name = 11780986
REMARK  6 active torsions:
REMARK  status: ('A' for Active; 'I' for Inactive)
REMARK    1  A    between atoms: N_1  and  C_12
REMARK    2  A    between atoms: C_8  and  O_24
REMARK    3  A    between atoms: C_13  and  C_21
REMARK    4  A    between atoms: C_15  and  O_17
REMARK    5  A    between atoms: C_16  and  O_19
REMARK    6  A    between atoms: C_21  and  O_22
REMARK                            x       y       z     vdW  Elec       q    Type
REMARK                         _______ _______ _______ _____ _____    ______ ____
ROOT
ATOM      1  N   UNL     1      -0.185   0.520   0.043  0.00  0.00    -0.232 NA
ATOM      2  N   UNL     1      -1.576   1.590   1.414  0.00  0.00    -0.255 NA
ATOM      3  N   UNL     1      -1.662  -0.959  -1.098  0.00  0.00    -0.301 N 
ATOM      4  N   UNL     1      -4.115  -1.120  -1.140  0.00  0.00    -0.251 NA
ATOM      5  C   UNL     1      -1.429   0.015  -0.201  0.00  0.00    +0.173 C 
ATOM      6  C   UNL     1      -0.325   1.468   1.021  0.00  0.00    +0.202 C 
ATOM      7  C   UNL     1      -2.273   0.681   0.654  0.00  0.00    +0.095 C 
ATOM      8  C   UNL     1      -3.738   0.486   0.785  0.00  0.00    +0.173 C 
ATOM      9  C   UNL     1      -4.409   0.198  -0.562  0.00  0.00    +0.162 C 
ATOM     10  C   UNL     1      -2.907  -1.493  -1.368  0.00  0.00    +0.157 C 
ATOM     11  H   UNL     1      -0.893  -1.316  -1.597  0.00  0.00    +0.150 HD
ENDROOT
BRANCH   1  12
ATOM     12  C   UNL     1       1.075   0.146  -0.598  0.00  0.00    +0.090 C 
ATOM     13  C   UNL     1       3.280  -0.683   0.016  0.00  0.00    +0.060 C 
ATOM     14  C   UNL     1       1.792  -1.029   0.102  0.00  0.00    +0.024 C 
ATOM     15  C   UNL     1       2.108   1.294  -0.677  0.00  0.00    +0.152 C 
ATOM     16  C   UNL     1       3.271   0.832   0.205  0.00  0.00    +0.141 C 
BRANCH  15  17
ATOM     17  O   UNL     1       2.550   1.421  -2.029  0.00  0.00    -0.381 OA
ATOM     18  H   UNL     1       1.811   1.714  -2.585  0.00  0.00    +0.210 HD
ENDBRANCH  15  17
BRANCH  16  19
ATOM     19  O   UNL     1       4.504   1.416  -0.166  0.00  0.00    -0.382 OA
ATOM     20  H   UNL     1       5.205   1.092   0.422  0.00  0.00    +0.210 HD
ENDBRANCH  16  19
BRANCH  13  21
ATOM     21  C   UNL     1       4.123  -1.414   1.049  0.00  0.00    +0.140 C 
BRANCH  21  22
ATOM     22  O   UNL     1       3.976  -2.810   0.852  0.00  0.00    -0.382 OA
ATOM     23  H   UNL     1       4.510  -3.287   1.506  0.00  0.00    +0.210 HD
ENDBRANCH  21  22
ENDBRANCH  13  21
ENDBRANCH   1  12
BRANCH   8  24
ATOM     24  O   UNL     1      -4.060  -0.560   1.699  0.00  0.00    -0.377 OA
ATOM     25  H   UNL     1      -3.637  -0.383   2.554  0.00  0.00    +0.211 HD
ENDBRANCH   8  24
TORSDOF 6
