117993993
  -OEChem-03292013293D

 46 48  0     0  0  0  0  0  0999 V2000
   -3.0024    2.7149    2.6485 Cl  0  0  0  0  0  0  0  0  0  0  0  0
    7.5219   -1.1341    0.2800 S   0  0  0  0  0  0  0  0  0  0  0  0
    3.5771   -2.0202    0.4738 F   0  0  0  0  0  0  0  0  0  0  0  0
   -5.4811    1.4454   -1.5183 F   0  0  0  0  0  0  0  0  0  0  0  0
   -6.6237   -3.5130    0.4875 F   0  0  0  0  0  0  0  0  0  0  0  0
    1.0691    2.7575   -0.5587 O   0  0  0  0  0  0  0  0  0  0  0  0
   -4.5343    0.7473    0.9811 O   0  0  0  0  0  0  0  0  0  0  0  0
    5.7024    0.7694   -1.3727 O   0  0  0  0  0  0  0  0  0  0  0  0
    8.2716    0.1034    0.3670 O   0  0  0  0  0  0  0  0  0  0  0  0
    7.8178   -2.2492    1.1585 O   0  0  0  0  0  0  0  0  0  0  0  0
    5.8418   -0.8112    0.3518 N   0  0  0  0  0  0  0  0  0  0  0  0
   -2.7134   -0.1984   -0.0744 N   0  0  0  0  0  0  0  0  0  0  0  0
    0.9484    0.4743    0.1831 C   0  0  0  0  0  0  0  0  0  0  0  0
    1.6747    1.5640   -0.2977 C   0  0  0  0  0  0  0  0  0  0  0  0
   -0.4775    0.5771    0.4200 C   0  0  0  0  0  0  0  0  0  0  0  0
    3.6925    0.2357   -0.2599 C   0  0  0  0  0  0  0  0  0  0  0  0
    1.5942   -0.7346    0.4421 C   0  0  0  0  0  0  0  0  0  0  0  0
    3.0468    1.4445   -0.5191 C   0  0  0  0  0  0  0  0  0  0  0  0
    2.9662   -0.8540    0.2208 C   0  0  0  0  0  0  0  0  0  0  0  0
    5.1233    0.1153   -0.4924 C   0  0  0  0  0  0  0  0  0  0  0  0
   -0.9898    1.5003    1.3248 C   0  0  0  0  0  0  0  0  0  0  0  0
   -1.3734   -0.2420   -0.2480 C   0  0  0  0  0  0  0  0  0  0  0  0
   -2.3628    1.5753    1.5307 C   0  0  0  0  0  0  0  0  0  0  0  0
   -3.1744    0.7116    0.8130 C   0  0  0  0  0  0  0  0  0  0  0  0
    7.6355   -1.7270   -1.3907 C   0  0  0  0  0  0  0  0  0  0  0  0
   -5.2887   -0.1379    0.2375 C   0  0  0  0  0  0  0  0  0  0  0  0
    0.5559    2.9477   -1.8752 C   0  0  0  0  0  0  0  0  0  0  0  0
   -5.7584    0.2315   -1.0230 C   0  0  0  0  0  0  0  0  0  0  0  0
   -5.5814   -1.4026    0.7478 C   0  0  0  0  0  0  0  0  0  0  0  0
   -6.3438   -2.2980   -0.0022 C   0  0  0  0  0  0  0  0  0  0  0  0
   -6.5209   -0.6640   -1.7730 C   0  0  0  0  0  0  0  0  0  0  0  0
   -6.8134   -1.9287   -1.2627 C   0  0  0  0  0  0  0  0  0  0  0  0
    1.0495   -1.5955    0.8226 H   0  0  0  0  0  0  0  0  0  0  0  0
    3.6043    2.3018   -0.8895 H   0  0  0  0  0  0  0  0  0  0  0  0
   -0.3231    2.1581    1.8790 H   0  0  0  0  0  0  0  0  0  0  0  0
   -1.0429   -0.9808   -0.9726 H   0  0  0  0  0  0  0  0  0  0  0  0
    5.3036   -1.4100    0.9906 H   0  0  0  0  0  0  0  0  0  0  0  0
    7.4357   -0.9170   -2.0917 H   0  0  0  0  0  0  0  0  0  0  0  0
    6.9319   -2.5509   -1.5255 H   0  0  0  0  0  0  0  0  0  0  0  0
    8.6543   -2.0913   -1.5441 H   0  0  0  0  0  0  0  0  0  0  0  0
    0.0635    3.9234   -1.9124 H   0  0  0  0  0  0  0  0  0  0  0  0
   -0.1791    2.1770   -2.1267 H   0  0  0  0  0  0  0  0  0  0  0  0
    1.3706    2.9400   -2.6062 H   0  0  0  0  0  0  0  0  0  0  0  0
   -5.2196   -1.6969    1.7292 H   0  0  0  0  0  0  0  0  0  0  0  0
   -6.8865   -0.3762   -2.7543 H   0  0  0  0  0  0  0  0  0  0  0  0
   -7.4067   -2.6262   -1.8466 H   0  0  0  0  0  0  0  0  0  0  0  0
  1 23  1  0  0  0  0
  2  9  2  0  0  0  0
  2 10  2  0  0  0  0
  2 11  1  0  0  0  0
  2 25  1  0  0  0  0
  3 19  1  0  0  0  0
  4 28  1  0  0  0  0
  5 30  1  0  0  0  0
  6 14  1  0  0  0  0
  6 27  1  0  0  0  0
  7 24  1  0  0  0  0
  7 26  1  0  0  0  0
  8 20  2  0  0  0  0
 11 20  1  0  0  0  0
 11 37  1  0  0  0  0
 12 22  2  0  0  0  0
 12 24  1  0  0  0  0
 13 14  1  0  0  0  0
 13 15  1  0  0  0  0
 13 17  2  0  0  0  0
 14 18  2  0  0  0  0
 15 21  2  0  0  0  0
 15 22  1  0  0  0  0
 16 18  1  0  0  0  0
 16 19  2  0  0  0  0
 16 20  1  0  0  0  0
 17 19  1  0  0  0  0
 17 33  1  0  0  0  0
 18 34  1  0  0  0  0
 21 23  1  0  0  0  0
 21 35  1  0  0  0  0
 22 36  1  0  0  0  0
 23 24  2  0  0  0  0
 25 38  1  0  0  0  0
 25 39  1  0  0  0  0
 25 40  1  0  0  0  0
 26 28  2  0  0  0  0
 26 29  1  0  0  0  0
 27 41  1  0  0  0  0
 27 42  1  0  0  0  0
 27 43  1  0  0  0  0
 28 31  1  0  0  0  0
 29 30  2  0  0  0  0
 29 44  1  0  0  0  0
 30 32  1  0  0  0  0
 31 32  2  0  0  0  0
 31 45  1  0  0  0  0
 32 46  1  0  0  0  0
M  END
> <PUBCHEM_COMPOUND_CID>
117993993

> <PUBCHEM_CONFORMER_RMSD>
1.2

> <PUBCHEM_CONFORMER_DIVERSEORDER>
1
52
5
95
53
66
54
88
12
91
17
9
75
44
89
23
90
101
31
36
59
97
102
2
73
4
56
100
71
93
70
80
34
10
33
81
76
57
103
85
62
74
30
49
79
92
46
87
18
77
84
13
68
82
37
47
7
96
24
64
78
48
15
26
28
8
42
69
67
29
40
58
38
3
60
41
72
83
86
65
22
98
19
27
35
21
32
25
99
61
14
63
43
16
45
55
11
50
51
6
94
39
20

> <PUBCHEM_MMFF94_PARTIAL_CHARGES>
38
1 -0.18
10 -0.65
11 -0.79
12 -0.62
14 0.08
16 0.09
17 -0.15
18 -0.15
19 0.19
2 1.33
20 0.72
21 -0.15
22 0.16
23 0.18
24 0.39
25 0.11
26 0.08
27 0.28
28 0.19
29 -0.15
3 -0.19
30 0.19
31 -0.15
32 -0.15
33 0.15
34 0.15
35 0.15
36 0.15
37 0.42
4 -0.19
44 0.15
45 0.15
46 0.15
5 -0.19
6 -0.36
7 -0.17
8 -0.57
9 -0.65

> <PUBCHEM_EFFECTIVE_ROTOR_COUNT>
7

> <PUBCHEM_PHARMACOPHORE_FEATURES>
10
1 10 acceptor
1 11 donor
1 12 acceptor
1 6 acceptor
1 7 acceptor
1 8 acceptor
1 9 acceptor
6 12 15 21 22 23 24 rings
6 13 14 16 17 18 19 rings
6 26 28 29 30 31 32 rings

> <PUBCHEM_HEAVY_ATOM_COUNT>
32

> <PUBCHEM_ATOM_DEF_STEREO_COUNT>
0

> <PUBCHEM_ATOM_UDEF_STEREO_COUNT>
0

> <PUBCHEM_BOND_DEF_STEREO_COUNT>
0

> <PUBCHEM_BOND_UDEF_STEREO_COUNT>
0

> <PUBCHEM_ISOTOPIC_ATOM_COUNT>
0

> <PUBCHEM_COMPONENT_COUNT>
1

> <PUBCHEM_CACTVS_TAUTO_COUNT>
2

> <PUBCHEM_CONFORMER_ID>
0708720900000001

> <PUBCHEM_MMFF94_ENERGY>
96.2184

> <PUBCHEM_FEATURE_SELFOVERLAP>
50.817

> <PUBCHEM_SHAPE_FINGERPRINT>
10 15 13542458765936437302
11135609 99 18272368732442219950
11135926 11 18410294671271829899
11497681 19 18270402677504519822
11963148 33 18335978697425480306
12166972 35 18337956796078920405
12236239 1 18342463638036983496
12539765 74 8286198388421828344
13782708 43 17203337663132450422
14068700 675 18272369788883115169
14849402 71 11311760804955216082
15183329 4 17167855348840411129
1577012 14 18341909480235311264
15979999 66 18040715891946317668
16994733 274 8574427600172938766
17349148 13 18201447999584430437
17686467 74 18131063862165207928
18681886 176 18412257371839773291
18927931 339 17561086908777299413
20028762 73 18412831257608709038
2026 5 18412823603776963095
21130935 74 18059298635547234426
21424621 283 9295286136552380876
21521721 280 11959728274959646380
22224240 67 12535624977144302308
23389318 12 18260837016753037700
23522609 53 18048071556570789796
23559900 14 18189617314361992729
23569917 315 18411145719068627010
23569943 247 17908434550637826114
23576562 1 16589164894446546662
249057 25 18338811060784369688
3004659 81 18410006680881868195
3383291 50 18131070463024026367
34797466 226 16415488181734675648
3504750 166 18051979113156901632
4015057 19 17968669331932365761
4093350 32 8286209349168213868
4112364 45 15194987411229715080
439807 62 18337675343183499835
474113 269 16660908986922743890
54039377 194 18341334491842052191
57527295 17 16878210988547122049
5969126 39 18041276574019680756
6328613 192 11891334261527636158
9689198 14 9151173177532909268
9953998 17 14405185084546008503

> <PUBCHEM_SHAPE_MULTIPOLES>
603.13
23.07
2.88
1.63
19.41
0.12
-0.09
-19.57
-2.55
-2.57
0.4
-1.26
0.94
-1.8

> <PUBCHEM_SHAPE_SELFOVERLAP>
1293.163

> <PUBCHEM_SHAPE_VOLUME>
339.5

> <PUBCHEM_COORDINATE_TYPE>
2
5
10

$$$$
