REMARK  Name = 117991913
REMARK  7 active torsions:
REMARK  status: ('A' for Active; 'I' for Inactive)
REMARK    1  A    between atoms: C_3  and  C_19
REMARK    2  A    between atoms: C_5  and  C_10
REMARK    3  A    between atoms: N_9  and  C_12
REMARK    4  A    between atoms: C_12  and  C_15
REMARK    5  A    between atoms: C_19  and  N_20
REMARK    6  A    between atoms: N_20  and  S_22
REMARK    7  A    between atoms: S_22  and  C_27
REMARK                            x       y       z     vdW  Elec       q    Type
REMARK                         _______ _______ _______ _____ _____    ______ ____
ROOT
ATOM      1  N   UNL     1      -0.158   1.451  -0.797  0.00  0.00    -0.263 NA
ATOM      2  N   UNL     1       1.670   0.424   1.066  0.00  0.00    -0.403 NA
ATOM      3  C   UNL     1      -0.537   0.610   0.185  0.00  0.00    +0.097 C 
ATOM      4  C   UNL     1       0.361   0.105   1.100  0.00  0.00    +0.124 C 
ATOM      5  C   UNL     1       2.049   1.265   0.083  0.00  0.00    +0.186 C 
ATOM      6  C   UNL     1      -0.072  -0.827   2.179  0.00  0.00    +0.068 C 
ATOM      7  C   UNL     1       1.152   1.770  -0.832  0.00  0.00    +0.188 C 
ENDROOT
BRANCH   5  10
ATOM      8  O   UNL     1       3.886   2.400  -0.831  0.00  0.00    -0.268 OA
ATOM      9  N   UNL     1       4.289   1.049   1.010  0.00  0.00    -0.295 N 
ATOM     10  C   UNL     1       3.456   1.614   0.035  0.00  0.00    +0.274 C 
ATOM     11  H   UNL     1       3.886   0.435   1.665  0.00  0.00    +0.150 HD
BRANCH   9  12
ATOM     12  C   UNL     1       5.706   1.317   1.108  0.00  0.00    +0.125 C 
BRANCH  12  15
ATOM     13  S   UNL     1       6.795  -1.238   0.770  0.00  0.00    -0.073 S 
ATOM     14  N   UNL     1       7.830  -0.482  -1.475  0.00  0.00    -0.241 NA
ATOM     15  C   UNL     1       6.522   0.378   0.264  0.00  0.00    +0.047 C 
ATOM     16  C   UNL     1       7.146   0.595  -0.946  0.00  0.00    +0.103 C 
ATOM     17  C   UNL     1       7.713  -1.503  -0.655  0.00  0.00    +0.088 C 
ATOM     18  C   UNL     1       8.314  -2.834  -0.885  0.00  0.00    +0.059 C 
ENDBRANCH  12  15
ENDBRANCH   9  12
ENDBRANCH   5  10
BRANCH   3  19
ATOM     19  C   UNL     1      -1.994   0.244   0.233  0.00  0.00    +0.139 C 
BRANCH  19  20
ATOM     20  N   UNL     1      -2.246  -1.109  -0.283  0.00  0.00    -0.173 NA
ATOM     21  H   UNL     1      -2.361  -1.023  -1.293  0.00  0.00    +0.149 HD
BRANCH  20  22
ATOM     22  S   UNL     1      -3.583  -2.005   0.292  0.00  0.00    +0.061 S 
ATOM     23  O   UNL     1      -3.503  -2.080   1.745  0.00  0.00    -0.153 OA
ATOM     24  O   UNL     1      -3.684  -3.236  -0.481  0.00  0.00    -0.153 OA
BRANCH  22  27
ATOM     25  F   UNL     1      -6.914   1.726   1.253  0.00  0.00    -0.202 F 
ATOM     26  F   UNL     1      -8.127   1.417  -1.178  0.00  0.00    -0.202 F 
ATOM     27  C   UNL     1      -4.933  -0.987  -0.145  0.00  0.00    +0.124 C 
ATOM     28  C   UNL     1      -5.393  -0.018   0.746  0.00  0.00    +0.052 C 
ATOM     29  C   UNL     1      -5.552  -1.145  -1.385  0.00  0.00    +0.022 C 
ATOM     30  C   UNL     1      -6.472   0.795   0.398  0.00  0.00    +0.169 C 
ATOM     31  C   UNL     1      -6.631  -0.333  -1.733  0.00  0.00    +0.033 C 
ATOM     32  C   UNL     1      -7.091   0.637  -0.842  0.00  0.00    +0.167 C 
ENDBRANCH  22  27
ENDBRANCH  20  22
ENDBRANCH  19  20
ENDBRANCH   3  19
TORSDOF 7
