REMARK  Name = 11794029
REMARK  5 active torsions:
REMARK  status: ('A' for Active; 'I' for Inactive)
REMARK    1  A    between atoms: C_9  and  C_24
REMARK    2  A    between atoms: C_10  and  C_28
REMARK    3  A    between atoms: C_18  and  O_22
REMARK    4  A    between atoms: C_24  and  C_26
REMARK    5  A    between atoms: C_28  and  O_29
REMARK                            x       y       z     vdW  Elec       q    Type
REMARK                         _______ _______ _______ _____ _____    ______ ____
ROOT
ATOM      1  O   UNL     1       1.538   1.139   0.233  0.00  0.00    -0.457 OA
ATOM      2  O   UNL     1      -0.841   2.023   0.128  0.00  0.00    -0.286 OA
ATOM      3  O   UNL     1       4.096  -2.017   0.307  0.00  0.00    -0.286 OA
ATOM      4  O   UNL     1      -2.855  -2.920  -0.048  0.00  0.00    -0.287 OA
ATOM      5  C   UNL     1       1.013  -0.131   0.187  0.00  0.00    +0.151 C 
ATOM      6  C   UNL     1      -0.386  -0.286   0.115  0.00  0.00    +0.077 C 
ATOM      7  C   UNL     1       1.838  -1.260   0.210  0.00  0.00    +0.072 C 
ATOM      8  C   UNL     1      -0.928  -1.577   0.068  0.00  0.00    +0.045 C 
ATOM      9  C   UNL     1       2.909   1.305   0.303  0.00  0.00    +0.126 C 
ATOM     10  C   UNL     1       1.292  -2.543   0.163  0.00  0.00    +0.013 C 
ATOM     11  C   UNL     1      -0.090  -2.700   0.092  0.00  0.00    +0.002 C 
ATOM     12  C   UNL     1      -1.298   0.888   0.088  0.00  0.00    +0.202 C 
ATOM     13  C   UNL     1       3.299  -1.089   0.284  0.00  0.00    +0.201 C 
ATOM     14  C   UNL     1      -2.758   0.672   0.011  0.00  0.00    +0.076 C 
ATOM     15  C   UNL     1       3.792   0.298   0.330  0.00  0.00    +0.075 C 
ATOM     16  C   UNL     1      -2.389  -1.788  -0.008  0.00  0.00    +0.196 C 
ATOM     17  C   UNL     1      -3.284  -0.618  -0.035  0.00  0.00    +0.045 C 
ATOM     18  C   UNL     1      -3.621   1.776  -0.016  0.00  0.00    +0.137 C 
ATOM     19  C   UNL     1      -4.670  -0.807  -0.109  0.00  0.00    +0.003 C 
ATOM     20  C   UNL     1      -5.001   1.585  -0.089  0.00  0.00    +0.037 C 
ATOM     21  C   UNL     1      -5.525   0.295  -0.136  0.00  0.00    +0.003 C 
ENDROOT
BRANCH  18  22
ATOM     22  O   UNL     1      -3.177   3.066   0.025  0.00  0.00    -0.505 OA
ATOM     23  H   UNL     1      -2.259   3.244   0.074  0.00  0.00    +0.292 HD
ENDBRANCH  18  22
BRANCH   9  24
ATOM     24  C   UNL     1       3.334   2.739   0.347  0.00  0.00    +0.058 C 
ATOM     25  C   UNL     1       2.781   3.399   1.611  0.00  0.00    +0.008 C 
BRANCH  24  26
ATOM     26  C   UNL     1       2.890   3.521  -0.902  0.00  0.00    +0.008 C 
ATOM     27  C   UNL     1       3.505   2.991  -2.192  0.00  0.00    +0.000 C 
ENDBRANCH  24  26
ENDBRANCH   9  24
BRANCH  10  28
ATOM     28  C   UNL     1       2.108  -3.795   0.183  0.00  0.00    +0.164 C 
BRANCH  28  29
ATOM     29  O   UNL     1       2.430  -4.166  -1.150  0.00  0.00    -0.377 OA
ATOM     30  H   UNL     1       2.960  -4.979  -1.141  0.00  0.00    +0.211 HD
ENDBRANCH  28  29
ENDBRANCH  10  28
TORSDOF 5
