REMARK  Name = 117949357
REMARK  7 active torsions:
REMARK  status: ('A' for Active; 'I' for Inactive)
REMARK    1  A    between atoms: N_4  and  C_19
REMARK    2  A    between atoms: C_13  and  O_17
REMARK    3  A    between atoms: C_19  and  C_21
REMARK    4  A    between atoms: C_19  and  C_32
REMARK    5  A    between atoms: C_26  and  O_27
REMARK    6  A    between atoms: O_27  and  C_31
REMARK    7  A    between atoms: C_32  and  O_33
REMARK                            x       y       z     vdW  Elec       q    Type
REMARK                         _______ _______ _______ _____ _____    ______ ____
ROOT
ATOM      1  O   UNL     1       0.859   0.207   1.652  0.00  0.00    -0.252 OA
ATOM      2  O   UNL     1       3.492   2.083  -3.422  0.00  0.00    -0.273 OA
ATOM      3  N   UNL     1       2.089   0.735  -0.285  0.00  0.00    -0.218 N 
ATOM      4  N   UNL     1       0.044   1.819   0.243  0.00  0.00    -0.284 N 
ATOM      5  N   UNL     1       4.313   0.462  -2.043  0.00  0.00    -0.280 N 
ATOM      6  N   UNL     1       3.068  -0.993   1.093  0.00  0.00    -0.224 NA
ATOM      7  C   UNL     1       2.185   1.548  -1.499  0.00  0.00    +0.186 C 
ATOM      8  C   UNL     1       3.135  -0.213  -0.017  0.00  0.00    +0.153 C 
ATOM      9  C   UNL     1       0.994   0.864   0.615  0.00  0.00    +0.309 C 
ATOM     10  C   UNL     1       4.208  -0.325  -0.895  0.00  0.00    +0.086 C 
ATOM     11  C   UNL     1       3.383   1.396  -2.406  0.00  0.00    +0.247 C 
ATOM     12  C   UNL     1       5.224  -1.248  -0.630  0.00  0.00    +0.056 C 
ATOM     13  C   UNL     1       5.155  -2.044   0.502  0.00  0.00    +0.159 C 
ATOM     14  C   UNL     1       4.063  -1.879   1.327  0.00  0.00    +0.137 C 
ATOM     15  H   UNL     1       0.180   2.326  -0.590  0.00  0.00    +0.151 HD
ATOM     16  H   UNL     1       5.099   0.338  -2.623  0.00  0.00    +0.155 HD
ENDROOT
BRANCH  13  17
ATOM     17  O   UNL     1       6.123  -2.948   0.788  0.00  0.00    -0.470 OA
ATOM     18  C   UNL     1       5.965  -3.724   1.979  0.00  0.00    +0.253 C 
ENDBRANCH  13  17
BRANCH   4  19
ATOM     19  C   UNL     1      -1.131   2.084   1.041  0.00  0.00    +0.125 C 
BRANCH  19  21
ATOM     20  F   UNL     1      -4.410   0.481  -2.205  0.00  0.00    -0.201 F 
ATOM     21  C   UNL     1      -2.268   1.164   0.653  0.00  0.00    +0.000 C 
ATOM     22  C   UNL     1      -2.828   1.246  -0.622  0.00  0.00    +0.030 C 
ATOM     23  C   UNL     1      -2.757   0.234   1.571  0.00  0.00    +0.001 C 
ATOM     24  C   UNL     1      -3.876   0.397  -0.979  0.00  0.00    +0.174 C 
ATOM     25  C   UNL     1      -3.805  -0.614   1.214  0.00  0.00    +0.039 C 
ATOM     26  C   UNL     1      -4.365  -0.533  -0.061  0.00  0.00    +0.174 C 
BRANCH  26  27
ATOM     27  O   UNL     1      -5.387  -1.361  -0.409  0.00  0.00    -0.402 OA
BRANCH  27  31
ATOM     28  F   UNL     1      -5.914  -3.354  -1.328  0.00  0.00    -0.133 F 
ATOM     29  F   UNL     1      -5.516  -3.286   0.820  0.00  0.00    -0.133 F 
ATOM     30  F   UNL     1      -3.865  -3.054  -0.630  0.00  0.00    -0.133 F 
ATOM     31  C   UNL     1      -5.158  -2.766  -0.373  0.00  0.00    +0.575 C 
ENDBRANCH  27  31
ENDBRANCH  26  27
ENDBRANCH  19  21
BRANCH  19  32
ATOM     32  C   UNL     1      -1.514   3.563   0.943  0.00  0.00    +0.166 C 
BRANCH  32  33
ATOM     33  O   UNL     1      -0.594   4.338   1.706  0.00  0.00    -0.349 OA
ATOM     34  C   UNL     1      -0.913   5.721   1.656  0.00  0.00    +0.174 C 
ENDBRANCH  32  33
ENDBRANCH  19  32
ENDBRANCH   4  19
TORSDOF 7
