REMARK  Name = 117993993
REMARK  6 active torsions:
REMARK  status: ('A' for Active; 'I' for Inactive)
REMARK    1  A    between atoms: C_2  and  C_10
REMARK    2  A    between atoms: C_3  and  O_32
REMARK    3  A    between atoms: C_4  and  C_26
REMARK    4  A    between atoms: C_14  and  O_15
REMARK    5  A    between atoms: O_15  and  C_18
REMARK    6  A    between atoms: N_25  and  S_28
REMARK                            x       y       z     vdW  Elec       q    Type
REMARK                         _______ _______ _______ _____ _____    ______ ____
ROOT
ATOM      1  F   UNL     1       3.577  -2.020   0.474  0.00  0.00    -0.204 F 
ATOM      2  C   UNL     1       0.948   0.474   0.183  0.00  0.00    +0.038 C 
ATOM      3  C   UNL     1       1.675   1.564  -0.298  0.00  0.00    +0.139 C 
ATOM      4  C   UNL     1       3.692   0.236  -0.260  0.00  0.00    +0.085 C 
ATOM      5  C   UNL     1       1.594  -0.735   0.442  0.00  0.00    +0.033 C 
ATOM      6  C   UNL     1       3.047   1.444  -0.519  0.00  0.00    +0.044 C 
ATOM      7  C   UNL     1       2.966  -0.854   0.221  0.00  0.00    +0.145 C 
ENDROOT
BRANCH   2  10
ATOM      8 CL   UNL     1      -3.002   2.715   2.648  0.00  0.00    -0.077 Cl
ATOM      9  N   UNL     1      -2.713  -0.198  -0.074  0.00  0.00    -0.209 NA
ATOM     10  C   UNL     1      -0.477   0.577   0.420  0.00  0.00    +0.023 C 
ATOM     11  C   UNL     1      -0.990   1.500   1.325  0.00  0.00    +0.018 C 
ATOM     12  C   UNL     1      -1.373  -0.242  -0.248  0.00  0.00    +0.102 C 
ATOM     13  C   UNL     1      -2.363   1.575   1.531  0.00  0.00    +0.111 C 
ATOM     14  C   UNL     1      -3.174   0.712   0.813  0.00  0.00    +0.240 C 
BRANCH  14  15
ATOM     15  O   UNL     1      -4.534   0.747   0.981  0.00  0.00    -0.433 OA
BRANCH  15  18
ATOM     16  F   UNL     1      -5.481   1.445  -1.518  0.00  0.00    -0.201 F 
ATOM     17  F   UNL     1      -6.624  -3.513   0.487  0.00  0.00    -0.204 F 
ATOM     18  C   UNL     1      -5.289  -0.138   0.237  0.00  0.00    +0.177 C 
ATOM     19  C   UNL     1      -5.758   0.232  -1.023  0.00  0.00    +0.175 C 
ATOM     20  C   UNL     1      -5.581  -1.403   0.748  0.00  0.00    +0.069 C 
ATOM     21  C   UNL     1      -6.344  -2.298  -0.002  0.00  0.00    +0.143 C 
ATOM     22  C   UNL     1      -6.521  -0.664  -1.773  0.00  0.00    +0.035 C 
ATOM     23  C   UNL     1      -6.813  -1.929  -1.263  0.00  0.00    +0.032 C 
ENDBRANCH  15  18
ENDBRANCH  14  15
ENDBRANCH   2  10
BRANCH   4  26
ATOM     24  O   UNL     1       5.702   0.769  -1.373  0.00  0.00    -0.269 OA
ATOM     25  N   UNL     1       5.842  -0.811   0.352  0.00  0.00    -0.185 N 
ATOM     26  C   UNL     1       5.123   0.115  -0.492  0.00  0.00    +0.266 C 
ATOM     27  H   UNL     1       5.319  -1.300   1.028  0.00  0.00    +0.176 HD
BRANCH  25  28
ATOM     28  S   UNL     1       7.522  -1.134   0.280  0.00  0.00    +0.058 S 
ATOM     29  O   UNL     1       8.272   0.103   0.367  0.00  0.00    -0.154 OA
ATOM     30  O   UNL     1       7.818  -2.249   1.159  0.00  0.00    -0.154 OA
ATOM     31  C   UNL     1       7.636  -1.727  -1.391  0.00  0.00    +0.200 C 
ENDBRANCH  25  28
ENDBRANCH   4  26
BRANCH   3  32
ATOM     32  O   UNL     1       1.069   2.757  -0.559  0.00  0.00    -0.471 OA
ATOM     33  C   UNL     1       0.556   2.948  -1.875  0.00  0.00    +0.252 C 
ENDBRANCH   3  32
TORSDOF 6
