REMARK  Name = 118086034
REMARK  9 active torsions:
REMARK  status: ('A' for Active; 'I' for Inactive)
REMARK    1  A    between atoms: C_4  and  N_24
REMARK    2  A    between atoms: C_7  and  C_11
REMARK    3  A    between atoms: C_8  and  O_34
REMARK    4  A    between atoms: C_10  and  C_19
REMARK    5  A    between atoms: N_18  and  C_21
REMARK    6  A    between atoms: N_24  and  C_26
REMARK    7  A    between atoms: C_26  and  C_27
REMARK    8  A    between atoms: C_28  and  O_32
REMARK    9  A    between atoms: O_34  and  C_36
REMARK                            x       y       z     vdW  Elec       q    Type
REMARK                         _______ _______ _______ _____ _____    ______ ____
ROOT
ATOM      1  N   UNL     1       2.040   0.878   0.292  0.00  0.00    -0.152 N 
ATOM      2  N   UNL     1       2.124   2.237   0.355  0.00  0.00    -0.173 NA
ATOM      3  N   UNL     1       0.366  -0.855   0.173  0.00  0.00    -0.354 NA
ATOM      4  C   UNL     1       3.100  -0.050   0.275  0.00  0.00    +0.129 C 
ATOM      5  C   UNL     1       2.807  -1.360   0.208  0.00  0.00    +0.104 C 
ATOM      6  C   UNL     1       0.704   0.464   0.241  0.00  0.00    +0.197 C 
ATOM      7  C   UNL     1      -0.063   1.607   0.275  0.00  0.00    +0.134 C 
ATOM      8  C   UNL     1       1.366  -1.673   0.160  0.00  0.00    +0.286 C 
ATOM      9  C   UNL     1       0.861   2.657   0.345  0.00  0.00    +0.104 C 
ENDROOT
BRANCH   7  11
ATOM     10  C   UNL     1      -4.282   1.659   0.178  0.00  0.00    +0.049 C 
ATOM     11  C   UNL     1      -1.494   1.624   0.243  0.00  0.00    -0.009 C 
ATOM     12  C   UNL     1      -3.617   1.000   1.212  0.00  0.00    -0.018 C 
ATOM     13  C   UNL     1      -3.554   2.301  -0.823  0.00  0.00    +0.004 C 
ATOM     14  C   UNL     1      -2.223   0.982   1.244  0.00  0.00    -0.008 C 
ATOM     15  C   UNL     1      -2.159   2.283  -0.791  0.00  0.00    -0.003 C 
ATOM     16  C   UNL     1      -4.373   0.305   2.297  0.00  0.00    +0.031 C 
BRANCH  10  19
ATOM     17  O   UNL     1      -6.395   2.186   1.053  0.00  0.00    -0.270 OA
ATOM     18  N   UNL     1      -6.341   1.134  -1.011  0.00  0.00    -0.302 N 
ATOM     19  C   UNL     1      -5.737   1.694   0.121  0.00  0.00    +0.245 C 
ATOM     20  H   UNL     1      -5.762   0.760  -1.714  0.00  0.00    +0.150 HD
BRANCH  18  21
ATOM     21  C   UNL     1      -7.765   1.078  -1.197  0.00  0.00    +0.072 C 
ATOM     22  C   UNL     1      -8.397   0.045  -2.089  0.00  0.00    +0.021 C 
ATOM     23  C   UNL     1      -8.585  -0.034  -0.603  0.00  0.00    +0.021 C 
ENDBRANCH  18  21
ENDBRANCH  10  19
ENDBRANCH   7  11
BRANCH   4  24
ATOM     24  N   UNL     1       4.364   0.441   0.327  0.00  0.00    -0.320 N 
ATOM     25  H   UNL     1       4.481   1.418   0.374  0.00  0.00    +0.148 HD
BRANCH  24  26
ATOM     26  C   UNL     1       5.545  -0.388   0.317  0.00  0.00    +0.088 C 
BRANCH  26  27
ATOM     27  C   UNL     1       6.800   0.461   0.347  0.00  0.00    +0.024 C 
ATOM     28  C   UNL     1       8.693   0.782  -0.655  0.00  0.00    +0.089 C 
ATOM     29  C   UNL     1       8.147  -0.298   0.321  0.00  0.00    +0.029 C 
ATOM     30  C   UNL     1       7.214   1.125  -0.987  0.00  0.00    +0.029 C 
ATOM     31  C   UNL     1       9.475   1.912   0.004  0.00  0.00    +0.029 C 
BRANCH  28  32
ATOM     32  O   UNL     1       9.448   0.263  -1.771  0.00  0.00    -0.387 OA
ATOM     33  H   UNL     1       8.951  -0.456  -2.191  0.00  0.00    +0.210 HD
ENDBRANCH  28  32
ENDBRANCH  26  27
ENDBRANCH  24  26
ENDBRANCH   4  24
BRANCH   8  34
ATOM     34  O   UNL     1       1.178  -3.008   0.094  0.00  0.00    -0.426 OA
BRANCH  34  36
ATOM     35  N   UNL     1      -2.174  -3.657  -1.275  0.00  0.00    -0.239 NA
ATOM     36  C   UNL     1      -0.183  -3.293   0.048  0.00  0.00    +0.167 C 
ATOM     37  C   UNL     1      -0.912  -3.495   1.215  0.00  0.00    +0.041 C 
ATOM     38  C   UNL     1      -0.854  -3.384  -1.161  0.00  0.00    +0.136 C 
ATOM     39  C   UNL     1      -2.272  -3.777   1.138  0.00  0.00    +0.024 C 
ATOM     40  C   UNL     1      -2.850  -3.846  -0.120  0.00  0.00    +0.099 C 
ENDBRANCH  34  36
ENDBRANCH   8  34
TORSDOF 9
