REMARK  Name = 11802
REMARK  3 active torsions:
REMARK  status: ('A' for Active; 'I' for Inactive)
REMARK    1  A    between atoms: C_3  and  N_13
REMARK    2  A    between atoms: C_4  and  O_17
REMARK    3  A    between atoms: C_5  and  N_16
REMARK                            x       y       z     vdW  Elec       q    Type
REMARK                         _______ _______ _______ _____ _____    ______ ____
ROOT
ATOM      1  C   UNL     1       1.170  -0.028   0.000  0.00  0.00    +0.025 C 
ATOM      2  C   UNL     1       0.439  -1.239   0.000  0.00  0.00    +0.037 C 
ATOM      3  C   UNL     1       0.476   1.194   0.000  0.00  0.00    +0.145 C 
ATOM      4  C   UNL     1      -0.965  -1.194   0.001  0.00  0.00    +0.156 C 
ATOM      5  C   UNL     1      -1.638   0.028   0.001  0.00  0.00    +0.178 C 
ATOM      6  C   UNL     1      -0.918   1.220   0.001  0.00  0.00    +0.051 C 
ATOM      7  C   UNL     1       2.574  -0.072   0.000  0.00  0.00    +0.002 C 
ATOM      8  C   UNL     1       1.133  -2.460   0.000  0.00  0.00    +0.003 C 
ATOM      9  C   UNL     1       3.247  -1.294   0.000  0.00  0.00    +0.000 C 
ATOM     10  C   UNL     1       2.528  -2.486   0.000  0.00  0.00    +0.000 C 
ENDROOT
BRANCH   3  13
ATOM     11  O   UNL     1       0.473   3.500   0.000  0.00  0.00    -0.126 OA
ATOM     12  O   UNL     1       2.405   2.457   0.000  0.00  0.00    -0.126 OA
ATOM     13  N   UNL     1       1.154   2.449   0.000  0.00  0.00    +0.058 N 
ENDBRANCH   3  13
BRANCH   5  16
ATOM     14  O   UNL     1      -3.625   1.197  -0.001  0.00  0.00    -0.126 OA
ATOM     15  O   UNL     1      -3.703  -0.997   0.000  0.00  0.00    -0.126 OA
ATOM     16  N   UNL     1      -3.059   0.079   0.000  0.00  0.00    +0.061 N 
ENDBRANCH   5  16
BRANCH   4  17
ATOM     17  O   UNL     1      -1.693  -2.352  -0.001  0.00  0.00    -0.504 OA
ATOM     18  H   UNL     1      -1.255  -3.181  -0.001  0.00  0.00    +0.292 HD
ENDBRANCH   4  17
TORSDOF 3
