REMARK  Name = 11809239
REMARK  10 active torsions:
REMARK  status: ('A' for Active; 'I' for Inactive)
REMARK    1  A    between atoms: C_2  and  O_7
REMARK    2  A    between atoms: C_3  and  O_9
REMARK    3  A    between atoms: C_4  and  O_11
REMARK    4  A    between atoms: C_5  and  C_25
REMARK    5  A    between atoms: C_6  and  O_13
REMARK    6  A    between atoms: O_13  and  C_14
REMARK    7  A    between atoms: C_14  and  C_15
REMARK    8  A    between atoms: C_15  and  C_17
REMARK    9  A    between atoms: C_17  and  O_23
REMARK   10  A    between atoms: C_25  and  O_26
REMARK                            x       y       z     vdW  Elec       q    Type
REMARK                         _______ _______ _______ _____ _____    ______ ____
ROOT
ATOM      1  O   UNL     1       1.526  -0.491   0.410  0.00  0.00    -0.326 OA
ATOM      2  C   UNL     1       4.031   0.655  -0.402  0.00  0.00    +0.172 C 
ATOM      3  C   UNL     1       3.930  -0.737   0.224  0.00  0.00    +0.169 C 
ATOM      4  C   UNL     1       2.820   1.514  -0.039  0.00  0.00    +0.196 C 
ATOM      5  C   UNL     1       2.560  -1.359  -0.056  0.00  0.00    +0.176 C 
ATOM      6  C   UNL     1       1.512   0.759  -0.275  0.00  0.00    +0.266 C 
ENDROOT
BRANCH   2   7
ATOM      7  O   UNL     1       5.220   1.275   0.091  0.00  0.00    -0.379 OA
ATOM      8  H   UNL     1       5.988   0.730  -0.139  0.00  0.00    +0.211 HD
ENDBRANCH   2   7
BRANCH   3   9
ATOM      9  O   UNL     1       4.948  -1.573  -0.320  0.00  0.00    -0.379 OA
ATOM     10  H   UNL     1       5.817  -1.180  -0.144  0.00  0.00    +0.211 HD
ENDBRANCH   3   9
BRANCH   4  11
ATOM     11  O   UNL     1       2.812   2.688  -0.851  0.00  0.00    -0.378 OA
ATOM     12  H   UNL     1       3.636   3.181  -0.714  0.00  0.00    +0.211 HD
ENDBRANCH   4  11
BRANCH   6  13
ATOM     13  O   UNL     1       0.444   1.567   0.218  0.00  0.00    -0.329 OA
BRANCH  13  14
ATOM     14  C   UNL     1      -0.811   0.931   0.034  0.00  0.00    +0.148 C 
BRANCH  14  15
ATOM     15  C   UNL     1      -1.908   1.846   0.557  0.00  0.00    +0.068 C 
BRANCH  15  17
ATOM     16  O   UNL     1      -4.394  -2.553  -0.946  0.00  0.00    -0.287 OA
ATOM     17  C   UNL     1      -3.284   1.222   0.406  0.00  0.00    +0.128 C 
ATOM     18  C   UNL     1      -3.546   0.899  -1.042  0.00  0.00    +0.007 C 
ATOM     19  C   UNL     1      -3.405   0.019   1.302  0.00  0.00    +0.007 C 
ATOM     20  C   UNL     1      -3.902  -0.310  -1.490  0.00  0.00    +0.040 C 
ATOM     21  C   UNL     1      -3.759  -1.200   0.880  0.00  0.00    +0.040 C 
ATOM     22  C   UNL     1      -4.049  -1.444  -0.550  0.00  0.00    +0.195 C 
BRANCH  17  23
ATOM     23  O   UNL     1      -4.241   2.196   0.829  0.00  0.00    -0.379 OA
ATOM     24  H   UNL     1      -4.177   2.981   0.262  0.00  0.00    +0.211 HD
ENDBRANCH  17  23
ENDBRANCH  15  17
ENDBRANCH  14  15
ENDBRANCH  13  14
ENDBRANCH   6  13
BRANCH   5  25
ATOM     25  C   UNL     1       2.392  -2.698   0.657  0.00  0.00    +0.169 C 
BRANCH  25  26
ATOM     26  O   UNL     1       1.104  -3.207   0.362  0.00  0.00    -0.379 OA
ATOM     27  H   UNL     1       0.984  -4.059   0.809  0.00  0.00    +0.211 HD
ENDBRANCH  25  26
ENDBRANCH   5  25
TORSDOF 10
