118139
  -OEChem-03292013323D

 52 53  0     1  0  0  0  0  0999 V2000
   -5.0941   -0.6129   -1.3869 S   0  0  0  0  0  0  0  0  0  0  0  0
   -5.2312   -2.3074   -0.2340 S   0  0  0  0  0  0  0  0  0  0  0  0
   -3.4440    2.1899   -1.0278 O   0  0  0  0  0  0  0  0  0  0  0  0
   -0.9060   -2.8613    1.3073 O   0  0  0  0  0  0  0  0  0  0  0  0
    3.9434    2.7479    0.4619 O   0  5  0  0  0  0  0  0  0  0  0  0
    6.1013   -0.7913   -0.6207 O   0  5  0  0  0  0  0  0  0  0  0  0
    3.2538    3.6168   -1.4325 O   0  0  0  0  0  0  0  0  0  0  0  0
    5.8518   -1.6832    1.3696 O   0  0  0  0  0  0  0  0  0  0  0  0
   -2.2415    1.4632    0.8520 N   0  0  0  0  0  0  0  0  0  0  0  0
   -0.1274   -1.9111   -0.6924 N   0  0  0  0  0  0  0  0  0  0  0  0
   -5.1408    2.1654    1.6079 N   0  0  0  0  0  0  0  0  0  0  0  0
   -2.5824   -3.6940   -1.2073 N   0  0  0  0  0  0  0  0  0  0  0  0
    3.0288    3.0149   -0.3547 N   0  3  0  0  0  0  0  0  0  0  0  0
    5.3811   -1.3034    0.2703 N   0  3  0  0  0  0  0  0  0  0  0  0
   -4.6278    1.0860    0.7596 C   0  0  1  0  0  0  0  0  0  0  0  0
   -2.4779   -2.4316   -0.4701 C   0  0  1  0  0  0  0  0  0  0  0  0
   -5.7106    0.6565   -0.2352 C   0  0  0  0  0  0  0  0  0  0  0  0
   -3.6069   -2.3450    0.5618 C   0  0  0  0  0  0  0  0  0  0  0  0
   -3.3821    1.6595    0.0782 C   0  0  0  0  0  0  0  0  0  0  0  0
   -1.0850   -2.4445    0.1660 C   0  0  0  0  0  0  0  0  0  0  0  0
   -0.9157    1.8555    0.5493 C   0  0  0  0  0  0  0  0  0  0  0  0
    1.2590   -1.7601   -0.4509 C   0  0  0  0  0  0  0  0  0  0  0  0
    0.1174    1.5690    1.4417 C   0  0  0  0  0  0  0  0  0  0  0  0
    2.0791   -1.1932   -1.4265 C   0  0  0  0  0  0  0  0  0  0  0  0
   -0.6417    2.5260   -0.6427 C   0  0  0  0  0  0  0  0  0  0  0  0
    1.8048   -2.1755    0.7637 C   0  0  0  0  0  0  0  0  0  0  0  0
    1.6983    2.6236   -0.0498 C   0  0  0  0  0  0  0  0  0  0  0  0
    3.9907   -1.4571    0.0270 C   0  0  0  0  0  0  0  0  0  0  0  0
    1.4244    1.9530    1.1422 C   0  0  0  0  0  0  0  0  0  0  0  0
    3.4449   -1.0418   -1.1876 C   0  0  0  0  0  0  0  0  0  0  0  0
    0.6654    2.9100   -0.9423 C   0  0  0  0  0  0  0  0  0  0  0  0
    3.1706   -2.0240    1.0027 C   0  0  0  0  0  0  0  0  0  0  0  0
   -4.3689    0.2632    1.4241 H   0  0  0  0  0  0  0  0  0  0  0  0
   -2.5175   -1.5905   -1.1689 H   0  0  0  0  0  0  0  0  0  0  0  0
   -6.0219    1.5101   -0.8495 H   0  0  0  0  0  0  0  0  0  0  0  0
   -6.6094    0.2933    0.2761 H   0  0  0  0  0  0  0  0  0  0  0  0
   -3.4561   -1.4976    1.2299 H   0  0  0  0  0  0  0  0  0  0  0  0
   -3.5901   -3.2283    1.2127 H   0  0  0  0  0  0  0  0  0  0  0  0
   -2.3546    0.9891    1.7452 H   0  0  0  0  0  0  0  0  0  0  0  0
   -0.4383   -1.5937   -1.6078 H   0  0  0  0  0  0  0  0  0  0  0  0
   -5.9822    1.8507    2.0898 H   0  0  0  0  0  0  0  0  0  0  0  0
   -4.4609    2.3802    2.3369 H   0  0  0  0  0  0  0  0  0  0  0  0
   -3.4947   -3.7481   -1.6590 H   0  0  0  0  0  0  0  0  0  0  0  0
   -1.8936   -3.7084   -1.9589 H   0  0  0  0  0  0  0  0  0  0  0  0
   -0.0825    1.0442    2.3725 H   0  0  0  0  0  0  0  0  0  0  0  0
    1.6656   -0.8630   -2.3760 H   0  0  0  0  0  0  0  0  0  0  0  0
   -1.3864    2.7849   -1.3818 H   0  0  0  0  0  0  0  0  0  0  0  0
    1.2364   -2.6240    1.5660 H   0  0  0  0  0  0  0  0  0  0  0  0
    2.2042    1.7107    1.8597 H   0  0  0  0  0  0  0  0  0  0  0  0
    4.0528   -0.5943   -1.9697 H   0  0  0  0  0  0  0  0  0  0  0  0
    0.8430    3.4308   -1.8799 H   0  0  0  0  0  0  0  0  0  0  0  0
    3.5622   -2.3586    1.9601 H   0  0  0  0  0  0  0  0  0  0  0  0
  1  2  1  0  0  0  0
  1 17  1  0  0  0  0
  2 18  1  0  0  0  0
  3 19  2  0  0  0  0
  4 20  2  0  0  0  0
  5 13  1  0  0  0  0
  6 14  1  0  0  0  0
  7 13  2  0  0  0  0
  8 14  2  0  0  0  0
  9 19  1  0  0  0  0
  9 21  1  0  0  0  0
  9 39  1  0  0  0  0
 10 20  1  0  0  0  0
 10 22  1  0  0  0  0
 10 40  1  0  0  0  0
 11 15  1  0  0  0  0
 11 41  1  0  0  0  0
 11 42  1  0  0  0  0
 12 16  1  0  0  0  0
 12 43  1  0  0  0  0
 12 44  1  0  0  0  0
 13 27  1  0  0  0  0
 14 28  1  0  0  0  0
 15 17  1  0  0  0  0
 15 19  1  0  0  0  0
 15 33  1  0  0  0  0
 16 18  1  0  0  0  0
 16 20  1  0  0  0  0
 16 34  1  0  0  0  0
 17 35  1  0  0  0  0
 17 36  1  0  0  0  0
 18 37  1  0  0  0  0
 18 38  1  0  0  0  0
 21 23  2  0  0  0  0
 21 25  1  0  0  0  0
 22 24  2  0  0  0  0
 22 26  1  0  0  0  0
 23 29  1  0  0  0  0
 23 45  1  0  0  0  0
 24 30  1  0  0  0  0
 24 46  1  0  0  0  0
 25 31  2  0  0  0  0
 25 47  1  0  0  0  0
 26 32  2  0  0  0  0
 26 48  1  0  0  0  0
 27 29  2  0  0  0  0
 27 31  1  0  0  0  0
 28 30  2  0  0  0  0
 28 32  1  0  0  0  0
 29 49  1  0  0  0  0
 30 50  1  0  0  0  0
 31 51  1  0  0  0  0
 32 52  1  0  0  0  0
M  CHG  4   5  -1   6  -1  13   1  14   1
M  END
> <PUBCHEM_COMPOUND_CID>
118139

> <PUBCHEM_CONFORMER_RMSD>
1.2

> <PUBCHEM_CONFORMER_DIVERSEORDER>
1
26
107
3
132
89
131
39
28
187
65
84
125
8
10
57
128
20
47
29
2
70
7
86
30
156
145
121
71
110
21
78
109
139
143
147
97
120
5
189
92
94
140
160
177
137
161
148
138
162
127
61
55
186
19
154
106
111
40
72
116
38
27
75
69
41
135
13
124
6
48
74
56
151
105
170
102
164
152
88
133
158
42
59
16
123
171
63
73
25
163
54
181
82
112
119
126
190
122
167
36
81
118
35
53
51
150
93
17
184
77
43
46
113
183
33
91
173
99
98
149
191
185
22
24
87
62
146
180
115
182
108
136
12
157
174
14
90
129
134
60
117
144
18
85
23
188
76
31
130
96
64
4
32
175
79
165
37
142
80
179
159
58
141
83
169
11
49
52
114
66
45
168
155
166
15
101
68
178
95
9
100
50
44
104
176
103
34
67
172
153

> <PUBCHEM_MMFF94_PARTIAL_CHARGES>
46
1 -0.23
10 -0.55
11 -0.99
12 -0.99
13 0.91
14 0.91
15 0.33
16 0.33
17 0.23
18 0.23
19 0.57
2 -0.23
20 0.57
21 0.12
22 0.12
23 -0.15
24 -0.15
25 -0.15
26 -0.15
27 0.13
28 0.13
29 -0.15
3 -0.57
30 -0.15
31 -0.15
32 -0.15
39 0.37
4 -0.57
40 0.37
41 0.36
42 0.36
43 0.36
44 0.36
45 0.15
46 0.15
47 0.15
48 0.15
49 0.15
5 -0.52
50 0.15
51 0.15
52 0.15
6 -0.52
7 -0.52
8 -0.52
9 -0.55

> <PUBCHEM_EFFECTIVE_ROTOR_COUNT>
13

> <PUBCHEM_PHARMACOPHORE_FEATURES>
17
1 10 donor
1 11 cation
1 11 donor
1 12 cation
1 12 donor
1 3 acceptor
1 4 acceptor
1 5 acceptor
1 5 anion
1 6 acceptor
1 6 anion
1 7 acceptor
1 8 acceptor
1 9 donor
4 1 2 17 18 hydrophobe
6 21 23 25 27 29 31 rings
6 22 24 26 28 30 32 rings

> <PUBCHEM_HEAVY_ATOM_COUNT>
32

> <PUBCHEM_ATOM_DEF_STEREO_COUNT>
0

> <PUBCHEM_ATOM_UDEF_STEREO_COUNT>
2

> <PUBCHEM_BOND_DEF_STEREO_COUNT>
0

> <PUBCHEM_BOND_UDEF_STEREO_COUNT>
0

> <PUBCHEM_ISOTOPIC_ATOM_COUNT>
0

> <PUBCHEM_COMPONENT_COUNT>
1

> <PUBCHEM_CACTVS_TAUTO_COUNT>
3

> <PUBCHEM_CONFORMER_ID>
0001CD7B00000001

> <PUBCHEM_MMFF94_ENERGY>
79.7712

> <PUBCHEM_FEATURE_SELFOVERLAP>
86.437

> <PUBCHEM_SHAPE_FINGERPRINT>
10864689 126 17907299844986866213
1100329 8 18411141320451169592
11513181 2 18059017305628851919
12107698 1 18340203089966130247
12156800 1 17246345055915087890
12422481 6 18198319923257502568
13140716 1 18411984662880809393
14117953 113 17690559680961590109
14466204 15 18337105674867506091
14765038 42 18057335985357434217
15297060 5 17631454458553564347
15968369 153 18059567057084006905
16112460 7 18341344339848179785
17492 54 18262532376660037309
18336668 15 18260268520862642069
19319366 153 17822857459506614347
20642791 178 18340779148022270617
20691752 17 17967249818985430313
20721686 56 18264488563240614339
20764821 26 18410293653015927511
20905425 154 18055642960208755006
23559900 14 18340758295897740529
3052486 1 18335972104560146682
338550 245 18336265755521227604
3680242 22 18194128421370442691
392239 28 18339360751640322968
4280585 95 18262508204779332864
460360 51 18189344618002626657
463206 1 18411142445601238969
57676310 188 18189904300325485428
6669772 16 18113336444638000520

> <PUBCHEM_SHAPE_MULTIPOLES>
601.14
12.17
5.02
1.38
0.17
1.14
-0.02
-2.82
0.01
-0.52
0.36
-0.01
0.12
-1.53

> <PUBCHEM_SHAPE_SELFOVERLAP>
1231.57

> <PUBCHEM_SHAPE_VOLUME>
348.9

> <PUBCHEM_COORDINATE_TYPE>
2
5
10

$$$$
