118191391
  -OEChem-03292013293D

 52 55  0     0  0  0  0  0  0999 V2000
    0.9470   -4.3260   -2.0776 F   0  0  0  0  0  0  0  0  0  0  0  0
    1.5723   -4.2757   -0.0016 F   0  0  0  0  0  0  0  0  0  0  0  0
   -0.4147   -3.5861   -0.5525 F   0  0  0  0  0  0  0  0  0  0  0  0
   -6.2021    4.0257   -1.5181 F   0  0  0  0  0  0  0  0  0  0  0  0
   -0.5397    1.3336    0.5047 O   0  0  0  0  0  0  0  0  0  0  0  0
   -4.2602   -2.8299    2.6440 O   0  0  0  0  0  0  0  0  0  0  0  0
    2.7845   -0.6567   -1.5866 N   0  0  0  0  0  0  0  0  0  0  0  0
    2.6745   -1.9946   -1.5214 N   0  0  0  0  0  0  0  0  0  0  0  0
   -0.6273   -0.7575   -0.5564 N   0  0  0  0  0  0  0  0  0  0  0  0
   -5.3276    0.0530    0.9197 N   0  0  0  0  0  0  0  0  0  0  0  0
   -6.3631   -1.9577    2.3693 N   0  0  0  0  0  0  0  0  0  0  0  0
    7.6903    2.3829    3.3230 N   0  0  0  0  0  0  0  0  0  0  0  0
    1.6395    0.0073   -1.2573 C   0  0  0  0  0  0  0  0  0  0  0  0
    0.7159   -0.9638   -0.9561 C   0  0  0  0  0  0  0  0  0  0  0  0
    4.0452   -0.0716   -1.9806 C   0  0  0  0  0  0  0  0  0  0  0  0
    1.4086   -2.1760   -1.1355 C   0  0  0  0  0  0  0  0  0  0  0  0
    4.8436    0.4660   -0.8190 C   0  0  0  0  0  0  0  0  0  0  0  0
    1.5416    1.4798   -1.2629 C   0  0  0  0  0  0  0  0  0  0  0  0
   -2.6076    0.2758    0.3770 C   0  0  0  0  0  0  0  0  0  0  0  0
   -1.1706    0.3362    0.1273 C   0  0  0  0  0  0  0  0  0  0  0  0
    0.8977   -3.5459   -0.9488 C   0  0  0  0  0  0  0  0  0  0  0  0
   -3.5009    1.2377   -0.1135 C   0  0  0  0  0  0  0  0  0  0  0  0
   -4.8710    1.0855    0.1859 C   0  0  0  0  0  0  0  0  0  0  0  0
    5.2351    1.8047   -0.8020 C   0  0  0  0  0  0  0  0  0  0  0  0
    5.1904   -0.3757    0.2379 C   0  0  0  0  0  0  0  0  0  0  0  0
   -3.0751   -0.7894    1.1333 C   0  0  0  0  0  0  0  0  0  0  0  0
   -3.0594    2.3277   -0.8826 C   0  0  0  0  0  0  0  0  0  0  0  0
   -4.4325   -0.8540    1.3739 C   0  0  0  0  0  0  0  0  0  0  0  0
   -5.7580    2.0417   -0.3013 C   0  0  0  0  0  0  0  0  0  0  0  0
    5.9732    2.3018    0.2721 C   0  0  0  0  0  0  0  0  0  0  0  0
    5.9285    0.1214    1.3119 C   0  0  0  0  0  0  0  0  0  0  0  0
    6.3199    1.4602    1.3292 C   0  0  0  0  0  0  0  0  0  0  0  0
   -3.9684    3.2687   -1.3574 C   0  0  0  0  0  0  0  0  0  0  0  0
   -5.3193    3.1254   -1.0661 C   0  0  0  0  0  0  0  0  0  0  0  0
   -4.9866   -1.9438    2.1587 C   0  0  0  0  0  0  0  0  0  0  0  0
    7.0761    1.9694    2.4293 C   0  0  0  0  0  0  0  0  0  0  0  0
    3.8436    0.6964   -2.7350 H   0  0  0  0  0  0  0  0  0  0  0  0
    4.6362   -0.8445   -2.4890 H   0  0  0  0  0  0  0  0  0  0  0  0
   -1.2098   -1.5866   -0.6501 H   0  0  0  0  0  0  0  0  0  0  0  0
    1.7558    1.8895   -0.2713 H   0  0  0  0  0  0  0  0  0  0  0  0
    2.2422    1.9442   -1.9626 H   0  0  0  0  0  0  0  0  0  0  0  0
    0.5536    1.8124   -1.5949 H   0  0  0  0  0  0  0  0  0  0  0  0
    4.9720    2.4716   -1.6186 H   0  0  0  0  0  0  0  0  0  0  0  0
    4.9026   -1.4233    0.2382 H   0  0  0  0  0  0  0  0  0  0  0  0
   -2.3933   -1.5376    1.5256 H   0  0  0  0  0  0  0  0  0  0  0  0
   -2.0149    2.4675   -1.1454 H   0  0  0  0  0  0  0  0  0  0  0  0
   -6.8214    1.9520   -0.0872 H   0  0  0  0  0  0  0  0  0  0  0  0
    6.2710    3.3476    0.2711 H   0  0  0  0  0  0  0  0  0  0  0  0
    6.1928   -0.5474    2.1275 H   0  0  0  0  0  0  0  0  0  0  0  0
   -3.6248    4.1079   -1.9544 H   0  0  0  0  0  0  0  0  0  0  0  0
   -6.9739   -1.2415    1.9894 H   0  0  0  0  0  0  0  0  0  0  0  0
   -6.7999   -2.6928    2.9154 H   0  0  0  0  0  0  0  0  0  0  0  0
  1 21  1  0  0  0  0
  2 21  1  0  0  0  0
  3 21  1  0  0  0  0
  4 34  1  0  0  0  0
  5 20  2  0  0  0  0
  6 35  2  0  0  0  0
  7  8  1  0  0  0  0
  7 13  1  0  0  0  0
  7 15  1  0  0  0  0
  8 16  2  0  0  0  0
  9 14  1  0  0  0  0
  9 20  1  0  0  0  0
  9 39  1  0  0  0  0
 10 23  1  0  0  0  0
 10 28  2  0  0  0  0
 11 35  1  0  0  0  0
 11 51  1  0  0  0  0
 11 52  1  0  0  0  0
 12 36  3  0  0  0  0
 13 14  2  0  0  0  0
 13 18  1  0  0  0  0
 14 16  1  0  0  0  0
 15 17  1  0  0  0  0
 15 37  1  0  0  0  0
 15 38  1  0  0  0  0
 16 21  1  0  0  0  0
 17 24  2  0  0  0  0
 17 25  1  0  0  0  0
 18 40  1  0  0  0  0
 18 41  1  0  0  0  0
 18 42  1  0  0  0  0
 19 20  1  0  0  0  0
 19 22  1  0  0  0  0
 19 26  2  0  0  0  0
 22 23  2  0  0  0  0
 22 27  1  0  0  0  0
 23 29  1  0  0  0  0
 24 30  1  0  0  0  0
 24 43  1  0  0  0  0
 25 31  2  0  0  0  0
 25 44  1  0  0  0  0
 26 28  1  0  0  0  0
 26 45  1  0  0  0  0
 27 33  2  0  0  0  0
 27 46  1  0  0  0  0
 28 35  1  0  0  0  0
 29 34  2  0  0  0  0
 29 47  1  0  0  0  0
 30 32  2  0  0  0  0
 30 48  1  0  0  0  0
 31 32  1  0  0  0  0
 31 49  1  0  0  0  0
 32 36  1  0  0  0  0
 33 34  1  0  0  0  0
 33 50  1  0  0  0  0
M  END
> <PUBCHEM_COMPOUND_CID>
118191391

> <PUBCHEM_CONFORMER_RMSD>
1

> <PUBCHEM_CONFORMER_DIVERSEORDER>
1
63
38
56
28
65
41
46
62
47
12
48
14
43
64
29
59
57
53
18
50
11
4
7
20
17
40
35
36
55
21
26
34
61
23
52
54
37
8
27
24
6
60
44
13
19
51
58
25
42
30
22
3
45
10
16
32
31
49
9
33
5
39
15
2

> <PUBCHEM_MMFF94_PARTIAL_CHARGES>
46
1 -0.34
10 -0.62
11 -0.8
12 -0.56
13 -0.33
14 0.06
15 0.4
16 0.11
17 -0.14
18 0.18
19 0.09
2 -0.34
20 0.54
21 1.2
23 0.31
24 -0.15
25 -0.15
26 -0.15
27 -0.15
28 0.4
29 -0.15
3 -0.34
30 -0.15
31 -0.15
32 0.07
33 -0.15
34 0.19
35 0.54
36 0.48
39 0.37
4 -0.19
43 0.15
44 0.15
45 0.15
46 0.15
47 0.15
48 0.15
49 0.15
5 -0.57
50 0.15
51 0.37
52 0.37
6 -0.57
7 0.31
8 -0.71
9 -0.49

> <PUBCHEM_EFFECTIVE_ROTOR_COUNT>
7

> <PUBCHEM_PHARMACOPHORE_FEATURES>
11
1 10 acceptor
1 11 donor
1 12 acceptor
1 5 acceptor
1 6 acceptor
1 8 acceptor
1 9 donor
5 7 8 13 14 16 rings
6 10 19 22 23 26 28 rings
6 17 24 25 30 31 32 rings
6 22 23 27 29 33 34 rings

> <PUBCHEM_HEAVY_ATOM_COUNT>
36

> <PUBCHEM_ATOM_DEF_STEREO_COUNT>
0

> <PUBCHEM_ATOM_UDEF_STEREO_COUNT>
0

> <PUBCHEM_BOND_DEF_STEREO_COUNT>
0

> <PUBCHEM_BOND_UDEF_STEREO_COUNT>
0

> <PUBCHEM_ISOTOPIC_ATOM_COUNT>
0

> <PUBCHEM_COMPONENT_COUNT>
1

> <PUBCHEM_CACTVS_TAUTO_COUNT>
54

> <PUBCHEM_CONFORMER_ID>
070B751F00000001

> <PUBCHEM_MMFF94_ENERGY>
91.5355

> <PUBCHEM_FEATURE_SELFOVERLAP>
55.856

> <PUBCHEM_SHAPE_FINGERPRINT>
10 15 18337679731975061224
10074138 170 18122058964950029818
10319926 262 18113341890529456524
10675989 125 17687183089601535437
11273773 42 15482673532877468512
11443803 9 17313380073366635465
12106331 60 17897748662397117411
12202916 173 18116160042481420371
12422481 6 18040435456398391868
13540713 4 18192451692166701639
14068700 686 18270409282346686508
15419008 42 18191021205931993933
15815584 197 18341907250672083556
16096371 109 17774716473283487442
16990366 60 17100891994876918323
16994733 274 15195291936610022810
17913733 40 18272378550589830102
19053607 189 18189060815201874924
19246450 95 18336808850484106432
21033648 29 18413385449902228788
21401589 2 17917427692110360706
21987440 362 15000469282168475061
23559900 14 18046641005383720439
255183 313 18200598132229562942
2838139 119 16630814301029109944
32027 91 17901675860476140451
3504750 166 17095229324370630656
4173938 306 17969202487707918717
4403749 210 18340194297613791156
5080951 261 17677034837768548783
5104073 3 18265065655998705955
58902169 19 14404922279808230616
6695519 79 18200894927644892539
6697151 62 17698448719899312790
9555976 147 17895186684292621696

> <PUBCHEM_SHAPE_MULTIPOLES>
670.14
18.91
4.69
2.42
11.74
2.76
-1.53
-15.07
-12.77
-3.85
1.49
1.94
0.41
7.36

> <PUBCHEM_SHAPE_SELFOVERLAP>
1485.001

> <PUBCHEM_SHAPE_VOLUME>
358.6

> <PUBCHEM_COORDINATE_TYPE>
2
5
10

$$$$
