REMARK  Name = 11818503
REMARK  4 active torsions:
REMARK  status: ('A' for Active; 'I' for Inactive)
REMARK    1  A    between atoms: C_10  and  O_18
REMARK    2  A    between atoms: C_12  and  O_20
REMARK    3  A    between atoms: C_13  and  O_22
REMARK    4  A    between atoms: C_15  and  O_24
REMARK                            x       y       z     vdW  Elec       q    Type
REMARK                         _______ _______ _______ _____ _____    ______ ____
ROOT
ATOM      1  O   UNL     1      -0.131   2.486  -0.001  0.00  0.00    -0.286 OA
ATOM      2  O   UNL     1      -0.360  -2.853   0.000  0.00  0.00    -0.287 OA
ATOM      3  C   UNL     1       1.058   0.460   0.000  0.00  0.00    +0.079 C 
ATOM      4  C   UNL     1       0.997  -0.935   0.000  0.00  0.00    +0.045 C 
ATOM      5  C   UNL     1      -1.486   0.569   0.000  0.00  0.00    +0.076 C 
ATOM      6  C   UNL     1      -1.546  -0.826  -0.001  0.00  0.00    +0.048 C 
ATOM      7  C   UNL     1      -0.182   1.263  -0.001  0.00  0.00    +0.202 C 
ATOM      8  C   UNL     1      -0.307  -1.629  -0.001  0.00  0.00    +0.196 C 
ATOM      9  C   UNL     1       2.180  -1.685   0.000  0.00  0.00    +0.002 C 
ATOM     10  C   UNL     1       2.300   1.105   0.001  0.00  0.00    +0.170 C 
ATOM     11  C   UNL     1       3.416  -1.038   0.001  0.00  0.00    +0.015 C 
ATOM     12  C   UNL     1       3.476   0.354   0.001  0.00  0.00    +0.163 C 
ATOM     13  C   UNL     1      -2.668   1.319   0.000  0.00  0.00    +0.140 C 
ATOM     14  C   UNL     1      -2.789  -1.471   0.000  0.00  0.00    +0.040 C 
ATOM     15  C   UNL     1      -3.965  -0.720   0.000  0.00  0.00    +0.137 C 
ATOM     16  C   UNL     1      -3.904   0.672   0.000  0.00  0.00    +0.073 C 
ATOM     17  C   UNL     1       4.665  -1.856   0.000  0.00  0.00    +0.034 C 
ENDROOT
BRANCH  10  18
ATOM     18  O   UNL     1       2.418   2.465  -0.001  0.00  0.00    -0.503 OA
ATOM     19  H   UNL     1       1.650   3.002  -0.001  0.00  0.00    +0.292 HD
ENDBRANCH  10  18
BRANCH  12  20
ATOM     20  O   UNL     1       4.686   0.984   0.001  0.00  0.00    -0.503 OA
ATOM     21  H   UNL     1       4.728   1.920   0.001  0.00  0.00    +0.292 HD
ENDBRANCH  12  20
BRANCH  13  22
ATOM     22  O   UNL     1      -2.684   2.683   0.001  0.00  0.00    -0.505 OA
ATOM     23  H   UNL     1      -1.878   3.160   0.001  0.00  0.00    +0.292 HD
ENDBRANCH  13  22
BRANCH  15  24
ATOM     24  O   UNL     1      -5.172  -1.348   0.001  0.00  0.00    -0.505 OA
ATOM     25  H   UNL     1      -5.214  -2.284   0.001  0.00  0.00    +0.292 HD
ENDBRANCH  15  24
TORSDOF 4
