11818503
  -OEChem-03292013303D

 31 33  0     0  0  0  0  0  0999 V2000
    2.4178    2.4650   -0.0008 O   0  0  0  0  0  0  0  0  0  0  0  0
   -0.1314    2.4865   -0.0011 O   0  0  0  0  0  0  0  0  0  0  0  0
   -0.3597   -2.8527   -0.0002 O   0  0  0  0  0  0  0  0  0  0  0  0
    4.6864    0.9836    0.0008 O   0  0  0  0  0  0  0  0  0  0  0  0
   -2.6840    2.6828    0.0011 O   0  0  0  0  0  0  0  0  0  0  0  0
   -5.1724   -1.3479    0.0008 O   0  0  0  0  0  0  0  0  0  0  0  0
    1.0575    0.4599   -0.0002 C   0  0  0  0  0  0  0  0  0  0  0  0
    0.9974   -0.9353   -0.0003 C   0  0  0  0  0  0  0  0  0  0  0  0
   -1.4862    0.5694   -0.0004 C   0  0  0  0  0  0  0  0  0  0  0  0
   -1.5463   -0.8257   -0.0005 C   0  0  0  0  0  0  0  0  0  0  0  0
   -0.1821    1.2632   -0.0006 C   0  0  0  0  0  0  0  0  0  0  0  0
   -0.3067   -1.6291   -0.0008 C   0  0  0  0  0  0  0  0  0  0  0  0
    2.1796   -1.6851   -0.0001 C   0  0  0  0  0  0  0  0  0  0  0  0
    2.2999    1.1052    0.0005 C   0  0  0  0  0  0  0  0  0  0  0  0
    3.4156   -1.0380    0.0005 C   0  0  0  0  0  0  0  0  0  0  0  0
    3.4757    0.3542    0.0009 C   0  0  0  0  0  0  0  0  0  0  0  0
   -2.6685    1.3193   -0.0001 C   0  0  0  0  0  0  0  0  0  0  0  0
   -2.7888   -1.4711    0.0000 C   0  0  0  0  0  0  0  0  0  0  0  0
   -3.9645   -0.7199    0.0002 C   0  0  0  0  0  0  0  0  0  0  0  0
   -3.9044    0.6722    0.0003 C   0  0  0  0  0  0  0  0  0  0  0  0
    4.6651   -1.8563    0.0000 C   0  0  0  0  0  0  0  0  0  0  0  0
    2.1419   -2.7717   -0.0005 H   0  0  0  0  0  0  0  0  0  0  0  0
   -2.8487   -2.5567    0.0001 H   0  0  0  0  0  0  0  0  0  0  0  0
   -4.8294    1.2444    0.0009 H   0  0  0  0  0  0  0  0  0  0  0  0
    5.2635   -1.6372    0.8906 H   0  0  0  0  0  0  0  0  0  0  0  0
    4.4523   -2.9307    0.0034 H   0  0  0  0  0  0  0  0  0  0  0  0
    5.2596   -1.6417   -0.8942 H   0  0  0  0  0  0  0  0  0  0  0  0
    1.5478    2.8902   -0.0021 H   0  0  0  0  0  0  0  0  0  0  0  0
    4.5332    1.9444    0.0008 H   0  0  0  0  0  0  0  0  0  0  0  0
   -3.6033    2.9997    0.0014 H   0  0  0  0  0  0  0  0  0  0  0  0
   -5.0286   -2.3099    0.0008 H   0  0  0  0  0  0  0  0  0  0  0  0
  1 14  1  0  0  0  0
  1 28  1  0  0  0  0
  2 11  2  0  0  0  0
  3 12  2  0  0  0  0
  4 16  1  0  0  0  0
  4 29  1  0  0  0  0
  5 17  1  0  0  0  0
  5 30  1  0  0  0  0
  6 19  1  0  0  0  0
  6 31  1  0  0  0  0
  7  8  2  0  0  0  0
  7 11  1  0  0  0  0
  7 14  1  0  0  0  0
  8 12  1  0  0  0  0
  8 13  1  0  0  0  0
  9 10  2  0  0  0  0
  9 11  1  0  0  0  0
  9 17  1  0  0  0  0
 10 12  1  0  0  0  0
 10 18  1  0  0  0  0
 13 15  2  0  0  0  0
 13 22  1  0  0  0  0
 14 16  2  0  0  0  0
 15 16  1  0  0  0  0
 15 21  1  0  0  0  0
 17 20  2  0  0  0  0
 18 19  2  0  0  0  0
 18 23  1  0  0  0  0
 19 20  1  0  0  0  0
 20 24  1  0  0  0  0
 21 25  1  0  0  0  0
 21 26  1  0  0  0  0
 21 27  1  0  0  0  0
M  END
> <PUBCHEM_COMPOUND_CID>
11818503

> <PUBCHEM_CONFORMER_RMSD>
0.6

> <PUBCHEM_CONFORMER_DIVERSEORDER>
1

> <PUBCHEM_MMFF94_PARTIAL_CHARGES>
28
1 -0.53
10 0.09
11 0.4
12 0.4
13 -0.15
14 0.08
15 -0.14
16 0.08
17 0.08
18 -0.15
19 0.08
2 -0.57
20 -0.15
21 0.14
22 0.15
23 0.15
24 0.15
28 0.45
29 0.45
3 -0.57
30 0.45
31 0.45
4 -0.53
5 -0.53
6 -0.53
7 0.09
8 0.09
9 0.09

> <PUBCHEM_EFFECTIVE_ROTOR_COUNT>
0

> <PUBCHEM_PHARMACOPHORE_FEATURES>
9
1 1 donor
1 2 acceptor
1 3 acceptor
1 4 donor
1 5 donor
1 6 donor
6 7 8 13 14 15 16 rings
6 7 8 9 10 11 12 rings
6 9 10 17 18 19 20 rings

> <PUBCHEM_HEAVY_ATOM_COUNT>
21

> <PUBCHEM_ATOM_DEF_STEREO_COUNT>
0

> <PUBCHEM_ATOM_UDEF_STEREO_COUNT>
0

> <PUBCHEM_BOND_DEF_STEREO_COUNT>
0

> <PUBCHEM_BOND_UDEF_STEREO_COUNT>
0

> <PUBCHEM_ISOTOPIC_ATOM_COUNT>
0

> <PUBCHEM_COMPONENT_COUNT>
1

> <PUBCHEM_CACTVS_TAUTO_COUNT>
467

> <PUBCHEM_CONFORMER_ID>
00B4560700000001

> <PUBCHEM_MMFF94_ENERGY>
65.1654

> <PUBCHEM_FEATURE_SELFOVERLAP>
45.72

> <PUBCHEM_SHAPE_FINGERPRINT>
10062212 137 18339071593120366699
10608611 8 18410853248246611976
10616163 171 18267588090260212254
10967382 1 18338517559355183718
1100329 8 16752967538107022291
11471102 20 18410290324321457406
11578080 2 16591112967116054599
11680986 33 18191029099839095331
11806522 49 18409166632017067007
12236239 1 17918276467810623875
12403259 226 18410569574246899133
12403260 363 18410570678084720463
13140716 1 18339923697330665937
13583140 156 14620513350796998707
13862211 1 18410569578557911523
15196674 1 18410573963687164166
15442244 35 18410573951171566426
15536298 74 18342175561911485306
16945 1 18194683897806208550
17492 89 18338797810351591979
17804303 29 18411422778073872748
1813 80 17313101934987793476
19591789 44 18410573963676978443
200 152 18202558493364227271
20028762 73 18201715193532073871
20510252 161 18343585126927880977
21267235 1 18410582768423355682
221490 88 18336272322446900650
2334 1 18410855477440016709
23402539 116 18343012281390993055
23463225 33 18409449176182145492
23559900 14 18341890754377672170
2748010 2 18410573972361546901
2871803 45 18334851719317224695
335352 9 18194401082826225140
34934 24 18268143331116446282
350125 39 18410578374819427017
4214541 1 18338798914073037441
474 4 17313955259016602012
5104073 3 18411699859394024960
69090 78 18341610446957248527
7364860 26 18341612667956370584
8809292 202 18334018267575009442
9709674 26 18410860974972152142
9981440 41 17542504285720556384

> <PUBCHEM_SHAPE_MULTIPOLES>
396.95
8.5
2.74
0.59
0.21
0.5
0
-1.64
0
0.03
0
0.01
-0.02
0

> <PUBCHEM_SHAPE_SELFOVERLAP>
902.019

> <PUBCHEM_SHAPE_VOLUME>
205.9

> <PUBCHEM_COORDINATE_TYPE>
2
5
10

$$$$
