REMARK  Name = 118191391
REMARK  7 active torsions:
REMARK  status: ('A' for Active; 'I' for Inactive)
REMARK    1  A    between atoms: N_2  and  C_24
REMARK    2  A    between atoms: C_3  and  C_7
REMARK    3  A    between atoms: C_12  and  C_18
REMARK    4  A    between atoms: N_21  and  C_31
REMARK    5  A    between atoms: C_25  and  C_30
REMARK    6  A    between atoms: C_31  and  C_32
REMARK    7  A    between atoms: C_37  and  C_39
REMARK                            x       y       z     vdW  Elec       q    Type
REMARK                         _______ _______ _______ _____ _____    ______ ____
ROOT
ATOM      1  O   UNL     1      -0.540   1.334   0.505  0.00  0.00    -0.270 OA
ATOM      2  N   UNL     1      -0.627  -0.757  -0.556  0.00  0.00    -0.279 N 
ATOM      3  C   UNL     1      -1.171   0.336   0.127  0.00  0.00    +0.246 C 
ATOM      4  H   UNL     1      -1.260  -1.475  -0.789  0.00  0.00    +0.155 HD
ENDROOT
BRANCH   3   7
ATOM      5  F   UNL     1      -6.202   4.026  -1.518  0.00  0.00    -0.204 F 
ATOM      6  N   UNL     1      -5.328   0.053   0.920  0.00  0.00    -0.401 NA
ATOM      7  C   UNL     1      -2.608   0.276   0.377  0.00  0.00    +0.045 C 
ATOM      8  C   UNL     1      -3.501   1.238  -0.114  0.00  0.00    +0.101 C 
ATOM      9  C   UNL     1      -4.871   1.085   0.186  0.00  0.00    +0.119 C 
ATOM     10  C   UNL     1      -3.075  -0.789   1.133  0.00  0.00    +0.038 C 
ATOM     11  C   UNL     1      -3.059   2.328  -0.883  0.00  0.00    -0.013 C 
ATOM     12  C   UNL     1      -4.433  -0.854   1.374  0.00  0.00    +0.184 C 
ATOM     13  C   UNL     1      -5.758   2.042  -0.301  0.00  0.00    +0.058 C 
ATOM     14  C   UNL     1      -3.968   3.269  -1.357  0.00  0.00    +0.026 C 
ATOM     15  C   UNL     1      -5.319   3.125  -1.066  0.00  0.00    +0.142 C 
BRANCH  12  18
ATOM     16  O   UNL     1      -4.260  -2.830   2.644  0.00  0.00    -0.268 OA
ATOM     17  N   UNL     1      -6.363  -1.958   2.369  0.00  0.00    -0.323 N 
ATOM     18  C   UNL     1      -4.987  -1.944   2.159  0.00  0.00    +0.272 C 
ATOM     19  H   UNL     1      -6.773  -2.681   2.896  0.00  0.00    +0.145 HD
ATOM     20  H   UNL     1      -6.926  -1.244   1.991  0.00  0.00    +0.145 HD
ENDBRANCH  12  18
ENDBRANCH   3   7
BRANCH   2  24
ATOM     21  N   UNL     1       2.784  -0.657  -1.587  0.00  0.00    -0.249 N 
ATOM     22  N   UNL     1       2.675  -1.995  -1.521  0.00  0.00    -0.164 NA
ATOM     23  C   UNL     1       1.639   0.007  -1.257  0.00  0.00    +0.071 A 
ATOM     24  C   UNL     1       0.716  -0.964  -0.956  0.00  0.00    +0.088 A 
ATOM     25  C   UNL     1       1.409  -2.176  -1.135  0.00  0.00    +0.187 A 
ATOM     26  C   UNL     1       1.542   1.480  -1.263  0.00  0.00    +0.053 C 
BRANCH  25  30
ATOM     27  F   UNL     1       0.947  -4.326  -2.078  0.00  0.00    -0.164 F 
ATOM     28  F   UNL     1       1.572  -4.276  -0.002  0.00  0.00    -0.164 F 
ATOM     29  F   UNL     1      -0.415  -3.586  -0.552  0.00  0.00    -0.164 F 
ATOM     30  C   UNL     1       0.898  -3.546  -0.949  0.00  0.00    +0.438 C 
ENDBRANCH  25  30
BRANCH  21  31
ATOM     31  C   UNL     1       4.045  -0.072  -1.981  0.00  0.00    +0.153 C 
BRANCH  31  32
ATOM     32  C   UNL     1       4.844   0.466  -0.819  0.00  0.00    +0.002 C 
ATOM     33  C   UNL     1       5.235   1.805  -0.802  0.00  0.00    -0.002 C 
ATOM     34  C   UNL     1       5.190  -0.376   0.238  0.00  0.00    -0.002 C 
ATOM     35  C   UNL     1       5.973   2.302   0.272  0.00  0.00    +0.010 C 
ATOM     36  C   UNL     1       5.928   0.121   1.312  0.00  0.00    +0.010 C 
ATOM     37  C   UNL     1       6.320   1.460   1.329  0.00  0.00    +0.068 C 
BRANCH  37  39
ATOM     38  N   UNL     1       7.690   2.383   3.323  0.00  0.00    -0.191 NA
ATOM     39  C   UNL     1       7.076   1.969   2.429  0.00  0.00    +0.100 C 
ENDBRANCH  37  39
ENDBRANCH  31  32
ENDBRANCH  21  31
ENDBRANCH   2  24
TORSDOF 7
