REMARK  Name = 118139
REMARK  13 active torsions:
REMARK  status: ('A' for Active; 'I' for Inactive)
REMARK    1  A    between atoms: S_1  and  S_2
REMARK    2  A    between atoms: S_1  and  C_22
REMARK    3  A    between atoms: S_2  and  C_3
REMARK    4  A    between atoms: C_3  and  C_4
REMARK    5  A    between atoms: C_4  and  C_7
REMARK    6  A    between atoms: C_4  and  N_18
REMARK    7  A    between atoms: N_6  and  C_9
REMARK    8  A    between atoms: C_12  and  N_17
REMARK    9  A    between atoms: C_22  and  C_23
REMARK   10  A    between atoms: C_23  and  C_26
REMARK   11  A    between atoms: C_23  and  N_37
REMARK   12  A    between atoms: N_25  and  C_28
REMARK   13  A    between atoms: C_31  and  N_36
REMARK                            x       y       z     vdW  Elec       q    Type
REMARK                         _______ _______ _______ _____ _____    ______ ____
ROOT
ATOM      1  S   UNL     1      -5.094  -0.613  -1.387  0.00  0.00    -0.084 S 
ENDROOT
BRANCH   1   2
ATOM      2  S   UNL     1      -5.231  -2.307  -0.234  0.00  0.00    -0.084 S 
BRANCH   2   3
ATOM      3  C   UNL     1      -3.607  -2.345   0.562  0.00  0.00    +0.056 C 
BRANCH   3   4
ATOM      4  C   UNL     1      -2.478  -2.432  -0.470  0.00  0.00    +0.025 C 
BRANCH   4   7
ATOM      5  O   UNL     1      -0.906  -2.861   1.307  0.00  0.00    -0.277 OA
ATOM      6  N   UNL     1      -0.127  -1.911  -0.692  0.00  0.00    -0.286 N 
ATOM      7  C   UNL     1      -1.085  -2.445   0.166  0.00  0.00    +0.206 C 
ATOM      8  H   UNL     1      -0.452  -1.603  -1.569  0.00  0.00    +0.155 HD
BRANCH   6   9
ATOM      9  C   UNL     1       1.259  -1.760  -0.451  0.00  0.00    +0.050 C 
ATOM     10  C   UNL     1       2.079  -1.193  -1.427  0.00  0.00    +0.016 C 
ATOM     11  C   UNL     1       1.805  -2.175   0.764  0.00  0.00    +0.016 C 
ATOM     12  C   UNL     1       3.991  -1.457   0.027  0.00  0.00    +0.143 C 
ATOM     13  C   UNL     1       3.445  -1.042  -1.188  0.00  0.00    +0.025 C 
ATOM     14  C   UNL     1       3.171  -2.024   1.003  0.00  0.00    +0.025 C 
BRANCH  12  17
ATOM     15  O   UNL     1       6.101  -0.791  -0.621  0.00  0.00    -0.126 OA
ATOM     16  O   UNL     1       5.852  -1.683   1.370  0.00  0.00    -0.126 OA
ATOM     17  N   UNL     1       5.381  -1.303   0.270  0.00  0.00    +0.058 N 
ENDBRANCH  12  17
ENDBRANCH   6   9
ENDBRANCH   4   7
BRANCH   4  18
ATOM     18  N   UNL     1      -2.582  -3.694  -1.207  0.00  0.00    +0.388 N 
ATOM     19  H   UNL     1      -3.495  -3.749  -1.659  0.00  0.00    -0.089 HD
ATOM     20  H   UNL     1      -2.475  -4.475  -0.560  0.00  0.00    -0.089 HD
ATOM     21  H   UNL     1      -1.850  -3.736  -1.915  0.00  0.00    -0.089 HD
ENDBRANCH   4  18
ENDBRANCH   3   4
ENDBRANCH   2   3
ENDBRANCH   1   2
BRANCH   1  22
ATOM     22  C   UNL     1      -5.711   0.656  -0.235  0.00  0.00    +0.056 C 
BRANCH  22  23
ATOM     23  C   UNL     1      -4.628   1.086   0.760  0.00  0.00    +0.025 C 
BRANCH  23  26
ATOM     24  O   UNL     1      -3.444   2.190  -1.028  0.00  0.00    -0.277 OA
ATOM     25  N   UNL     1      -2.241   1.463   0.852  0.00  0.00    -0.286 N 
ATOM     26  C   UNL     1      -3.382   1.659   0.078  0.00  0.00    +0.206 C 
ATOM     27  H   UNL     1      -2.372   0.997   1.709  0.00  0.00    +0.155 HD
BRANCH  25  28
ATOM     28  C   UNL     1      -0.916   1.855   0.549  0.00  0.00    +0.050 C 
ATOM     29  C   UNL     1       0.117   1.569   1.442  0.00  0.00    +0.016 C 
ATOM     30  C   UNL     1      -0.642   2.526  -0.643  0.00  0.00    +0.016 C 
ATOM     31  C   UNL     1       1.698   2.624  -0.050  0.00  0.00    +0.143 C 
ATOM     32  C   UNL     1       1.424   1.953   1.142  0.00  0.00    +0.025 C 
ATOM     33  C   UNL     1       0.665   2.910  -0.942  0.00  0.00    +0.025 C 
BRANCH  31  36
ATOM     34  O   UNL     1       3.943   2.748   0.462  0.00  0.00    -0.126 OA
ATOM     35  O   UNL     1       3.254   3.617  -1.433  0.00  0.00    -0.126 OA
ATOM     36  N   UNL     1       3.029   3.015  -0.355  0.00  0.00    +0.058 N 
ENDBRANCH  31  36
ENDBRANCH  25  28
ENDBRANCH  23  26
BRANCH  23  37
ATOM     37  N   UNL     1      -5.141   2.165   1.608  0.00  0.00    +0.388 N 
ATOM     38  H   UNL     1      -5.978   1.846   2.095  0.00  0.00    -0.089 HD
ATOM     39  H   UNL     1      -5.371   2.973   1.029  0.00  0.00    -0.089 HD
ATOM     40  H   UNL     1      -4.430   2.428   2.291  0.00  0.00    -0.089 HD
ENDBRANCH  23  37
ENDBRANCH  22  23
ENDBRANCH   1  22
TORSDOF 13
