REMARK  Name = 11824
REMARK  6 active torsions:
REMARK  status: ('A' for Active; 'I' for Inactive)
REMARK    1  A    between atoms: N_1  and  C1*_11
REMARK    2  A    between atoms: C_7  and  C_26
REMARK    3  A    between atoms: C2*_12  and  O2*_15
REMARK    4  A    between atoms: C3*_13  and  O3*_17
REMARK    5  A    between atoms: C4*_14  and  C5*_19
REMARK    6  A    between atoms: C5*_19  and  O5*_20
REMARK                            x       y       z     vdW  Elec       q    Type
REMARK                         _______ _______ _______ _____ _____    ______ ____
ROOT
ATOM      1  N   UNL     1       0.031  -0.063   0.206  0.00  0.00    -0.249 N 
ATOM      2  N   UNL     1      -1.175  -2.138   0.443  0.00  0.00    -0.233 NA
ATOM      3  N   UNL     1      -3.587  -1.868   0.250  0.00  0.00    -0.234 NA
ATOM      4  C   UNL     1      -1.120  -0.809   0.246  0.00  0.00    +0.122 C 
ATOM      5  C   UNL     1      -0.294   1.255  -0.013  0.00  0.00    +0.075 C 
ATOM      6  C   UNL     1      -2.197   0.046   0.049  0.00  0.00    +0.141 C 
ATOM      7  C   UNL     1      -1.665   1.350  -0.114  0.00  0.00    +0.075 C 
ATOM      8  C   UNL     1      -3.465  -0.535   0.056  0.00  0.00    +0.111 C 
ATOM      9  C   UNL     1      -2.449  -2.578   0.429  0.00  0.00    +0.252 C 
ATOM     10  N   UNL     1      -4.622   0.242  -0.134  0.00  0.00    -0.346 N 
ATOM     11  H   UNL     1      -5.509  -0.185  -0.126  0.00  0.00    +0.143 HD
ATOM     12  H   UNL     1      -4.545   1.213  -0.276  0.00  0.00    +0.143 HD
ENDROOT
BRANCH   1  14
ATOM     13  O4* UNL     1       2.208   0.419   1.018  0.00  0.00    -0.333 OA
ATOM     14  C1* UNL     1       1.390  -0.574   0.370  0.00  0.00    +0.227 C 
ATOM     15  C2* UNL     1       2.088  -0.908  -0.940  0.00  0.00    +0.187 C 
ATOM     16  C3* UNL     1       3.546  -0.777  -0.547  0.00  0.00    +0.171 C 
ATOM     17  C4* UNL     1       3.519   0.413   0.407  0.00  0.00    +0.175 C 
BRANCH  15  18
ATOM     18  O2* UNL     1       1.753  -2.202  -1.400  0.00  0.00    -0.378 OA
ATOM     19  H2* UNL     1       0.813  -2.227  -1.636  0.00  0.00    +0.211 HD
ENDBRANCH  15  18
BRANCH  16  20
ATOM     20  O3* UNL     1       3.950  -1.939   0.177  0.00  0.00    -0.379 OA
ATOM     21  H3* UNL     1       3.970  -2.702  -0.421  0.00  0.00    +0.211 HD
ENDBRANCH  16  20
BRANCH  17  22
ATOM     22  C5* UNL     1       3.725   1.745  -0.300  0.00  0.00    +0.169 C 
BRANCH  22  23
ATOM     23  O5* UNL     1       3.674   2.783   0.664  0.00  0.00    -0.379 OA
ATOM     24  H5* UNL     1       3.804   3.638   0.225  0.00  0.00    +0.211 HD
ENDBRANCH  22  23
ENDBRANCH  17  22
ENDBRANCH   1  14
BRANCH   7  26
ATOM     25  N   UNL     1      -2.943   3.568  -0.528  0.00  0.00    -0.191 NA
ATOM     26  C   UNL     1      -2.367   2.569  -0.342  0.00  0.00    +0.098 C 
ENDBRANCH   7  26
TORSDOF 6
