REMARK  Name = 118205170
REMARK  5 active torsions:
REMARK  status: ('A' for Active; 'I' for Inactive)
REMARK    1  A    between atoms: C2*_2  and  O2*_16
REMARK    2  A    between atoms: C3*_3  and  O3*_18
REMARK    3  A    between atoms: C1*_4  and  N_9
REMARK    4  A    between atoms: C4*_5  and  C5*_20
REMARK    5  A    between atoms: C5*_20  and  O5*_21
REMARK                            x       y       z     vdW  Elec       q    Type
REMARK                         _______ _______ _______ _____ _____    ______ ____
ROOT
ATOM      1  O4* UNL     1      -1.379  -0.269   0.985  0.00  0.00    -0.333 OA
ATOM      2  C2* UNL     1      -1.266   1.110  -0.933  0.00  0.00    +0.187 C 
ATOM      3  C3* UNL     1      -2.726   0.962  -0.559  0.00  0.00    +0.171 C 
ATOM      4  C1* UNL     1      -0.577   0.751   0.374  0.00  0.00    +0.230 C 
ATOM      5  C4* UNL     1      -2.719  -0.180   0.459  0.00  0.00    +0.175 C 
ENDROOT
BRANCH   4   9
ATOM      6  I   UNL     1       1.535   3.220   0.711  0.00  0.00    -0.026 I 
ATOM      7  O   UNL     1       0.134  -1.946  -0.149  0.00  0.00    -0.252 OA
ATOM      8  O   UNL     1       4.625  -0.988  -0.205  0.00  0.00    -0.270 OA
ATOM      9  N   UNL     1       0.767   0.281   0.220  0.00  0.00    -0.213 N 
ATOM     10  N   UNL     1       2.365  -1.458  -0.175  0.00  0.00    -0.236 N 
ATOM     11  C   UNL     1       1.023  -1.097  -0.042  0.00  0.00    +0.316 C 
ATOM     12  C   UNL     1       1.854   1.178   0.326  0.00  0.00    +0.092 C 
ATOM     13  C   UNL     1       3.132   0.788   0.191  0.00  0.00    +0.079 C 
ATOM     14  C   UNL     1       3.460  -0.623  -0.080  0.00  0.00    +0.255 C 
ATOM     15  H   UNL     1       2.549  -2.408  -0.356  0.00  0.00    +0.159 HD
ENDBRANCH   4   9
BRANCH   2  16
ATOM     16  O2* UNL     1      -0.963   0.167  -1.954  0.00  0.00    -0.378 OA
ATOM     17  H2* UNL     1      -1.415   0.421  -2.774  0.00  0.00    +0.211 HD
ENDBRANCH   2  16
BRANCH   3  18
ATOM     18  O3* UNL     1      -3.166   2.148   0.100  0.00  0.00    -0.379 OA
ATOM     19  H3* UNL     1      -3.176   2.884  -0.533  0.00  0.00    +0.211 HD
ENDBRANCH   3  18
BRANCH   5  20
ATOM     20  C5* UNL     1      -3.072  -1.531  -0.145  0.00  0.00    +0.169 C 
BRANCH  20  21
ATOM     21  O5* UNL     1      -3.026  -2.512   0.876  0.00  0.00    -0.379 OA
ATOM     22  H5* UNL     1      -3.249  -3.379   0.503  0.00  0.00    +0.211 HD
ENDBRANCH  20  21
ENDBRANCH   5  20
TORSDOF 5
