118205170
  -OEChem-03292013293D

 29 30  0     1  0  0  0  0  0999 V2000
    1.5352    3.2200    0.7106 I   0  0  0  0  0  0  0  0  0  0  0  0
   -1.3789   -0.2685    0.9851 O   0  0  0  0  0  0  0  0  0  0  0  0
   -0.9628    0.1665   -1.9538 O   0  0  0  0  0  0  0  0  0  0  0  0
   -3.1656    2.1479    0.0995 O   0  0  0  0  0  0  0  0  0  0  0  0
   -3.0258   -2.5120    0.8763 O   0  0  0  0  0  0  0  0  0  0  0  0
    0.1338   -1.9458   -0.1493 O   0  0  0  0  0  0  0  0  0  0  0  0
    4.6247   -0.9880   -0.2052 O   0  0  0  0  0  0  0  0  0  0  0  0
    0.7673    0.2805    0.2202 N   0  0  0  0  0  0  0  0  0  0  0  0
    2.3645   -1.4584   -0.1753 N   0  0  0  0  0  0  0  0  0  0  0  0
   -1.2661    1.1101   -0.9330 C   0  0  1  0  0  0  0  0  0  0  0  0
   -2.7260    0.9619   -0.5586 C   0  0  1  0  0  0  0  0  0  0  0  0
   -0.5770    0.7506    0.3742 C   0  0  1  0  0  0  0  0  0  0  0  0
   -2.7192   -0.1798    0.4594 C   0  0  1  0  0  0  0  0  0  0  0  0
   -3.0724   -1.5312   -0.1454 C   0  0  0  0  0  0  0  0  0  0  0  0
    1.0227   -1.0970   -0.0416 C   0  0  0  0  0  0  0  0  0  0  0  0
    1.8542    1.1782    0.3263 C   0  0  0  0  0  0  0  0  0  0  0  0
    3.1319    0.7885    0.1908 C   0  0  0  0  0  0  0  0  0  0  0  0
    3.4596   -0.6234   -0.0804 C   0  0  0  0  0  0  0  0  0  0  0  0
   -0.9923    2.1085   -1.2857 H   0  0  0  0  0  0  0  0  0  0  0  0
   -3.3886    0.7757   -1.4096 H   0  0  0  0  0  0  0  0  0  0  0  0
   -0.6418    1.5718    1.0908 H   0  0  0  0  0  0  0  0  0  0  0  0
   -3.3770    0.0231    1.3126 H   0  0  0  0  0  0  0  0  0  0  0  0
   -2.3683   -1.8279   -0.9272 H   0  0  0  0  0  0  0  0  0  0  0  0
   -4.0829   -1.5136   -0.5657 H   0  0  0  0  0  0  0  0  0  0  0  0
   -1.4731    0.4164   -2.7430 H   0  0  0  0  0  0  0  0  0  0  0  0
   -4.0935    2.0110    0.3566 H   0  0  0  0  0  0  0  0  0  0  0  0
    2.5532   -2.4393   -0.3620 H   0  0  0  0  0  0  0  0  0  0  0  0
    3.9706    1.4722    0.2711 H   0  0  0  0  0  0  0  0  0  0  0  0
   -3.2634   -3.3623    0.4687 H   0  0  0  0  0  0  0  0  0  0  0  0
  1 16  1  0  0  0  0
  2 12  1  0  0  0  0
  2 13  1  0  0  0  0
  3 10  1  0  0  0  0
  3 25  1  0  0  0  0
  4 11  1  0  0  0  0
  4 26  1  0  0  0  0
  5 14  1  0  0  0  0
  5 29  1  0  0  0  0
  6 15  2  0  0  0  0
  7 18  2  0  0  0  0
  8 12  1  0  0  0  0
  8 15  1  0  0  0  0
  8 16  1  0  0  0  0
  9 15  1  0  0  0  0
  9 18  1  0  0  0  0
  9 27  1  0  0  0  0
 10 11  1  0  0  0  0
 10 12  1  0  0  0  0
 10 19  1  0  0  0  0
 11 13  1  0  0  0  0
 11 20  1  0  0  0  0
 12 21  1  0  0  0  0
 13 14  1  0  0  0  0
 13 22  1  0  0  0  0
 14 23  1  0  0  0  0
 14 24  1  0  0  0  0
 16 17  2  0  0  0  0
 17 18  1  0  0  0  0
 17 28  1  0  0  0  0
M  END
> <PUBCHEM_COMPOUND_CID>
118205170

> <PUBCHEM_CONFORMER_RMSD>
0.6

> <PUBCHEM_CONFORMER_DIVERSEORDER>
1
3
2

> <PUBCHEM_MMFF94_PARTIAL_CHARGES>
23
1 -0.09
10 0.28
11 0.28
12 0.58
13 0.28
14 0.28
15 0.69
16 0.2
17 -0.14
18 0.62
2 -0.56
25 0.4
26 0.4
27 0.37
28 0.15
29 0.4
3 -0.68
4 -0.68
5 -0.68
6 -0.57
7 -0.57
8 -0.47
9 -0.49

> <PUBCHEM_EFFECTIVE_ROTOR_COUNT>
3

> <PUBCHEM_PHARMACOPHORE_FEATURES>
13
1 1 hydrophobe
1 2 acceptor
1 3 acceptor
1 3 donor
1 4 acceptor
1 4 donor
1 5 acceptor
1 5 donor
1 6 acceptor
1 7 acceptor
1 9 donor
5 2 10 11 12 13 rings
6 8 9 15 16 17 18 rings

> <PUBCHEM_HEAVY_ATOM_COUNT>
18

> <PUBCHEM_ATOM_DEF_STEREO_COUNT>
4

> <PUBCHEM_ATOM_UDEF_STEREO_COUNT>
0

> <PUBCHEM_BOND_DEF_STEREO_COUNT>
0

> <PUBCHEM_BOND_UDEF_STEREO_COUNT>
0

> <PUBCHEM_ISOTOPIC_ATOM_COUNT>
0

> <PUBCHEM_COMPONENT_COUNT>
1

> <PUBCHEM_CACTVS_TAUTO_COUNT>
3

> <PUBCHEM_CONFORMER_ID>
070BAAF200000001

> <PUBCHEM_MMFF94_ENERGY>
55.3145

> <PUBCHEM_FEATURE_SELFOVERLAP>
65.998

> <PUBCHEM_SHAPE_FINGERPRINT>
10608611 8 18410569612880421448
10967382 1 18195808466315536944
12032990 46 18341618101137388266
12403259 226 18337950194354840760
12500047 106 18261951830568606205
12633257 1 18270698514381779121
12932764 1 17458616783579556504
13140716 1 18411976945104393992
13214271 11 18271520918882715188
14115302 16 18189909633745893452
14223421 5 18266456696947519929
15219456 202 18410008857681486776
15375462 6 18194120947963868889
16945 1 18124310768556651589
17804303 29 18409454695246762869
17844478 74 18335985371313040907
18175812 5 18334858333208015119
19591789 44 16825031248241981992
200 152 17988915687215955151
21061003 4 18412549798999166024
21501502 16 18334862744065802261
221490 88 18338240482768018650
23402539 116 18200866276386889774
23559900 14 18338227279864691761
23566358 27 17981891049181075348
25 1 18192988214737645629
2748010 2 18338222877396645156
2871803 45 18262229032105974939
31174 14 18195809789265827456
3286 77 18337106864678273116
350125 39 18266463294181063624
45790113 53 18270400614980805000
458136 41 17836094746259957664
5104073 3 18411697686604731912
7364860 26 18198343060151776056
81228 2 17677896914650127489
8809292 202 18334580135244125499
9709674 26 18338232790297072563

> <PUBCHEM_SHAPE_MULTIPOLES>
337.19
6.22
2.86
0.99
1.45
1.44
-0.25
-1.92
0.27
0.54
0.53
-0.47
0.11
0.92

> <PUBCHEM_SHAPE_SELFOVERLAP>
689.917

> <PUBCHEM_SHAPE_VOLUME>
198.6

> <PUBCHEM_COORDINATE_TYPE>
2
5
10

$$$$
