REMARK  Name = 118253852
REMARK  6 active torsions:
REMARK  status: ('A' for Active; 'I' for Inactive)
REMARK    1  A    between atoms: C_1  and  C_2
REMARK    2  A    between atoms: C_1  and  C_19
REMARK    3  A    between atoms: C_3  and  C_11
REMARK    4  A    between atoms: C_19  and  N_21
REMARK    5  A    between atoms: C_19  and  C_34
REMARK    6  A    between atoms: C_22  and  C_26
REMARK                            x       y       z     vdW  Elec       q    Type
REMARK                         _______ _______ _______ _____ _____    ______ ____
ROOT
ATOM      1  C   UNL     1       2.747   3.065   0.669  0.00  0.00    +0.062 C 
ENDROOT
BRANCH   1   2
ATOM      2  C   UNL     1       1.323   2.595   0.487  0.00  0.00    -0.019 C 
ATOM      3  C   UNL     1      -1.306   1.727   0.150  0.00  0.00    +0.000 C 
ATOM      4  C   UNL     1       0.545   3.113  -0.548  0.00  0.00    -0.004 C 
ATOM      5  C   UNL     1       0.787   1.643   1.354  0.00  0.00    -0.004 C 
ATOM      6  C   UNL     1      -0.770   2.679  -0.717  0.00  0.00    -0.000 C 
ATOM      7  C   UNL     1      -0.528   1.209   1.185  0.00  0.00    -0.000 C 
BRANCH   3  11
ATOM      8  O   UNL     1      -6.534  -0.115  -0.474  0.00  0.00    -0.407 OA
ATOM      9  O   UNL     1      -7.226  -2.235   0.116  0.00  0.00    -0.223 OA
ATOM     10  N   UNL     1      -5.004  -1.572   0.423  0.00  0.00    -0.260 N 
ATOM     11  C   UNL     1      -2.671   1.276  -0.024  0.00  0.00    +0.002 C 
ATOM     12  C   UNL     1      -4.339  -0.394   0.165  0.00  0.00    +0.100 A 
ATOM     13  C   UNL     1      -3.024  -0.022   0.354  0.00  0.00    +0.020 C 
ATOM     14  C   UNL     1      -5.278   0.464  -0.372  0.00  0.00    +0.166 A 
ATOM     15  C   UNL     1      -3.627   2.154  -0.573  0.00  0.00    +0.003 C 
ATOM     16  C   UNL     1      -4.952   1.749  -0.752  0.00  0.00    +0.039 C 
ATOM     17  C   UNL     1      -6.325  -1.408   0.040  0.00  0.00    +0.422 A 
ATOM     18  C   UNL     1      -4.428  -2.764   0.992  0.00  0.00    +0.137 C 
ENDBRANCH   3  11
ENDBRANCH   1   2
BRANCH   1  19
ATOM     19  C   UNL     1       3.763   2.220  -0.114  0.00  0.00    +0.168 C 
BRANCH  19  21
ATOM     20  O   UNL     1       3.161  -0.047  -1.824  0.00  0.00    -0.273 OA
ATOM     21  N   UNL     1       3.691   0.828   0.267  0.00  0.00    -0.292 N 
ATOM     22  C   UNL     1       3.394  -0.187  -0.627  0.00  0.00    +0.248 C 
ATOM     23  H   UNL     1       3.860   0.590   1.207  0.00  0.00    +0.150 HD
BRANCH  22  26
ATOM     24  O   UNL     1       2.403  -2.227  -0.704  0.00  0.00    -0.349 OA
ATOM     25  N   UNL     1       4.928  -3.289   0.794  0.00  0.00    +0.386 N 
ATOM     26  C   UNL     1       3.409  -1.533   0.022  0.00  0.00    +0.170 C 
ATOM     27  C   UNL     1       4.798  -2.153  -0.109  0.00  0.00    -0.042 C 
ATOM     28  C   UNL     1       3.190  -4.517  -0.641  0.00  0.00    +0.009 C 
ATOM     29  C   UNL     1       4.421  -4.555   0.271  0.00  0.00    -0.079 C 
ATOM     30  C   UNL     1       2.116  -3.531  -0.204  0.00  0.00    +0.140 C 
ATOM     31  H   UNL     1       4.417  -3.073   1.650  0.00  0.00    -0.084 HD
ATOM     32  H   UNL     1       5.928  -3.423   0.941  0.00  0.00    -0.084 HD
ENDBRANCH  22  26
ENDBRANCH  19  21
BRANCH  19  34
ATOM     33  N   UNL     1       6.207   3.111   0.284  0.00  0.00    -0.194 NA
ATOM     34  C   UNL     1       5.130   2.719   0.110  0.00  0.00    +0.093 C 
ENDBRANCH  19  34
ENDBRANCH   1  19
TORSDOF 6
