REMARK  Name = 11820542
REMARK  5 active torsions:
REMARK  status: ('A' for Active; 'I' for Inactive)
REMARK    1  A    between atoms: C_1  and  N_4
REMARK    2  A    between atoms: C_1  and  C_10
REMARK    3  A    between atoms: C_10  and  C_11
REMARK    4  A    between atoms: C_11  and  C_14
REMARK    5  A    between atoms: N_13  and  O_16
REMARK                            x       y       z     vdW  Elec       q    Type
REMARK                         _______ _______ _______ _____ _____    ______ ____
ROOT
ATOM      1  C   UNL     1      -0.124   1.125   0.521  0.00  0.00    +0.099 C 
ENDROOT
BRANCH   1   4
ATOM      2  O   UNL     1      -1.863  -2.697   0.330  0.00  0.00    -0.123 OA
ATOM      3  O   UNL     1      -0.078  -1.598  -0.334  0.00  0.00    -0.123 OA
ATOM      4  N   UNL     1      -1.517   0.809   0.227  0.00  0.00    -0.251 N 
ATOM      5  N   UNL     1      -3.324  -0.367  -0.246  0.00  0.00    -0.207 NA
ATOM      6  N   UNL     1      -1.298  -1.617  -0.004  0.00  0.00    +0.091 N 
ATOM      7  C   UNL     1      -2.033  -0.426  -0.008  0.00  0.00    +0.284 C 
ATOM      8  C   UNL     1      -2.522   1.718   0.138  0.00  0.00    +0.089 C 
ATOM      9  C   UNL     1      -3.636   0.966  -0.158  0.00  0.00    +0.118 C 
ENDBRANCH   1   4
BRANCH   1  10
ATOM     10  C   UNL     1       0.726   1.408  -0.723  0.00  0.00    +0.032 C 
BRANCH  10  11
ATOM     11  C   UNL     1       2.204   1.674  -0.433  0.00  0.00    +0.089 C 
BRANCH  11  14
ATOM     12  O   UNL     1       2.961   0.325   1.427  0.00  0.00    -0.273 OA
ATOM     13  N   UNL     1       3.469  -0.341  -0.725  0.00  0.00    -0.197 N 
ATOM     14  C   UNL     1       2.921   0.501   0.212  0.00  0.00    +0.244 C 
ATOM     15  H   UNL     1       3.410  -0.157  -1.691  0.00  0.00    +0.182 HD
BRANCH  13  16
ATOM     16  O   UNL     1       4.115  -1.478  -0.223  0.00  0.00    -0.295 OA
ATOM     17  H   UNL     1       4.465  -2.003  -0.960  0.00  0.00    +0.241 HD
ENDBRANCH  13  16
ENDBRANCH  11  14
ENDBRANCH  10  11
ENDBRANCH   1  10
TORSDOF 5
