REMARK  Name = 11821571
REMARK  4 active torsions:
REMARK  status: ('A' for Active; 'I' for Inactive)
REMARK    1  A    between atoms: N_3  and  C1*_15
REMARK    2  A    between atoms: C3*_17  and  O3*_19
REMARK    3  A    between atoms: C4*_18  and  C5*_21
REMARK    4  A    between atoms: C5*_21  and  O5*_22
REMARK                            x       y       z     vdW  Elec       q    Type
REMARK                         _______ _______ _______ _____ _____    ______ ____
ROOT
ATOM      1  O   UNL     1       4.227  -1.887  -0.290  0.00  0.00    -0.267 OA
ATOM      2  O   UNL     1       3.543   2.657   0.376  0.00  0.00    -0.247 OA
ATOM      3  N   UNL     1      -0.078  -0.354   0.055  0.00  0.00    -0.250 N 
ATOM      4  N   UNL     1       1.684   1.304   0.239  0.00  0.00    -0.295 N 
ATOM      5  N   UNL     1       3.872   0.389   0.044  0.00  0.00    -0.275 N 
ATOM      6  C   UNL     1       1.235   0.022   0.070  0.00  0.00    +0.122 A 
ATOM      7  C   UNL     1      -0.131  -1.718  -0.138  0.00  0.00    +0.069 C 
ATOM      8  C   UNL     1       2.026  -1.084  -0.111  0.00  0.00    +0.087 A 
ATOM      9  C   UNL     1       1.163  -2.195  -0.243  0.00  0.00    +0.024 C 
ATOM     10  C   UNL     1       3.461  -0.943  -0.133  0.00  0.00    +0.264 A 
ATOM     11  C   UNL     1       3.061   1.532   0.230  0.00  0.00    +0.328 A 
ATOM     12  H   UNL     1       1.051   2.047   0.363  0.00  0.00    +0.172 HD
ATOM     13  H   UNL     1       4.844   0.545   0.038  0.00  0.00    +0.173 HD
ENDROOT
BRANCH   3  15
ATOM     14  O4* UNL     1      -2.291  -0.192   0.894  0.00  0.00    -0.335 OA
ATOM     15  C1* UNL     1      -1.240   0.513   0.212  0.00  0.00    +0.200 C 
ATOM     16  C2* UNL     1      -1.828   1.016  -1.099  0.00  0.00    +0.083 C 
ATOM     17  C3* UNL     1      -3.263   1.283  -0.706  0.00  0.00    +0.144 C 
ATOM     18  C4* UNL     1      -3.556   0.183   0.309  0.00  0.00    +0.173 C 
BRANCH  17  19
ATOM     19  O3* UNL     1      -3.326   2.554  -0.064  0.00  0.00    -0.382 OA
ATOM     20  H3* UNL     1      -3.139   3.253  -0.711  0.00  0.00    +0.210 HD
ENDBRANCH  17  19
BRANCH  18  21
ATOM     21  C5* UNL     1      -4.167  -1.057  -0.329  0.00  0.00    +0.169 C 
BRANCH  21  22
ATOM     22  O5* UNL     1      -4.393  -2.023   0.683  0.00  0.00    -0.379 OA
ATOM     23  H5* UNL     1      -4.782  -2.819   0.289  0.00  0.00    +0.211 HD
ENDBRANCH  21  22
ENDBRANCH  18  21
ENDBRANCH   3  15
TORSDOF 4
