REMARK  Name = 118276
REMARK  10 active torsions:
REMARK  status: ('A' for Active; 'I' for Inactive)
REMARK    1  A    between atoms: N_2  and  CA_14
REMARK    2  A    between atoms: C_3  and  CA_5
REMARK    3  A    between atoms: CA_5  and  N_6
REMARK    4  A    between atoms: CA_5  and  CB_10
REMARK    5  A    between atoms: CB_10  and  CG_11
REMARK    6  A    between atoms: CA_14  and  C_16
REMARK    7  A    between atoms: CA_14  and  CB_19
REMARK    8  A    between atoms: C_16  and  O_17
REMARK    9  A    between atoms: CB_19  and  CG_20
REMARK   10  A    between atoms: CG_20  and  SD_21
REMARK                            x       y       z     vdW  Elec       q    Type
REMARK                         _______ _______ _______ _____ _____    ______ ____
ROOT
ATOM      1  O   LEU A   1       1.075  -1.333   1.175  0.00  0.00    -0.277 OA
ATOM      2  N   MET A   2      -0.443  -0.574  -0.409  0.00  0.00    -0.298 N 
ATOM      3  C   LEU A   1       0.825  -0.888   0.057  0.00  0.00    +0.202 C 
ATOM      4  H   MET A   2      -0.534  -0.223  -1.324  0.00  0.00    +0.150 HD
ENDROOT
BRANCH   3   5
ATOM      5  CA  LEU A   1       1.914  -0.589  -0.968  0.00  0.00    +0.013 C 
BRANCH   5   6
ATOM      6  N   LEU A   1       2.030  -1.799  -1.786  0.00  0.00    +0.387 N 
ATOM      7  H1  LEU A   1       2.749  -1.661  -2.497  0.00  0.00    -0.089 HD
ATOM      8  H2  LEU A   1       1.136  -1.989  -2.240  0.00  0.00    -0.089 HD
ATOM      9  H3  LEU A   1       2.285  -2.588  -1.193  0.00  0.00    -0.089 HD
ENDBRANCH   5   6
BRANCH   5  10
ATOM     10  CB  LEU A   1       3.266  -0.270  -0.309  0.00  0.00    -0.013 C 
BRANCH  10  11
ATOM     11  CG  LEU A   1       3.259   0.985   0.591  0.00  0.00    -0.002 C 
ATOM     12  CD1 LEU A   1       2.816   2.202  -0.225  0.00  0.00    -0.000 C 
ATOM     13  CD2 LEU A   1       4.623   1.259   1.225  0.00  0.00    -0.000 C 
ENDBRANCH  10  11
ENDBRANCH   5  10
ENDBRANCH   3   5
BRANCH   2  14
ATOM     14  CA  MET A   2      -1.637  -0.740   0.389  0.00  0.00    +0.172 C 
BRANCH  14  16
ATOM     15  OXT MET A   2      -3.138  -2.542   0.990  0.00  0.00    -0.248 OA
ATOM     16  C   MET A   2      -2.189  -2.156   0.316  0.00  0.00    +0.332 C 
BRANCH  16  17
ATOM     17  O   MET A   2      -1.511  -2.981  -0.517  0.00  0.00    -0.479 OA
ATOM     18  H   MET A   2      -0.790  -2.653  -1.017  0.00  0.00    +0.295 HD
ENDBRANCH  16  17
ENDBRANCH  14  16
BRANCH  14  19
ATOM     19  CB  MET A   2      -2.699   0.313   0.043  0.00  0.00    +0.043 C 
BRANCH  19  20
ATOM     20  CG  MET A   2      -2.168   1.748   0.061  0.00  0.00    +0.060 C 
BRANCH  20  21
ATOM     21  SD  MET A   2      -3.495   2.919  -0.350  0.00  0.00    -0.139 S 
ATOM     22  CE  MET A   2      -2.528   4.444  -0.285  0.00  0.00    +0.069 C 
ENDBRANCH  20  21
ENDBRANCH  19  20
ENDBRANCH  14  19
ENDBRANCH   2  14
TORSDOF 10
