REMARK  Name = 11821378
REMARK  5 active torsions:
REMARK  status: ('A' for Active; 'I' for Inactive)
REMARK    1  A    between atoms: N_1  and  C_11
REMARK    2  A    between atoms: C_10  and  C_15
REMARK    3  A    between atoms: C_12  and  C_18
REMARK    4  A    between atoms: C_15  and  O_16
REMARK    5  A    between atoms: C_18  and  O_19
REMARK                            x       y       z     vdW  Elec       q    Type
REMARK                         _______ _______ _______ _____ _____    ______ ____
ROOT
ATOM      1  N   UNL     1       0.417   0.491   0.037  0.00  0.00    -0.273 N 
ATOM      2  N   UNL     1       2.079   1.411   1.205  0.00  0.00    -0.242 NA
ATOM      3  N   UNL     1       1.677  -1.099  -1.299  0.00  0.00    -0.228 NA
ATOM      4  N   UNL     1       4.062  -0.986  -0.796  0.00  0.00    -0.229 NA
ATOM      5  C   UNL     1       1.560  -0.131  -0.378  0.00  0.00    +0.150 C 
ATOM      6  C   UNL     1       0.780   1.408   0.988  0.00  0.00    +0.221 C 
ATOM      7  C   UNL     1       2.579   0.453   0.358  0.00  0.00    +0.140 C 
ATOM      8  C   UNL     1       3.870  -0.009   0.122  0.00  0.00    +0.143 C 
ATOM      9  C   UNL     1       2.970  -1.463  -1.440  0.00  0.00    +0.253 C 
ATOM     10  N   UNL     1       4.963   0.527   0.825  0.00  0.00    -0.342 N 
ATOM     11  H   UNL     1       5.872   0.192   0.650  0.00  0.00    +0.144 HD
ATOM     12  H   UNL     1       4.820   1.236   1.492  0.00  0.00    +0.144 HD
ENDROOT
BRANCH   1  14
ATOM     13  C   UNL     1      -1.935  -0.159   0.687  0.00  0.00    +0.050 C 
ATOM     14  C   UNL     1      -0.945   0.234  -0.436  0.00  0.00    +0.078 C 
ATOM     15  C   UNL     1      -3.305   0.397   0.226  0.00  0.00    +0.033 C 
ATOM     16  C   UNL     1      -1.608   1.431  -1.048  0.00  0.00    +0.020 C 
ATOM     17  C   UNL     1      -2.891   1.522  -0.681  0.00  0.00    +0.004 C 
BRANCH  13  18
ATOM     18  C   UNL     1      -1.895  -1.647   1.016  0.00  0.00    +0.139 C 
BRANCH  18  19
ATOM     19  O   UNL     1      -2.802  -1.901   2.074  0.00  0.00    -0.382 OA
ATOM     20  H   UNL     1      -2.786  -2.845   2.294  0.00  0.00    +0.210 HD
ENDBRANCH  18  19
ENDBRANCH  13  18
BRANCH  15  21
ATOM     21  C   UNL     1      -4.208  -0.585  -0.513  0.00  0.00    +0.137 C 
BRANCH  21  22
ATOM     22  O   UNL     1      -5.366   0.106  -0.947  0.00  0.00    -0.382 OA
ATOM     23  H   UNL     1      -5.950  -0.508  -1.420  0.00  0.00    +0.210 HD
ENDBRANCH  21  22
ENDBRANCH  15  21
ENDBRANCH   1  14
TORSDOF 5
