11837140
  -OEChem-03292013303D

 18 19  0     0  0  0  0  0  0999 V2000
    1.8488    1.1052    0.8412 S   0  0  0  0  0  0  0  0  0  0  0  0
   -0.9072    2.0700    0.0076 S   0  0  0  0  0  0  0  0  0  0  0  0
   -3.7057    0.9278   -0.3576 S   0  0  0  0  0  0  0  0  0  0  0  0
    4.4732   -1.3984   -0.5250 O   0  5  0  0  0  0  0  0  0  0  0  0
    4.4767   -0.1009    1.2458 O   0  0  0  0  0  0  0  0  0  0  0  0
    0.6098    0.2667   -1.2670 N   0  0  0  0  0  0  0  0  0  0  0  0
    3.9037   -0.5369    0.2056 N   0  3  0  0  0  0  0  0  0  0  0  0
   -1.7417   -0.4140    0.5955 N   0  0  0  0  0  0  0  0  0  0  0  0
   -2.8206   -1.2807    0.5932 N   0  0  0  0  0  0  0  0  0  0  0  0
   -5.1170   -1.3096   -0.0018 N   0  0  0  0  0  0  0  0  0  0  0  0
    0.5140    1.0778   -0.2371 C   0  0  0  0  0  0  0  0  0  0  0  0
    2.6331   -0.0634   -0.1388 C   0  0  0  0  0  0  0  0  0  0  0  0
    1.8255   -0.3867   -1.2090 C   0  0  0  0  0  0  0  0  0  0  0  0
   -2.0856    0.7502    0.1265 C   0  0  0  0  0  0  0  0  0  0  0  0
   -3.9067   -0.7070    0.1209 C   0  0  0  0  0  0  0  0  0  0  0  0
    2.0700   -1.0981   -1.9871 H   0  0  0  0  0  0  0  0  0  0  0  0
   -5.2641   -2.2751    0.2733 H   0  0  0  0  0  0  0  0  0  0  0  0
   -5.9236   -0.8188   -0.3736 H   0  0  0  0  0  0  0  0  0  0  0  0
  1 11  1  0  0  0  0
  1 12  1  0  0  0  0
  2 11  1  0  0  0  0
  2 14  1  0  0  0  0
  3 14  1  0  0  0  0
  3 15  1  0  0  0  0
  4  7  1  0  0  0  0
  5  7  2  0  0  0  0
  6 11  2  0  0  0  0
  6 13  1  0  0  0  0
  7 12  1  0  0  0  0
  8  9  1  0  0  0  0
  8 14  2  0  0  0  0
  9 15  2  0  0  0  0
 10 15  1  0  0  0  0
 10 17  1  0  0  0  0
 10 18  1  0  0  0  0
 12 13  2  0  0  0  0
 13 16  1  0  0  0  0
M  CHG  2   4  -1   7   1
M  END
> <PUBCHEM_COMPOUND_CID>
11837140

> <PUBCHEM_CONFORMER_RMSD>
0.6

> <PUBCHEM_CONFORMER_DIVERSEORDER>
2
5
15
19
22
11
14
17
12
18
16
20
6
13
21
1
10
7
3
8
4
9

> <PUBCHEM_MMFF94_PARTIAL_CHARGES>
18
1 -0.08
10 -0.88
11 0.43
12 0.12
13 0.08
14 0.43
15 0.46
16 0.15
17 0.4
18 0.4
2 -0.11
3 -0.08
4 -0.52
5 -0.52
6 -0.57
7 0.96
8 -0.34
9 -0.34

> <PUBCHEM_EFFECTIVE_ROTOR_COUNT>
3

> <PUBCHEM_PHARMACOPHORE_FEATURES>
9
1 10 donor
1 4 acceptor
1 4 anion
1 5 acceptor
1 6 acceptor
1 8 acceptor
3 9 10 15 cation
5 1 6 11 12 13 rings
5 3 8 9 14 15 rings

> <PUBCHEM_HEAVY_ATOM_COUNT>
15

> <PUBCHEM_ATOM_DEF_STEREO_COUNT>
0

> <PUBCHEM_ATOM_UDEF_STEREO_COUNT>
0

> <PUBCHEM_BOND_DEF_STEREO_COUNT>
0

> <PUBCHEM_BOND_UDEF_STEREO_COUNT>
0

> <PUBCHEM_ISOTOPIC_ATOM_COUNT>
0

> <PUBCHEM_COMPONENT_COUNT>
1

> <PUBCHEM_CACTVS_TAUTO_COUNT>
2

> <PUBCHEM_CONFORMER_ID>
00B49ED400000002

> <PUBCHEM_MMFF94_ENERGY>
20.4093

> <PUBCHEM_FEATURE_SELFOVERLAP>
45.753

> <PUBCHEM_SHAPE_FINGERPRINT>
10465860 250 18410007728200182841
11031198 65 11891329859144057104
11046707 91 18260831483780047065
12251169 10 17561080336606917948
13296908 3 18410855494904962861
14115302 16 17603874441735824491
14252887 29 17632584829288765830
14341114 328 14476962319781796931
14943859 89 9439400228979189348
14993402 34 16370728131896366864
177051 138 18408887338804666868
17834072 14 18412259536624817137
17834072 8 17968085418416996293
18186145 218 13406799942895703045
20201158 50 18272091569622918301
20279233 1 18202568358666872373
20281475 54 18340216201920522964
20374829 77 18334853927062134177
204376 136 16200144421990711348
20671657 53 17385442132940865212
21119208 17 15936407853522941103
21501925 9 18342458161816388052
22485316 2 18187643579093806592
22854114 59 17132110243217573384
231179 274 8574714593876746956
23402539 116 18412256217100381309
23402655 69 12757145783878475949
23403322 49 18409167688658279455
23559900 14 18408600362149365068
24859131 72 18271244928305149398
26918003 58 17704072893736491489
3286 77 17846498153366984505
4047638 21 9223232949108615852
474 4 14260480575116834610
4990 188 12685091483954013153
76465 3 18270395118134933255
81228 2 18054811501985979705

> <PUBCHEM_SHAPE_MULTIPOLES>
283.6
9.29
1.61
1
0.03
0.37
0.08
-4.76
-1.15
0.72
-0.04
-0.62
0
0.63

> <PUBCHEM_SHAPE_SELFOVERLAP>
564.808

> <PUBCHEM_SHAPE_VOLUME>
169.2

> <PUBCHEM_COORDINATE_TYPE>
2
5
10

$$$$
