REMARK  Name = 11837140
REMARK  3 active torsions:
REMARK  status: ('A' for Active; 'I' for Inactive)
REMARK    1  A    between atoms: S_1  and  C_6
REMARK    2  A    between atoms: S_1  and  C_12
REMARK    3  A    between atoms: C_13  and  N_17
REMARK                            x       y       z     vdW  Elec       q    Type
REMARK                         _______ _______ _______ _____ _____    ______ ____
ROOT
ATOM      1  S   UNL     1      -0.907   2.070   0.008  0.00  0.00    -0.034 S 
ENDROOT
BRANCH   1   6
ATOM      2  S   UNL     1      -3.706   0.928  -0.358  0.00  0.00    -0.024 S 
ATOM      3  N   UNL     1      -1.742  -0.414   0.596  0.00  0.00    -0.133 NA
ATOM      4  N   UNL     1      -2.821  -1.281   0.593  0.00  0.00    -0.125 NA
ATOM      5  N   UNL     1      -5.117  -1.310  -0.002  0.00  0.00    -0.336 N 
ATOM      6  C   UNL     1      -2.086   0.750   0.127  0.00  0.00    +0.166 A 
ATOM      7  C   UNL     1      -3.907  -0.707   0.121  0.00  0.00    +0.180 A 
ATOM      8  H   UNL     1      -5.882  -0.808  -0.366  0.00  0.00    +0.144 HD
ATOM      9  H   UNL     1      -5.230  -2.248   0.274  0.00  0.00    +0.144 HD
ENDBRANCH   1   6
BRANCH   1  12
ATOM     10  S   UNL     1       1.849   1.105   0.841  0.00  0.00    -0.036 S 
ATOM     11  N   UNL     1       0.610   0.267  -1.267  0.00  0.00    -0.228 NA
ATOM     12  C   UNL     1       0.514   1.078  -0.237  0.00  0.00    +0.144 C 
ATOM     13  C   UNL     1       2.633  -0.063  -0.139  0.00  0.00    +0.193 C 
ATOM     14  C   UNL     1       1.825  -0.387  -1.209  0.00  0.00    +0.131 C 
BRANCH  13  17
ATOM     15  O   UNL     1       4.473  -1.398  -0.525  0.00  0.00    -0.126 OA
ATOM     16  O   UNL     1       4.477  -0.101   1.246  0.00  0.00    -0.126 OA
ATOM     17  N   UNL     1       3.904  -0.537   0.206  0.00  0.00    +0.065 N 
ENDBRANCH  13  17
ENDBRANCH   1  12
TORSDOF 3
