REMARK  Name = 118328
REMARK  7 active torsions:
REMARK  status: ('A' for Active; 'I' for Inactive)
REMARK    1  A    between atoms: C_2  and  N_8
REMARK    2  A    between atoms: C_3  and  O_12
REMARK    3  A    between atoms: C_4  and  O_14
REMARK    4  A    between atoms: C_5  and  C_29
REMARK    5  A    between atoms: C_6  and  O_16
REMARK    6  A    between atoms: O_16  and  C_19
REMARK    7  A    between atoms: C_29  and  O_30
REMARK                            x       y       z     vdW  Elec       q    Type
REMARK                         _______ _______ _______ _____ _____    ______ ____
ROOT
ATOM      1  O   UNL     1      -1.341  -0.738  -0.721  0.00  0.00    -0.317 OA
ATOM      2  C   UNL     1      -2.858   0.411   0.810  0.00  0.00    +0.172 C 
ATOM      3  C   UNL     1      -3.740  -0.842   0.880  0.00  0.00    +0.164 C 
ATOM      4  C   UNL     1      -3.522  -1.741  -0.345  0.00  0.00    +0.169 C 
ATOM      5  C   UNL     1      -2.029  -1.989  -0.608  0.00  0.00    +0.177 C 
ATOM      6  C   UNL     1      -1.404   0.037   0.477  0.00  0.00    +0.309 C 
ENDROOT
BRANCH   2   8
ATOM      7  O   UNL     1      -4.801   2.519   1.270  0.00  0.00    -0.275 OA
ATOM      8  N   UNL     1      -3.389   1.346  -0.161  0.00  0.00    -0.298 N 
ATOM      9  C   UNL     1      -4.318   2.320   0.159  0.00  0.00    +0.223 C 
ATOM     10  C   UNL     1      -4.681   3.171  -1.029  0.00  0.00    +0.095 C 
ATOM     11  H   UNL     1      -3.075   1.285  -1.092  0.00  0.00    +0.150 HD
ENDBRANCH   2   8
BRANCH   3  12
ATOM     12  O   UNL     1      -3.454  -1.552   2.087  0.00  0.00    -0.380 OA
ATOM     13  H   UNL     1      -3.597  -0.968   2.848  0.00  0.00    +0.211 HD
ENDBRANCH   3  12
BRANCH   4  14
ATOM     14  O   UNL     1      -4.225  -2.962  -0.152  0.00  0.00    -0.379 OA
ATOM     15  H   UNL     1      -5.162  -2.773   0.011  0.00  0.00    +0.211 HD
ENDBRANCH   4  14
BRANCH   6  16
ATOM     16  O   UNL     1      -0.632   1.229   0.353  0.00  0.00    -0.451 OA
BRANCH  16  19
ATOM     17  O   UNL     1       3.647  -0.512   1.546  0.00  0.00    -0.421 OA
ATOM     18  O   UNL     1       5.691  -1.353   2.132  0.00  0.00    -0.244 OA
ATOM     19  C   UNL     1       0.697   1.073   0.068  0.00  0.00    +0.144 C 
ATOM     20  C   UNL     1       1.512   0.365   0.938  0.00  0.00    +0.075 C 
ATOM     21  C   UNL     1       1.224   1.627  -1.093  0.00  0.00    +0.037 C 
ATOM     22  C   UNL     1       2.865   0.218   0.628  0.00  0.00    +0.151 C 
ATOM     23  C   UNL     1       3.428   0.760  -0.528  0.00  0.00    +0.031 C 
ATOM     24  C   UNL     1       2.583   1.471  -1.391  0.00  0.00    +0.006 C 
ATOM     25  C   UNL     1       4.861   0.556  -0.775  0.00  0.00    -0.012 C 
ATOM     26  C   UNL     1       5.581  -0.142   0.115  0.00  0.00    +0.078 C 
ATOM     27  C   UNL     1       5.497   1.126  -2.010  0.00  0.00    +0.031 C 
ATOM     28  C   UNL     1       5.001  -0.720   1.339  0.00  0.00    +0.346 C 
ENDBRANCH  16  19
ENDBRANCH   6  16
BRANCH   5  29
ATOM     29  C   UNL     1      -1.793  -2.750  -1.909  0.00  0.00    +0.169 C 
BRANCH  29  30
ATOM     30  O   UNL     1      -0.399  -2.926  -2.081  0.00  0.00    -0.379 OA
ATOM     31  H   UNL     1      -0.233  -3.409  -2.906  0.00  0.00    +0.211 HD
ENDBRANCH  29  30
ENDBRANCH   5  29
TORSDOF 7
