REMARK  Name = 11834379
REMARK  3 active torsions:
REMARK  status: ('A' for Active; 'I' for Inactive)
REMARK    1  A    between atoms: S_1  and  N_5
REMARK    2  A    between atoms: S_1  and  C_14
REMARK    3  A    between atoms: C_7  and  N_11
REMARK                            x       y       z     vdW  Elec       q    Type
REMARK                         _______ _______ _______ _____ _____    ______ ____
ROOT
ATOM      1  S   UNL     1       0.464   1.237   0.544  0.00  0.00    +0.093 S 
ATOM      2  O   UNL     1       0.475   2.589   0.014  0.00  0.00    -0.148 OA
ATOM      3  O   UNL     1       0.790   0.993   1.938  0.00  0.00    -0.148 OA
ENDROOT
BRANCH   1   5
ATOM      4  O   UNL     1       2.826  -2.927   0.012  0.00  0.00    -0.268 OA
ATOM      5  N   UNL     1       1.410   0.230  -0.443  0.00  0.00    -0.103 N 
ATOM      6  N   UNL     1       1.277  -1.184  -0.206  0.00  0.00    -0.209 N 
ATOM      7  C   UNL     1       2.819   0.513  -0.436  0.00  0.00    +0.138 C 
ATOM      8  C   UNL     1       3.481  -0.646  -0.303  0.00  0.00    +0.092 C 
ATOM      9  C   UNL     1       2.522  -1.758  -0.145  0.00  0.00    +0.266 C 
ATOM     10  H   UNL     1       0.424  -1.666  -0.104  0.00  0.00    +0.175 HD
BRANCH   7  11
ATOM     11  N   UNL     1       3.321   1.764  -0.578  0.00  0.00    -0.343 N 
ATOM     12  H   UNL     1       2.712   2.532  -0.667  0.00  0.00    +0.144 HD
ATOM     13  H   UNL     1       4.295   1.904  -0.592  0.00  0.00    +0.144 HD
ENDBRANCH   7  11
ENDBRANCH   1   5
BRANCH   1  14
ATOM     14  C   UNL     1      -1.143   0.564   0.246  0.00  0.00    +0.127 C 
ATOM     15  C   UNL     1      -1.906   1.073  -0.791  0.00  0.00    +0.020 C 
ATOM     16  C   UNL     1      -1.609  -0.458   1.054  0.00  0.00    +0.020 C 
ATOM     17  C   UNL     1      -3.660  -0.488  -0.223  0.00  0.00    -0.022 C 
ATOM     18  C   UNL     1      -3.174   0.543  -1.027  0.00  0.00    -0.003 C 
ATOM     19  C   UNL     1      -2.877  -0.988   0.818  0.00  0.00    -0.003 C 
ATOM     20  C   UNL     1      -5.016  -1.055  -0.475  0.00  0.00    +0.031 C 
ENDBRANCH   1  14
TORSDOF 3
