11832914
  -OEChem-03292013303D

 32 34  0     1  0  0  0  0  0999 V2000
    2.0055   -0.4230   -1.4141 S   0  0  0  0  0  0  0  0  0  0  0  0
    1.3530    1.9111    1.6723 O   0  0  0  0  0  0  0  0  0  0  0  0
    3.3785    2.2212   -0.1808 O   0  0  0  0  0  0  0  0  0  0  0  0
    4.2208   -2.4501   -0.7745 O   0  0  0  0  0  0  0  0  0  0  0  0
   -0.3264   -0.1715    0.0375 N   0  0  0  0  0  0  0  0  0  0  0  0
   -1.7360   -1.7385    0.7617 N   0  0  0  0  0  0  0  0  0  0  0  0
   -1.9141    1.4573   -0.8144 N   0  0  0  0  0  0  0  0  0  0  0  0
   -4.2128    0.6948   -0.5134 N   0  0  0  0  0  0  0  0  0  0  0  0
   -4.7472   -1.4045    0.5037 N   0  0  0  0  0  0  0  0  0  0  0  0
    1.8142    0.7556    0.9829 C   0  0  1  0  0  0  0  0  0  0  0  0
    0.9430    0.5013   -0.2519 C   0  0  1  0  0  0  0  0  0  0  0  0
    3.2484    0.9642    0.4876 C   0  0  1  0  0  0  0  0  0  0  0  0
    3.5656   -0.1707   -0.4880 C   0  0  1  0  0  0  0  0  0  0  0  0
    3.9599   -1.4660    0.2104 C   0  0  0  0  0  0  0  0  0  0  0  0
   -1.5807    0.2955   -0.2324 C   0  0  0  0  0  0  0  0  0  0  0  0
   -0.4712   -1.3958    0.6336 C   0  0  0  0  0  0  0  0  0  0  0  0
   -2.4406   -0.6904    0.2247 C   0  0  0  0  0  0  0  0  0  0  0  0
   -3.8033   -0.4588    0.0674 C   0  0  0  0  0  0  0  0  0  0  0  0
   -3.2567    1.5683   -0.9122 C   0  0  0  0  0  0  0  0  0  0  0  0
    1.7791   -0.0816    1.6886 H   0  0  0  0  0  0  0  0  0  0  0  0
    0.6869    1.4502   -0.7373 H   0  0  0  0  0  0  0  0  0  0  0  0
    3.9556    0.9848    1.3243 H   0  0  0  0  0  0  0  0  0  0  0  0
    4.3326    0.1193   -1.2143 H   0  0  0  0  0  0  0  0  0  0  0  0
    3.1904   -1.8439    0.8918 H   0  0  0  0  0  0  0  0  0  0  0  0
    4.8770   -1.3214    0.7905 H   0  0  0  0  0  0  0  0  0  0  0  0
    1.3006    2.6457    1.0381 H   0  0  0  0  0  0  0  0  0  0  0  0
    3.2636    2.9185    0.4868 H   0  0  0  0  0  0  0  0  0  0  0  0
    0.3714   -1.9944    0.9527 H   0  0  0  0  0  0  0  0  0  0  0  0
    3.4013   -2.5815   -1.2813 H   0  0  0  0  0  0  0  0  0  0  0  0
   -3.6203    2.4807   -1.3726 H   0  0  0  0  0  0  0  0  0  0  0  0
   -4.4442   -2.2657    0.9382 H   0  0  0  0  0  0  0  0  0  0  0  0
   -5.7319   -1.2128    0.3791 H   0  0  0  0  0  0  0  0  0  0  0  0
  1 11  1  0  0  0  0
  1 13  1  0  0  0  0
  2 10  1  0  0  0  0
  2 26  1  0  0  0  0
  3 12  1  0  0  0  0
  3 27  1  0  0  0  0
  4 14  1  0  0  0  0
  4 29  1  0  0  0  0
  5 11  1  0  0  0  0
  5 15  1  0  0  0  0
  5 16  1  0  0  0  0
  6 16  2  0  0  0  0
  6 17  1  0  0  0  0
  7 15  2  0  0  0  0
  7 19  1  0  0  0  0
  8 18  1  0  0  0  0
  8 19  2  0  0  0  0
  9 18  1  0  0  0  0
  9 31  1  0  0  0  0
  9 32  1  0  0  0  0
 10 11  1  0  0  0  0
 10 12  1  0  0  0  0
 10 20  1  0  0  0  0
 11 21  1  0  0  0  0
 12 13  1  0  0  0  0
 12 22  1  0  0  0  0
 13 14  1  0  0  0  0
 13 23  1  0  0  0  0
 14 24  1  0  0  0  0
 14 25  1  0  0  0  0
 15 17  1  0  0  0  0
 16 28  1  0  0  0  0
 17 18  2  0  0  0  0
 19 30  1  0  0  0  0
M  END
> <PUBCHEM_COMPOUND_CID>
11832914

> <PUBCHEM_CONFORMER_RMSD>
0.6

> <PUBCHEM_CONFORMER_DIVERSEORDER>
1
14
13
5
16
11
8
2
4
9
3
10
7
15
6
12

> <PUBCHEM_MMFF94_PARTIAL_CHARGES>
26
1 -0.46
10 0.28
11 0.49
12 0.28
13 0.23
14 0.28
15 0.11
16 0.04
17 0.23
18 0.41
19 0.47
2 -0.68
26 0.4
27 0.4
28 0.15
29 0.4
3 -0.68
30 0.15
31 0.4
32 0.4
4 -0.68
5 0.05
6 -0.57
7 -0.57
8 -0.62
9 -0.9

> <PUBCHEM_EFFECTIVE_ROTOR_COUNT>
3

> <PUBCHEM_PHARMACOPHORE_FEATURES>
14
1 2 acceptor
1 2 donor
1 3 acceptor
1 3 donor
1 4 acceptor
1 4 donor
1 9 cation
1 9 donor
3 5 6 16 cation
3 5 7 15 cation
3 7 8 19 cation
5 1 10 11 12 13 rings
5 5 6 15 16 17 rings
6 7 8 15 17 18 19 rings

> <PUBCHEM_HEAVY_ATOM_COUNT>
19

> <PUBCHEM_ATOM_DEF_STEREO_COUNT>
4

> <PUBCHEM_ATOM_UDEF_STEREO_COUNT>
0

> <PUBCHEM_BOND_DEF_STEREO_COUNT>
0

> <PUBCHEM_BOND_UDEF_STEREO_COUNT>
0

> <PUBCHEM_ISOTOPIC_ATOM_COUNT>
0

> <PUBCHEM_COMPONENT_COUNT>
1

> <PUBCHEM_CACTVS_TAUTO_COUNT>
3

> <PUBCHEM_CONFORMER_ID>
00B48E5200000001

> <PUBCHEM_MMFF94_ENERGY>
40.4585

> <PUBCHEM_FEATURE_SELFOVERLAP>
71.661

> <PUBCHEM_SHAPE_FINGERPRINT>
10498660 4 17967521368535722549
10608611 8 18408600396250458724
10646746 165 18334008372012498933
1100329 8 16753528284847670306
12236239 1 16443060620894598421
12403259 226 18410007723941982917
12403259 415 18334011679443324029
124424 183 18343299232703888614
12592029 89 17704073962914817111
13134695 92 17774990259783292152
13675066 3 18114185263018703115
14866123 147 17190387396184937434
15196674 1 18334294275443246629
15219456 202 18413105082493771740
16752209 62 17676477372388085267
16945 1 18040713718950548131
17349148 13 16558750096403517390
17804303 29 18334014956202638350
18186145 218 18337388249371155485
19049666 15 18412822478062085696
192875 21 17131832040858236474
200 152 17489582346916876639
20510252 161 18335419093176943625
20645477 56 18260264195851881388
20645477 70 18131641088473583766
21065201 7 18040710346894766697
23175994 123 18059295361900861896
23402539 116 18262227937173898039
23493267 7 16950288369235320105
23557571 272 18114462352870981252
23559900 14 18408884027680293900
3004659 81 17824268108083752158
3286 77 18202282511228811853
474 4 15050866746437384786
495365 180 17988628723376431456
4990 188 18335137566238424202
5104073 3 18335421266129442865
5281201 14 18409169913245669236
59755656 215 18114178593478272503
633830 44 18335128778956662125
69090 78 18342735256232580991
77492 1 14979962488161727181
9709674 26 18334579087383102202
9981440 41 16160498421017342076

> <PUBCHEM_SHAPE_MULTIPOLES>
352.35
8.73
2.07
1.11
2.05
0.06
0.02
1.81
-0.87
-1.02
0.14
-0.43
-0.2
1.4

> <PUBCHEM_SHAPE_SELFOVERLAP>
748.391

> <PUBCHEM_SHAPE_VOLUME>
198.9

> <PUBCHEM_COORDINATE_TYPE>
2
5
10

$$$$
