REMARK  Name = 11832914
REMARK  5 active torsions:
REMARK  status: ('A' for Active; 'I' for Inactive)
REMARK    1  A    between atoms: N_1  and  C_12
REMARK    2  A    between atoms: C_11  and  O_15
REMARK    3  A    between atoms: C_13  and  O_17
REMARK    4  A    between atoms: C_14  and  C_19
REMARK    5  A    between atoms: C_19  and  O_20
REMARK                            x       y       z     vdW  Elec       q    Type
REMARK                         _______ _______ _______ _____ _____    ______ ____
ROOT
ATOM      1  N   UNL     1      -0.326  -0.172   0.037  0.00  0.00    -0.262 N 
ATOM      2  N   UNL     1      -1.736  -1.738   0.762  0.00  0.00    -0.242 NA
ATOM      3  N   UNL     1      -1.914   1.457  -0.814  0.00  0.00    -0.228 NA
ATOM      4  N   UNL     1      -4.213   0.695  -0.513  0.00  0.00    -0.229 NA
ATOM      5  C   UNL     1      -1.581   0.295  -0.232  0.00  0.00    +0.151 C 
ATOM      6  C   UNL     1      -0.471  -1.396   0.634  0.00  0.00    +0.222 C 
ATOM      7  C   UNL     1      -2.441  -0.690   0.225  0.00  0.00    +0.140 C 
ATOM      8  C   UNL     1      -3.803  -0.459   0.067  0.00  0.00    +0.143 C 
ATOM      9  C   UNL     1      -3.257   1.568  -0.912  0.00  0.00    +0.253 C 
ATOM     10  N   UNL     1      -4.747  -1.405   0.504  0.00  0.00    -0.342 N 
ATOM     11  H   UNL     1      -5.709  -1.230   0.387  0.00  0.00    +0.144 HD
ATOM     12  H   UNL     1      -4.446  -2.242   0.926  0.00  0.00    +0.144 HD
ENDROOT
BRANCH   1  15
ATOM     13  S   UNL     1       2.006  -0.423  -1.414  0.00  0.00    -0.114 S 
ATOM     14  C   UNL     1       1.814   0.756   0.983  0.00  0.00    +0.167 C 
ATOM     15  C   UNL     1       0.943   0.501  -0.252  0.00  0.00    +0.154 C 
ATOM     16  C   UNL     1       3.248   0.964   0.488  0.00  0.00    +0.152 C 
ATOM     17  C   UNL     1       3.566  -0.171  -0.488  0.00  0.00    +0.108 C 
BRANCH  14  18
ATOM     18  O   UNL     1       1.353   1.911   1.672  0.00  0.00    -0.379 OA
ATOM     19  H   UNL     1       0.445   1.763   1.979  0.00  0.00    +0.211 HD
ENDBRANCH  14  18
BRANCH  16  20
ATOM     20  O   UNL     1       3.378   2.221  -0.181  0.00  0.00    -0.381 OA
ATOM     21  H   UNL     1       3.177   2.939   0.439  0.00  0.00    +0.210 HD
ENDBRANCH  16  20
BRANCH  17  22
ATOM     22  C   UNL     1       3.960  -1.466   0.210  0.00  0.00    +0.150 C 
BRANCH  22  23
ATOM     23  O   UNL     1       4.221  -2.450  -0.774  0.00  0.00    -0.381 OA
ATOM     24  H   UNL     1       4.473  -3.281  -0.342  0.00  0.00    +0.210 HD
ENDBRANCH  22  23
ENDBRANCH  17  22
ENDBRANCH   1  15
TORSDOF 5
