118335689
  -OEChem-03292013293D

 44 46  0     1  0  0  0  0  0999 V2000
   -5.8190    3.3555   -1.2929 S   0  0  0  0  0  0  0  0  0  0  0  0
   -4.3657   -0.1458    0.4997 S   0  0  0  0  0  0  0  0  0  0  0  0
   -5.4133   -1.1120    0.1987 O   0  0  0  0  0  0  0  0  0  0  0  0
   -4.3894    0.5754    1.7643 O   0  0  0  0  0  0  0  0  0  0  0  0
    0.9010   -2.8072    0.0162 O   0  0  0  0  0  0  0  0  0  0  0  0
    4.3492    3.1564   -0.5853 O   0  0  0  0  0  0  0  0  0  0  0  0
    5.6150    1.4106    0.2935 N   0  0  0  0  0  0  0  0  0  0  0  0
   -5.6913    1.7373   -0.7128 C   0  0  2  0  0  0  0  0  0  0  0  0
   -5.9244    2.7828    0.3346 C   0  0  0  0  0  0  0  0  0  0  0  0
   -4.3745    1.0533   -0.8138 C   0  0  0  0  0  0  0  0  0  0  0  0
   -2.8132   -0.9326    0.3590 C   0  0  0  0  0  0  0  0  0  0  0  0
   -1.7106   -0.4269    1.0478 C   0  0  0  0  0  0  0  0  0  0  0  0
   -2.6748   -2.0644   -0.4443 C   0  0  0  0  0  0  0  0  0  0  0  0
   -0.4697   -1.0533    0.9333 C   0  0  0  0  0  0  0  0  0  0  0  0
   -1.4337   -2.6907   -0.5590 C   0  0  0  0  0  0  0  0  0  0  0  0
   -0.3312   -2.1853    0.1300 C   0  0  0  0  0  0  0  0  0  0  0  0
    1.9929   -2.0178   -0.1763 C   0  0  0  0  0  0  0  0  0  0  0  0
    4.2304   -0.3987   -0.5691 C   0  0  0  0  0  0  0  0  0  0  0  0
    5.4260    0.4672   -0.7793 C   0  0  0  0  0  0  0  0  0  0  0  0
    3.1581   -2.2491    0.5548 C   0  0  0  0  0  0  0  0  0  0  0  0
    1.9464   -0.9769   -1.1036 C   0  0  0  0  0  0  0  0  0  0  0  0
    4.2768   -1.4396    0.3585 C   0  0  0  0  0  0  0  0  0  0  0  0
    3.0650   -0.1673   -1.3000 C   0  0  0  0  0  0  0  0  0  0  0  0
    5.0575    2.6802    0.2980 C   0  0  0  0  0  0  0  0  0  0  0  0
    5.3924    3.4489    1.5481 C   0  0  0  0  0  0  0  0  0  0  0  0
   -6.5199    1.0950   -0.9855 H   0  0  0  0  0  0  0  0  0  0  0  0
   -6.9054    2.8377    0.7885 H   0  0  0  0  0  0  0  0  0  0  0  0
   -5.1097    3.0897    0.9767 H   0  0  0  0  0  0  0  0  0  0  0  0
   -3.5208    1.7218   -0.6623 H   0  0  0  0  0  0  0  0  0  0  0  0
   -4.2720    0.5250   -1.7660 H   0  0  0  0  0  0  0  0  0  0  0  0
   -1.7947    0.4551    1.6765 H   0  0  0  0  0  0  0  0  0  0  0  0
   -3.5185   -2.4705   -0.9950 H   0  0  0  0  0  0  0  0  0  0  0  0
    0.3677   -0.6505    1.4968 H   0  0  0  0  0  0  0  0  0  0  0  0
   -1.3307   -3.5709   -1.1876 H   0  0  0  0  0  0  0  0  0  0  0  0
    6.3304   -0.1491   -0.8405 H   0  0  0  0  0  0  0  0  0  0  0  0
    5.3529    1.0144   -1.7266 H   0  0  0  0  0  0  0  0  0  0  0  0
    3.1999   -3.0581    1.2790 H   0  0  0  0  0  0  0  0  0  0  0  0
    1.0599   -0.7877   -1.7033 H   0  0  0  0  0  0  0  0  0  0  0  0
    5.1789   -1.6294    0.9341 H   0  0  0  0  0  0  0  0  0  0  0  0
    3.0155    0.6379   -2.0282 H   0  0  0  0  0  0  0  0  0  0  0  0
    6.1668    1.1118    1.0926 H   0  0  0  0  0  0  0  0  0  0  0  0
    6.4614    3.3730    1.7668 H   0  0  0  0  0  0  0  0  0  0  0  0
    5.1381    4.5035    1.4109 H   0  0  0  0  0  0  0  0  0  0  0  0
    4.8191    3.0458    2.3873 H   0  0  0  0  0  0  0  0  0  0  0  0
  1  8  1  0  0  0  0
  1  9  1  0  0  0  0
  2  3  2  0  0  0  0
  2  4  2  0  0  0  0
  2 10  1  0  0  0  0
  2 11  1  0  0  0  0
  5 16  1  0  0  0  0
  5 17  1  0  0  0  0
  6 24  2  0  0  0  0
  7 19  1  0  0  0  0
  7 24  1  0  0  0  0
  7 41  1  0  0  0  0
  8  9  1  0  0  0  0
  8 10  1  0  0  0  0
  8 26  1  0  0  0  0
  9 27  1  0  0  0  0
  9 28  1  0  0  0  0
 10 29  1  0  0  0  0
 10 30  1  0  0  0  0
 11 12  2  0  0  0  0
 11 13  1  0  0  0  0
 12 14  1  0  0  0  0
 12 31  1  0  0  0  0
 13 15  2  0  0  0  0
 13 32  1  0  0  0  0
 14 16  2  0  0  0  0
 14 33  1  0  0  0  0
 15 16  1  0  0  0  0
 15 34  1  0  0  0  0
 17 20  2  0  0  0  0
 17 21  1  0  0  0  0
 18 19  1  0  0  0  0
 18 22  2  0  0  0  0
 18 23  1  0  0  0  0
 19 35  1  0  0  0  0
 19 36  1  0  0  0  0
 20 22  1  0  0  0  0
 20 37  1  0  0  0  0
 21 23  2  0  0  0  0
 21 38  1  0  0  0  0
 22 39  1  0  0  0  0
 23 40  1  0  0  0  0
 24 25  1  0  0  0  0
 25 42  1  0  0  0  0
 25 43  1  0  0  0  0
 25 44  1  0  0  0  0
M  END
> <PUBCHEM_COMPOUND_CID>
118335689

> <PUBCHEM_CONFORMER_RMSD>
1

> <PUBCHEM_CONFORMER_DIVERSEORDER>
2
71
14
34
5
28
50
4
64
42
56
24
36
70
11
9
7
80
33
37
29
25
30
20
74
1
13
31
73
51
3
60
76
17
49
59
66
61
54
77
68
8
48
6
43
69
10
46
45
22
63
21
32
26
15
78
41
79
72
40
23
12
38
19
57
44
18
16
55
67
75
65
47
62
52
39
35
53
27
58

> <PUBCHEM_MMFF94_PARTIAL_CHARGES>
37
1 -0.28
10 0.2
11 -0.01
12 -0.15
13 -0.15
14 -0.15
15 -0.15
16 0.08
17 0.08
18 -0.14
19 0.44
2 1.2
20 -0.15
21 -0.15
22 -0.15
23 -0.15
24 0.57
25 0.06
26 0.1
27 0.1
28 0.1
3 -0.65
31 0.15
32 0.15
33 0.15
34 0.15
37 0.15
38 0.15
39 0.15
4 -0.65
40 0.15
41 0.37
5 -0.17
6 -0.57
7 -0.73
8 -0.05
9 -0.06

> <PUBCHEM_EFFECTIVE_ROTOR_COUNT>
8.6

> <PUBCHEM_PHARMACOPHORE_FEATURES>
7
1 3 acceptor
1 4 acceptor
1 5 acceptor
1 6 acceptor
1 7 donor
6 11 12 13 14 15 16 rings
6 17 18 20 21 22 23 rings

> <PUBCHEM_HEAVY_ATOM_COUNT>
25

> <PUBCHEM_ATOM_DEF_STEREO_COUNT>
0

> <PUBCHEM_ATOM_UDEF_STEREO_COUNT>
1

> <PUBCHEM_BOND_DEF_STEREO_COUNT>
0

> <PUBCHEM_BOND_UDEF_STEREO_COUNT>
0

> <PUBCHEM_ISOTOPIC_ATOM_COUNT>
0

> <PUBCHEM_COMPONENT_COUNT>
1

> <PUBCHEM_CACTVS_TAUTO_COUNT>
3

> <PUBCHEM_CONFORMER_ID>
070DA8C900000002

> <PUBCHEM_MMFF94_ENERGY>
60.5422

> <PUBCHEM_FEATURE_SELFOVERLAP>
35.54

> <PUBCHEM_SHAPE_FINGERPRINT>
10042902 136 9510919088669377786
10763959 59 18335991865767797022
11101153 10 18336545032128382055
11399510 152 17676785201110156115
12422481 6 17530682099884391204
12623949 98 9511168686019113552
12633257 1 15574998428807716230
13383661 66 11095301089061483613
13878862 14 18261938662288353014
13911852 28 8718819886690870201
14211702 104 9007057980540279161
14251764 30 9151167666868419989
14420673 8 10955107777430696032
14556957 393 17131837508663412985
14739800 52 17823408306600202785
14790565 3 18268431231364231905
15238133 3 17386022628094342142
15475509 84 18044646509129712504
17959699 21 18341053007863515010
20058555 10 18408603652157792933
20398071 356 9583514335108531885
20511986 3 18272080626251891970
20691028 202 18272658905176306137
20715895 44 18339077095073439856
21033648 29 18040720272785779222
21304253 335 18259992547728598703
21315764 268 18116428150759542189
21388113 180 18410572894277945349
21682296 61 9007052474956805449
22122407 14 18265057925316113937
22950370 63 9871455531191552527
23559900 14 17917162628283199382
23569914 2 17536549077130851221
25122255 55 10447926183309859477
2748736 6 18411128151997505148
2838139 119 18411696582265659151
2916195 48 18408324406115640747
314194 84 8141788465861128667
3472631 163 18343867709953529862
34797466 226 18059582360696217039
376196 1 18409731755129897586
465052 167 8718244863357767035
474113 269 10809929405426383897
5104073 3 17967532350556102067
56633871 153 11025806405035305225
60123966 16 18130511821359951798
7918774 8 9511464445840993212
7970288 3 9078821987978377021

> <PUBCHEM_SHAPE_MULTIPOLES>
493.73
16.87
4.37
1.25
4.71
3.17
-0.12
18.31
0.54
-1.48
-0.13
0.13
0.54
2.13

> <PUBCHEM_SHAPE_SELFOVERLAP>
1024.835

> <PUBCHEM_SHAPE_VOLUME>
281.9

> <PUBCHEM_COORDINATE_TYPE>
2
5
10

$$$$
