REMARK  Name = 118335689
REMARK  7 active torsions:
REMARK  status: ('A' for Active; 'I' for Inactive)
REMARK    1  A    between atoms: O_1  and  C_7
REMARK    2  A    between atoms: O_1  and  C_15
REMARK    3  A    between atoms: C_2  and  S_8
REMARK    4  A    between atoms: S_8  and  C_11
REMARK    5  A    between atoms: C_11  and  C_13
REMARK    6  A    between atoms: C_16  and  C_21
REMARK    7  A    between atoms: C_21  and  N_23
REMARK                            x       y       z     vdW  Elec       q    Type
REMARK                         _______ _______ _______ _____ _____    ______ ____
ROOT
ATOM      1  O   UNL     1       0.901  -2.807   0.016  0.00  0.00    -0.453 OA
ENDROOT
BRANCH   1   7
ATOM      2  C   UNL     1      -2.813  -0.933   0.359  0.00  0.00    +0.106 C 
ATOM      3  C   UNL     1      -1.711  -0.427   1.048  0.00  0.00    +0.021 C 
ATOM      4  C   UNL     1      -2.675  -2.064  -0.444  0.00  0.00    +0.021 C 
ATOM      5  C   UNL     1      -0.470  -1.053   0.933  0.00  0.00    +0.039 C 
ATOM      6  C   UNL     1      -1.434  -2.691  -0.559  0.00  0.00    +0.039 C 
ATOM      7  C   UNL     1      -0.331  -2.185   0.130  0.00  0.00    +0.145 C 
BRANCH   2   8
ATOM      8  S   UNL     1      -4.366  -0.146   0.500  0.00  0.00    +0.010 S 
ATOM      9  O   UNL     1      -5.413  -1.112   0.199  0.00  0.00    -0.169 OA
ATOM     10  O   UNL     1      -4.389   0.575   1.764  0.00  0.00    -0.169 OA
BRANCH   8  11
ATOM     11  C   UNL     1      -4.375   1.053  -0.814  0.00  0.00    +0.167 C 
BRANCH  11  13
ATOM     12  S   UNL     1      -5.819   3.356  -1.293  0.00  0.00    -0.137 S 
ATOM     13  C   UNL     1      -5.691   1.737  -0.713  0.00  0.00    +0.082 C 
ATOM     14  C   UNL     1      -5.924   2.783   0.335  0.00  0.00    +0.070 C 
ENDBRANCH  11  13
ENDBRANCH   8  11
ENDBRANCH   2   8
ENDBRANCH   1   7
BRANCH   1  15
ATOM     15  C   UNL     1       1.993  -2.018  -0.176  0.00  0.00    +0.145 C 
ATOM     16  C   UNL     1       4.230  -0.399  -0.569  0.00  0.00    -0.002 C 
ATOM     17  C   UNL     1       3.158  -2.249   0.555  0.00  0.00    +0.037 C 
ATOM     18  C   UNL     1       1.946  -0.977  -1.104  0.00  0.00    +0.037 C 
ATOM     19  C   UNL     1       4.277  -1.440   0.358  0.00  0.00    +0.001 C 
ATOM     20  C   UNL     1       3.065  -0.167  -1.300  0.00  0.00    +0.001 C 
BRANCH  16  21
ATOM     21  C   UNL     1       5.426   0.467  -0.779  0.00  0.00    +0.116 C 
BRANCH  21  23
ATOM     22  O   UNL     1       4.349   3.156  -0.585  0.00  0.00    -0.275 OA
ATOM     23  N   UNL     1       5.615   1.411   0.293  0.00  0.00    -0.300 N 
ATOM     24  C   UNL     1       5.058   2.680   0.298  0.00  0.00    +0.223 C 
ATOM     25  C   UNL     1       5.392   3.449   1.548  0.00  0.00    +0.095 C 
ATOM     26  H   UNL     1       6.168   1.140   1.062  0.00  0.00    +0.150 HD
ENDBRANCH  21  23
ENDBRANCH  16  21
ENDBRANCH   1  15
TORSDOF 7
