REMARK  Name = 11844239
REMARK  9 active torsions:
REMARK  status: ('A' for Active; 'I' for Inactive)
REMARK    1  A    between atoms: C_1  and  C_26
REMARK    2  A    between atoms: C_2  and  C_12
REMARK    3  A    between atoms: C_3  and  O_7
REMARK    4  A    between atoms: C_4  and  O_9
REMARK    5  A    between atoms: C_12  and  C_13
REMARK    6  A    between atoms: C_14  and  C_25
REMARK    7  A    between atoms: C_15  and  O_20
REMARK    8  A    between atoms: C_17  and  O_22
REMARK    9  A    between atoms: C_26  and  C_27
REMARK                            x       y       z     vdW  Elec       q    Type
REMARK                         _______ _______ _______ _____ _____    ______ ____
ROOT
ATOM      1  C   UNL     1      -2.508   0.746  -0.539  0.00  0.00    +0.016 C 
ATOM      2  C   UNL     1      -0.450   1.840   0.046  0.00  0.00    +0.106 C 
ATOM      3  C   UNL     1      -1.127   0.709  -0.410  0.00  0.00    +0.136 C 
ATOM      4  C   UNL     1      -1.161   2.995   0.369  0.00  0.00    +0.140 C 
ATOM      5  C   UNL     1      -3.226   1.889  -0.221  0.00  0.00    +0.002 C 
ATOM      6  C   UNL     1      -2.549   3.020   0.235  0.00  0.00    +0.037 C 
ENDROOT
BRANCH   3   7
ATOM      7  O   UNL     1      -0.435  -0.425  -0.725  0.00  0.00    -0.506 OA
ATOM      8  H   UNL     1      -0.893  -1.183  -1.031  0.00  0.00    +0.292 HD
ENDBRANCH   3   7
BRANCH   4   9
ATOM      9  O   UNL     1      -0.520   4.112   0.816  0.00  0.00    -0.505 OA
ATOM     10  H   UNL     1       0.412   4.110   0.911  0.00  0.00    +0.292 HD
ENDBRANCH   4   9
BRANCH   2  12
ATOM     11  O   UNL     1       1.603   2.819   0.594  0.00  0.00    -0.286 OA
ATOM     12  C   UNL     1       1.002   1.815   0.188  0.00  0.00    +0.205 C 
BRANCH  12  13
ATOM     13  C   UNL     1       1.814   0.608  -0.141  0.00  0.00    +0.079 C 
ATOM     14  C   UNL     1       2.066  -0.326   0.841  0.00  0.00    +0.082 C 
ATOM     15  C   UNL     1       2.288   0.470  -1.429  0.00  0.00    +0.137 C 
ATOM     16  C   UNL     1       3.318  -1.615  -0.774  0.00  0.00    +0.015 C 
ATOM     17  C   UNL     1       2.827  -1.451   0.521  0.00  0.00    +0.133 C 
ATOM     18  C   UNL     1       3.049  -0.654  -1.749  0.00  0.00    +0.035 C 
ATOM     19  C   UNL     1       4.133  -2.812  -1.137  0.00  0.00    +0.034 C 
BRANCH  15  20
ATOM     20  O   UNL     1       2.037   1.396  -2.398  0.00  0.00    -0.505 OA
ATOM     21  H   UNL     1       1.527   2.156  -2.198  0.00  0.00    +0.292 HD
ENDBRANCH  15  20
BRANCH  17  22
ATOM     22  O   UNL     1       3.093  -2.394   1.470  0.00  0.00    -0.506 OA
ATOM     23  H   UNL     1       2.765  -2.287   2.342  0.00  0.00    +0.292 HD
ENDBRANCH  17  22
BRANCH  14  25
ATOM     24  O   UNL     1       1.767  -0.983   3.094  0.00  0.00    -0.283 OA
ATOM     25  C   UNL     1       1.557  -0.164   2.200  0.00  0.00    +0.237 C 
ENDBRANCH  14  25
ENDBRANCH  12  13
ENDBRANCH   2  12
BRANCH   1  26
ATOM     26  C   UNL     1      -3.259  -0.467  -1.030  0.00  0.00    +0.055 C 
BRANCH  26  27
ATOM     27  C   UNL     1      -3.677  -1.374   0.093  0.00  0.00    -0.030 C 
ATOM     28  C   UNL     1      -3.825  -2.712   0.065  0.00  0.00    -0.048 C 
ATOM     29  C   UNL     1      -4.248  -3.563   1.228  0.00  0.00    +0.026 C 
ATOM     30  C   UNL     1      -3.570  -3.480  -1.206  0.00  0.00    +0.026 C 
ENDBRANCH  26  27
ENDBRANCH   1  26
TORSDOF 9
