118489477
  -OEChem-03292013293D

 43 46  0     0  0  0  0  0  0999 V2000
    8.2844    2.2332   -0.1531 Cl  0  0  0  0  0  0  0  0  0  0  0  0
   -0.9897   -3.0248    0.0697 F   0  0  0  0  0  0  0  0  0  0  0  0
    7.5445   -2.0168    0.9044 F   0  0  0  0  0  0  0  0  0  0  0  0
    8.7934   -0.8030   -0.3973 F   0  0  0  0  0  0  0  0  0  0  0  0
    8.5243   -0.2370    1.6789 F   0  0  0  0  0  0  0  0  0  0  0  0
   -4.7344   -0.3381   -1.1447 O   0  0  0  0  0  0  0  0  0  0  0  0
    1.5600    1.2616   -0.7615 O   0  0  0  0  0  0  0  0  0  0  0  0
    3.0013   -0.4601   -0.1078 N   0  0  0  0  0  0  0  0  0  0  0  0
    0.7372   -0.8805   -0.2882 N   0  0  0  0  0  0  0  0  0  0  0  0
   -8.8629    0.6921    0.6457 N   0  0  0  0  0  0  0  0  0  0  0  0
   -4.8916    0.2570    1.1144 N   0  0  0  0  0  0  0  0  0  0  0  0
   -7.0047    0.8253    2.1923 N   0  0  0  0  0  0  0  0  0  0  0  0
   -9.1087    0.3990   -0.6448 N   0  0  0  0  0  0  0  0  0  0  0  0
    4.2658    0.1746   -0.1155 C   0  0  0  0  0  0  0  0  0  0  0  0
   -0.6350   -0.7471   -0.5027 C   0  0  0  0  0  0  0  0  0  0  0  0
    6.6567    0.0793    0.2182 C   0  0  0  0  0  0  0  0  0  0  0  0
    5.4099   -0.5459    0.2273 C   0  0  0  0  0  0  0  0  0  0  0  0
   -6.8821    0.2100   -0.1657 C   0  0  0  0  0  0  0  0  0  0  0  0
   -3.3778   -0.4735   -0.9321 C   0  0  0  0  0  0  0  0  0  0  0  0
   -5.5044    0.0409   -0.0743 C   0  0  0  0  0  0  0  0  0  0  0  0
    4.3686    1.5207   -0.4669 C   0  0  0  0  0  0  0  0  0  0  0  0
   -1.4825   -1.8391   -0.3159 C   0  0  0  0  0  0  0  0  0  0  0  0
   -1.1589    0.4817   -0.9044 C   0  0  0  0  0  0  0  0  0  0  0  0
   -7.5464    0.5947    0.9857 C   0  0  0  0  0  0  0  0  0  0  0  0
   -2.8539   -1.7023   -0.5305 C   0  0  0  0  0  0  0  0  0  0  0  0
   -2.5303    0.6186   -1.1191 C   0  0  0  0  0  0  0  0  0  0  0  0
    6.7594    1.4253   -0.1333 C   0  0  0  0  0  0  0  0  0  0  0  0
    5.6152    2.1459   -0.4760 C   0  0  0  0  0  0  0  0  0  0  0  0
    1.7519    0.0985   -0.4216 C   0  0  0  0  0  0  0  0  0  0  0  0
    7.8581   -0.7268    0.5934 C   0  0  0  0  0  0  0  0  0  0  0  0
   -7.8985    0.1063   -1.1336 C   0  0  0  0  0  0  0  0  0  0  0  0
   -5.6688    0.6304    2.1588 C   0  0  0  0  0  0  0  0  0  0  0  0
    5.3168   -1.5945    0.4995 H   0  0  0  0  0  0  0  0  0  0  0  0
    3.5319    2.1458   -0.7440 H   0  0  0  0  0  0  0  0  0  0  0  0
    3.0081   -1.4414    0.1586 H   0  0  0  0  0  0  0  0  0  0  0  0
   -0.5720    1.3734   -1.0709 H   0  0  0  0  0  0  0  0  0  0  0  0
   -3.5081   -2.5574   -0.3841 H   0  0  0  0  0  0  0  0  0  0  0  0
   -2.9330    1.5779   -1.4330 H   0  0  0  0  0  0  0  0  0  0  0  0
    1.0436   -1.8057    0.0027 H   0  0  0  0  0  0  0  0  0  0  0  0
    5.6797    3.1956   -0.7518 H   0  0  0  0  0  0  0  0  0  0  0  0
   -7.8122   -0.1700   -2.1749 H   0  0  0  0  0  0  0  0  0  0  0  0
   -9.6423    0.9510    1.2376 H   0  0  0  0  0  0  0  0  0  0  0  0
   -5.1460    0.7950    3.0949 H   0  0  0  0  0  0  0  0  0  0  0  0
  1 27  1  0  0  0  0
  2 22  1  0  0  0  0
  3 30  1  0  0  0  0
  4 30  1  0  0  0  0
  5 30  1  0  0  0  0
  6 19  1  0  0  0  0
  6 20  1  0  0  0  0
  7 29  2  0  0  0  0
  8 14  1  0  0  0  0
  8 29  1  0  0  0  0
  8 35  1  0  0  0  0
  9 15  1  0  0  0  0
  9 29  1  0  0  0  0
  9 39  1  0  0  0  0
 10 13  1  0  0  0  0
 10 24  1  0  0  0  0
 10 42  1  0  0  0  0
 11 20  2  0  0  0  0
 11 32  1  0  0  0  0
 12 24  1  0  0  0  0
 12 32  2  0  0  0  0
 13 31  2  0  0  0  0
 14 17  2  0  0  0  0
 14 21  1  0  0  0  0
 15 22  2  0  0  0  0
 15 23  1  0  0  0  0
 16 17  1  0  0  0  0
 16 27  2  0  0  0  0
 16 30  1  0  0  0  0
 17 33  1  0  0  0  0
 18 20  1  0  0  0  0
 18 24  2  0  0  0  0
 18 31  1  0  0  0  0
 19 25  2  0  0  0  0
 19 26  1  0  0  0  0
 21 28  2  0  0  0  0
 21 34  1  0  0  0  0
 22 25  1  0  0  0  0
 23 26  2  0  0  0  0
 23 36  1  0  0  0  0
 25 37  1  0  0  0  0
 26 38  1  0  0  0  0
 27 28  1  0  0  0  0
 28 40  1  0  0  0  0
 31 41  1  0  0  0  0
 32 43  1  0  0  0  0
M  END
> <PUBCHEM_COMPOUND_CID>
118489477

> <PUBCHEM_CONFORMER_RMSD>
1

> <PUBCHEM_CONFORMER_DIVERSEORDER>
1
225
132
196
138
96
108
101
43
133
13
205
110
42
84
69
186
70
56
200
190
45
210
33
51
102
192
37
87
158
100
134
105
148
119
107
85
24
120
126
103
99
128
171
166
142
17
88
152
137
29
157
36
50
49
86
116
167
151
123
199
146
16
78
191
198
155
117
135
180
64
44
83
58
80
162
222
217
104
213
81
7
153
212
224
10
98
127
118
144
26
74
48
202
216
53
140
189
129
41
111
175
11
54
97
34
89
63
22
179
122
139
168
181
219
75
193
150
32
169
173
194
19
195
156
185
211
93
71
115
178
147
30
109
204
47
165
91
141
208
38
130
164
113
154
72
214
163
159
184
218
5
201
23
203
221
177
114
131
125
18
95
62
90
73
59
12
223
4
161
66
170
143
176
136
121
57
68
187
6
160
174
55
65
60
20
106
25
209
183
94
15
206
9
92
149
31
220
79
39
82
172
207
8
67
188
35
215
46
145
40
21
76
182
112
27
52
61
77
2
124
197
14
28
3

> <PUBCHEM_MMFF94_PARTIAL_CHARGES>
42
1 -0.18
10 0.3
11 -0.62
12 -0.57
13 -0.71
14 0.12
15 0.12
16 -0.14
17 -0.15
19 0.08
2 -0.19
20 0.39
21 -0.15
22 0.19
23 -0.15
24 0.11
25 -0.15
26 -0.15
27 0.18
28 -0.15
29 0.69
3 -0.34
30 1.16
31 0.14
32 0.47
33 0.15
34 0.15
35 0.37
36 0.15
37 0.15
38 0.15
39 0.37
4 -0.34
40 0.15
41 0.15
42 0.27
43 0.15
5 -0.34
6 -0.17
7 -0.57
8 -0.55
9 -0.55

> <PUBCHEM_EFFECTIVE_ROTOR_COUNT>
7

> <PUBCHEM_PHARMACOPHORE_FEATURES>
10
1 10 donor
1 13 acceptor
1 7 acceptor
1 8 donor
1 9 donor
3 11 12 32 cation
5 10 13 18 24 31 rings
6 11 12 18 20 24 32 rings
6 14 16 17 21 27 28 rings
6 15 19 22 23 25 26 rings

> <PUBCHEM_HEAVY_ATOM_COUNT>
32

> <PUBCHEM_ATOM_DEF_STEREO_COUNT>
0

> <PUBCHEM_ATOM_UDEF_STEREO_COUNT>
0

> <PUBCHEM_BOND_DEF_STEREO_COUNT>
0

> <PUBCHEM_BOND_UDEF_STEREO_COUNT>
0

> <PUBCHEM_ISOTOPIC_ATOM_COUNT>
0

> <PUBCHEM_COMPONENT_COUNT>
1

> <PUBCHEM_CACTVS_TAUTO_COUNT>
55

> <PUBCHEM_CONFORMER_ID>
0710018500000001

> <PUBCHEM_MMFF94_ENERGY>
85.4573

> <PUBCHEM_FEATURE_SELFOVERLAP>
50.91

> <PUBCHEM_SHAPE_FINGERPRINT>
10 15 17967533488579646461
10299344 5 18342455954487833284
10533779 47 18040725723004599579
106641 1 18260834826272159051
11181472 205 17703804604636868960
11315181 36 18202566203310597383
11443803 9 17704066296683199207
11456790 92 18413389834805109464
11524674 6 16515687771273688987
12082328 90 15841555159202318501
12089408 11 18131067151540021693
12758862 11 14045736041401515863
13914758 101 16702025266301549262
14150023 24 18334572430521780379
14251764 18 17988925574088297581
14251764 46 18131349709080501926
14344974 204 16516830227926413763
14344974 52 15482661395837569673
15131766 46 16156268526464285076
15183329 4 16773803605649797297
15301273 46 16877941628876217253
15419008 47 13973963186425948947
15461852 350 16773795935476458517
15510794 2 17167861975879984041
1577012 14 18339921623578529548
1818759 1 12107789592761089073
19841028 212 15285907023498384376
20105231 36 17385444311138286802
20554085 129 16128650839206842934
21130935 74 18339640157208252930
21150785 3 8646768889522151344
21403212 168 18410011018556536343
21591340 7 18343016714282467735
21781055 127 18198927858582512636
21792934 111 18113050536748768197
22224240 67 18260550031038068479
3092352 35 17989486329123923503
3178227 256 17821729442834118978
397830 11 16154281657519091909
4073 2 17749951198112548786
4093350 32 17131837517432695534
437795 160 16988267772791271607
437795 51 17022901221040859354
44802255 64 14836124330800605565
44880568 143 14189309144037024067
45377200 153 14129350580884751704
4625314 4 14490196011531781519
5758199 1 18343586239989003079
6201320 215 16486699035195444193
6691757 9 17774729744600634671
9953998 17 16587743157845872217

> <PUBCHEM_SHAPE_MULTIPOLES>
589.7
32.83
1.82
1.3
6.94
0.49
-0.61
-8.42
-7.84
2.84
0.01
-2.12
-0.23
-2.09

> <PUBCHEM_SHAPE_SELFOVERLAP>
1300.715

> <PUBCHEM_SHAPE_VOLUME>
315.9

> <PUBCHEM_COORDINATE_TYPE>
2
5
10

$$$$
