REMARK  Name = 118489477
REMARK  5 active torsions:
REMARK  status: ('A' for Active; 'I' for Inactive)
REMARK    1  A    between atoms: C_2  and  N_10
REMARK    2  A    between atoms: C_3  and  O_25
REMARK    3  A    between atoms: N_9  and  C_15
REMARK    4  A    between atoms: C_16  and  C_24
REMARK    5  A    between atoms: O_25  and  C_31
REMARK                            x       y       z     vdW  Elec       q    Type
REMARK                         _______ _______ _______ _____ _____    ______ ____
ROOT
ATOM      1  F   UNL     1      -0.990  -3.025   0.070  0.00  0.00    -0.203 F 
ATOM      2  C   UNL     1      -0.635  -0.747  -0.503  0.00  0.00    +0.079 C 
ATOM      3  C   UNL     1      -3.378  -0.473  -0.932  0.00  0.00    +0.149 C 
ATOM      4  C   UNL     1      -1.482  -1.839  -0.316  0.00  0.00    +0.157 C 
ATOM      5  C   UNL     1      -1.159   0.482  -0.904  0.00  0.00    +0.020 C 
ATOM      6  C   UNL     1      -2.854  -1.702  -0.530  0.00  0.00    +0.068 C 
ATOM      7  C   UNL     1      -2.530   0.619  -1.119  0.00  0.00    +0.039 C 
ENDROOT
BRANCH   2  10
ATOM      8  O   UNL     1       1.560   1.262  -0.761  0.00  0.00    -0.252 OA
ATOM      9  N   UNL     1       3.001  -0.460  -0.108  0.00  0.00    -0.268 N 
ATOM     10  N   UNL     1       0.737  -0.880  -0.288  0.00  0.00    -0.266 N 
ATOM     11  C   UNL     1       1.752   0.099  -0.422  0.00  0.00    +0.308 C 
ATOM     12  H   UNL     1       2.997  -1.410   0.149  0.00  0.00    +0.156 HD
ATOM     13  H   UNL     1       1.040  -1.774  -0.007  0.00  0.00    +0.156 HD
BRANCH   9  15
ATOM     14 CL   UNL     1       8.284   2.233  -0.153  0.00  0.00    -0.082 Cl
ATOM     15  C   UNL     1       4.266   0.175  -0.116  0.00  0.00    +0.052 C 
ATOM     16  C   UNL     1       6.657   0.079   0.218  0.00  0.00    +0.083 C 
ATOM     17  C   UNL     1       5.410  -0.546   0.227  0.00  0.00    +0.019 C 
ATOM     18  C   UNL     1       4.369   1.521  -0.467  0.00  0.00    +0.016 C 
ATOM     19  C   UNL     1       6.759   1.425  -0.133  0.00  0.00    +0.062 C 
ATOM     20  C   UNL     1       5.615   2.146  -0.476  0.00  0.00    +0.013 C 
BRANCH  16  24
ATOM     21  F   UNL     1       7.545  -2.017   0.904  0.00  0.00    -0.166 F 
ATOM     22  F   UNL     1       8.793  -0.803  -0.397  0.00  0.00    -0.166 F 
ATOM     23  F   UNL     1       8.524  -0.237   1.679  0.00  0.00    -0.166 F 
ATOM     24  C   UNL     1       7.858  -0.727   0.593  0.00  0.00    +0.419 C 
ENDBRANCH  16  24
ENDBRANCH   9  15
ENDBRANCH   2  10
BRANCH   3  25
ATOM     25  O   UNL     1      -4.734  -0.338  -1.145  0.00  0.00    -0.439 OA
BRANCH  25  31
ATOM     26  N   UNL     1      -8.863   0.692   0.646  0.00  0.00    -0.223 N 
ATOM     27  N   UNL     1      -4.892   0.257   1.114  0.00  0.00    -0.214 NA
ATOM     28  N   UNL     1      -7.005   0.825   2.192  0.00  0.00    -0.232 NA
ATOM     29  N   UNL     1      -9.109   0.399  -0.645  0.00  0.00    -0.183 NA
ATOM     30  C   UNL     1      -6.882   0.210  -0.166  0.00  0.00    +0.174 C 
ATOM     31  C   UNL     1      -5.504   0.041  -0.074  0.00  0.00    +0.215 C 
ATOM     32  C   UNL     1      -7.546   0.595   0.986  0.00  0.00    +0.135 C 
ATOM     33  C   UNL     1      -7.899   0.106  -1.134  0.00  0.00    +0.108 C 
ATOM     34  C   UNL     1      -5.669   0.630   2.159  0.00  0.00    +0.254 C 
ATOM     35  H   UNL     1      -9.567   0.952   1.283  0.00  0.00    +0.176 HD
ENDBRANCH  25  31
ENDBRANCH   3  25
TORSDOF 5
