118414016
  -OEChem-03292013293D

 46 48  0     1  0  0  0  0  0999 V2000
    4.9575    0.4818   -1.3092 F   0  0  0  0  0  0  0  0  0  0  0  0
    0.8908    0.0122    0.3840 O   0  0  0  0  0  0  0  0  0  0  0  0
    4.3956   -2.4231   -2.0601 O   0  0  0  0  0  0  0  0  0  0  0  0
   -3.6222   -2.3011    0.4215 O   0  0  0  0  0  0  0  0  0  0  0  0
   -6.3028   -0.2161    0.7752 O   0  0  0  0  0  0  0  0  0  0  0  0
    3.0797   -1.7348   -0.2486 N   0  0  0  0  0  0  0  0  0  0  0  0
    0.4082    2.1998   -0.1450 N   0  0  0  0  0  0  0  0  0  0  0  0
   -6.0646   -0.7218   -1.4488 N   0  0  0  0  0  0  0  0  0  0  0  0
    4.6341   -0.4262    0.8676 C   0  0  1  0  0  0  0  0  0  0  0  0
    3.1315   -0.7269    0.7874 C   0  0  1  0  0  0  0  0  0  0  0  0
    5.1192   -0.6451   -0.5715 C   0  0  1  0  0  0  0  0  0  0  0  0
    5.0215    0.9265    1.4409 C   0  0  0  0  0  0  0  0  0  0  0  0
    2.2377    0.4541    0.4278 C   0  0  0  0  0  0  0  0  0  0  0  0
    4.1994   -1.7298   -1.0742 C   0  0  0  0  0  0  0  0  0  0  0  0
    6.5253    1.1103    1.4469 C   0  0  0  0  0  0  0  0  0  0  0  0
   -0.0616    0.9519    0.0799 C   0  0  0  0  0  0  0  0  0  0  0  0
   -1.4092    0.5919    0.0183 C   0  0  0  0  0  0  0  0  0  0  0  0
   -2.3389    1.6031   -0.3011 C   0  0  0  0  0  0  0  0  0  0  0  0
   -1.8567   -0.7175    0.2593 C   0  0  0  0  0  0  0  0  0  0  0  0
   -3.7036    1.2788   -0.3722 C   0  0  0  0  0  0  0  0  0  0  0  0
   -1.8729    2.9017   -0.5376 C   0  0  0  0  0  0  0  0  0  0  0  0
   -3.2157   -1.0219    0.1842 C   0  0  0  0  0  0  0  0  0  0  0  0
   -4.1371   -0.0259   -0.1308 C   0  0  0  0  0  0  0  0  0  0  0  0
   -0.5103    3.1417   -0.4480 C   0  0  0  0  0  0  0  0  0  0  0  0
   -5.5602   -0.3256   -0.2148 C   0  0  0  0  0  0  0  0  0  0  0  0
   -3.9449   -2.6379    1.7690 C   0  0  0  0  0  0  0  0  0  0  0  0
    5.0871   -1.2146    1.4881 H   0  0  0  0  0  0  0  0  0  0  0  0
    2.7748   -1.1943    1.7124 H   0  0  0  0  0  0  0  0  0  0  0  0
    6.1634   -0.9655   -0.6207 H   0  0  0  0  0  0  0  0  0  0  0  0
    4.5785    1.7461    0.8642 H   0  0  0  0  0  0  0  0  0  0  0  0
    4.6419    1.0112    2.4659 H   0  0  0  0  0  0  0  0  0  0  0  0
    2.2918   -2.3605   -0.3837 H   0  0  0  0  0  0  0  0  0  0  0  0
    2.5261    0.8679   -0.5468 H   0  0  0  0  0  0  0  0  0  0  0  0
    2.3329    1.2281    1.1985 H   0  0  0  0  0  0  0  0  0  0  0  0
    7.0227    0.2997    1.9892 H   0  0  0  0  0  0  0  0  0  0  0  0
    6.7850    2.0519    1.9420 H   0  0  0  0  0  0  0  0  0  0  0  0
    6.9352    1.1508    0.4331 H   0  0  0  0  0  0  0  0  0  0  0  0
   -1.1529   -1.5099    0.5056 H   0  0  0  0  0  0  0  0  0  0  0  0
   -4.4319    2.0503   -0.6176 H   0  0  0  0  0  0  0  0  0  0  0  0
   -2.5514    3.7120   -0.7864 H   0  0  0  0  0  0  0  0  0  0  0  0
   -0.1106    4.1350   -0.6244 H   0  0  0  0  0  0  0  0  0  0  0  0
   -3.0488   -2.5905    2.3959 H   0  0  0  0  0  0  0  0  0  0  0  0
   -4.7157   -1.9732    2.1701 H   0  0  0  0  0  0  0  0  0  0  0  0
   -4.3263   -3.6626    1.7834 H   0  0  0  0  0  0  0  0  0  0  0  0
   -5.4740   -0.8095   -2.2697 H   0  0  0  0  0  0  0  0  0  0  0  0
   -7.0492   -0.9368   -1.5654 H   0  0  0  0  0  0  0  0  0  0  0  0
  1 11  1  0  0  0  0
  2 13  1  0  0  0  0
  2 16  1  0  0  0  0
  3 14  2  0  0  0  0
  4 22  1  0  0  0  0
  4 26  1  0  0  0  0
  5 25  2  0  0  0  0
  6 10  1  0  0  0  0
  6 14  1  0  0  0  0
  6 32  1  0  0  0  0
  7 16  2  0  0  0  0
  7 24  1  0  0  0  0
  8 25  1  0  0  0  0
  8 45  1  0  0  0  0
  8 46  1  0  0  0  0
  9 10  1  0  0  0  0
  9 11  1  0  0  0  0
  9 12  1  0  0  0  0
  9 27  1  0  0  0  0
 10 13  1  0  0  0  0
 10 28  1  0  0  0  0
 11 14  1  0  0  0  0
 11 29  1  0  0  0  0
 12 15  1  0  0  0  0
 12 30  1  0  0  0  0
 12 31  1  0  0  0  0
 13 33  1  0  0  0  0
 13 34  1  0  0  0  0
 15 35  1  0  0  0  0
 15 36  1  0  0  0  0
 15 37  1  0  0  0  0
 16 17  1  0  0  0  0
 17 18  1  0  0  0  0
 17 19  2  0  0  0  0
 18 20  2  0  0  0  0
 18 21  1  0  0  0  0
 19 22  1  0  0  0  0
 19 38  1  0  0  0  0
 20 23  1  0  0  0  0
 20 39  1  0  0  0  0
 21 24  2  0  0  0  0
 21 40  1  0  0  0  0
 22 23  2  0  0  0  0
 23 25  1  0  0  0  0
 24 41  1  0  0  0  0
 26 42  1  0  0  0  0
 26 43  1  0  0  0  0
 26 44  1  0  0  0  0
M  END
> <PUBCHEM_COMPOUND_CID>
118414016

> <PUBCHEM_CONFORMER_RMSD>
0.8

> <PUBCHEM_CONFORMER_DIVERSEORDER>
1
207
235
62
220
160
219
123
86
232
94
182
236
129
91
173
163
120
143
109
180
74
176
194
213
104
141
102
24
128
97
181
172
154
174
125
165
211
189
142
224
191
95
93
60
100
210
122
196
89
149
170
39
131
206
119
63
36
78
230
186
188
73
158
193
111
65
81
227
121
67
146
229
205
70
137
168
198
76
171
33
53
50
214
166
223
151
153
231
127
47
85
204
130
185
187
179
112
64
192
156
61
83
42
66
72
46
132
75
71
69
140
99
145
159
113
80
202
199
118
233
92
77
49
26
162
44
215
7
88
200
30
19
14
225
212
126
195
105
217
107
82
87
18
90
31
133
139
54
32
134
98
178
10
48
101
138
117
190
45
161
136
226
20
228
6
150
58
164
57
135
175
106
234
108
209
15
25
8
197
201
115
84
12
38
96
34
22
114
52
17
79
155
147
68
208
203
221
27
11
43
41
3
9
59
28
184
148
37
5
110
116
35
23
2
40
222
4
13
51
218
21
144
167
16
29
152
124
103
216
169
55
157
56
177
183

> <PUBCHEM_MMFF94_PARTIAL_CHARGES>
28
1 -0.34
10 0.3
11 0.4
13 0.28
14 0.57
16 0.39
19 -0.15
2 -0.36
20 -0.15
21 -0.15
22 0.08
23 0.09
24 0.16
25 0.54
26 0.28
3 -0.57
32 0.37
38 0.15
39 0.15
4 -0.36
40 0.15
41 0.15
45 0.37
46 0.37
5 -0.57
6 -0.73
7 -0.62
8 -0.8

> <PUBCHEM_EFFECTIVE_ROTOR_COUNT>
6.8

> <PUBCHEM_PHARMACOPHORE_FEATURES>
9
1 15 hydrophobe
1 3 acceptor
1 4 acceptor
1 5 acceptor
1 6 donor
1 8 donor
5 6 9 10 11 14 rings
6 17 18 19 20 22 23 rings
6 7 16 17 18 21 24 rings

> <PUBCHEM_HEAVY_ATOM_COUNT>
26

> <PUBCHEM_ATOM_DEF_STEREO_COUNT>
3

> <PUBCHEM_ATOM_UDEF_STEREO_COUNT>
0

> <PUBCHEM_BOND_DEF_STEREO_COUNT>
0

> <PUBCHEM_BOND_UDEF_STEREO_COUNT>
0

> <PUBCHEM_ISOTOPIC_ATOM_COUNT>
0

> <PUBCHEM_COMPONENT_COUNT>
1

> <PUBCHEM_CACTVS_TAUTO_COUNT>
6

> <PUBCHEM_CONFORMER_ID>
070EDAC000000001

> <PUBCHEM_MMFF94_ENERGY>
89.8178

> <PUBCHEM_FEATURE_SELFOVERLAP>
45.698

> <PUBCHEM_SHAPE_FINGERPRINT>
10 15 18269257098289343832
10906281 52 18337967696921630357
11370993 144 17774448178532305600
11552529 35 15625076810991447310
11578080 2 14116422480294536681
12236239 1 16805600343653250704
12516196 113 18413386557607677985
12553582 1 18261381248721992187
12596602 18 15769771385887043135
12616971 3 15863788391900442786
12730499 353 17917706908271435568
12788726 201 18115017507611579273
13402501 40 18413669101836339258
13533116 47 17132113524541218402
13544653 18 18130790065988219401
13911882 115 18272371975638107954
14790565 3 17473541353074530829
14840074 17 17988922288448820951
14910302 57 18262518074830554550
15183329 4 17458341914668684045
15927050 60 17331399182959485716
15961568 22 18260266378713990508
17349148 13 16660363654434540136
17844677 252 17632863001488672448
1813 80 17822013090236606884
19141452 34 18130785689902094807
19319366 153 17167852050585779443
20403669 9 18411136918009607223
21033650 10 17679317277942454220
21267235 1 18334862727608463825
2297311 6 18410581647478784365
23198884 109 13840262577220683717
23557571 272 18411137992168299044
23559900 14 18263075673254991113
239999 70 18413671306030021634
3004659 81 17967818266681574548
314173 85 18410293622882643225
335352 9 18334290982026263685
3383291 50 18261395594266929787
34797466 226 18410865369119094948
4325135 7 18259702316147053188
5104073 3 18198899224072395792
7237137 82 17894907383086048149
9709674 26 18340485556752407110

> <PUBCHEM_SHAPE_MULTIPOLES>
489.37
15.46
2.83
1.32
4.66
0.73
-0.11
-5.06
0.83
-1.24
-0.25
1.33
-0.68
2.59

> <PUBCHEM_SHAPE_SELFOVERLAP>
1057.766

> <PUBCHEM_SHAPE_VOLUME>
269.9

> <PUBCHEM_COORDINATE_TYPE>
2
5
10

$$$$
