REMARK  Name = 11845121
REMARK  13 active torsions:
REMARK  status: ('A' for Active; 'I' for Inactive)
REMARK    1  A    between atoms: C_2  and  O_9
REMARK    2  A    between atoms: C_3  and  O_11
REMARK    3  A    between atoms: C_4  and  O_13
REMARK    4  A    between atoms: C_5  and  O_15
REMARK    5  A    between atoms: C_7  and  C_17
REMARK    6  A    between atoms: C_17  and  C_18
REMARK    7  A    between atoms: C_18  and  C_19
REMARK    8  A    between atoms: C_19  and  C_20
REMARK    9  A    between atoms: C_21  and  C_22
REMARK   10  A    between atoms: C_22  and  C_23
REMARK   11  A    between atoms: C_23  and  C_24
REMARK   12  A    between atoms: C_24  and  C_26
REMARK   13  A    between atoms: C_26  and  O_27
REMARK                            x       y       z     vdW  Elec       q    Type
REMARK                         _______ _______ _______ _____ _____    ______ ____
ROOT
ATOM      1  O   UNL     1      -2.790   0.777   0.160  0.00  0.00    -0.332 OA
ATOM      2  C   UNL     1      -4.835  -0.271  -0.396  0.00  0.00    +0.186 C 
ATOM      3  C   UNL     1      -4.009   1.004  -0.570  0.00  0.00    +0.211 C 
ATOM      4  C   UNL     1      -3.763  -1.342  -0.353  0.00  0.00    +0.169 C 
ATOM      5  C   UNL     1      -5.676   0.000   0.861  0.00  0.00    +0.142 C 
ATOM      6  C   UNL     1      -4.819   2.136   0.073  0.00  0.00    +0.061 C 
ATOM      7  C   UNL     1      -2.580  -0.640   0.309  0.00  0.00    +0.147 C 
ATOM      8  C   UNL     1      -6.058   1.470   0.688  0.00  0.00    +0.037 C 
ENDROOT
BRANCH   2   9
ATOM      9  O   UNL     1      -5.715  -0.473  -1.495  0.00  0.00    -0.378 OA
ATOM     10  H   UNL     1      -5.196  -0.646  -2.296  0.00  0.00    +0.211 HD
ENDBRANCH   2   9
BRANCH   3  11
ATOM     11  O   UNL     1      -3.721   1.257  -1.937  0.00  0.00    -0.362 OA
ATOM     12  H   UNL     1      -3.210   0.518  -2.302  0.00  0.00    +0.213 HD
ENDBRANCH   3  11
BRANCH   4  13
ATOM     13  O   UNL     1      -4.165  -2.500   0.356  0.00  0.00    -0.379 OA
ATOM     14  H   UNL     1      -4.916  -2.913  -0.098  0.00  0.00    +0.211 HD
ENDBRANCH   4  13
BRANCH   5  15
ATOM     15  O   UNL     1      -4.935  -0.153   2.062  0.00  0.00    -0.382 OA
ATOM     16  H   UNL     1      -4.691  -1.085   2.175  0.00  0.00    +0.210 HD
ENDBRANCH   5  15
BRANCH   7  17
ATOM     17  C   UNL     1      -1.249  -1.012  -0.325  0.00  0.00    +0.033 C 
BRANCH  17  18
ATOM     18  C   UNL     1      -0.080  -0.324   0.382  0.00  0.00    +0.007 C 
BRANCH  18  19
ATOM     19  C   UNL     1       1.253  -0.678  -0.281  0.00  0.00    +0.026 C 
BRANCH  19  20
ATOM     20  C   UNL     1       2.459  -0.009   0.384  0.00  0.00    -0.031 C 
ATOM     21  C   UNL     1       3.827  -0.364  -0.207  0.00  0.00    -0.031 C 
BRANCH  21  22
ATOM     22  C   UNL     1       5.038   0.261   0.492  0.00  0.00    +0.026 C 
BRANCH  22  23
ATOM     23  C   UNL     1       6.370  -0.066  -0.193  0.00  0.00    +0.016 C 
BRANCH  23  24
ATOM     24  C   UNL     1       7.570   0.498   0.570  0.00  0.00    +0.110 C 
BRANCH  24  26
ATOM     25  O   UNL     1       9.047  -0.464  -1.113  0.00  0.00    -0.250 OA
ATOM     26  C   UNL     1       8.897   0.177  -0.082  0.00  0.00    +0.314 C 
BRANCH  26  27
ATOM     27  O   UNL     1       9.934   0.715   0.613  0.00  0.00    -0.480 OA
ATOM     28  H   UNL     1       9.771   1.199   1.398  0.00  0.00    +0.295 HD
ENDBRANCH  26  27
ENDBRANCH  24  26
ENDBRANCH  23  24
ENDBRANCH  22  23
ENDBRANCH  21  22
ENDBRANCH  19  20
ENDBRANCH  18  19
ENDBRANCH  17  18
ENDBRANCH   7  17
TORSDOF 13
