REMARK  Name = 11845122
REMARK  14 active torsions:
REMARK  status: ('A' for Active; 'I' for Inactive)
REMARK    1  A    between atoms: C_2  and  O_9
REMARK    2  A    between atoms: C_3  and  O_11
REMARK    3  A    between atoms: C_4  and  O_13
REMARK    4  A    between atoms: C_5  and  O_15
REMARK    5  A    between atoms: C_7  and  C_17
REMARK    6  A    between atoms: C_17  and  C_18
REMARK    7  A    between atoms: C_18  and  C_19
REMARK    8  A    between atoms: C_19  and  C_20
REMARK    9  A    between atoms: C_20  and  C_21
REMARK   10  A    between atoms: C_21  and  C_22
REMARK   11  A    between atoms: C_22  and  C_23
REMARK   12  A    between atoms: C_23  and  C_24
REMARK   13  A    between atoms: C_24  and  C_25
REMARK   14  A    between atoms: C_25  and  O_26
REMARK                            x       y       z     vdW  Elec       q    Type
REMARK                         _______ _______ _______ _____ _____    ______ ____
ROOT
ATOM      1  O   UNL     1      -2.349  -0.766  -0.169  0.00  0.00    -0.332 OA
ATOM      2  C   UNL     1      -4.419   0.255   0.344  0.00  0.00    +0.186 C 
ATOM      3  C   UNL     1      -3.593  -1.022   0.507  0.00  0.00    +0.211 C 
ATOM      4  C   UNL     1      -3.353   1.331   0.377  0.00  0.00    +0.169 C 
ATOM      5  C   UNL     1      -5.210   0.022  -0.952  0.00  0.00    +0.142 C 
ATOM      6  C   UNL     1      -4.372  -2.135  -0.203  0.00  0.00    +0.061 C 
ATOM      7  C   UNL     1      -2.142   0.656  -0.262  0.00  0.00    +0.147 C 
ATOM      8  C   UNL     1      -5.590  -1.454  -0.842  0.00  0.00    +0.037 C 
ENDROOT
BRANCH   2   9
ATOM      9  O   UNL     1      -5.341   0.416   1.415  0.00  0.00    -0.378 OA
ATOM     10  H   UNL     1      -4.854   0.564   2.241  0.00  0.00    +0.211 HD
ENDBRANCH   2   9
BRANCH   3  11
ATOM     11  O   UNL     1      -3.356  -1.319   1.875  0.00  0.00    -0.362 OA
ATOM     12  H   UNL     1      -2.862  -0.590   2.283  0.00  0.00    +0.213 HD
ENDBRANCH   3  11
BRANCH   4  13
ATOM     13  O   UNL     1      -3.734   2.510  -0.308  0.00  0.00    -0.379 OA
ATOM     14  H   UNL     1      -4.504   2.904   0.130  0.00  0.00    +0.211 HD
ENDBRANCH   4  13
BRANCH   5  15
ATOM     15  O   UNL     1      -4.426   0.218  -2.118  0.00  0.00    -0.382 OA
ATOM     16  H   UNL     1      -4.183   1.154  -2.191  0.00  0.00    +0.210 HD
ENDBRANCH   5  15
BRANCH   7  17
ATOM     17  C   UNL     1      -0.837   1.014   0.433  0.00  0.00    +0.032 C 
BRANCH  17  18
ATOM     18  C   UNL     1       0.352   0.295  -0.204  0.00  0.00    +0.003 C 
BRANCH  18  19
ATOM     19  C   UNL     1       1.667   0.682   0.476  0.00  0.00    +0.000 C 
BRANCH  19  20
ATOM     20  C   UNL     1       2.859  -0.009  -0.189  0.00  0.00    +0.000 C 
BRANCH  20  21
ATOM     21  C   UNL     1       4.209   0.399   0.406  0.00  0.00    +0.000 C 
BRANCH  21  22
ATOM     22  C   UNL     1       5.405  -0.236  -0.307  0.00  0.00    +0.000 C 
BRANCH  22  23
ATOM     23  C   UNL     1       6.725   0.181   0.347  0.00  0.00    +0.003 C 
BRANCH  23  24
ATOM     24  C   UNL     1       7.925  -0.429  -0.384  0.00  0.00    +0.032 C 
BRANCH  24  25
ATOM     25  C   UNL     1       9.252  -0.001   0.230  0.00  0.00    +0.137 C 
BRANCH  25  26
ATOM     26  O   UNL     1      10.328  -0.608  -0.471  0.00  0.00    -0.382 OA
ATOM     27  H   UNL     1      11.169  -0.330  -0.075  0.00  0.00    +0.210 HD
ENDBRANCH  25  26
ENDBRANCH  24  25
ENDBRANCH  23  24
ENDBRANCH  22  23
ENDBRANCH  21  22
ENDBRANCH  20  21
ENDBRANCH  19  20
ENDBRANCH  18  19
ENDBRANCH  17  18
ENDBRANCH   7  17
TORSDOF 14
