11845122
  -OEChem-03292013303D

 52 53  0     1  0  0  0  0  0999 V2000
   -2.3492   -0.7658   -0.1686 O   0  0  0  0  0  0  0  0  0  0  0  0
   -5.3406    0.4163    1.4150 O   0  0  0  0  0  0  0  0  0  0  0  0
   -3.3557   -1.3188    1.8750 O   0  0  0  0  0  0  0  0  0  0  0  0
   -3.7336    2.5102   -0.3082 O   0  0  0  0  0  0  0  0  0  0  0  0
   -4.4262    0.2181   -2.1182 O   0  0  0  0  0  0  0  0  0  0  0  0
   10.3283   -0.6075   -0.4713 O   0  0  0  0  0  0  0  0  0  0  0  0
   -4.4190    0.2549    0.3442 C   0  0  2  0  0  0  0  0  0  0  0  0
   -3.5932   -1.0224    0.5073 C   0  0  1  0  0  0  0  0  0  0  0  0
   -3.3526    1.3311    0.3768 C   0  0  1  0  0  0  0  0  0  0  0  0
   -5.2105    0.0220   -0.9517 C   0  0  2  0  0  0  0  0  0  0  0  0
   -4.3722   -2.1355   -0.2033 C   0  0  0  0  0  0  0  0  0  0  0  0
   -2.1418    0.6565   -0.2622 C   0  0  1  0  0  0  0  0  0  0  0  0
   -5.5904   -1.4544   -0.8424 C   0  0  0  0  0  0  0  0  0  0  0  0
   -0.8373    1.0135    0.4331 C   0  0  0  0  0  0  0  0  0  0  0  0
    0.3516    0.2947   -0.2043 C   0  0  0  0  0  0  0  0  0  0  0  0
    1.6667    0.6824    0.4761 C   0  0  0  0  0  0  0  0  0  0  0  0
    2.8588   -0.0093   -0.1890 C   0  0  0  0  0  0  0  0  0  0  0  0
    4.2094    0.3986    0.4063 C   0  0  0  0  0  0  0  0  0  0  0  0
    5.4054   -0.2358   -0.3070 C   0  0  0  0  0  0  0  0  0  0  0  0
    6.7252    0.1812    0.3470 C   0  0  0  0  0  0  0  0  0  0  0  0
    7.9247   -0.4290   -0.3841 C   0  0  0  0  0  0  0  0  0  0  0  0
    9.2522   -0.0009    0.2296 C   0  0  0  0  0  0  0  0  0  0  0  0
   -3.1459    1.6152    1.4164 H   0  0  0  0  0  0  0  0  0  0  0  0
   -6.1008    0.6560   -1.0181 H   0  0  0  0  0  0  0  0  0  0  0  0
   -3.7599   -2.6019   -0.9839 H   0  0  0  0  0  0  0  0  0  0  0  0
   -4.7045   -2.9247    0.4794 H   0  0  0  0  0  0  0  0  0  0  0  0
   -2.0612    0.9128   -1.3251 H   0  0  0  0  0  0  0  0  0  0  0  0
   -6.4575   -1.5717   -0.1815 H   0  0  0  0  0  0  0  0  0  0  0  0
   -5.8309   -1.9079   -1.8090 H   0  0  0  0  0  0  0  0  0  0  0  0
   -0.8883    0.7244    1.4906 H   0  0  0  0  0  0  0  0  0  0  0  0
   -0.6821    2.0982    0.3947 H   0  0  0  0  0  0  0  0  0  0  0  0
   -5.7931    1.2675    1.2862 H   0  0  0  0  0  0  0  0  0  0  0  0
   -3.1308   -2.2620    1.9409 H   0  0  0  0  0  0  0  0  0  0  0  0
    0.2195   -0.7916   -0.1361 H   0  0  0  0  0  0  0  0  0  0  0  0
    0.4031    0.5479   -1.2703 H   0  0  0  0  0  0  0  0  0  0  0  0
   -2.9685    3.1103   -0.3049 H   0  0  0  0  0  0  0  0  0  0  0  0
   -4.9810   -0.0035   -2.8854 H   0  0  0  0  0  0  0  0  0  0  0  0
    1.8002    1.7697    0.4233 H   0  0  0  0  0  0  0  0  0  0  0  0
    1.6307    0.4113    1.5379 H   0  0  0  0  0  0  0  0  0  0  0  0
    2.7420   -1.0969   -0.1053 H   0  0  0  0  0  0  0  0  0  0  0  0
    2.8591    0.2270   -1.2605 H   0  0  0  0  0  0  0  0  0  0  0  0
    4.2286    0.1211    1.4675 H   0  0  0  0  0  0  0  0  0  0  0  0
    4.3047    1.4908    0.3634 H   0  0  0  0  0  0  0  0  0  0  0  0
    5.4031    0.0652   -1.3615 H   0  0  0  0  0  0  0  0  0  0  0  0
    5.3107   -1.3280   -0.2815 H   0  0  0  0  0  0  0  0  0  0  0  0
    6.8103    1.2745    0.3382 H   0  0  0  0  0  0  0  0  0  0  0  0
    6.7345   -0.1366    1.3965 H   0  0  0  0  0  0  0  0  0  0  0  0
    7.9091   -0.1410   -1.4428 H   0  0  0  0  0  0  0  0  0  0  0  0
    7.8564   -1.5240   -0.3716 H   0  0  0  0  0  0  0  0  0  0  0  0
    9.3709    1.0860    0.1727 H   0  0  0  0  0  0  0  0  0  0  0  0
    9.3081   -0.3068    1.2793 H   0  0  0  0  0  0  0  0  0  0  0  0
   11.1504   -0.3075   -0.0474 H   0  0  0  0  0  0  0  0  0  0  0  0
  1  8  1  0  0  0  0
  1 12  1  0  0  0  0
  2  7  1  0  0  0  0
  2 32  1  0  0  0  0
  3  8  1  0  0  0  0
  3 33  1  0  0  0  0
  4  9  1  0  0  0  0
  4 36  1  0  0  0  0
  5 10  1  0  0  0  0
  5 37  1  0  0  0  0
  6 22  1  0  0  0  0
  6 52  1  0  0  0  0
  7  8  1  0  0  0  0
  7  9  1  0  0  0  0
  7 10  1  0  0  0  0
  8 11  1  0  0  0  0
  9 12  1  0  0  0  0
  9 23  1  0  0  0  0
 10 13  1  0  0  0  0
 10 24  1  0  0  0  0
 11 13  1  0  0  0  0
 11 25  1  0  0  0  0
 11 26  1  0  0  0  0
 12 14  1  0  0  0  0
 12 27  1  0  0  0  0
 13 28  1  0  0  0  0
 13 29  1  0  0  0  0
 14 15  1  0  0  0  0
 14 30  1  0  0  0  0
 14 31  1  0  0  0  0
 15 16  1  0  0  0  0
 15 34  1  0  0  0  0
 15 35  1  0  0  0  0
 16 17  1  0  0  0  0
 16 38  1  0  0  0  0
 16 39  1  0  0  0  0
 17 18  1  0  0  0  0
 17 40  1  0  0  0  0
 17 41  1  0  0  0  0
 18 19  1  0  0  0  0
 18 42  1  0  0  0  0
 18 43  1  0  0  0  0
 19 20  1  0  0  0  0
 19 44  1  0  0  0  0
 19 45  1  0  0  0  0
 20 21  1  0  0  0  0
 20 46  1  0  0  0  0
 20 47  1  0  0  0  0
 21 22  1  0  0  0  0
 21 48  1  0  0  0  0
 21 49  1  0  0  0  0
 22 50  1  0  0  0  0
 22 51  1  0  0  0  0
M  END
> <PUBCHEM_COMPOUND_CID>
11845122

> <PUBCHEM_CONFORMER_RMSD>
1.2

> <PUBCHEM_CONFORMER_DIVERSEORDER>
1
11
78
53
61
31
43
80
67
21
58
40
17
16
62
69
4
74
37
22
13
77
18
76
57
5
6
45
51
36
9
39
19
38
7
10
35
55
14
24
28
44
23
63
30
25
29
32
60
34
66
46
12
82
3
15
49
33
73
27
68
59
26
65
2
50
71
54
41
52
47
64
70
42
48
75
79
8
72
20
81
56

> <PUBCHEM_MMFF94_PARTIAL_CHARGES>
17
1 -0.56
10 0.28
12 0.28
2 -0.68
22 0.28
3 -0.68
32 0.4
33 0.4
36 0.4
37 0.4
4 -0.68
5 -0.68
52 0.4
6 -0.68
7 0.28
8 0.56
9 0.28

> <PUBCHEM_EFFECTIVE_ROTOR_COUNT>
10.2

> <PUBCHEM_PHARMACOPHORE_FEATURES>
13
1 1 acceptor
1 2 acceptor
1 2 donor
1 3 acceptor
1 3 donor
1 4 acceptor
1 4 donor
1 5 acceptor
1 5 donor
1 6 acceptor
1 6 donor
5 1 7 8 9 12 rings
5 7 8 10 11 13 rings

> <PUBCHEM_HEAVY_ATOM_COUNT>
22

> <PUBCHEM_ATOM_DEF_STEREO_COUNT>
5

> <PUBCHEM_ATOM_UDEF_STEREO_COUNT>
0

> <PUBCHEM_BOND_DEF_STEREO_COUNT>
0

> <PUBCHEM_BOND_UDEF_STEREO_COUNT>
0

> <PUBCHEM_ISOTOPIC_ATOM_COUNT>
0

> <PUBCHEM_COMPONENT_COUNT>
1

> <PUBCHEM_CACTVS_TAUTO_COUNT>
1

> <PUBCHEM_CONFORMER_ID>
00B4BE0200000001

> <PUBCHEM_MMFF94_ENERGY>
49.4029

> <PUBCHEM_FEATURE_SELFOVERLAP>
66.441

> <PUBCHEM_SHAPE_FINGERPRINT>
10299344 5 18408323281556798242
11315181 36 18409448098219473537
11524674 6 16487255495390036190
12091667 2 18272088288410465296
13288520 33 18272086124210957477
13885169 127 18411700955412706640
14251764 18 16559029411860679140
14251764 46 18410856559639789569
14849402 71 13398331539500444042
15183329 4 17168139049353934466
15716309 27 17346597499839025420
17093844 174 16630528414561622409
17780758 139 16272212989896907771
17844677 252 18272374195846614992
18927931 339 18410860971103985173
19489759 90 18408321086079514641
20281389 69 9943808881277996094
21267235 1 18335984272561029507
21315763 28 18413107265339653260
21360442 43 16153716465624391626
21360443 89 11239698809171883173
21623969 137 17060345115420765822
22224240 67 16487252176276848238
23559900 14 18266450083115083313
4325135 7 18334012792182615078
5758199 1 12319735865716445956
59682541 35 17203603814430739690
636775 72 11169905083125422478

> <PUBCHEM_SHAPE_MULTIPOLES>
417.53
25.75
1.51
1.11
80.1
0.04
0
-6.47
-2.46
-2.9
-0.02
-1.82
-0.12
0.33

> <PUBCHEM_SHAPE_SELFOVERLAP>
838.221

> <PUBCHEM_SHAPE_VOLUME>
246.1

> <PUBCHEM_COORDINATE_TYPE>
2
5
10

$$$$
