11845121
  -OEChem-03292013303D

 51 52  0     1  0  0  0  0  0999 V2000
   -2.7904    0.7774    0.1601 O   0  0  0  0  0  0  0  0  0  0  0  0
   -5.7146   -0.4733   -1.4947 O   0  0  0  0  0  0  0  0  0  0  0  0
   -3.7214    1.2568   -1.9372 O   0  0  0  0  0  0  0  0  0  0  0  0
   -4.1645   -2.5000    0.3563 O   0  0  0  0  0  0  0  0  0  0  0  0
   -4.9352   -0.1533    2.0619 O   0  0  0  0  0  0  0  0  0  0  0  0
    9.9338    0.7153    0.6125 O   0  0  0  0  0  0  0  0  0  0  0  0
    9.0466   -0.4635   -1.1129 O   0  0  0  0  0  0  0  0  0  0  0  0
   -4.8348   -0.2713   -0.3958 C   0  0  2  0  0  0  0  0  0  0  0  0
   -4.0090    1.0044   -0.5703 C   0  0  1  0  0  0  0  0  0  0  0  0
   -3.7631   -1.3421   -0.3526 C   0  0  1  0  0  0  0  0  0  0  0  0
   -5.6757   -0.0004    0.8608 C   0  0  2  0  0  0  0  0  0  0  0  0
   -4.8192    2.1360    0.0732 C   0  0  0  0  0  0  0  0  0  0  0  0
   -2.5804   -0.6398    0.3087 C   0  0  1  0  0  0  0  0  0  0  0  0
   -6.0577    1.4695    0.6883 C   0  0  0  0  0  0  0  0  0  0  0  0
   -1.2489   -1.0122   -0.3248 C   0  0  0  0  0  0  0  0  0  0  0  0
   -0.0804   -0.3238    0.3817 C   0  0  0  0  0  0  0  0  0  0  0  0
    1.2527   -0.6777   -0.2806 C   0  0  0  0  0  0  0  0  0  0  0  0
    2.4593   -0.0085    0.3844 C   0  0  0  0  0  0  0  0  0  0  0  0
    3.8272   -0.3641   -0.2069 C   0  0  0  0  0  0  0  0  0  0  0  0
    5.0385    0.2613    0.4922 C   0  0  0  0  0  0  0  0  0  0  0  0
    6.3699   -0.0658   -0.1925 C   0  0  0  0  0  0  0  0  0  0  0  0
    7.5702    0.4976    0.5701 C   0  0  0  0  0  0  0  0  0  0  0  0
    8.8970    0.1773   -0.0820 C   0  0  0  0  0  0  0  0  0  0  0  0
   -3.5067   -1.6605   -1.3710 H   0  0  0  0  0  0  0  0  0  0  0  0
   -6.5650   -0.6369    0.9148 H   0  0  0  0  0  0  0  0  0  0  0  0
   -5.1290    2.9003   -0.6474 H   0  0  0  0  0  0  0  0  0  0  0  0
   -4.2390    2.6314    0.8603 H   0  0  0  0  0  0  0  0  0  0  0  0
   -2.5405   -0.8621    1.3815 H   0  0  0  0  0  0  0  0  0  0  0  0
   -6.8997    1.5599   -0.0083 H   0  0  0  0  0  0  0  0  0  0  0  0
   -6.3366    1.9534    1.6296 H   0  0  0  0  0  0  0  0  0  0  0  0
   -1.1117   -2.0995   -0.2895 H   0  0  0  0  0  0  0  0  0  0  0  0
   -1.2444   -0.7115   -1.3803 H   0  0  0  0  0  0  0  0  0  0  0  0
   -6.1775   -1.3161   -1.3499 H   0  0  0  0  0  0  0  0  0  0  0  0
   -3.4983    2.1986   -2.0259 H   0  0  0  0  0  0  0  0  0  0  0  0
   -0.0568   -0.6248    1.4359 H   0  0  0  0  0  0  0  0  0  0  0  0
   -0.2116    0.7645    0.3592 H   0  0  0  0  0  0  0  0  0  0  0  0
   -4.9687   -2.8404   -0.0711 H   0  0  0  0  0  0  0  0  0  0  0  0
   -5.5197    0.0902    2.7999 H   0  0  0  0  0  0  0  0  0  0  0  0
    1.2242   -0.3868   -1.3379 H   0  0  0  0  0  0  0  0  0  0  0  0
    1.3909   -1.7657   -0.2554 H   0  0  0  0  0  0  0  0  0  0  0  0
    2.4636   -0.2741    1.4492 H   0  0  0  0  0  0  0  0  0  0  0  0
    2.3301    1.0802    0.3388 H   0  0  0  0  0  0  0  0  0  0  0  0
    3.8351   -0.0649   -1.2626 H   0  0  0  0  0  0  0  0  0  0  0  0
    3.9415   -1.4554   -0.1950 H   0  0  0  0  0  0  0  0  0  0  0  0
    5.0669   -0.0882    1.5315 H   0  0  0  0  0  0  0  0  0  0  0  0
    4.9110    1.3502    0.5272 H   0  0  0  0  0  0  0  0  0  0  0  0
    6.4759   -1.1543   -0.2820 H   0  0  0  0  0  0  0  0  0  0  0  0
    6.3633    0.3316   -1.2150 H   0  0  0  0  0  0  0  0  0  0  0  0
    7.4814    1.5879    0.6352 H   0  0  0  0  0  0  0  0  0  0  0  0
    7.5871    0.0836    1.5846 H   0  0  0  0  0  0  0  0  0  0  0  0
   10.7971    0.5199    0.1897 H   0  0  0  0  0  0  0  0  0  0  0  0
  1  9  1  0  0  0  0
  1 13  1  0  0  0  0
  2  8  1  0  0  0  0
  2 33  1  0  0  0  0
  3  9  1  0  0  0  0
  3 34  1  0  0  0  0
  4 10  1  0  0  0  0
  4 37  1  0  0  0  0
  5 11  1  0  0  0  0
  5 38  1  0  0  0  0
  6 23  1  0  0  0  0
  6 51  1  0  0  0  0
  7 23  2  0  0  0  0
  8  9  1  0  0  0  0
  8 10  1  0  0  0  0
  8 11  1  0  0  0  0
  9 12  1  0  0  0  0
 10 13  1  0  0  0  0
 10 24  1  0  0  0  0
 11 14  1  0  0  0  0
 11 25  1  0  0  0  0
 12 14  1  0  0  0  0
 12 26  1  0  0  0  0
 12 27  1  0  0  0  0
 13 15  1  0  0  0  0
 13 28  1  0  0  0  0
 14 29  1  0  0  0  0
 14 30  1  0  0  0  0
 15 16  1  0  0  0  0
 15 31  1  0  0  0  0
 15 32  1  0  0  0  0
 16 17  1  0  0  0  0
 16 35  1  0  0  0  0
 16 36  1  0  0  0  0
 17 18  1  0  0  0  0
 17 39  1  0  0  0  0
 17 40  1  0  0  0  0
 18 19  1  0  0  0  0
 18 41  1  0  0  0  0
 18 42  1  0  0  0  0
 19 20  1  0  0  0  0
 19 43  1  0  0  0  0
 19 44  1  0  0  0  0
 20 21  1  0  0  0  0
 20 45  1  0  0  0  0
 20 46  1  0  0  0  0
 21 22  1  0  0  0  0
 21 47  1  0  0  0  0
 21 48  1  0  0  0  0
 22 23  1  0  0  0  0
 22 49  1  0  0  0  0
 22 50  1  0  0  0  0
M  END
> <PUBCHEM_COMPOUND_CID>
11845121

> <PUBCHEM_CONFORMER_RMSD>
1.2

> <PUBCHEM_CONFORMER_DIVERSEORDER>
1
21
6
38
50
36
45
69
80
32
86
8
81
54
53
7
27
79
18
64
56
89
26
31
12
83
51
13
58
40
11
30
76
90
52
28
17
35
20
84
85
61
87
16
25
77
67
60
39
59
24
43
14
33
3
41
4
34
42
23
72
68
62
71
47
9
46
48
82
37
29
88
63
57
75
10
2
78
22
73
5
19
49
55
70
15
65
44
66
74

> <PUBCHEM_MMFF94_PARTIAL_CHARGES>
19
1 -0.56
10 0.28
11 0.28
13 0.28
2 -0.68
22 0.06
23 0.66
3 -0.68
33 0.4
34 0.4
37 0.4
38 0.4
4 -0.68
5 -0.68
51 0.5
6 -0.65
7 -0.57
8 0.28
9 0.56

> <PUBCHEM_EFFECTIVE_ROTOR_COUNT>
10.2

> <PUBCHEM_PHARMACOPHORE_FEATURES>
14
1 1 acceptor
1 2 acceptor
1 2 donor
1 3 acceptor
1 3 donor
1 4 acceptor
1 4 donor
1 5 acceptor
1 5 donor
1 6 acceptor
1 7 acceptor
3 6 7 23 anion
5 1 8 9 10 13 rings
5 8 9 11 12 14 rings

> <PUBCHEM_HEAVY_ATOM_COUNT>
23

> <PUBCHEM_ATOM_DEF_STEREO_COUNT>
5

> <PUBCHEM_ATOM_UDEF_STEREO_COUNT>
0

> <PUBCHEM_BOND_DEF_STEREO_COUNT>
0

> <PUBCHEM_BOND_UDEF_STEREO_COUNT>
0

> <PUBCHEM_ISOTOPIC_ATOM_COUNT>
0

> <PUBCHEM_COMPONENT_COUNT>
1

> <PUBCHEM_CACTVS_TAUTO_COUNT>
1

> <PUBCHEM_CONFORMER_ID>
00B4BE0100000001

> <PUBCHEM_MMFF94_ENERGY>
52.1752

> <PUBCHEM_FEATURE_SELFOVERLAP>
71.575

> <PUBCHEM_SHAPE_FINGERPRINT>
10 15 18113900442141084882
10066227 49 16916796129026710486
10299344 5 17676204676714885418
10411042 1 18051692450424901079
11315181 36 18186518813401052573
12082328 90 16272211885810705284
12091667 2 17894629270657019618
14251764 18 17967249793927633546
14251764 46 18201720656792698915
14849402 71 17168438172367654556
14933364 13 18411419514663631784
15183329 4 18343581824773042722
15419008 47 17988636394653142896
15461852 350 17917705833648806423
15716309 27 13045946806570323810
17093844 174 18407759248506773027
17780758 139 14851605466934438485
18336668 15 17167865253030241708
21095123 145 16950857980630471586
21360442 43 15554154960740730181
21360443 89 17968945322621007267
220451 1 18186515501934204282
22224240 67 11963391856573184688
4073 2 18260271854427975778
5758199 1 17676487251145266890
59567204 34 18272370836802608969
5969126 39 14189579611561239538
9953998 17 18040437685418034649

> <PUBCHEM_SHAPE_MULTIPOLES>
432.24
28.03
1.48
1.14
80.03
0.04
0.08
-6.08
-0.37
-2.97
0
-1.48
-0.1
0.6

> <PUBCHEM_SHAPE_SELFOVERLAP>
874.705

> <PUBCHEM_SHAPE_VOLUME>
252.2

> <PUBCHEM_COORDINATE_TYPE>
2
5
10

$$$$
