11853799
  -OEChem-03292013303D

 55 58  0     0  0  0  0  0  0999 V2000
    0.2081    3.2069   -2.4193 F   0  0  0  0  0  0  0  0  0  0  0  0
   -0.8215    3.9096    2.1651 F   0  0  0  0  0  0  0  0  0  0  0  0
   -5.1243   -5.4260    0.3739 F   0  0  0  0  0  0  0  0  0  0  0  0
   -3.0627    4.0127   -0.8092 O   0  0  0  0  0  0  0  0  0  0  0  0
   -1.3494    2.5242   -0.2029 N   0  0  0  0  0  0  0  0  0  0  0  0
    0.3109    0.8259    0.3439 N   0  0  0  0  0  0  0  0  0  0  0  0
   -0.3176   -1.4818    0.5942 N   0  0  0  0  0  0  0  0  0  0  0  0
    1.9094   -0.8092    0.8701 N   0  0  0  0  0  0  0  0  0  0  0  0
    4.6243   -1.5153    0.2819 N   0  0  0  0  0  0  0  0  0  0  0  0
    6.1296   -3.1757   -0.4606 N   0  0  0  0  0  0  0  0  0  0  0  0
    6.6245   -2.0354    1.5005 N   0  0  0  0  0  0  0  0  0  0  0  0
    4.6370   -3.6031   -2.4229 N   0  0  0  0  0  0  0  0  0  0  0  0
   -1.9682    0.1879    0.0415 C   0  0  0  0  0  0  0  0  0  0  0  0
   -0.9776    1.1629    0.0887 C   0  0  0  0  0  0  0  0  0  0  0  0
   -1.5817   -1.1172    0.3102 C   0  0  0  0  0  0  0  0  0  0  0  0
   -2.4982   -2.2392    0.3070 C   0  0  0  0  0  0  0  0  0  0  0  0
   -3.3368    0.5188   -0.3052 C   0  0  0  0  0  0  0  0  0  0  0  0
   -0.3297    3.5344   -0.1286 C   0  0  0  0  0  0  0  0  0  0  0  0
   -2.6602    2.8740   -0.5658 C   0  0  0  0  0  0  0  0  0  0  0  0
   -2.7365   -2.9720   -0.8560 C   0  0  0  0  0  0  0  0  0  0  0  0
    0.5672   -0.4738    0.5892 C   0  0  0  0  0  0  0  0  0  0  0  0
   -3.6626    1.7760   -0.6057 C   0  0  0  0  0  0  0  0  0  0  0  0
   -3.1479   -2.5837    1.4927 C   0  0  0  0  0  0  0  0  0  0  0  0
    2.9607    0.1589    0.8996 C   0  0  0  0  0  0  0  0  0  0  0  0
   -3.6235   -4.0483   -0.8336 C   0  0  0  0  0  0  0  0  0  0  0  0
    0.4233    3.8430   -1.2586 C   0  0  0  0  0  0  0  0  0  0  0  0
   -0.1003    4.2001    1.0727 C   0  0  0  0  0  0  0  0  0  0  0  0
   -2.0593   -2.6331   -2.1453 C   0  0  0  0  0  0  0  0  0  0  0  0
   -4.0349   -3.6600    1.5152 C   0  0  0  0  0  0  0  0  0  0  0  0
   -4.2727   -4.3924    0.3521 C   0  0  0  0  0  0  0  0  0  0  0  0
    4.2764   -0.5004    1.2798 C   0  0  0  0  0  0  0  0  0  0  0  0
    1.4124    4.8239   -1.1869 C   0  0  0  0  0  0  0  0  0  0  0  0
    0.8888    5.1811    1.1445 C   0  0  0  0  0  0  0  0  0  0  0  0
    1.6451    5.4929    0.0147 C   0  0  0  0  0  0  0  0  0  0  0  0
    5.7222   -2.1651    0.4742 C   0  0  0  0  0  0  0  0  0  0  0  0
    5.3259   -3.4014   -1.5113 C   0  0  0  0  0  0  0  0  0  0  0  0
   -4.1036   -0.2458   -0.3384 H   0  0  0  0  0  0  0  0  0  0  0  0
   -4.6806    2.0372   -0.8742 H   0  0  0  0  0  0  0  0  0  0  0  0
   -2.9745   -2.0241    2.4091 H   0  0  0  0  0  0  0  0  0  0  0  0
    2.1044   -1.7881    1.0461 H   0  0  0  0  0  0  0  0  0  0  0  0
    3.0614    0.6339   -0.0840 H   0  0  0  0  0  0  0  0  0  0  0  0
    2.7357    0.9440    1.6311 H   0  0  0  0  0  0  0  0  0  0  0  0
   -3.8217   -4.6299   -1.7299 H   0  0  0  0  0  0  0  0  0  0  0  0
   -2.3604   -1.6392   -2.4914 H   0  0  0  0  0  0  0  0  0  0  0  0
   -0.9706   -2.6667   -2.0337 H   0  0  0  0  0  0  0  0  0  0  0  0
   -2.3194   -3.3430   -2.9384 H   0  0  0  0  0  0  0  0  0  0  0  0
   -4.5405   -3.9282    2.4381 H   0  0  0  0  0  0  0  0  0  0  0  0
    5.0547    0.2708    1.3250 H   0  0  0  0  0  0  0  0  0  0  0  0
    4.1796   -0.9599    2.2716 H   0  0  0  0  0  0  0  0  0  0  0  0
    2.0011    5.0665   -2.0667 H   0  0  0  0  0  0  0  0  0  0  0  0
    1.0697    5.7019    2.0800 H   0  0  0  0  0  0  0  0  0  0  0  0
    2.4152    6.2567    0.0707 H   0  0  0  0  0  0  0  0  0  0  0  0
    6.9963   -3.6756   -0.2930 H   0  0  0  0  0  0  0  0  0  0  0  0
    7.4590   -2.6107    1.5397 H   0  0  0  0  0  0  0  0  0  0  0  0
    6.4966   -1.3668    2.2517 H   0  0  0  0  0  0  0  0  0  0  0  0
  1 26  1  0  0  0  0
  2 27  1  0  0  0  0
  3 30  1  0  0  0  0
  4 19  2  0  0  0  0
  5 14  1  0  0  0  0
  5 18  1  0  0  0  0
  5 19  1  0  0  0  0
  6 14  2  0  0  0  0
  6 21  1  0  0  0  0
  7 15  1  0  0  0  0
  7 21  2  0  0  0  0
  8 21  1  0  0  0  0
  8 24  1  0  0  0  0
  8 40  1  0  0  0  0
  9 31  1  0  0  0  0
  9 35  2  0  0  0  0
 10 35  1  0  0  0  0
 10 36  1  0  0  0  0
 10 53  1  0  0  0  0
 11 35  1  0  0  0  0
 11 54  1  0  0  0  0
 11 55  1  0  0  0  0
 12 36  3  0  0  0  0
 13 14  1  0  0  0  0
 13 15  2  0  0  0  0
 13 17  1  0  0  0  0
 15 16  1  0  0  0  0
 16 20  2  0  0  0  0
 16 23  1  0  0  0  0
 17 22  2  0  0  0  0
 17 37  1  0  0  0  0
 18 26  2  0  0  0  0
 18 27  1  0  0  0  0
 19 22  1  0  0  0  0
 20 25  1  0  0  0  0
 20 28  1  0  0  0  0
 22 38  1  0  0  0  0
 23 29  2  0  0  0  0
 23 39  1  0  0  0  0
 24 31  1  0  0  0  0
 24 41  1  0  0  0  0
 24 42  1  0  0  0  0
 25 30  2  0  0  0  0
 25 43  1  0  0  0  0
 26 32  1  0  0  0  0
 27 33  2  0  0  0  0
 28 44  1  0  0  0  0
 28 45  1  0  0  0  0
 28 46  1  0  0  0  0
 29 30  1  0  0  0  0
 29 47  1  0  0  0  0
 31 48  1  0  0  0  0
 31 49  1  0  0  0  0
 32 34  2  0  0  0  0
 32 50  1  0  0  0  0
 33 34  1  0  0  0  0
 33 51  1  0  0  0  0
 34 52  1  0  0  0  0
M  END
> <PUBCHEM_COMPOUND_CID>
11853799

> <PUBCHEM_CONFORMER_RMSD>
1

> <PUBCHEM_CONFORMER_DIVERSEORDER>
1
61
64
67
19
25
72
81
68
80
79
14
48
27
23
74
32
65
41
5
35
21
54
22
56
29
13
57
31
78
58
53
6
50
55
7
77
43
30
70
34
20
75
45
47
33
37
24
39
44
10
46
4
62
42
66
26
12
51
28
63
40
60
9
52
76
73
69
49
15
71
59
18
38
16
17
11
36
8
3
2

> <PUBCHEM_MMFF94_PARTIAL_CHARGES>
47
1 -0.19
10 -0.51
11 -0.85
12 -0.56
13 0.03
14 0.43
15 0.31
17 -0.18
18 0.12
19 0.62
2 -0.19
20 -0.14
21 0.72
22 -0.14
23 -0.15
24 0.37
25 -0.15
26 0.19
27 0.19
28 0.14
29 -0.15
3 -0.19
30 0.19
31 0.25
32 -0.15
33 -0.15
34 -0.15
35 0.55
36 0.62
37 0.15
38 0.15
39 0.15
4 -0.57
40 0.4
43 0.15
47 0.15
5 -0.29
50 0.15
51 0.15
52 0.15
53 0.4
54 0.4
55 0.4
6 -0.62
7 -0.62
8 -0.87
9 -0.7

> <PUBCHEM_EFFECTIVE_ROTOR_COUNT>
7

> <PUBCHEM_PHARMACOPHORE_FEATURES>
11
1 10 donor
1 11 donor
1 12 acceptor
1 4 acceptor
1 8 donor
4 6 7 8 21 cation
4 9 10 11 35 cation
6 16 20 23 25 29 30 rings
6 18 26 27 32 33 34 rings
6 5 13 14 17 19 22 rings
6 6 7 13 14 15 21 rings

> <PUBCHEM_HEAVY_ATOM_COUNT>
36

> <PUBCHEM_ATOM_DEF_STEREO_COUNT>
0

> <PUBCHEM_ATOM_UDEF_STEREO_COUNT>
0

> <PUBCHEM_BOND_DEF_STEREO_COUNT>
0

> <PUBCHEM_BOND_UDEF_STEREO_COUNT>
0

> <PUBCHEM_ISOTOPIC_ATOM_COUNT>
0

> <PUBCHEM_COMPONENT_COUNT>
1

> <PUBCHEM_CACTVS_TAUTO_COUNT>
12

> <PUBCHEM_CONFORMER_ID>
00B4DFE700000001

> <PUBCHEM_MMFF94_ENERGY>
133.0987

> <PUBCHEM_FEATURE_SELFOVERLAP>
55.896

> <PUBCHEM_SHAPE_FINGERPRINT>
102385 1 18264764536142971401
1100329 8 18335975437713341201
11488393 25 18050282867004387447
13690498 29 18341626867546130086
13911987 19 17828746358175689461
14790565 3 17257369644369865818
15876981 60 18259989262732621646
1813 80 18269003161540920271
19958102 18 17835517125257039030
20101258 96 18334574689615971547
23569943 247 17836950140742018854
5385378 56 17543352009185181883
6700243 42 17841751510916395270
70251023 43 18120089735091923371

> <PUBCHEM_SHAPE_MULTIPOLES>
673.32
10.82
9.95
1.72
5.1
1.06
0.51
-18.7
-1.56
-13.88
2.22
-0.6
-0.59
1.05

> <PUBCHEM_SHAPE_SELFOVERLAP>
1474.061

> <PUBCHEM_SHAPE_VOLUME>
362.5

> <PUBCHEM_COORDINATE_TYPE>
2
5
10

$$$$
