REMARK  Name = 11853799
REMARK  7 active torsions:
REMARK  status: ('A' for Active; 'I' for Inactive)
REMARK    1  A    between atoms: N_2  and  C_16
REMARK    2  A    between atoms: N_5  and  C_30
REMARK    3  A    between atoms: C_8  and  C_23
REMARK    4  A    between atoms: C_30  and  C_31
REMARK    5  A    between atoms: C_31  and  N_32
REMARK    6  A    between atoms: N_32  and  C_35
REMARK    7  A    between atoms: N_33  and  C_40
REMARK                            x       y       z     vdW  Elec       q    Type
REMARK                         _______ _______ _______ _____ _____    ______ ____
ROOT
ATOM      1  O   UNL     1      -3.063   4.013  -0.809  0.00  0.00    -0.269 OA
ATOM      2  N   UNL     1      -1.349   2.524  -0.203  0.00  0.00    -0.206 N 
ATOM      3  N   UNL     1       0.311   0.826   0.344  0.00  0.00    -0.316 NA
ATOM      4  N   UNL     1      -0.318  -1.482   0.594  0.00  0.00    -0.332 NA
ATOM      5  N   UNL     1       1.909  -0.809   0.870  0.00  0.00    -0.257 N 
ATOM      6  C   UNL     1      -1.968   0.188   0.042  0.00  0.00    +0.144 C 
ATOM      7  C   UNL     1      -0.978   1.163   0.089  0.00  0.00    +0.194 C 
ATOM      8  C   UNL     1      -1.582  -1.117   0.310  0.00  0.00    +0.134 C 
ATOM      9  C   UNL     1      -3.337   0.519  -0.305  0.00  0.00    -0.006 C 
ATOM     10  C   UNL     1      -2.660   2.874  -0.566  0.00  0.00    +0.258 C 
ATOM     11  C   UNL     1       0.567  -0.474   0.589  0.00  0.00    +0.200 C 
ATOM     12  C   UNL     1      -3.663   1.776  -0.606  0.00  0.00    +0.055 C 
ATOM     13  H   UNL     1       2.131  -1.751   1.054  0.00  0.00    +0.160 HD
ENDROOT
BRANCH   2  16
ATOM     14  F   UNL     1       0.208   3.207  -2.419  0.00  0.00    -0.203 F 
ATOM     15  F   UNL     1      -0.822   3.910   2.165  0.00  0.00    -0.203 F 
ATOM     16  C   UNL     1      -0.330   3.534  -0.129  0.00  0.00    +0.115 C 
ATOM     17  C   UNL     1       0.423   3.843  -1.259  0.00  0.00    +0.156 C 
ATOM     18  C   UNL     1      -0.100   4.200   1.073  0.00  0.00    +0.156 C 
ATOM     19  C   UNL     1       1.412   4.824  -1.187  0.00  0.00    +0.031 C 
ATOM     20  C   UNL     1       0.889   5.181   1.145  0.00  0.00    +0.031 C 
ATOM     21  C   UNL     1       1.645   5.493   0.015  0.00  0.00    +0.005 C 
ENDBRANCH   2  16
BRANCH   8  23
ATOM     22  F   UNL     1      -5.124  -5.426   0.374  0.00  0.00    -0.204 F 
ATOM     23  C   UNL     1      -2.498  -2.239   0.307  0.00  0.00    +0.023 C 
ATOM     24  C   UNL     1      -2.736  -2.972  -0.856  0.00  0.00    -0.017 C 
ATOM     25  C   UNL     1      -3.148  -2.584   1.493  0.00  0.00    +0.004 C 
ATOM     26  C   UNL     1      -3.623  -4.048  -0.834  0.00  0.00    +0.025 C 
ATOM     27  C   UNL     1      -2.059  -2.633  -2.145  0.00  0.00    +0.031 C 
ATOM     28  C   UNL     1      -4.035  -3.660   1.515  0.00  0.00    +0.030 C 
ATOM     29  C   UNL     1      -4.273  -4.392   0.352  0.00  0.00    +0.140 C 
ENDBRANCH   8  23
BRANCH   5  30
ATOM     30  C   UNL     1       2.961   0.159   0.900  0.00  0.00    +0.125 C 
BRANCH  30  31
ATOM     31  C   UNL     1       4.276  -0.500   1.280  0.00  0.00    +0.150 C 
BRANCH  31  32
ATOM     32  N   UNL     1       4.624  -1.515   0.282  0.00  0.00    -0.237 NA
BRANCH  32  35
ATOM     33  N   UNL     1       6.130  -3.176  -0.461  0.00  0.00    -0.264 N 
ATOM     34  N   UNL     1       6.625  -2.035   1.500  0.00  0.00    -0.369 N 
ATOM     35  C   UNL     1       5.722  -2.165   0.474  0.00  0.00    +0.204 C 
ATOM     36  H   UNL     1       6.964  -3.682  -0.336  0.00  0.00    +0.181 HD
ATOM     37  H   UNL     1       6.467  -1.376   2.214  0.00  0.00    +0.159 HD
ATOM     38  H   UNL     1       7.429  -2.602   1.523  0.00  0.00    +0.159 HD
BRANCH  33  40
ATOM     39  N   UNL     1       4.637  -3.603  -2.423  0.00  0.00    -0.171 NA
ATOM     40  C   UNL     1       5.326  -3.401  -1.511  0.00  0.00    +0.184 C 
ENDBRANCH  33  40
ENDBRANCH  32  35
ENDBRANCH  31  32
ENDBRANCH  30  31
ENDBRANCH   5  30
TORSDOF 7
