REMARK  Name = 118663155
REMARK  6 active torsions:
REMARK  status: ('A' for Active; 'I' for Inactive)
REMARK    1  A    between atoms: C_2  and  C_10
REMARK    2  A    between atoms: C_3  and  C_20
REMARK    3  A    between atoms: N_9  and  C_13
REMARK    4  A    between atoms: C_14  and  O_18
REMARK    5  A    between atoms: C_20  and  C_21
REMARK    6  A    between atoms: C_24  and  C_29
REMARK                            x       y       z     vdW  Elec       q    Type
REMARK                         _______ _______ _______ _____ _____    ______ ____
ROOT
ATOM      1  N   UNL     1       2.269  -1.722  -0.749  0.00  0.00    -0.240 NA
ATOM      2  C   UNL     1       1.660  -0.916   0.149  0.00  0.00    +0.134 C 
ATOM      3  C   UNL     1      -0.235  -2.342   0.328  0.00  0.00    -0.019 C 
ATOM      4  C   UNL     1       0.421  -1.178   0.712  0.00  0.00    +0.020 C 
ATOM      5  C   UNL     1       0.359  -3.197  -0.594  0.00  0.00    -0.006 C 
ATOM      6  C   UNL     1       1.601  -2.845  -1.098  0.00  0.00    +0.094 C 
ATOM      7  C   UNL     1      -0.299  -4.456  -1.040  0.00  0.00    +0.032 C 
ENDROOT
BRANCH   2  10
ATOM      8  O   UNL     1       1.923   1.081   1.349  0.00  0.00    -0.268 OA
ATOM      9  N   UNL     1       3.635   0.482  -0.095  0.00  0.00    -0.299 N 
ATOM     10  C   UNL     1       2.407   0.312   0.522  0.00  0.00    +0.264 C 
ATOM     11  H   UNL     1       3.936  -0.192  -0.746  0.00  0.00    +0.150 HD
BRANCH   9  13
ATOM     12  O   UNL     1       7.281   0.901  -0.084  0.00  0.00    -0.351 OA
ATOM     13  C   UNL     1       4.492   1.614   0.182  0.00  0.00    +0.104 C 
ATOM     14  C   UNL     1       5.320   1.987  -1.052  0.00  0.00    +0.158 C 
ATOM     15  C   UNL     1       5.399   1.332   1.384  0.00  0.00    +0.054 C 
ATOM     16  C   UNL     1       6.491   1.028  -1.268  0.00  0.00    +0.173 C 
ATOM     17  C   UNL     1       6.533   0.383   1.014  0.00  0.00    +0.144 C 
BRANCH  14  18
ATOM     18  O   UNL     1       5.830   3.308  -0.864  0.00  0.00    -0.380 OA
ATOM     19  H   UNL     1       5.093   3.923  -0.726  0.00  0.00    +0.211 HD
ENDBRANCH  14  18
ENDBRANCH   9  13
ENDBRANCH   2  10
BRANCH   3  20
ATOM     20  C   UNL     1      -1.572  -2.653   0.916  0.00  0.00    +0.052 C 
BRANCH  20  21
ATOM     21  C   UNL     1      -2.626  -1.602   0.634  0.00  0.00    -0.018 C 
ATOM     22  C   UNL     1      -3.304  -0.993   1.690  0.00  0.00    -0.004 C 
ATOM     23  C   UNL     1      -2.918  -1.243  -0.682  0.00  0.00    -0.004 C 
ATOM     24  C   UNL     1      -4.567   0.333   0.115  0.00  0.00    +0.014 C 
ATOM     25  C   UNL     1      -4.274  -0.026   1.430  0.00  0.00    +0.001 C 
ATOM     26  C   UNL     1      -3.889  -0.275  -0.942  0.00  0.00    +0.001 C 
BRANCH  24  29
ATOM     27  S   UNL     1      -7.076   3.353   0.079  0.00  0.00    -0.108 S 
ATOM     28  N   UNL     1      -6.318   1.309  -1.310  0.00  0.00    -0.262 NA
ATOM     29  C   UNL     1      -5.565   1.330  -0.152  0.00  0.00    +0.066 C 
ATOM     30  C   UNL     1      -5.833   2.363   0.722  0.00  0.00    +0.105 C 
ATOM     31  C   UNL     1      -7.148   2.328  -1.296  0.00  0.00    +0.183 C 
ENDBRANCH  24  29
ENDBRANCH  20  21
ENDBRANCH   3  20
TORSDOF 6
