118663155
  -OEChem-03292013293D

 52 55  0     1  0  0  0  0  0999 V2000
   -7.0764    3.3532    0.0787 S   0  0  0  0  0  0  0  0  0  0  0  0
    7.2811    0.9010   -0.0843 O   0  0  0  0  0  0  0  0  0  0  0  0
    5.8305    3.3082   -0.8635 O   0  0  0  0  0  0  0  0  0  0  0  0
    1.9235    1.0812    1.3493 O   0  0  0  0  0  0  0  0  0  0  0  0
    3.6354    0.4822   -0.0952 N   0  0  0  0  0  0  0  0  0  0  0  0
    2.2686   -1.7221   -0.7491 N   0  0  0  0  0  0  0  0  0  0  0  0
   -6.3183    1.3086   -1.3096 N   0  0  0  0  0  0  0  0  0  0  0  0
    4.4917    1.6138    0.1817 C   0  0  2  0  0  0  0  0  0  0  0  0
    5.3203    1.9872   -1.0524 C   0  0  2  0  0  0  0  0  0  0  0  0
    5.3993    1.3320    1.3841 C   0  0  0  0  0  0  0  0  0  0  0  0
    6.4909    1.0285   -1.2679 C   0  0  0  0  0  0  0  0  0  0  0  0
    6.5333    0.3833    1.0139 C   0  0  0  0  0  0  0  0  0  0  0  0
    2.4072    0.3124    0.5225 C   0  0  0  0  0  0  0  0  0  0  0  0
    1.6597   -0.9160    0.1494 C   0  0  0  0  0  0  0  0  0  0  0  0
   -0.2352   -2.3422    0.3281 C   0  0  0  0  0  0  0  0  0  0  0  0
    0.4209   -1.1779    0.7120 C   0  0  0  0  0  0  0  0  0  0  0  0
   -1.5716   -2.6529    0.9158 C   0  0  0  0  0  0  0  0  0  0  0  0
    0.3593   -3.1968   -0.5937 C   0  0  0  0  0  0  0  0  0  0  0  0
   -2.6255   -1.6016    0.6336 C   0  0  0  0  0  0  0  0  0  0  0  0
    1.6007   -2.8445   -1.0981 C   0  0  0  0  0  0  0  0  0  0  0  0
   -0.2990   -4.4557   -1.0402 C   0  0  0  0  0  0  0  0  0  0  0  0
   -3.3036   -0.9931    1.6898 C   0  0  0  0  0  0  0  0  0  0  0  0
   -2.9179   -1.2426   -0.6822 C   0  0  0  0  0  0  0  0  0  0  0  0
   -4.5667    0.3334    0.1145 C   0  0  0  0  0  0  0  0  0  0  0  0
   -4.2740   -0.0257    1.4303 C   0  0  0  0  0  0  0  0  0  0  0  0
   -3.8886   -0.2751   -0.9417 C   0  0  0  0  0  0  0  0  0  0  0  0
   -5.5649    1.3304   -0.1521 C   0  0  0  0  0  0  0  0  0  0  0  0
   -5.8326    2.3630    0.7220 C   0  0  0  0  0  0  0  0  0  0  0  0
   -7.1482    2.3279   -1.2956 C   0  0  0  0  0  0  0  0  0  0  0  0
    3.8439    2.4581    0.4508 H   0  0  0  0  0  0  0  0  0  0  0  0
    4.6974    2.0074   -1.9541 H   0  0  0  0  0  0  0  0  0  0  0  0
    4.8286    0.9224    2.2251 H   0  0  0  0  0  0  0  0  0  0  0  0
    5.8365    2.2818    1.7174 H   0  0  0  0  0  0  0  0  0  0  0  0
    7.1531    1.4159   -2.0492 H   0  0  0  0  0  0  0  0  0  0  0  0
    6.1475    0.0356   -1.5794 H   0  0  0  0  0  0  0  0  0  0  0  0
    7.2180    0.2772    1.8614 H   0  0  0  0  0  0  0  0  0  0  0  0
    6.1602   -0.6171    0.7655 H   0  0  0  0  0  0  0  0  0  0  0  0
    3.9714   -0.2383   -0.7282 H   0  0  0  0  0  0  0  0  0  0  0  0
    5.0697    3.9094   -0.7904 H   0  0  0  0  0  0  0  0  0  0  0  0
   -0.0258   -0.5038    1.4359 H   0  0  0  0  0  0  0  0  0  0  0  0
   -1.4365   -2.7649    2.0006 H   0  0  0  0  0  0  0  0  0  0  0  0
   -1.9831   -3.6130    0.5888 H   0  0  0  0  0  0  0  0  0  0  0  0
    2.1185   -3.4676   -1.8207 H   0  0  0  0  0  0  0  0  0  0  0  0
   -0.4472   -5.1373   -0.1963 H   0  0  0  0  0  0  0  0  0  0  0  0
   -1.2600   -4.2446   -1.5206 H   0  0  0  0  0  0  0  0  0  0  0  0
    0.3137   -4.9885   -1.7763 H   0  0  0  0  0  0  0  0  0  0  0  0
   -3.0889   -1.2656    2.7196 H   0  0  0  0  0  0  0  0  0  0  0  0
   -2.4048   -1.7113   -1.5175 H   0  0  0  0  0  0  0  0  0  0  0  0
   -4.7929    0.4128    2.2788 H   0  0  0  0  0  0  0  0  0  0  0  0
   -4.0967   -0.0097   -1.9754 H   0  0  0  0  0  0  0  0  0  0  0  0
   -5.3801    2.6058    1.6735 H   0  0  0  0  0  0  0  0  0  0  0  0
   -7.8416    2.5161   -2.1037 H   0  0  0  0  0  0  0  0  0  0  0  0
  1 28  1  0  0  0  0
  1 29  1  0  0  0  0
  2 11  1  0  0  0  0
  2 12  1  0  0  0  0
  3  9  1  0  0  0  0
  3 39  1  0  0  0  0
  4 13  2  0  0  0  0
  5  8  1  0  0  0  0
  5 13  1  0  0  0  0
  5 38  1  0  0  0  0
  6 14  2  0  0  0  0
  6 20  1  0  0  0  0
  7 27  1  0  0  0  0
  7 29  2  0  0  0  0
  8  9  1  0  0  0  0
  8 10  1  0  0  0  0
  8 30  1  0  0  0  0
  9 11  1  0  0  0  0
  9 31  1  0  0  0  0
 10 12  1  0  0  0  0
 10 32  1  0  0  0  0
 10 33  1  0  0  0  0
 11 34  1  0  0  0  0
 11 35  1  0  0  0  0
 12 36  1  0  0  0  0
 12 37  1  0  0  0  0
 13 14  1  0  0  0  0
 14 16  1  0  0  0  0
 15 16  2  0  0  0  0
 15 17  1  0  0  0  0
 15 18  1  0  0  0  0
 16 40  1  0  0  0  0
 17 19  1  0  0  0  0
 17 41  1  0  0  0  0
 17 42  1  0  0  0  0
 18 20  2  0  0  0  0
 18 21  1  0  0  0  0
 19 22  2  0  0  0  0
 19 23  1  0  0  0  0
 20 43  1  0  0  0  0
 21 44  1  0  0  0  0
 21 45  1  0  0  0  0
 21 46  1  0  0  0  0
 22 25  1  0  0  0  0
 22 47  1  0  0  0  0
 23 26  2  0  0  0  0
 23 48  1  0  0  0  0
 24 25  2  0  0  0  0
 24 26  1  0  0  0  0
 24 27  1  0  0  0  0
 25 49  1  0  0  0  0
 26 50  1  0  0  0  0
 27 28  2  0  0  0  0
 28 51  1  0  0  0  0
 29 52  1  0  0  0  0
M  END
> <PUBCHEM_COMPOUND_CID>
118663155

> <PUBCHEM_CONFORMER_RMSD>
1

> <PUBCHEM_CONFORMER_DIVERSEORDER>
3
19
94
47
43
91
27
62
44
15
29
34
68
33
52
41
78
13
69
11
28
10
18
59
53
37
87
50
42
16
66
84
56
35
55
63
6
21
73
30
40
25
67
77
90
23
26
61
45
17
7
80
46
65
88
70
60
39
38
93
1
89
24
12
79
92
58
85
36
2
20
14
54
72
74
57
48
22
83
8
5
64
75
82
81
86
49
51
31
9
76
71
32
4

> <PUBCHEM_MMFF94_PARTIAL_CHARGES>
38
1 -0.08
11 0.28
12 0.28
13 0.54
14 0.4
15 -0.14
16 -0.15
17 0.29
18 -0.14
19 -0.14
2 -0.56
20 0.16
21 0.14
22 -0.15
23 -0.15
24 0.05
25 -0.15
26 -0.15
27 0.17
28 -0.11
29 0.23
3 -0.68
38 0.37
39 0.4
4 -0.57
40 0.15
43 0.15
47 0.15
48 0.15
49 0.15
5 -0.73
50 0.15
51 0.15
52 0.15
6 -0.62
7 -0.57
8 0.3
9 0.28

> <PUBCHEM_EFFECTIVE_ROTOR_COUNT>
7.2

> <PUBCHEM_PHARMACOPHORE_FEATURES>
11
1 2 acceptor
1 3 acceptor
1 3 donor
1 4 acceptor
1 5 donor
1 6 acceptor
1 7 acceptor
5 1 7 27 28 29 rings
6 19 22 23 24 25 26 rings
6 2 8 9 10 11 12 rings
6 6 14 15 16 18 20 rings

> <PUBCHEM_HEAVY_ATOM_COUNT>
29

> <PUBCHEM_ATOM_DEF_STEREO_COUNT>
2

> <PUBCHEM_ATOM_UDEF_STEREO_COUNT>
0

> <PUBCHEM_BOND_DEF_STEREO_COUNT>
0

> <PUBCHEM_BOND_UDEF_STEREO_COUNT>
0

> <PUBCHEM_ISOTOPIC_ATOM_COUNT>
0

> <PUBCHEM_COMPONENT_COUNT>
1

> <PUBCHEM_CACTVS_TAUTO_COUNT>
30

> <PUBCHEM_CONFORMER_ID>
0712A7F300000003

> <PUBCHEM_MMFF94_ENERGY>
69.3209

> <PUBCHEM_FEATURE_SELFOVERLAP>
55.826

> <PUBCHEM_SHAPE_FINGERPRINT>
105312 117 18341333404661269574
11475781 23 17989207075510246532
11763715 3 17039239177539767966
1200032 147 18336267847285943233
12422481 6 17821449084032174924
12975358 362 17822871766670892789
13540713 4 18264228958158708547
13944108 23 18195526987308330729
13947930 73 10591456422610389045
14251764 30 9583517607630583053
14294032 229 18270124651207368387
14747282 540 18260551069835495772
14904385 31 18261674792383354845
14931854 50 17775002350100536321
15183329 4 16415485947749918348
15198563 99 17839455936685824407
15324884 4 17972916629518677275
15439362 3 18341332175973809063
15510800 12 11599419422660554685
15803439 3 16988842791381145591
16120349 189 18335701671680460439
17780758 139 11530473429291119951
17899979 129 18198911305889134751
18608769 82 18340209704489761235
19053607 189 18267292154392958217
19302320 297 18259711090059097709
19438510 23 18187647977430397273
20567600 70 9007054664730568036
20715895 44 18412266134264036294
21033648 144 18261667079148995055
21033650 10 14548467886511859635
21279426 13 18130521794506218574
21298829 104 18341332193860605441
21344244 78 13984671304773354775
2260408 40 14562807694857750473
23191077 185 18265605675179989946
23522609 53 17241621683681528878
24771293 8 18114461172683552637
270888 7 18335419045984784353
2748736 6 18408599262595571869
2838139 119 18340763844525929994
3388396 114 17916865708350904609
3862424 121 13756918586698070357
393628 179 18272074015965882600
393628 194 18334859403331170805
4015057 19 15553888935394690890
4058900 60 18410580552362656291
4144715 1 17896613966934718994
4330586 98 13398335941214154604
4756326 101 16485818417055651874
5104073 3 11460073937737704094
5372103 7 17750496418340954021
5718773 13 10231748977480260445
57724786 102 18187639176499348146
59682541 52 16845576370515649604
6327066 14 18408882945300965151
636775 8 8646502847186375320
6431902 208 9511195018316184744
7288768 16 18186522099146376291
9980921 52 14546797646787120812

> <PUBCHEM_SHAPE_MULTIPOLES>
568.1
20.19
4.46
1.42
1.62
2.39
-0.1
-27.29
2.97
-1.3
1.37
-0.14
-0.02
0.66

> <PUBCHEM_SHAPE_SELFOVERLAP>
1219.068

> <PUBCHEM_SHAPE_VOLUME>
317

> <PUBCHEM_COORDINATE_TYPE>
2
5
10

$$$$
