118701210
  -OEChem-03292013293D

 68 72  0     1  0  0  0  0  0999 V2000
   -1.9344   -2.8809   -0.9820 O   0  0  0  0  0  0  0  0  0  0  0  0
    0.0842    1.4837   -1.6834 O   0  0  0  0  0  0  0  0  0  0  0  0
   -2.5329   -2.6043    1.2910 O   0  0  0  0  0  0  0  0  0  0  0  0
    0.1868   -2.1392    1.9158 O   0  0  0  0  0  0  0  0  0  0  0  0
    2.8947   -0.2969   -0.5470 O   0  0  0  0  0  0  0  0  0  0  0  0
   -4.5704    0.9669    1.6294 O   0  0  0  0  0  0  0  0  0  0  0  0
    2.1129    2.1637   -1.0261 O   0  0  0  0  0  0  0  0  0  0  0  0
   -1.9296    1.3555    3.2201 O   0  0  0  0  0  0  0  0  0  0  0  0
    3.2219    0.9130    1.3896 O   0  0  0  0  0  0  0  0  0  0  0  0
   -0.7732   -0.8292   -1.3486 C   0  0  2  0  0  0  0  0  0  0  0  0
   -1.5408   -0.7557   -0.0127 C   0  0  1  0  0  0  0  0  0  0  0  0
   -2.9268    0.0404   -0.0074 C   0  0  2  0  0  0  0  0  0  0  0  0
    0.7302   -1.2274   -1.1183 C   0  0  2  0  0  0  0  0  0  0  0  0
   -1.5909   -2.2736    0.2835 C   0  0  2  0  0  0  0  0  0  0  0  0
   -0.8066    0.4528   -2.1687 C   0  0  1  0  0  0  0  0  0  0  0  0
   -2.8264    1.3711   -0.8504 C   0  0  2  0  0  0  0  0  0  0  0  0
    0.8577   -2.6136   -0.3977 C   0  0  2  0  0  0  0  0  0  0  0  0
   -1.4826   -2.0080   -2.0367 C   0  0  0  0  0  0  0  0  0  0  0  0
   -0.1992   -2.7989    0.7113 C   0  0  1  0  0  0  0  0  0  0  0  0
   -2.2001    1.0837   -2.2373 C   0  0  0  0  0  0  0  0  0  0  0  0
    1.4894   -0.0783   -0.4511 C   0  0  2  0  0  0  0  0  0  0  0  0
   -3.2736    0.4016    1.4735 C   0  0  1  0  0  0  0  0  0  0  0  0
   -4.1310   -0.7705   -0.5642 C   0  0  0  0  0  0  0  0  0  0  0  0
   -2.1839    2.5504   -0.1140 C   0  0  0  0  0  0  0  0  0  0  0  0
    2.2643   -2.9853    0.0759 C   0  0  0  0  0  0  0  0  0  0  0  0
    1.2764    1.2655   -1.0985 C   0  0  0  0  0  0  0  0  0  0  0  0
   -2.3143    1.4150    2.0543 C   0  0  0  0  0  0  0  0  0  0  0  0
   -1.9038    2.5468    1.1984 C   0  0  0  0  0  0  0  0  0  0  0  0
   -1.9614    3.8222   -0.8951 C   0  0  0  0  0  0  0  0  0  0  0  0
    3.6512    0.2589    0.4480 C   0  0  0  0  0  0  0  0  0  0  0  0
    5.1218   -0.0294    0.1980 C   0  0  1  0  0  0  0  0  0  0  0  0
    6.0141    1.1070    0.7179 C   0  0  0  0  0  0  0  0  0  0  0  0
    5.4743   -1.3508    0.8751 C   0  0  0  0  0  0  0  0  0  0  0  0
    5.7019    2.4439    0.0577 C   0  0  0  0  0  0  0  0  0  0  0  0
   -0.9266   -0.2497    0.7332 H   0  0  0  0  0  0  0  0  0  0  0  0
    1.1926   -1.3709   -2.1080 H   0  0  0  0  0  0  0  0  0  0  0  0
   -0.4819    0.2420   -3.1957 H   0  0  0  0  0  0  0  0  0  0  0  0
   -3.8527    1.7154   -1.0511 H   0  0  0  0  0  0  0  0  0  0  0  0
    0.6232   -3.3670   -1.1637 H   0  0  0  0  0  0  0  0  0  0  0  0
   -2.3474   -1.7196   -2.6356 H   0  0  0  0  0  0  0  0  0  0  0  0
   -0.8276   -2.5714   -2.7101 H   0  0  0  0  0  0  0  0  0  0  0  0
   -0.2683   -3.8672    0.9504 H   0  0  0  0  0  0  0  0  0  0  0  0
   -2.8712    0.4337   -2.8090 H   0  0  0  0  0  0  0  0  0  0  0  0
   -2.1465    2.0120   -2.8190 H   0  0  0  0  0  0  0  0  0  0  0  0
    1.1876    0.0459    0.5884 H   0  0  0  0  0  0  0  0  0  0  0  0
   -3.2385   -0.4920    2.1023 H   0  0  0  0  0  0  0  0  0  0  0  0
   -4.3481   -1.6594    0.0330 H   0  0  0  0  0  0  0  0  0  0  0  0
   -3.9980   -1.0863   -1.5977 H   0  0  0  0  0  0  0  0  0  0  0  0
   -5.0481   -0.1687   -0.5563 H   0  0  0  0  0  0  0  0  0  0  0  0
    2.2845   -4.0291    0.4094 H   0  0  0  0  0  0  0  0  0  0  0  0
    2.5891   -2.3751    0.9221 H   0  0  0  0  0  0  0  0  0  0  0  0
    2.9853   -2.8934   -0.7419 H   0  0  0  0  0  0  0  0  0  0  0  0
   -2.3005   -3.4723    1.6602 H   0  0  0  0  0  0  0  0  0  0  0  0
    0.5431   -1.2636    1.7228 H   0  0  0  0  0  0  0  0  0  0  0  0
   -1.4455    3.3953    1.6947 H   0  0  0  0  0  0  0  0  0  0  0  0
   -4.7535    1.0275    2.5827 H   0  0  0  0  0  0  0  0  0  0  0  0
   -1.1519    3.7142   -1.6210 H   0  0  0  0  0  0  0  0  0  0  0  0
   -1.7015    4.6649   -0.2447 H   0  0  0  0  0  0  0  0  0  0  0  0
   -2.8759    4.1001   -1.4298 H   0  0  0  0  0  0  0  0  0  0  0  0
    5.2820   -0.1190   -0.8840 H   0  0  0  0  0  0  0  0  0  0  0  0
    5.9038    1.2145    1.8040 H   0  0  0  0  0  0  0  0  0  0  0  0
    7.0653    0.8586    0.5276 H   0  0  0  0  0  0  0  0  0  0  0  0
    5.2023   -1.3434    1.9363 H   0  0  0  0  0  0  0  0  0  0  0  0
    4.9516   -2.1861    0.4028 H   0  0  0  0  0  0  0  0  0  0  0  0
    6.5477   -1.5540    0.7989 H   0  0  0  0  0  0  0  0  0  0  0  0
    5.7731    2.3689   -1.0321 H   0  0  0  0  0  0  0  0  0  0  0  0
    6.4204    3.2002    0.3904 H   0  0  0  0  0  0  0  0  0  0  0  0
    4.7026    2.8062    0.3141 H   0  0  0  0  0  0  0  0  0  0  0  0
  1 14  1  0  0  0  0
  1 18  1  0  0  0  0
  2 15  1  0  0  0  0
  2 26  1  0  0  0  0
  3 14  1  0  0  0  0
  3 53  1  0  0  0  0
  4 19  1  0  0  0  0
  4 54  1  0  0  0  0
  5 21  1  0  0  0  0
  5 30  1  0  0  0  0
  6 22  1  0  0  0  0
  6 56  1  0  0  0  0
  7 26  2  0  0  0  0
  8 27  2  0  0  0  0
  9 30  2  0  0  0  0
 10 11  1  0  0  0  0
 10 13  1  0  0  0  0
 10 15  1  0  0  0  0
 10 18  1  0  0  0  0
 11 12  1  0  0  0  0
 11 14  1  0  0  0  0
 11 35  1  0  0  0  0
 12 16  1  0  0  0  0
 12 22  1  0  0  0  0
 12 23  1  0  0  0  0
 13 17  1  0  0  0  0
 13 21  1  0  0  0  0
 13 36  1  0  0  0  0
 14 19  1  0  0  0  0
 15 20  1  0  0  0  0
 15 37  1  0  0  0  0
 16 20  1  0  0  0  0
 16 24  1  0  0  0  0
 16 38  1  0  0  0  0
 17 19  1  0  0  0  0
 17 25  1  0  0  0  0
 17 39  1  0  0  0  0
 18 40  1  0  0  0  0
 18 41  1  0  0  0  0
 19 42  1  0  0  0  0
 20 43  1  0  0  0  0
 20 44  1  0  0  0  0
 21 26  1  0  0  0  0
 21 45  1  0  0  0  0
 22 27  1  0  0  0  0
 22 46  1  0  0  0  0
 23 47  1  0  0  0  0
 23 48  1  0  0  0  0
 23 49  1  0  0  0  0
 24 28  2  0  0  0  0
 24 29  1  0  0  0  0
 25 50  1  0  0  0  0
 25 51  1  0  0  0  0
 25 52  1  0  0  0  0
 27 28  1  0  0  0  0
 28 55  1  0  0  0  0
 29 57  1  0  0  0  0
 29 58  1  0  0  0  0
 29 59  1  0  0  0  0
 30 31  1  0  0  0  0
 31 32  1  0  0  0  0
 31 33  1  0  0  0  0
 31 60  1  0  0  0  0
 32 34  1  0  0  0  0
 32 61  1  0  0  0  0
 32 62  1  0  0  0  0
 33 63  1  0  0  0  0
 33 64  1  0  0  0  0
 33 65  1  0  0  0  0
 34 66  1  0  0  0  0
 34 67  1  0  0  0  0
 34 68  1  0  0  0  0
M  END
> <PUBCHEM_COMPOUND_CID>
118701210

> <PUBCHEM_CONFORMER_RMSD>
0.8

> <PUBCHEM_CONFORMER_DIVERSEORDER>
1
33
15
25
19
28
31
32
16
11
7
22
12
29
26
21
20
23
34
13
14
30
3
35
9
24
8
2
18
5
17
27
10
4
6

> <PUBCHEM_MMFF94_PARTIAL_CHARGES>
27
1 -0.56
14 0.56
15 0.28
16 0.14
18 0.28
19 0.28
2 -0.43
21 0.34
22 0.34
24 -0.28
26 0.66
27 0.49
28 -0.14
29 0.14
3 -0.68
30 0.66
31 0.06
4 -0.68
5 -0.43
53 0.4
54 0.4
55 0.15
56 0.4
6 -0.68
7 -0.57
8 -0.57
9 -0.57

> <PUBCHEM_EFFECTIVE_ROTOR_COUNT>
5.6

> <PUBCHEM_PHARMACOPHORE_FEATURES>
16
1 1 acceptor
1 3 acceptor
1 3 donor
1 33 hydrophobe
1 34 hydrophobe
1 4 acceptor
1 4 donor
1 6 acceptor
1 6 donor
1 7 acceptor
1 8 acceptor
1 9 acceptor
6 10 11 12 15 16 20 rings
6 12 16 22 24 27 28 rings
6 2 10 13 15 21 26 rings
8 1 10 11 13 14 17 18 19 rings

> <PUBCHEM_HEAVY_ATOM_COUNT>
34

> <PUBCHEM_ATOM_DEF_STEREO_COUNT>
9

> <PUBCHEM_ATOM_UDEF_STEREO_COUNT>
3

> <PUBCHEM_BOND_DEF_STEREO_COUNT>
0

> <PUBCHEM_BOND_UDEF_STEREO_COUNT>
0

> <PUBCHEM_ISOTOPIC_ATOM_COUNT>
0

> <PUBCHEM_COMPONENT_COUNT>
1

> <PUBCHEM_CACTVS_TAUTO_COUNT>
10

> <PUBCHEM_CONFORMER_ID>
07133C9A00000001

> <PUBCHEM_MMFF94_ENERGY>
127.3226

> <PUBCHEM_FEATURE_SELFOVERLAP>
81.454

> <PUBCHEM_SHAPE_FINGERPRINT>
10863032 1 18195521494213048415
11552529 35 18127402578644164646
11578080 2 18120370961356273033
12156800 1 17195500485682981561
12597179 24 17025418995199299413
12633257 1 18261405458824846440
13140716 1 18190186869568536967
13965767 371 17839209332294777561
13994607 96 17703793647278582456
14142880 1 18343026605581503273
14713325 29 17845933034719115326
14856354 85 18336554919085036436
15021287 119 17894627042592372740
15163728 17 16342598157660311650
16945 1 18262256451255996015
20764821 26 17845085345808848816
21756936 100 17632292354964035544
23419403 2 17338967039782620469
35225 105 18271792532282315600
392239 28 18129677408061851211
460360 51 18191866713352165494
4616759 239 17976805804388723896
469060 322 18260266382216809101
484985 159 15213008354335529832
5081480 168 17270897035137624326
5104073 3 18263628693913482848
57527306 92 16988552456203803425
57527585 103 17750532838751578483

> <PUBCHEM_SHAPE_MULTIPOLES>
646.88
9.03
3.82
2.13
15.73
0.21
-0.54
-3.96
-3.03
-0.77
0
-1.91
-0.51
-0.51

> <PUBCHEM_SHAPE_SELFOVERLAP>
1404.326

> <PUBCHEM_SHAPE_VOLUME>
343

> <PUBCHEM_COORDINATE_TYPE>
2
5
10

$$$$
