REMARK  Name = 118705472
REMARK  7 active torsions:
REMARK  status: ('A' for Active; 'I' for Inactive)
REMARK    1  A    between atoms: N_1  and  C_12
REMARK    2  A    between atoms: C_11  and  O_20
REMARK    3  A    between atoms: C_13  and  O_22
REMARK    4  A    between atoms: C_14  and  C_17
REMARK    5  A    between atoms: N_24  and  C_26
REMARK    6  A    between atoms: C_26  and  C_27
REMARK    7  A    between atoms: C_32  and  N_33
REMARK                            x       y       z     vdW  Elec       q    Type
REMARK                         _______ _______ _______ _____ _____    ______ ____
ROOT
ATOM      1  N   UNL     1       1.717   0.451  -0.379  0.00  0.00    -0.247 N 
ATOM      2  N   UNL     1      -0.163  -0.745  -0.317  0.00  0.00    -0.242 NA
ATOM      3  N   UNL     1       0.791   2.692  -0.231  0.00  0.00    -0.228 NA
ATOM      4  N   UNL     1      -1.645   2.636  -0.089  0.00  0.00    -0.228 NA
ATOM      5  C   UNL     1       0.698   1.355  -0.281  0.00  0.00    +0.152 C 
ATOM      6  C   UNL     1       1.151  -0.795  -0.397  0.00  0.00    +0.223 C 
ATOM      7  C   UNL     1      -0.459   0.593  -0.244  0.00  0.00    +0.140 C 
ATOM      8  C   UNL     1      -1.664   1.283  -0.144  0.00  0.00    +0.146 C 
ATOM      9  C   UNL     1      -0.437   3.248  -0.135  0.00  0.00    +0.253 C 
ATOM     10  N   UNL     1      -2.886   0.590  -0.099  0.00  0.00    -0.313 N 
ATOM     11  H   UNL     1      -2.870  -0.393  -0.140  0.00  0.00    +0.149 HD
ENDROOT
BRANCH   1  14
ATOM     12  O   UNL     1       3.882  -0.233  -1.244  0.00  0.00    -0.326 OA
ATOM     13  C   UNL     1       3.879   0.743   0.907  0.00  0.00    +0.187 C 
ATOM     14  C   UNL     1       3.194   0.757  -0.454  0.00  0.00    +0.225 C 
ATOM     15  C   UNL     1       5.318   0.440   0.535  0.00  0.00    +0.178 C 
ATOM     16  C   UNL     1       5.157  -0.505  -0.643  0.00  0.00    +0.222 C 
BRANCH  16  19
ATOM     17  O   UNL     1       4.115  -2.630  -0.362  0.00  0.00    -0.272 OA
ATOM     18  N   UNL     1       6.324  -2.356   0.321  0.00  0.00    -0.301 N 
ATOM     19  C   UNL     1       5.123  -1.941  -0.229  0.00  0.00    +0.252 C 
ATOM     20  C   UNL     1       6.544  -3.693   0.822  0.00  0.00    +0.111 C 
ATOM     21  H   UNL     1       7.064  -1.708   0.374  0.00  0.00    +0.150 HD
ENDBRANCH  16  19
BRANCH  13  22
ATOM     22  O   UNL     1       3.732   1.973   1.587  0.00  0.00    -0.378 OA
ATOM     23  H   UNL     1       2.796   2.116   1.799  0.00  0.00    +0.211 HD
ENDBRANCH  13  22
BRANCH  15  24
ATOM     24  O   UNL     1       5.970   1.626   0.089  0.00  0.00    -0.379 OA
ATOM     25  H   UNL     1       6.077   2.236   0.836  0.00  0.00    +0.211 HD
ENDBRANCH  15  24
ENDBRANCH   1  14
BRANCH  10  26
ATOM     26  C   UNL     1      -4.154   1.249   0.004  0.00  0.00    +0.115 C 
BRANCH  26  27
ATOM     27  C   UNL     1      -5.268   0.241   0.066  0.00  0.00    -0.003 C 
ATOM     28  C   UNL     1      -5.678  -0.418  -1.093  0.00  0.00    -0.001 C 
ATOM     29  C   UNL     1      -5.892  -0.035   1.282  0.00  0.00    -0.001 C 
ATOM     30  C   UNL     1      -6.712  -1.353  -1.036  0.00  0.00    +0.014 C 
ATOM     31  C   UNL     1      -6.925  -0.970   1.340  0.00  0.00    +0.014 C 
ATOM     32  C   UNL     1      -7.335  -1.629   0.181  0.00  0.00    +0.042 C 
BRANCH  32  33
ATOM     33  N   UNL     1      -8.379  -2.575   0.240  0.00  0.00    -0.357 N 
ATOM     34  H   UNL     1      -8.669  -3.040  -0.578  0.00  0.00    +0.142 HD
ATOM     35  H   UNL     1      -8.819  -2.770   1.099  0.00  0.00    +0.142 HD
ENDBRANCH  32  33
ENDBRANCH  26  27
ENDBRANCH  10  26
TORSDOF 7
