REMARK  Name = 118734972
REMARK  8 active torsions:
REMARK  status: ('A' for Active; 'I' for Inactive)
REMARK    1  A    between atoms: C_2  and  C_23
REMARK    2  A    between atoms: C_4  and  C_15
REMARK    3  A    between atoms: C_6  and  C_28
REMARK    4  A    between atoms: C_23  and  C_26
REMARK    5  A    between atoms: C_28  and  C_29
REMARK    6  A    between atoms: C_29  and  C_30
REMARK    7  A    between atoms: C_29  and  O_35
REMARK    8  A    between atoms: C_30  and  O_33
REMARK                            x       y       z     vdW  Elec       q    Type
REMARK                         _______ _______ _______ _____ _____    ______ ____
ROOT
ATOM      1  N   UNK A   1       1.345   0.736   0.405  0.00  0.00    -0.356 N 
ATOM      2  C   UNK A   1       0.146   1.355   0.171  0.00  0.00    +0.037 A 
ATOM      3  C   UNK A   1       1.274  -0.588   0.035  0.00  0.00    +0.052 A 
ATOM      4  C   UNK A   1      -0.716   0.423  -0.357  0.00  0.00    +0.014 A 
ATOM      5  C   UNK A   1      -0.016  -0.812  -0.449  0.00  0.00    +0.016 A 
ATOM      6  C   UNK A   1       2.245  -1.595   0.092  0.00  0.00    -0.004 C 
ATOM      7  C   UNK A   1      -0.358  -2.103  -0.899  0.00  0.00    +0.001 C 
ATOM      8  C   UNK A   1       1.883  -2.868  -0.360  0.00  0.00    -0.003 C 
ATOM      9  C   UNK A   1       0.603  -3.120  -0.849  0.00  0.00    -0.000 C 
ATOM     10  H   UNK A   1       2.142   1.174   0.782  0.00  0.00    +0.166 HD
ENDROOT
BRANCH   4  15
ATOM     11  O   UNK A   1      -4.616   1.428  -1.615  0.00  0.00    -0.269 OA
ATOM     12  O   ALA A   2      -4.122  -2.207   2.283  0.00  0.00    -0.273 OA
ATOM     13  N   UNK A   1      -3.119  -0.763   0.810  0.00  0.00    -0.279 N 
ATOM     14  N   ALA A   2      -5.559  -0.133  -0.223  0.00  0.00    -0.294 N 
ATOM     15  C   UNK A   1      -2.055   0.683  -0.730  0.00  0.00    +0.020 C 
ATOM     16  C   UNK A   1      -3.167   0.121  -0.238  0.00  0.00    +0.104 C 
ATOM     17  CA  ALA A   2      -5.452  -1.412   0.451  0.00  0.00    +0.149 C 
ATOM     18  C   UNK A   1      -4.491   0.529  -0.787  0.00  0.00    +0.260 C 
ATOM     19  C   ALA A   2      -4.204  -1.455   1.310  0.00  0.00    +0.244 C 
ATOM     20  CB  ALA A   2      -5.445  -2.563  -0.547  0.00  0.00    +0.031 C 
ATOM     21  H   UNK A   1      -2.246  -0.916   1.238  0.00  0.00    +0.155 HD
ATOM     22  H   ALA A   2      -6.447   0.287  -0.281  0.00  0.00    +0.150 HD
ENDBRANCH   4  15
BRANCH   2  23
ATOM     23  C   UNK A   1      -0.036   2.787   0.486  0.00  0.00    +0.052 C 
ATOM     24  C   UNK A   1       1.236   3.534   1.038  0.00  0.00    +0.010 C 
ATOM     25  C   UNK A   1      -1.105   2.965   1.622  0.00  0.00    +0.010 C 
BRANCH  23  26
ATOM     26  C   UNK A   1      -0.409   3.607  -0.777  0.00  0.00    -0.021 C 
ATOM     27  C   UNK A   1      -1.507   4.337  -1.010  0.00  0.00    -0.005 C 
ENDBRANCH  23  26
ENDBRANCH   2  23
BRANCH   6  28
ATOM     28  C   UNK A   1       3.644  -1.357   0.615  0.00  0.00    +0.059 C 
BRANCH  28  29
ATOM     29  C   UNK A   1       4.528  -0.631  -0.412  0.00  0.00    +0.139 C 
BRANCH  29  30
ATOM     30  C   UNK A   1       5.817  -0.004   0.176  0.00  0.00    +0.113 C 
ATOM     31  C   UNK A   1       6.629  -0.987   1.024  0.00  0.00    +0.032 C 
ATOM     32  C   UNK A   1       6.708   0.617  -0.904  0.00  0.00    +0.032 C 
BRANCH  30  33
ATOM     33  O   UNK A   1       5.420   1.059   1.056  0.00  0.00    -0.384 OA
ATOM     34  H   UNK A   1       4.852   0.703   1.757  0.00  0.00    +0.210 HD
ENDBRANCH  30  33
ENDBRANCH  29  30
BRANCH  29  35
ATOM     35  O   UNK A   1       4.897  -1.584  -1.417  0.00  0.00    -0.382 OA
ATOM     36  H   UNK A   1       4.097  -1.983  -1.793  0.00  0.00    +0.210 HD
ENDBRANCH  29  35
ENDBRANCH  28  29
ENDBRANCH   6  28
TORSDOF 8
