118701598
  -OEChem-03292013293D

 55 57  0     1  0  0  0  0  0999 V2000
    2.5285    0.0075   -0.0318 O   0  0  0  0  0  0  0  0  0  0  0  0
   -1.5814    0.0515   -0.7374 O   0  0  0  0  0  0  0  0  0  0  0  0
   -3.8422   -1.0311    0.6873 O   0  0  0  0  0  0  0  0  0  0  0  0
   -4.2791    2.3409   -0.3500 O   0  0  0  0  0  0  0  0  0  0  0  0
   -2.0527    2.0865   -1.7242 O   0  0  0  0  0  0  0  0  0  0  0  0
   -2.6587   -0.9315    2.6466 O   0  0  0  0  0  0  0  0  0  0  0  0
    2.9190    1.5692    1.6142 O   0  0  0  0  0  0  0  0  0  0  0  0
    1.3664   -3.0374    0.1055 N   0  0  2  0  0  0  0  0  0  0  0  0
    0.7451   -1.6809    0.1953 C   0  0  1  0  0  0  0  0  0  0  0  0
    1.7812   -0.7851    0.8843 C   0  0  1  0  0  0  0  0  0  0  0  0
    2.7072   -1.7776    1.5708 C   0  0  0  0  0  0  0  0  0  0  0  0
    2.7506   -2.9312    0.5809 C   0  0  0  0  0  0  0  0  0  0  0  0
    0.3069   -1.3312   -1.1906 C   0  0  0  0  0  0  0  0  0  0  0  0
    1.2653   -3.4557   -1.3077 C   0  0  0  0  0  0  0  0  0  0  0  0
    0.6018   -2.3290   -2.0285 C   0  0  0  0  0  0  0  0  0  0  0  0
   -0.3965   -0.0634   -1.5117 C   0  0  0  0  0  0  0  0  0  0  0  0
   -3.5408    1.1682   -0.0594 C   0  0  1  0  0  0  0  0  0  0  0  0
   -3.1914    1.1101    1.4251 C   0  0  1  0  0  0  0  0  0  0  0  0
   -4.4101   -0.0716   -0.2149 C   0  0  1  0  0  0  0  0  0  0  0  0
   -2.3217    1.1835   -0.9436 C   0  0  0  0  0  0  0  0  0  0  0  0
   -3.1724   -0.3776    1.6869 C   0  0  0  0  0  0  0  0  0  0  0  0
   -1.8980    1.7974    1.8340 C   0  0  0  0  0  0  0  0  0  0  0  0
   -4.4959   -0.6650   -1.6126 C   0  0  0  0  0  0  0  0  0  0  0  0
    3.0460    1.1677    0.4662 C   0  0  0  0  0  0  0  0  0  0  0  0
    3.7938    1.8883   -0.6086 C   0  0  0  0  0  0  0  0  0  0  0  0
    3.0555    2.2674   -1.8580 C   0  0  0  0  0  0  0  0  0  0  0  0
    5.0990    2.1113   -0.3677 C   0  0  0  0  0  0  0  0  0  0  0  0
    5.8747    1.7187    0.8497 C   0  0  0  0  0  0  0  0  0  0  0  0
   -0.1326   -1.7855    0.8461 H   0  0  0  0  0  0  0  0  0  0  0  0
    1.2737   -0.1499    1.6209 H   0  0  0  0  0  0  0  0  0  0  0  0
    2.2695   -2.1133    2.5188 H   0  0  0  0  0  0  0  0  0  0  0  0
    3.7075   -1.3783    1.7635 H   0  0  0  0  0  0  0  0  0  0  0  0
    3.4506   -2.6799   -0.2263 H   0  0  0  0  0  0  0  0  0  0  0  0
    3.0835   -3.8611    1.0512 H   0  0  0  0  0  0  0  0  0  0  0  0
    0.6432   -4.3547   -1.3730 H   0  0  0  0  0  0  0  0  0  0  0  0
    2.2350   -3.6821   -1.7642 H   0  0  0  0  0  0  0  0  0  0  0  0
    0.3762   -2.3398   -3.0850 H   0  0  0  0  0  0  0  0  0  0  0  0
   -0.6595   -0.0342   -2.5762 H   0  0  0  0  0  0  0  0  0  0  0  0
    0.2598    0.7874   -1.2990 H   0  0  0  0  0  0  0  0  0  0  0  0
   -4.0114    1.5321    2.0210 H   0  0  0  0  0  0  0  0  0  0  0  0
   -5.4358    0.1287    0.1232 H   0  0  0  0  0  0  0  0  0  0  0  0
   -1.0075    1.2813    1.4621 H   0  0  0  0  0  0  0  0  0  0  0  0
   -1.8113    1.8115    2.9265 H   0  0  0  0  0  0  0  0  0  0  0  0
   -1.8760    2.8348    1.4854 H   0  0  0  0  0  0  0  0  0  0  0  0
   -3.5431   -1.0867   -1.9462 H   0  0  0  0  0  0  0  0  0  0  0  0
   -4.8360    0.0780   -2.3400 H   0  0  0  0  0  0  0  0  0  0  0  0
   -5.2065   -1.4993   -1.6164 H   0  0  0  0  0  0  0  0  0  0  0  0
   -5.0695    2.3582    0.2159 H   0  0  0  0  0  0  0  0  0  0  0  0
    2.7186    1.3742   -2.3933 H   0  0  0  0  0  0  0  0  0  0  0  0
    2.1802    2.8765   -1.6106 H   0  0  0  0  0  0  0  0  0  0  0  0
    3.6872    2.8486   -2.5377 H   0  0  0  0  0  0  0  0  0  0  0  0
    5.6741    2.6354   -1.1289 H   0  0  0  0  0  0  0  0  0  0  0  0
    6.8399    1.3030    0.5410 H   0  0  0  0  0  0  0  0  0  0  0  0
    5.3885    0.9574    1.4639 H   0  0  0  0  0  0  0  0  0  0  0  0
    6.0705    2.5999    1.4681 H   0  0  0  0  0  0  0  0  0  0  0  0
  1 10  1  0  0  0  0
  1 24  1  0  0  0  0
  2 16  1  0  0  0  0
  2 20  1  0  0  0  0
  3 19  1  0  0  0  0
  3 21  1  0  0  0  0
  4 17  1  0  0  0  0
  4 48  1  0  0  0  0
  5 20  2  0  0  0  0
  6 21  2  0  0  0  0
  7 24  2  0  0  0  0
  8  9  1  0  0  0  0
  8 12  1  0  0  0  0
  8 14  1  0  0  0  0
  9 10  1  0  0  0  0
  9 13  1  0  0  0  0
  9 29  1  0  0  0  0
 10 11  1  0  0  0  0
 10 30  1  0  0  0  0
 11 12  1  0  0  0  0
 11 31  1  0  0  0  0
 11 32  1  0  0  0  0
 12 33  1  0  0  0  0
 12 34  1  0  0  0  0
 13 15  2  0  0  0  0
 13 16  1  0  0  0  0
 14 15  1  0  0  0  0
 14 35  1  0  0  0  0
 14 36  1  0  0  0  0
 15 37  1  0  0  0  0
 16 38  1  0  0  0  0
 16 39  1  0  0  0  0
 17 18  1  0  0  0  0
 17 19  1  0  0  0  0
 17 20  1  0  0  0  0
 18 21  1  0  0  0  0
 18 22  1  0  0  0  0
 18 40  1  0  0  0  0
 19 23  1  0  0  0  0
 19 41  1  0  0  0  0
 22 42  1  0  0  0  0
 22 43  1  0  0  0  0
 22 44  1  0  0  0  0
 23 45  1  0  0  0  0
 23 46  1  0  0  0  0
 23 47  1  0  0  0  0
 24 25  1  0  0  0  0
 25 26  1  0  0  0  0
 25 27  2  0  0  0  0
 26 49  1  0  0  0  0
 26 50  1  0  0  0  0
 26 51  1  0  0  0  0
 27 28  1  0  0  0  0
 27 52  1  0  0  0  0
 28 53  1  0  0  0  0
 28 54  1  0  0  0  0
 28 55  1  0  0  0  0
M  END
> <PUBCHEM_COMPOUND_CID>
118701598

> <PUBCHEM_CONFORMER_RMSD>
1.2

> <PUBCHEM_CONFORMER_DIVERSEORDER>
1
133
52
93
107
42
69
29
76
41
98
102
126
35
50
109
119
12
81
39
108
92
25
74
89
61
55
3
135
34
63
90
83
45
6
116
131
48
132
21
8
38
47
78
28
20
15
124
123
19
113
27
11
111
60
40
64
71
33
96
85
117
125
5
67
105
106
112
103
97
36
43
44
128
121
127
70
32
7
130
65
99
18
4
56
122
54
14
75
120
53
30
46
57
104
62
58
2
9
24
10
22
23
73
86
82
84
72
129
87
37
26
49
118
77
91
13
101
31
80
134
79
114
110
51
17
88
16
68
115
59
94
66
100
95

> <PUBCHEM_MMFF94_PARTIAL_CHARGES>
28
1 -0.43
10 0.28
12 0.27
13 -0.28
14 0.41
15 -0.29
16 0.42
17 0.34
18 0.06
19 0.28
2 -0.43
20 0.66
21 0.66
24 0.71
25 -0.12
26 0.14
27 -0.29
28 0.14
3 -0.43
37 0.15
4 -0.68
48 0.4
5 -0.57
52 0.15
6 -0.57
7 -0.57
8 -0.81
9 0.41

> <PUBCHEM_EFFECTIVE_ROTOR_COUNT>
8.6

> <PUBCHEM_PHARMACOPHORE_FEATURES>
11
1 26 hydrophobe
1 28 hydrophobe
1 4 acceptor
1 4 donor
1 5 acceptor
1 6 acceptor
1 7 acceptor
1 8 cation
5 3 17 18 19 21 rings
5 8 9 10 11 12 rings
5 8 9 13 14 15 rings

> <PUBCHEM_HEAVY_ATOM_COUNT>
28

> <PUBCHEM_ATOM_DEF_STEREO_COUNT>
4

> <PUBCHEM_ATOM_UDEF_STEREO_COUNT>
1

> <PUBCHEM_BOND_DEF_STEREO_COUNT>
1

> <PUBCHEM_BOND_UDEF_STEREO_COUNT>
0

> <PUBCHEM_ISOTOPIC_ATOM_COUNT>
0

> <PUBCHEM_COMPONENT_COUNT>
1

> <PUBCHEM_CACTVS_TAUTO_COUNT>
2

> <PUBCHEM_CONFORMER_ID>
07133E1E00000001

> <PUBCHEM_MMFF94_ENERGY>
57.014

> <PUBCHEM_FEATURE_SELFOVERLAP>
56.163

> <PUBCHEM_SHAPE_FINGERPRINT>
10366900 7 17969505909508783151
10498660 4 17704068495368720777
11244481 83 18116727226554442442
11488393 25 18195827180174367774
11578080 2 18265623087336435277
12422481 6 18117531000436445232
12633257 1 17240477005234091160
12788726 201 17471585798592430614
13224815 77 18413112736336522221
14223421 5 18261960643672517095
14251757 17 15769235919555794028
14713325 29 16486137369278793742
14955137 171 17821444682371509660
15183329 4 17632305584091386300
17809404 112 17022906748605610115
18981168 100 13398059809292154923
20715895 44 17553191109467504561
21033648 29 16443898354655969973
21524375 3 18340206401105613222
21756936 100 18042966678653699948
23559900 14 17604722040531029895
2637199 183 17846505858880977236
2818148 4 16199608886935125911
339767 52 12035439528313421144
35225 105 17979089497732457096
3797600 57 18130791191385825387
444769 64 18409719665893179120
469060 322 17973709565789137455
49207404 50 18186804690297267934

> <PUBCHEM_SHAPE_MULTIPOLES>
530.16
9.95
3.57
2.13
1.91
2.1
-0.27
-7.05
-1.04
3.2
0.74
-0.83
0.05
-0.48

> <PUBCHEM_SHAPE_SELFOVERLAP>
1119.789

> <PUBCHEM_SHAPE_VOLUME>
299.1

> <PUBCHEM_COORDINATE_TYPE>
2
5
10

$$$$
