REMARK  Name = 118701545
REMARK  7 active torsions:
REMARK  status: ('A' for Active; 'I' for Inactive)
REMARK    1  A    between atoms: C_4  and  C_27
REMARK    2  A    between atoms: C_9  and  O_18
REMARK    3  A    between atoms: O_18  and  C_20
REMARK    4  A    between atoms: C_20  and  C_21
REMARK    5  A    between atoms: C_23  and  C_24
REMARK    6  A    between atoms: C_24  and  O_25
REMARK    7  A    between atoms: C_27  and  O_28
REMARK                            x       y       z     vdW  Elec       q    Type
REMARK                         _______ _______ _______ _____ _____    ______ ____
ROOT
ATOM      1  O   UNL     1       3.909   0.437   0.649  0.00  0.00    -0.350 OA
ATOM      2  O   UNL     1       1.906   2.335   0.720  0.00  0.00    -0.446 OA
ATOM      3  O   UNL     1       1.041   4.457   0.785  0.00  0.00    -0.245 OA
ATOM      4  C   UNL     1       3.289  -0.855   0.618  0.00  0.00    +0.148 C 
ATOM      5  C   UNL     1       2.763   0.322  -0.209  0.00  0.00    +0.182 C 
ATOM      6  C   UNL     1       1.515   1.061   0.168  0.00  0.00    +0.206 C 
ATOM      7  C   UNL     1       0.617   1.377  -1.046  0.00  0.00    +0.112 C 
ATOM      8  C   UNL     1       4.004  -1.933  -0.165  0.00  0.00    +0.037 C 
ATOM      9  C   UNL     1      -0.509   0.377  -1.425  0.00  0.00    +0.181 C 
ATOM     10  C   UNL     1       3.009  -2.926  -0.801  0.00  0.00    +0.028 C 
ATOM     11  C   UNL     1       0.125   2.739  -0.643  0.00  0.00    +0.060 C 
ATOM     12  C   UNL     1      -0.104  -0.953  -2.107  0.00  0.00    +0.066 C 
ATOM     13  C   UNL     1       1.037   3.316   0.361  0.00  0.00    +0.337 C 
ATOM     14  C   UNL     1       1.988  -2.189  -1.627  0.00  0.00    -0.034 C 
ATOM     15  C   UNL     1       0.700  -1.953  -1.304  0.00  0.00    -0.045 C 
ATOM     16  C   UNL     1      -0.953   3.425  -1.037  0.00  0.00    +0.002 C 
ATOM     17  C   UNL     1      -0.025  -2.643  -0.182  0.00  0.00    +0.026 C 
ENDROOT
BRANCH   9  18
ATOM     18  O   UNL     1      -1.403   0.135  -0.342  0.00  0.00    -0.449 OA
BRANCH  18  20
ATOM     19  O   UNL     1      -3.161  -0.048  -1.818  0.00  0.00    -0.245 OA
ATOM     20  C   UNL     1      -2.708  -0.062  -0.682  0.00  0.00    +0.337 C 
BRANCH  20  21
ATOM     21  C   UNL     1      -3.518  -0.295   0.553  0.00  0.00    +0.052 C 
ATOM     22  C   UNL     1      -3.050   0.325   1.837  0.00  0.00    +0.038 C 
ATOM     23  C   UNL     1      -4.601  -1.080   0.406  0.00  0.00    +0.007 C 
BRANCH  23  24
ATOM     24  C   UNL     1      -5.587  -1.467   1.464  0.00  0.00    +0.163 C 
BRANCH  24  25
ATOM     25  O   UNL     1      -6.874  -1.002   1.074  0.00  0.00    -0.377 OA
ATOM     26  H   UNL     1      -7.525  -1.246   1.751  0.00  0.00    +0.211 HD
ENDBRANCH  24  25
ENDBRANCH  23  24
ENDBRANCH  20  21
ENDBRANCH  18  20
ENDBRANCH   9  18
BRANCH   4  27
ATOM     27  C   UNL     1       2.758  -1.234   1.967  0.00  0.00    +0.167 C 
BRANCH  27  28
ATOM     28  O   UNL     1       3.832  -1.666   2.786  0.00  0.00    -0.379 OA
ATOM     29  H   UNL     1       3.492  -1.913   3.660  0.00  0.00    +0.211 HD
ENDBRANCH  27  28
ENDBRANCH   4  27
TORSDOF 7
