REMARK  Name = 118701596
REMARK  12 active torsions:
REMARK  status: ('A' for Active; 'I' for Inactive)
REMARK    1  A    between atoms: C_3  and  O_10
REMARK    2  A    between atoms: C_6  and  C_17
REMARK    3  A    between atoms: O_10  and  C_12
REMARK    4  A    between atoms: C_12  and  C_13
REMARK    5  A    between atoms: C_17  and  O_18
REMARK    6  A    between atoms: O_18  and  C_20
REMARK    7  A    between atoms: C_20  and  C_21
REMARK    8  A    between atoms: C_21  and  C_22
REMARK    9  A    between atoms: C_21  and  O_27
REMARK   10  A    between atoms: C_21  and  C_29
REMARK   11  A    between atoms: C_22  and  O_25
REMARK   12  A    between atoms: C_29  and  O_31
REMARK                            x       y       z     vdW  Elec       q    Type
REMARK                         _______ _______ _______ _____ _____    ______ ____
ROOT
ATOM      1  N   UNL     1       2.854   2.108   1.164  0.00  0.00    +0.396 N 
ATOM      2  C   UNL     1       1.971   1.243   0.321  0.00  0.00    +0.006 C 
ATOM      3  C   UNL     1       2.902   0.387  -0.546  0.00  0.00    +0.152 C 
ATOM      4  C   UNL     1       4.284   0.998  -0.376  0.00  0.00    +0.019 C 
ATOM      5  C   UNL     1       4.226   1.610   1.012  0.00  0.00    -0.073 C 
ATOM      6  C   UNL     1       1.121   2.196  -0.465  0.00  0.00    -0.023 C 
ATOM      7  C   UNL     1       2.683   3.492   0.667  0.00  0.00    -0.050 C 
ATOM      8  C   UNL     1       1.518   3.454  -0.261  0.00  0.00    -0.056 C 
ATOM      9  H   UNL     1       2.628   2.091   2.159  0.00  0.00    -0.079 HD
ENDROOT
BRANCH   3  10
ATOM     10  O   UNL     1       2.902  -0.957  -0.073  0.00  0.00    -0.451 OA
BRANCH  10  12
ATOM     11  O   UNL     1       1.239  -1.507  -1.567  0.00  0.00    -0.245 OA
ATOM     12  C   UNL     1       2.015  -1.809  -0.672  0.00  0.00    +0.337 C 
BRANCH  12  13
ATOM     13  C   UNL     1       2.128  -3.172  -0.068  0.00  0.00    +0.049 C 
ATOM     14  C   UNL     1       2.462  -4.324  -0.968  0.00  0.00    +0.037 C 
ATOM     15  C   UNL     1       1.885  -3.250   1.254  0.00  0.00    -0.024 C 
ATOM     16  C   UNL     1       1.518  -2.130   2.175  0.00  0.00    +0.031 C 
ENDBRANCH  12  13
ENDBRANCH  10  12
ENDBRANCH   3  10
BRANCH   6  17
ATOM     17  C   UNL     1      -0.009   1.739  -1.315  0.00  0.00    +0.229 C 
BRANCH  17  18
ATOM     18  O   UNL     1      -0.971   1.034  -0.524  0.00  0.00    -0.442 OA
BRANCH  18  20
ATOM     19  O   UNL     1      -2.257   0.700  -2.397  0.00  0.00    -0.247 OA
ATOM     20  C   UNL     1      -2.059   0.562  -1.194  0.00  0.00    +0.346 C 
BRANCH  20  21
ATOM     21  C   UNL     1      -3.019  -0.167  -0.241  0.00  0.00    +0.224 C 
BRANCH  21  22
ATOM     22  C   UNL     1      -3.778   0.827   0.700  0.00  0.00    +0.123 C 
ATOM     23  C   UNL     1      -3.988   2.198   0.034  0.00  0.00    +0.032 C 
ATOM     24  C   UNL     1      -5.155   0.283   1.123  0.00  0.00    +0.032 C 
BRANCH  22  25
ATOM     25  O   UNL     1      -3.024   1.045   1.895  0.00  0.00    -0.384 OA
ATOM     26  H   UNL     1      -2.147   1.389   1.665  0.00  0.00    +0.210 HD
ENDBRANCH  22  25
ENDBRANCH  21  22
BRANCH  21  27
ATOM     27  O   UNL     1      -4.013  -0.725  -1.127  0.00  0.00    -0.373 OA
ATOM     28  H   UNL     1      -4.475  -0.007  -1.588  0.00  0.00    +0.211 HD
ENDBRANCH  21  27
BRANCH  21  29
ATOM     29  C   UNL     1      -2.337  -1.383   0.447  0.00  0.00    +0.148 C 
ATOM     30  C   UNL     1      -1.865  -2.535  -0.431  0.00  0.00    +0.035 C 
BRANCH  29  31
ATOM     31  O   UNL     1      -3.233  -1.917   1.433  0.00  0.00    -0.381 OA
ATOM     32  H   UNL     1      -3.548  -1.200   2.006  0.00  0.00    +0.210 HD
ENDBRANCH  29  31
ENDBRANCH  21  29
ENDBRANCH  20  21
ENDBRANCH  18  20
ENDBRANCH  17  18
ENDBRANCH   6  17
TORSDOF 12
