REMARK  Name = 11875005
REMARK  3 active torsions:
REMARK  status: ('A' for Active; 'I' for Inactive)
REMARK    1  A    between atoms: C_9  and  C_18
REMARK    2  A    between atoms: C_9  and  O_22
REMARK    3  A    between atoms: C_13  and  O_24
REMARK                            x       y       z     vdW  Elec       q    Type
REMARK                         _______ _______ _______ _____ _____    ______ ____
ROOT
ATOM      1  O   UNL     1      -2.112  -0.418   1.726  0.00  0.00    -0.413 OA
ATOM      2  O   UNL     1       1.649  -1.962  -0.253  0.00  0.00    -0.452 OA
ATOM      3  O   UNL     1      -2.695   1.081   0.037  0.00  0.00    -0.412 OA
ATOM      4  O   UNL     1      -2.123  -2.641   1.204  0.00  0.00    -0.250 OA
ATOM      5  O   UNL     1      -2.701   1.557  -2.203  0.00  0.00    -0.247 OA
ATOM      6  O   UNL     1       1.448  -2.371  -2.498  0.00  0.00    -0.250 OA
ATOM      7  C   UNL     1      -0.411   0.427   0.262  0.00  0.00    +0.148 C 
ATOM      8  C   UNL     1      -0.509  -1.126   0.167  0.00  0.00    +0.149 C 
ATOM      9  C   UNL     1       0.934   0.708   1.016  0.00  0.00    +0.102 C 
ATOM     10  C   UNL     1       0.747  -1.691   0.820  0.00  0.00    +0.182 C 
ATOM     11  C   UNL     1       1.245  -0.600   1.751  0.00  0.00    +0.071 C 
ATOM     12  C   UNL     1      -1.702   0.750   1.025  0.00  0.00    +0.350 C 
ATOM     13  C   UNL     1      -0.619   1.256  -1.005  0.00  0.00    +0.220 C 
ATOM     14  C   UNL     1      -0.505  -1.796  -1.189  0.00  0.00    +0.124 C 
ATOM     15  C   UNL     1      -1.677  -1.515   1.047  0.00  0.00    +0.323 C 
ATOM     16  C   UNL     1      -2.104   1.300  -1.170  0.00  0.00    +0.347 C 
ATOM     17  C   UNL     1       0.951  -2.070  -1.423  0.00  0.00    +0.318 C 
ENDROOT
BRANCH   9  18
ATOM     18  C   UNL     1       2.118   1.089   0.109  0.00  0.00    +0.023 C 
ATOM     19  C   UNL     1       3.227   0.033   0.238  0.00  0.00    +0.002 C 
ATOM     20  C   UNL     1       1.648   1.158  -1.352  0.00  0.00    +0.002 C 
ATOM     21  C   UNL     1       2.670   2.460   0.531  0.00  0.00    +0.002 C 
ENDBRANCH   9  18
BRANCH   9  22
ATOM     22  O   UNL     1       0.801   1.748   1.981  0.00  0.00    -0.386 OA
ATOM     23  H   UNL     1       0.062   1.545   2.575  0.00  0.00    +0.210 HD
ENDBRANCH   9  22
BRANCH  13  24
ATOM     24  O   UNL     1      -0.279   2.623  -0.818  0.00  0.00    -0.374 OA
ATOM     25  H   UNL     1       0.681   2.704  -0.700  0.00  0.00    +0.211 HD
ENDBRANCH  13  24
TORSDOF 3
