REMARK  Name = 118705496
REMARK  6 active torsions:
REMARK  status: ('A' for Active; 'I' for Inactive)
REMARK    1  A    between atoms: N_1  and  C1*_20
REMARK    2  A    between atoms: N_5  and  C_12
REMARK    3  A    between atoms: C2*_19  and  O2*_23
REMARK    4  A    between atoms: C3*_21  and  O3*_25
REMARK    5  A    between atoms: C4*_22  and  C5*_27
REMARK    6  A    between atoms: C5*_27  and  O5*_28
REMARK                            x       y       z     vdW  Elec       q    Type
REMARK                         _______ _______ _______ _____ _____    ______ ____
ROOT
ATOM      1  N   UNL     1      -1.352   0.752  -0.149  0.00  0.00    -0.236 N 
ATOM      2  N   UNL     1      -1.571   2.967  -0.034  0.00  0.00    -0.240 NA
ATOM      3  N   UNL     1       1.069   0.569  -0.082  0.00  0.00    -0.311 NA
ATOM      4  N   UNL     1       2.120   2.766   0.073  0.00  0.00    -0.311 NA
ATOM      5  N   UNL     1       3.396   0.803   0.005  0.00  0.00    -0.238 N 
ATOM      6  C   UNL     1      -0.084   1.254  -0.081  0.00  0.00    +0.221 C 
ATOM      7  C   UNL     1      -2.210   1.819  -0.118  0.00  0.00    +0.224 C 
ATOM      8  C   UNL     1      -0.241   2.629  -0.010  0.00  0.00    +0.167 C 
ATOM      9  C   UNL     1       0.919   3.393   0.069  0.00  0.00    +0.212 C 
ATOM     10  C   UNL     1       2.121   1.413  -0.002  0.00  0.00    +0.206 C 
ATOM     11  H   UNL     1       4.142   1.443   0.065  0.00  0.00    +0.166 HD
ATOM     12  N   UNL     1       0.853   4.795   0.144  0.00  0.00    -0.331 N 
ATOM     13  H   UNL     1       1.681   5.324   0.199  0.00  0.00    +0.145 HD
ATOM     14  H   UNL     1      -0.022   5.247   0.140  0.00  0.00    +0.145 HD
ENDROOT
BRANCH   5  15
ATOM     15  C   UNL     1       3.807  -0.541  -0.056  0.00  0.00    +0.058 C 
ATOM     16  C   UNL     1       5.030  -0.870  -0.640  0.00  0.00    +0.015 C 
ATOM     17  C   UNL     1       2.992  -1.544   0.469  0.00  0.00    +0.015 C 
ATOM     18  C   UNL     1       5.438  -2.203  -0.701  0.00  0.00    +0.001 C 
ATOM     19  C   UNL     1       3.400  -2.876   0.408  0.00  0.00    +0.001 C 
ATOM     20  C   UNL     1       4.622  -3.206  -0.176  0.00  0.00    +0.000 C 
ENDBRANCH   5  15
BRANCH   1  23
ATOM     21  O4* UNL     1      -2.948  -0.866  -1.023  0.00  0.00    -0.333 OA
ATOM     22  C2* UNL     1      -2.006  -1.342   1.128  0.00  0.00    +0.187 C 
ATOM     23  C1* UNL     1      -1.746  -0.706  -0.243  0.00  0.00    +0.226 C 
ATOM     24  C3* UNL     1      -3.513  -1.510   1.176  0.00  0.00    +0.171 C 
ATOM     25  C4* UNL     1      -3.867  -1.695  -0.294  0.00  0.00    +0.175 C 
BRANCH  22  26
ATOM     26  O2* UNL     1      -1.372  -2.618   1.190  0.00  0.00    -0.378 OA
ATOM     27  H2* UNL     1      -0.409  -2.502   1.159  0.00  0.00    +0.211 HD
ENDBRANCH  22  26
BRANCH  24  28
ATOM     28  O3* UNL     1      -4.107  -0.323   1.687  0.00  0.00    -0.379 OA
ATOM     29  H3* UNL     1      -3.872  -0.221   2.623  0.00  0.00    +0.211 HD
ENDBRANCH  24  28
BRANCH  25  30
ATOM     30  C5* UNL     1      -5.289  -1.323  -0.674  0.00  0.00    +0.169 C 
BRANCH  30  31
ATOM     31  O5* UNL     1      -5.462  -1.539  -2.066  0.00  0.00    -0.379 OA
ATOM     32  H5* UNL     1      -6.369  -1.304  -2.319  0.00  0.00    +0.211 HD
ENDBRANCH  30  31
ENDBRANCH  25  30
ENDBRANCH   1  23
TORSDOF 6
