REMARK  Name = 11879
REMARK  4 active torsions:
REMARK  status: ('A' for Active; 'I' for Inactive)
REMARK    1  A    between atoms: C_1  and  C_14
REMARK    2  A    between atoms: C_2  and  N_9
REMARK    3  A    between atoms: C_3  and  N_12
REMARK    4  A    between atoms: C_14  and  O_15
REMARK                            x       y       z     vdW  Elec       q    Type
REMARK                         _______ _______ _______ _____ _____    ______ ____
ROOT
ATOM      1  C   UNL     1      -0.514   0.543   0.027  0.00  0.00    +0.099 C 
ATOM      2  C   UNL     1      -0.924  -0.790   0.010  0.00  0.00    +0.149 C 
ATOM      3  C   UNL     1       1.795  -0.166   0.006  0.00  0.00    +0.143 C 
ATOM      4  C   UNL     1       0.845   0.856   0.024  0.00  0.00    +0.032 C 
ATOM      5  C   UNL     1       0.026  -1.811  -0.009  0.00  0.00    +0.026 C 
ATOM      6  C   UNL     1       1.386  -1.499  -0.011  0.00  0.00    +0.026 C 
ENDROOT
BRANCH   2   9
ATOM      7  O   UNL     1      -2.625  -2.347  -0.006  0.00  0.00    -0.126 OA
ATOM      8  O   UNL     1      -3.158  -0.217   0.028  0.00  0.00    -0.126 OA
ATOM      9  N   UNL     1      -2.304  -1.135   0.011  0.00  0.00    +0.058 N 
ENDBRANCH   2   9
BRANCH   3  12
ATOM     10  O   UNL     1       4.017  -0.782  -0.011  0.00  0.00    -0.126 OA
ATOM     11  O   UNL     1       3.526   1.358   0.020  0.00  0.00    -0.126 OA
ATOM     12  N   UNL     1       3.179   0.152   0.005  0.00  0.00    +0.058 N 
ENDBRANCH   3  12
BRANCH   1  14
ATOM     13  O   UNL     1      -1.945   2.157   1.063  0.00  0.00    -0.245 OA
ATOM     14  C   UNL     1      -1.479   1.637   0.047  0.00  0.00    +0.340 C 
BRANCH  14  15
ATOM     15  O   UNL     1      -1.825   2.043  -1.204  0.00  0.00    -0.477 OA
ATOM     16  H   UNL     1      -1.450   1.624  -1.953  0.00  0.00    +0.295 HD
ENDBRANCH  14  15
ENDBRANCH   1  14
TORSDOF 4
