REMARK  Name = 118701560
REMARK  7 active torsions:
REMARK  status: ('A' for Active; 'I' for Inactive)
REMARK    1  A    between atoms: C_6  and  O_21
REMARK    2  A    between atoms: C_9  and  O_19
REMARK    3  A    between atoms: O_21  and  C_23
REMARK    4  A    between atoms: C_23  and  C_24
REMARK    5  A    between atoms: C_24  and  C_27
REMARK    6  A    between atoms: C_27  and  O_28
REMARK    7  A    between atoms: O_28  and  C_30
REMARK                            x       y       z     vdW  Elec       q    Type
REMARK                         _______ _______ _______ _____ _____    ______ ____
ROOT
ATOM      1  O   UNL     1      -3.338  -0.457   0.609  0.00  0.00    -0.329 OA
ATOM      2  O   UNL     1       0.070   2.382  -0.727  0.00  0.00    -0.444 OA
ATOM      3  O   UNL     1       1.628   3.659   0.370  0.00  0.00    -0.245 OA
ATOM      4  C   UNL     1      -2.491  -1.630   0.592  0.00  0.00    +0.117 C 
ATOM      5  C   UNL     1      -0.793   1.072   1.095  0.00  0.00    +0.113 C 
ATOM      6  C   UNL     1      -0.256  -0.359   1.345  0.00  0.00    +0.180 C 
ATOM      7  C   UNL     1      -1.336  -1.436   1.597  0.00  0.00    +0.076 C 
ATOM      8  C   UNL     1      -0.970   1.435  -0.385  0.00  0.00    +0.198 C 
ATOM      9  C   UNL     1      -3.670  -0.104  -0.755  0.00  0.00    +0.220 C 
ATOM     10  C   UNL     1      -2.097  -1.804  -0.837  0.00  0.00    +0.001 C 
ATOM     11  C   UNL     1       0.184   2.118   1.529  0.00  0.00    +0.060 C 
ATOM     12  C   UNL     1      -3.470   1.401  -0.916  0.00  0.00    +0.010 C 
ATOM     13  C   UNL     1      -2.302   2.052  -0.719  0.00  0.00    +0.014 C 
ATOM     14  C   UNL     1      -3.357  -2.816   1.042  0.00  0.00    +0.034 C 
ATOM     15  C   UNL     1      -2.773  -0.947  -1.603  0.00  0.00    +0.031 C 
ATOM     16  C   UNL     1       0.738   2.827   0.368  0.00  0.00    +0.338 C 
ATOM     17  C   UNL     1      -4.693   2.214  -1.270  0.00  0.00    +0.031 C 
ATOM     18  C   UNL     1       0.520   2.458   2.777  0.00  0.00    +0.002 C 
ENDROOT
BRANCH   9  19
ATOM     19  O   UNL     1      -5.032  -0.454  -1.019  0.00  0.00    -0.358 OA
ATOM     20  H   UNL     1      -5.618   0.091  -0.471  0.00  0.00    +0.213 HD
ENDBRANCH   9  19
BRANCH   6  21
ATOM     21  O   UNL     1       0.619  -0.772   0.297  0.00  0.00    -0.449 OA
BRANCH  21  23
ATOM     22  O   UNL     1       1.846  -2.015   1.794  0.00  0.00    -0.245 OA
ATOM     23  C   UNL     1       1.634  -1.605   0.662  0.00  0.00    +0.340 C 
BRANCH  23  24
ATOM     24  C   UNL     1       2.458  -1.955  -0.536  0.00  0.00    +0.093 C 
ATOM     25  C   UNL     1       2.520  -3.265  -0.841  0.00  0.00    -0.020 C 
ATOM     26  C   UNL     1       1.857  -4.392  -0.114  0.00  0.00    +0.031 C 
BRANCH  24  27
ATOM     27  C   UNL     1       3.190  -0.862  -1.261  0.00  0.00    +0.241 C 
BRANCH  27  28
ATOM     28  O   UNL     1       4.065  -0.203  -0.356  0.00  0.00    -0.443 OA
BRANCH  28  30
ATOM     29  O   UNL     1       4.771   1.212  -2.040  0.00  0.00    -0.250 OA
ATOM     30  C   UNL     1       4.802   0.824  -0.880  0.00  0.00    +0.318 C 
ATOM     31  C   UNL     1       5.674   1.421   0.182  0.00  0.00    +0.121 C 
ENDBRANCH  28  30
ENDBRANCH  27  28
ENDBRANCH  24  27
ENDBRANCH  23  24
ENDBRANCH  21  23
ENDBRANCH   6  21
TORSDOF 7
