REMARK  Name = 118797884
REMARK  8 active torsions:
REMARK  status: ('A' for Active; 'I' for Inactive)
REMARK    1  A    between atoms: C_1  and  C_26
REMARK    2  A    between atoms: C_2  and  N_11
REMARK    3  A    between atoms: C_8  and  C_35
REMARK    4  A    between atoms: C_12  and  C_16
REMARK    5  A    between atoms: N_15  and  C_20
REMARK    6  A    between atoms: C_26  and  N_27
REMARK    7  A    between atoms: N_27  and  C_30
REMARK    8  A    between atoms: C_35  and  N_36
REMARK                            x       y       z     vdW  Elec       q    Type
REMARK                         _______ _______ _______ _____ _____    ______ ____
ROOT
ATOM      1  C   UNL     1       2.427  -1.276   1.125  0.00  0.00    +0.051 C 
ATOM      2  C   UNL     1       1.626  -0.824  -0.125  0.00  0.00    +0.096 C 
ATOM      3  C   UNL     1       2.799   0.016   1.891  0.00  0.00    +0.030 C 
ATOM      4  C   UNL     1       2.155   0.563  -0.342  0.00  0.00    -0.008 C 
ATOM      5  C   UNL     1       2.822   1.033   0.794  0.00  0.00    -0.025 C 
ATOM      6  C   UNL     1       3.367   2.306   0.829  0.00  0.00    -0.011 C 
ATOM      7  C   UNL     1       2.029   1.356  -1.472  0.00  0.00    -0.003 C 
ATOM      8  C   UNL     1       3.249   3.108  -0.308  0.00  0.00    -0.044 C 
ATOM      9  C   UNL     1       2.586   2.636  -1.451  0.00  0.00    -0.007 C 
ENDROOT
BRANCH   2  11
ATOM     10  O   UNL     1      -0.319  -2.992  -0.581  0.00  0.00    -0.265 OA
ATOM     11  N   UNL     1       0.206  -0.814   0.122  0.00  0.00    -0.295 N 
ATOM     12  C   UNL     1      -0.610  -1.895  -0.132  0.00  0.00    +0.300 C 
ATOM     13  H   UNL     1      -0.200   0.004   0.490  0.00  0.00    +0.150 HD
BRANCH  12  16
ATOM     14  O   UNL     1      -2.530  -2.368   1.081  0.00  0.00    -0.265 OA
ATOM     15  N   UNL     1      -2.582  -0.604  -0.499  0.00  0.00    -0.277 N 
ATOM     16  C   UNL     1      -2.042  -1.642   0.232  0.00  0.00    +0.303 C 
ATOM     17  H   UNL     1      -1.985  -0.168  -1.149  0.00  0.00    +0.155 HD
BRANCH  15  20
ATOM     18 CL   UNL     1      -8.104   1.515  -0.148  0.00  0.00    -0.080 Cl
ATOM     19  F   UNL     1      -6.966  -0.720   1.434  0.00  0.00    -0.203 F 
ATOM     20  C   UNL     1      -3.900  -0.099  -0.414  0.00  0.00    +0.053 C 
ATOM     21  C   UNL     1      -4.806  -0.664   0.483  0.00  0.00    +0.045 C 
ATOM     22  C   UNL     1      -4.293   0.963  -1.228  0.00  0.00    +0.016 C 
ATOM     23  C   UNL     1      -6.107  -0.166   0.567  0.00  0.00    +0.152 C 
ATOM     24  C   UNL     1      -5.594   1.461  -1.144  0.00  0.00    +0.015 C 
ATOM     25  C   UNL     1      -6.500   0.896  -0.246  0.00  0.00    +0.085 C 
ENDBRANCH  15  20
ENDBRANCH  12  16
ENDBRANCH   2  11
BRANCH   1  26
ATOM     26  C   UNL     1       3.683  -2.058   0.721  0.00  0.00    +0.131 C 
BRANCH  26  27
ATOM     27  N   UNL     1       3.267  -3.254   0.002  0.00  0.00    -0.240 NA
BRANCH  27  30
ATOM     28  N   UNL     1       5.567  -3.897  -0.260  0.00  0.00    -0.370 N 
ATOM     29  N   UNL     1       3.897  -5.200  -1.103  0.00  0.00    -0.370 N 
ATOM     30  C   UNL     1       4.207  -4.049  -0.416  0.00  0.00    +0.189 C 
ATOM     31  H   UNL     1       5.923  -3.112   0.216  0.00  0.00    +0.159 HD
ATOM     32  H   UNL     1       6.183  -4.574  -0.623  0.00  0.00    +0.159 HD
ATOM     33  H   UNL     1       2.956  -5.427  -1.282  0.00  0.00    +0.159 HD
ATOM     34  H   UNL     1       4.616  -5.796  -1.415  0.00  0.00    +0.159 HD
ENDBRANCH  27  30
ENDBRANCH  26  27
ENDBRANCH   1  26
BRANCH   8  35
ATOM     35  C   UNL     1       3.831   4.483  -0.307  0.00  0.00    -0.054 C 
BRANCH  35  36
ATOM     36  N   UNL     1       3.015   5.431   0.453  0.00  0.00    +0.385 N 
ATOM     37  C   UNL     1       3.619   6.755   0.440  0.00  0.00    -0.105 C 
ATOM     38  H   UNL     1       2.938   5.108   1.418  0.00  0.00    -0.084 HD
ATOM     39  H   UNL     1       2.092   5.488   0.024  0.00  0.00    -0.084 HD
ENDBRANCH  35  36
ENDBRANCH   8  35
TORSDOF 8
