REMARK  Name = 118701222
REMARK  7 active torsions:
REMARK  status: ('A' for Active; 'I' for Inactive)
REMARK    1  A    between atoms: C_11  and  O_25
REMARK    2  A    between atoms: C_14  and  O_27
REMARK    3  A    between atoms: C_16  and  O_31
REMARK    4  A    between atoms: C_17  and  O_29
REMARK    5  A    between atoms: O_31  and  C_33
REMARK    6  A    between atoms: C_33  and  C_34
REMARK    7  A    between atoms: C_34  and  C_36
REMARK                            x       y       z     vdW  Elec       q    Type
REMARK                         _______ _______ _______ _____ _____    ______ ____
ROOT
ATOM      1  O   UNL     1       0.234   2.789   1.797  0.00  0.00    -0.356 OA
ATOM      2  O   UNL     1       0.149  -1.879   1.269  0.00  0.00    -0.450 OA
ATOM      3  O   UNL     1       2.178  -2.657   0.676  0.00  0.00    -0.246 OA
ATOM      4  O   UNL     1      -5.315  -0.422  -2.604  0.00  0.00    -0.289 OA
ATOM      5  C   UNL     1      -0.418   0.543   1.289  0.00  0.00    +0.073 C 
ATOM      6  C   UNL     1      -1.139   0.685  -0.112  0.00  0.00    +0.038 C 
ATOM      7  C   UNL     1       1.096   0.731   1.167  0.00  0.00    +0.084 C 
ATOM      8  C   UNL     1      -2.654   0.169  -0.128  0.00  0.00    +0.038 C 
ATOM      9  C   UNL     1       1.153   2.217   0.826  0.00  0.00    +0.124 C 
ATOM     10  C   UNL     1      -0.635  -0.830   1.923  0.00  0.00    +0.172 C 
ATOM     11  C   UNL     1      -0.847   2.064  -0.781  0.00  0.00    +0.140 C 
ATOM     12  C   UNL     1      -0.686   1.746   2.211  0.00  0.00    +0.146 C 
ATOM     13  C   UNL     1      -2.653  -1.297   0.455  0.00  0.00    +0.025 C 
ATOM     14  C   UNL     1       0.603   2.551  -0.577  0.00  0.00    +0.162 C 
ATOM     15  C   UNL     1      -2.085  -1.312   1.891  0.00  0.00    +0.048 C 
ATOM     16  C   UNL     1       1.753  -0.320   0.300  0.00  0.00    +0.269 C 
ATOM     17  C   UNL     1      -3.172   0.054  -1.596  0.00  0.00    +0.172 C 
ATOM     18  C   UNL     1      -3.638   1.064   0.675  0.00  0.00    +0.003 C 
ATOM     19  C   UNL     1       2.527   2.838   1.065  0.00  0.00    +0.032 C 
ATOM     20  C   UNL     1      -3.989  -2.013   0.286  0.00  0.00    -0.041 C 
ATOM     21  C   UNL     1       1.407  -1.708   0.792  0.00  0.00    +0.358 C 
ATOM     22  C   UNL     1      -4.508  -0.666  -1.707  0.00  0.00    +0.199 C 
ATOM     23  C   UNL     1      -4.832  -1.718  -0.716  0.00  0.00    +0.031 C 
ATOM     24  C   UNL     1      -4.332  -3.138   1.225  0.00  0.00    +0.026 C 
ENDROOT
BRANCH  11  25
ATOM     25  O   UNL     1      -1.719   3.072  -0.282  0.00  0.00    -0.382 OA
ATOM     26  H   UNL     1      -2.640   2.790  -0.399  0.00  0.00    +0.210 HD
ENDBRANCH  11  25
BRANCH  14  27
ATOM     27  O   UNL     1       1.418   1.995  -1.604  0.00  0.00    -0.380 OA
ATOM     28  H   UNL     1       2.333   2.293  -1.487  0.00  0.00    +0.211 HD
ENDBRANCH  14  27
BRANCH  17  29
ATOM     29  O   UNL     1      -3.363   1.332  -2.186  0.00  0.00    -0.377 OA
ATOM     30  H   UNL     1      -2.535   1.836  -2.141  0.00  0.00    +0.211 HD
ENDBRANCH  17  29
BRANCH  16  31
ATOM     31  O   UNL     1       3.163  -0.172   0.358  0.00  0.00    -0.441 OA
BRANCH  31  33
ATOM     32  O   UNL     1       3.365  -1.145  -1.724  0.00  0.00    -0.250 OA
ATOM     33  C   UNL     1       3.860  -0.629  -0.730  0.00  0.00    +0.317 C 
BRANCH  33  34
ATOM     34  C   UNL     1       5.351  -0.433  -0.513  0.00  0.00    +0.099 C 
ATOM     35  C   UNL     1       5.735   0.947  -1.039  0.00  0.00    +0.012 C 
BRANCH  34  36
ATOM     36  C   UNL     1       6.170  -1.531  -1.207  0.00  0.00    +0.011 C 
ATOM     37  C   UNL     1       5.825  -2.925  -0.700  0.00  0.00    +0.001 C 
ENDBRANCH  34  36
ENDBRANCH  33  34
ENDBRANCH  31  33
ENDBRANCH  16  31
TORSDOF 7
