REMARK  Name = 118701141
REMARK  6 active torsions:
REMARK  status: ('A' for Active; 'I' for Inactive)
REMARK    1  A    between atoms: C_7  and  O_23
REMARK    2  A    between atoms: C_7  and  C_28
REMARK    3  A    between atoms: C_11  and  O_25
REMARK    4  A    between atoms: C_28  and  C_29
REMARK    5  A    between atoms: C_29  and  O_30
REMARK    6  A    between atoms: O_30  and  C_32
REMARK                            x       y       z     vdW  Elec       q    Type
REMARK                         _______ _______ _______ _____ _____    ______ ____
ROOT
ATOM      1  F   UNL     1      -2.048   0.191  -1.274  0.00  0.00    -0.237 F 
ATOM      2  O   UNL     1      -6.860   0.524  -2.008  0.00  0.00    -0.287 OA
ATOM      3  C   UNL     1       0.960  -0.013   0.530  0.00  0.00    +0.032 C 
ATOM      4  C   UNL     1       0.001  -1.162   0.145  0.00  0.00    +0.005 C 
ATOM      5  C   UNL     1      -1.428  -0.972   0.679  0.00  0.00    +0.033 C 
ATOM      6  C   UNL     1      -2.021   0.359   0.102  0.00  0.00    +0.164 C 
ATOM      7  C   UNL     1       2.277  -0.564  -0.093  0.00  0.00    +0.142 C 
ATOM      8  C   UNL     1       0.766  -2.425   0.539  0.00  0.00    +0.003 C 
ATOM      9  C   UNL     1       0.394   1.281  -0.088  0.00  0.00    +0.035 C 
ATOM     10  C   UNL     1       2.255  -2.078   0.277  0.00  0.00    +0.032 C 
ATOM     11  C   UNL     1      -1.067   1.570   0.327  0.00  0.00    +0.141 C 
ATOM     12  C   UNL     1      -3.526   0.573   0.532  0.00  0.00    +0.064 C 
ATOM     13  C   UNL     1      -2.305  -2.181   0.303  0.00  0.00    +0.007 C 
ATOM     14  C   UNL     1       1.134   0.149   2.067  0.00  0.00    +0.003 C 
ATOM     15  C   UNL     1      -3.760  -1.988   0.713  0.00  0.00    +0.023 C 
ATOM     16  C   UNL     1      -4.297  -0.697   0.152  0.00  0.00    -0.035 C 
ATOM     17  C   UNL     1       2.884  -3.001  -0.762  0.00  0.00    +0.003 C 
ATOM     18  C   UNL     1      -3.725   0.805   2.048  0.00  0.00    +0.011 C 
ATOM     19  C   UNL     1      -4.103   1.796  -0.166  0.00  0.00    -0.017 C 
ATOM     20  C   UNL     1      -5.362  -0.706  -0.665  0.00  0.00    +0.034 C 
ATOM     21  C   UNL     1      -5.162   1.793  -0.981  0.00  0.00    +0.038 C 
ATOM     22  C   UNL     1      -5.876   0.537  -1.275  0.00  0.00    +0.195 C 
ENDROOT
BRANCH   7  23
ATOM     23  O   UNL     1       2.350  -0.341  -1.496  0.00  0.00    -0.380 OA
ATOM     24  H   UNL     1       1.582  -0.746  -1.928  0.00  0.00    +0.211 HD
ENDBRANCH   7  23
BRANCH  11  25
ATOM     25  O   UNL     1      -1.081   2.037   1.665  0.00  0.00    -0.382 OA
ATOM     26  H   UNL     1      -1.995   2.221   1.934  0.00  0.00    +0.210 HD
ENDBRANCH  11  25
BRANCH   7  28
ATOM     27  O   UNL     1       3.569   0.637   1.508  0.00  0.00    -0.290 OA
ATOM     28  C   UNL     1       3.519   0.118   0.394  0.00  0.00    +0.218 C 
BRANCH  28  29
ATOM     29  C   UNL     1       4.696   0.127  -0.559  0.00  0.00    +0.274 C 
BRANCH  29  30
ATOM     30  O   UNL     1       5.802   0.785   0.021  0.00  0.00    -0.440 OA
BRANCH  30  32
ATOM     31  O   UNL     1       7.060   0.408  -1.879  0.00  0.00    -0.250 OA
ATOM     32  C   UNL     1       6.935   0.859  -0.749  0.00  0.00    +0.318 C 
ATOM     33  C   UNL     1       8.020   1.579  -0.008  0.00  0.00    +0.121 C 
ENDBRANCH  30  32
ENDBRANCH  29  30
ENDBRANCH  28  29
ENDBRANCH   7  28
TORSDOF 6
