REMARK  Name = 118708143
REMARK  5 active torsions:
REMARK  status: ('A' for Active; 'I' for Inactive)
REMARK    1  A    between atoms: N_2  and  C_19
REMARK    2  A    between atoms: C_3  and  C_15
REMARK    3  A    between atoms: C_19  and  C_23
REMARK    4  A    between atoms: N_22  and  C_25
REMARK    5  A    between atoms: C_26  and  C_33
REMARK                            x       y       z     vdW  Elec       q    Type
REMARK                         _______ _______ _______ _____ _____    ______ ____
ROOT
ATOM      1  O   UNL     1      -0.276   3.098   0.033  0.00  0.00    -0.268 OA
ATOM      2  N   UNL     1       0.235   0.940   0.713  0.00  0.00    -0.293 N 
ATOM      3  C   UNL     1      -0.642   1.924   0.237  0.00  0.00    +0.274 C 
ATOM      4  H   UNL     1      -0.117   0.032   0.853  0.00  0.00    +0.150 HD
ENDROOT
BRANCH   3  15
ATOM      5  O   UNL     1      -3.071  -2.245   0.771  0.00  0.00    -0.264 OA
ATOM      6  O   UNL     1      -7.467  -1.379  -0.523  0.00  0.00    -0.246 OA
ATOM      7  N   UNL     1      -5.906   0.323  -0.606  0.00  0.00    -0.262 N 
ATOM      8  N   UNL     1      -5.287  -1.860   0.128  0.00  0.00    -0.245 N 
ATOM      9  N   UNL     1      -2.333   0.250   0.276  0.00  0.00    -0.392 NA
ATOM     10  N   UNL     1      -4.236   2.057  -0.670  0.00  0.00    -0.244 NA
ATOM     11  C   UNL     1      -4.575   0.772  -0.406  0.00  0.00    +0.178 A 
ATOM     12  C   UNL     1      -3.620  -0.103   0.060  0.00  0.00    +0.221 A 
ATOM     13  C   UNL     1      -3.953  -1.498   0.355  0.00  0.00    +0.297 A 
ATOM     14  C   UNL     1      -6.305  -0.996  -0.348  0.00  0.00    +0.335 A 
ATOM     15  C   UNL     1      -2.018   1.529   0.008  0.00  0.00    +0.187 C 
ATOM     16  C   UNL     1      -6.869   1.303  -1.100  0.00  0.00    +0.137 C 
ATOM     17  C   UNL     1      -2.955   2.419  -0.458  0.00  0.00    +0.190 C 
ATOM     18  C   UNL     1      -5.661  -3.243   0.405  0.00  0.00    +0.138 C 
ENDBRANCH   3  15
BRANCH   2  19
ATOM     19  C   UNL     1       1.629   1.184   1.011  0.00  0.00    +0.149 C 
ATOM     20  C   UNL     1       1.810   1.610   2.459  0.00  0.00    +0.031 C 
BRANCH  19  23
ATOM     21  O   UNL     1       1.933  -1.206   0.896  0.00  0.00    -0.273 OA
ATOM     22  N   UNL     1       3.705   0.204   0.282  0.00  0.00    -0.282 N 
ATOM     23  C   UNL     1       2.415  -0.092   0.716  0.00  0.00    +0.244 C 
ATOM     24  H   UNL     1       3.935   1.160   0.223  0.00  0.00    +0.155 HD
BRANCH  22  25
ATOM     25  C   UNL     1       4.723  -0.708  -0.085  0.00  0.00    +0.055 C 
ATOM     26  C   UNL     1       5.977  -0.257  -0.498  0.00  0.00    +0.067 C 
ATOM     27  C   UNL     1       4.459  -2.076  -0.025  0.00  0.00    +0.015 C 
ATOM     28  C   UNL     1       6.966  -1.174  -0.852  0.00  0.00    +0.006 C 
ATOM     29  C   UNL     1       5.449  -2.993  -0.379  0.00  0.00    +0.001 C 
ATOM     30  C   UNL     1       6.702  -2.542  -0.792  0.00  0.00    +0.000 C 
BRANCH  26  33
ATOM     31  O   UNL     1       6.068   1.821  -1.603  0.00  0.00    -0.270 OA
ATOM     32  N   UNL     1       6.816   1.769   0.564  0.00  0.00    -0.325 N 
ATOM     33  C   UNL     1       6.286   1.166  -0.571  0.00  0.00    +0.244 C 
ATOM     34  H   UNL     1       7.037   2.729   0.554  0.00  0.00    +0.145 HD
ATOM     35  H   UNL     1       6.969   1.237   1.378  0.00  0.00    +0.145 HD
ENDBRANCH  26  33
ENDBRANCH  22  25
ENDBRANCH  19  23
ENDBRANCH   2  19
TORSDOF 5
