REMARK  Name = 118701337
REMARK  8 active torsions:
REMARK  status: ('A' for Active; 'I' for Inactive)
REMARK    1  A    between atoms: C_5  and  C_18
REMARK    2  A    between atoms: C_5  and  O_19
REMARK    3  A    between atoms: C_7  and  O_21
REMARK    4  A    between atoms: C_11  and  O_23
REMARK    5  A    between atoms: O_23  and  C_25
REMARK    6  A    between atoms: C_25  and  C_26
REMARK    7  A    between atoms: C_26  and  C_29
REMARK    8  A    between atoms: C_26  and  O_30
REMARK                            x       y       z     vdW  Elec       q    Type
REMARK                         _______ _______ _______ _____ _____    ______ ____
ROOT
ATOM      1  O   UNL     1      -1.784  -2.115  -0.112  0.00  0.00    -0.449 OA
ATOM      2  O   UNL     1      -0.893  -4.232  -0.099  0.00  0.00    -0.245 OA
ATOM      3  C   UNL     1      -2.173   0.229  -0.570  0.00  0.00    +0.073 C 
ATOM      4  C   UNL     1      -1.845   1.738  -0.362  0.00  0.00    +0.027 C 
ATOM      5  C   UNL     1      -3.699   0.107  -0.293  0.00  0.00    +0.131 C 
ATOM      6  C   UNL     1      -1.289  -0.787   0.172  0.00  0.00    +0.179 C 
ATOM      7  C   UNL     1      -4.232   1.475  -0.738  0.00  0.00    +0.137 C 
ATOM      8  C   UNL     1      -3.211   2.440  -0.148  0.00  0.00    +0.036 C 
ATOM      9  C   UNL     1       0.174  -0.812  -0.278  0.00  0.00    +0.109 C 
ATOM     10  C   UNL     1      -0.733   2.042   0.621  0.00  0.00    -0.041 C 
ATOM     11  C   UNL     1       1.073   0.239   0.391  0.00  0.00    +0.181 C 
ATOM     12  C   UNL     1       0.653   1.690   0.137  0.00  0.00    +0.066 C 
ATOM     13  C   UNL     1       0.484  -2.248   0.032  0.00  0.00    +0.060 C 
ATOM     14  C   UNL     1      -0.771  -3.022  -0.058  0.00  0.00    +0.337 C 
ATOM     15  C   UNL     1      -0.884   2.627   1.820  0.00  0.00    -0.009 C 
ATOM     16  C   UNL     1       1.617  -2.857   0.392  0.00  0.00    +0.002 C 
ENDROOT
BRANCH   5  18
ATOM     17 CL   UNL     1      -5.809  -0.289   1.358  0.00  0.00    -0.111 Cl
ATOM     18  C   UNL     1      -4.052  -0.184   1.171  0.00  0.00    +0.124 C 
ENDBRANCH   5  18
BRANCH   5  19
ATOM     19  O   UNL     1      -4.266  -0.927  -1.092  0.00  0.00    -0.383 OA
ATOM     20  H   UNL     1      -4.057  -0.767  -2.025  0.00  0.00    +0.210 HD
ENDBRANCH   5  19
BRANCH   7  21
ATOM     21  O   UNL     1      -4.206   1.602  -2.157  0.00  0.00    -0.382 OA
ATOM     22  H   UNL     1      -4.852   0.993  -2.548  0.00  0.00    +0.210 HD
ENDBRANCH   7  21
BRANCH  11  23
ATOM     23  O   UNL     1       2.394   0.106  -0.149  0.00  0.00    -0.450 OA
BRANCH  23  25
ATOM     24  O   UNL     1       3.279   0.808   1.859  0.00  0.00    -0.247 OA
ATOM     25  C   UNL     1       3.413   0.427   0.702  0.00  0.00    +0.342 C 
BRANCH  25  26
ATOM     26  C   UNL     1       4.760   0.241   0.008  0.00  0.00    +0.192 C 
ATOM     27  C   UNL     1       4.929  -1.212  -0.437  0.00  0.00    +0.042 C 
BRANCH  26  29
ATOM     28 CL   UNL     1       6.425   1.108  -2.024  0.00  0.00    -0.111 Cl
ATOM     29  C   UNL     1       4.890   1.261  -1.129  0.00  0.00    +0.133 C 
ENDBRANCH  26  29
BRANCH  26  30
ATOM     30  O   UNL     1       5.755   0.544   0.985  0.00  0.00    -0.375 OA
ATOM     31  H   UNL     1       5.655   1.464   1.273  0.00  0.00    +0.211 HD
ENDBRANCH  26  30
ENDBRANCH  25  26
ENDBRANCH  23  25
ENDBRANCH  11  23
TORSDOF 8
