REMARK  Name = 118721920
REMARK  6 active torsions:
REMARK  status: ('A' for Active; 'I' for Inactive)
REMARK    1  A    between atoms: N_5  and  C_13
REMARK    2  A    between atoms: N_6  and  C_35
REMARK    3  A    between atoms: C_7  and  C_31
REMARK    4  A    between atoms: C_11  and  C_21
REMARK    5  A    between atoms: C_24  and  C_25
REMARK    6  A    between atoms: C_25  and  O_28
REMARK                            x       y       z     vdW  Elec       q    Type
REMARK                         _______ _______ _______ _____ _____    ______ ____
ROOT
ATOM      1  F   UNL     1       1.822  -2.357   0.162  0.00  0.00    -0.204 F 
ATOM      2  N   UNL     1      -2.299   1.185   0.109  0.00  0.00    -0.302 N 
ATOM      3  N   UNL     1      -2.853  -0.965   0.204  0.00  0.00    -0.302 N 
ATOM      4  C   UNL     1      -0.484  -1.827   0.188  0.00  0.00    +0.046 C 
ATOM      5  C   UNL     1      -1.483  -0.839   0.171  0.00  0.00    +0.061 C 
ATOM      6  C   UNL     1       0.856  -1.424   0.144  0.00  0.00    +0.139 C 
ATOM      7  C   UNL     1      -1.111   0.501   0.111  0.00  0.00    +0.060 C 
ATOM      8  C   UNL     1       1.198  -0.071   0.084  0.00  0.00    +0.028 C 
ATOM      9  C   UNL     1       0.217   0.926   0.066  0.00  0.00    +0.018 C 
ATOM     10  C   UNL     1      -3.310   0.267   0.166  0.00  0.00    +0.228 C 
ATOM     11  H   UNL     1      -2.405   2.163   0.073  0.00  0.00    +0.150 HD
ATOM     12  H   UNL     1      -3.377  -1.797   0.248  0.00  0.00    +0.150 HD
ENDROOT
BRANCH  10  14
ATOM     13  O   UNL     1      -4.484   3.027   0.084  0.00  0.00    -0.253 OA
ATOM     14  N   UNL     1      -4.618   0.675   0.178  0.00  0.00    -0.259 N 
ATOM     15  N   UNL     1      -6.549   1.991   0.168  0.00  0.00    -0.289 N 
ATOM     16  C   UNL     1      -5.151   1.996   0.138  0.00  0.00    +0.303 C 
ATOM     17  H   UNL     1      -5.285  -0.048   0.220  0.00  0.00    +0.154 HD
ATOM     18  H   UNL     1      -7.014   1.124   0.211  0.00  0.00    +0.151 HD
BRANCH  15  19
ATOM     19  C   UNL     1      -7.343   3.197   0.138  0.00  0.00    +0.091 C 
ATOM     20  C   UNL     1      -7.473   3.741  -1.270  0.00  0.00    +0.023 C 
ENDBRANCH  15  19
ENDBRANCH  10  14
BRANCH   8  23
ATOM     21  N   UNL     1       4.740   0.249  -1.049  0.00  0.00    -0.217 NA
ATOM     22  N   UNL     1       4.462   1.492   0.997  0.00  0.00    -0.195 NA
ATOM     23  C   UNL     1       2.594   0.315   0.039  0.00  0.00    +0.025 C 
ATOM     24  C   UNL     1       3.436  -0.091  -0.976  0.00  0.00    +0.164 C 
ATOM     25  C   UNL     1       3.167   1.113   1.007  0.00  0.00    +0.107 C 
ATOM     26  C   UNL     1       5.180   1.031  -0.045  0.00  0.00    +0.031 C 
BRANCH  26  27
ATOM     27  C   UNL     1       6.617   1.430  -0.093  0.00  0.00    +0.160 C 
ATOM     28  C   UNL     1       6.941   2.298  -1.333  0.00  0.00    +0.045 C 
ATOM     29  C   UNL     1       7.564   0.206  -0.065  0.00  0.00    +0.045 C 
BRANCH  27  30
ATOM     30  O   UNL     1       6.987   2.234   1.051  0.00  0.00    -0.374 OA
ATOM     31  H   UNL     1       6.423   3.022   1.088  0.00  0.00    +0.212 HD
ENDBRANCH  27  30
ENDBRANCH  26  27
ENDBRANCH   8  23
BRANCH   4  33
ATOM     32  O   UNL     1      -2.010  -3.541   1.008  0.00  0.00    -0.352 OA
ATOM     33  C   UNL     1      -0.807  -3.298   0.251  0.00  0.00    +0.141 C 
ATOM     34  C   UNL     1      -1.026  -3.927  -1.120  0.00  0.00    +0.037 C 
ATOM     35  C   UNL     1      -1.951  -5.072  -0.792  0.00  0.00    +0.035 C 
ATOM     36  C   UNL     1      -2.830  -4.464   0.278  0.00  0.00    +0.143 C 
ENDBRANCH   4  33
TORSDOF 6
