REMARK  Name = 118705331
REMARK  7 active torsions:
REMARK  status: ('A' for Active; 'I' for Inactive)
REMARK    1  A    between atoms: N_5  and  C_13
REMARK    2  A    between atoms: C_8  and  O_15
REMARK    3  A    between atoms: C_9  and  C_17
REMARK    4  A    between atoms: C_17  and  O_18
REMARK    5  A    between atoms: O_18  and  P_19
REMARK    6  A    between atoms: P_19  and  O_21
REMARK    7  A    between atoms: P_19  and  O_23
REMARK                            x       y       z     vdW  Elec       q    Type
REMARK                         _______ _______ _______ _____ _____    ______ ____
ROOT
ATOM      1  O   UNL     1       0.755   1.300  -1.295  0.00  0.00    -0.332 OA
ATOM      2  O   UNL     1      -1.147   1.407   1.286  0.00  0.00    -0.437 OA
ATOM      3  N   UNL     1      -1.432   0.529  -0.758  0.00  0.00    -0.205 N 
ATOM      4  N   UNL     1      -2.370  -0.576   1.131  0.00  0.00    -0.338 NA
ATOM      5  C   UNL     1      -0.630   2.371   0.341  0.00  0.00    +0.246 C 
ATOM      6  C   UNL     1      -0.601   1.671  -1.016  0.00  0.00    +0.244 C 
ATOM      7  C   UNL     1       0.818   2.694   0.625  0.00  0.00    +0.185 C 
ATOM      8  C   UNL     1       1.601   1.677  -0.195  0.00  0.00    +0.178 C 
ATOM      9  C   UNL     1      -1.703   0.384   0.573  0.00  0.00    +0.350 C 
ATOM     10  C   UNL     1      -1.891  -0.418  -1.629  0.00  0.00    +0.076 C 
ATOM     11  C   UNL     1      -2.604  -1.463  -1.190  0.00  0.00    +0.065 C 
ATOM     12  C   UNL     1      -2.873  -1.559   0.287  0.00  0.00    +0.202 C 
ENDROOT
BRANCH  12  13
ATOM     13  N   UNL     1      -3.556  -2.524   0.810  0.00  0.00    -0.238 NA
ATOM     14  H   UNL     1      -3.709  -2.548   1.782  0.00  0.00    +0.173 HD
ENDBRANCH  12  13
BRANCH   7  15
ATOM     15  O   UNL     1       1.102   4.003   0.132  0.00  0.00    -0.378 OA
ATOM     16  H   UNL     1       0.607   4.658   0.649  0.00  0.00    +0.211 HD
ENDBRANCH   7  15
BRANCH   8  17
ATOM     17  C   UNL     1       1.972   0.423   0.586  0.00  0.00    +0.186 C 
BRANCH  17  18
ATOM     18  O   UNL     1       2.685  -0.455  -0.270  0.00  0.00    -0.271 OA
BRANCH  18  19
ATOM     19  P   UNL     1       2.567  -2.048  -0.010  0.00  0.00    +0.473 P 
ATOM     20  O   UNL     1       3.351  -2.906  -0.960  0.00  0.00    -0.227 OA
BRANCH  19  21
ATOM     21  O   UNL     1       0.972  -2.317   0.007  0.00  0.00    -0.303 OA
ATOM     22  H   UNL     1       0.551  -1.721   0.646  0.00  0.00    +0.222 HD
ENDBRANCH  19  21
BRANCH  19  23
ATOM     23  O   UNL     1       2.985  -2.192   1.545  0.00  0.00    -0.303 OA
ATOM     24  H   UNL     1       2.431  -1.607   2.084  0.00  0.00    +0.222 HD
ENDBRANCH  19  23
ENDBRANCH  18  19
ENDBRANCH  17  18
ENDBRANCH   8  17
TORSDOF 7
