REMARK  Name = 11873
REMARK  5 active torsions:
REMARK  status: ('A' for Active; 'I' for Inactive)
REMARK    1  A    between atoms: C_1  and  C_16
REMARK    2  A    between atoms: C_2  and  N_9
REMARK    3  A    between atoms: C_3  and  O_13
REMARK    4  A    between atoms: C_4  and  N_12
REMARK    5  A    between atoms: C_16  and  O_17
REMARK                            x       y       z     vdW  Elec       q    Type
REMARK                         _______ _______ _______ _____ _____    ______ ____
ROOT
ATOM      1  C   UNL     1       0.592   1.170   0.018  0.00  0.00    +0.112 C 
ATOM      2  C   UNL     1       0.490  -1.244  -0.017  0.00  0.00    +0.178 C 
ATOM      3  C   UNL     1       1.238  -0.066  -0.009  0.00  0.00    +0.162 C 
ATOM      4  C   UNL     1      -1.549   0.051   0.028  0.00  0.00    +0.145 C 
ATOM      5  C   UNL     1      -0.801   1.228   0.036  0.00  0.00    +0.034 C 
ATOM      6  C   UNL     1      -0.903  -1.185   0.002  0.00  0.00    +0.051 C 
ENDROOT
BRANCH   2   9
ATOM      7  O   UNL     1       0.424  -3.548  -0.051  0.00  0.00    -0.126 OA
ATOM      8  O   UNL     1       2.383  -2.560  -0.062  0.00  0.00    -0.126 OA
ATOM      9  N   UNL     1       1.131  -2.513  -0.045  0.00  0.00    +0.061 N 
ENDBRANCH   2   9
BRANCH   4  12
ATOM     10  O   UNL     1      -3.529   1.233   0.073  0.00  0.00    -0.126 OA
ATOM     11  O   UNL     1      -3.622  -0.960   0.040  0.00  0.00    -0.126 OA
ATOM     12  N   UNL     1      -2.968   0.111   0.048  0.00  0.00    +0.058 N 
ENDBRANCH   4  12
BRANCH   3  13
ATOM     13  O   UNL     1       2.602  -0.119  -0.027  0.00  0.00    -0.504 OA
ATOM     14  H   UNL     1       3.102   0.674  -0.022  0.00  0.00    +0.292 HD
ENDBRANCH   3  13
BRANCH   1  16
ATOM     15  O   UNL     1       2.474   2.559   0.518  0.00  0.00    -0.245 OA
ATOM     16  C   UNL     1       1.352   2.413   0.027  0.00  0.00    +0.341 C 
BRANCH  16  17
ATOM     17  O   UNL     1       0.686   3.432  -0.580  0.00  0.00    -0.477 OA
ATOM     18  H   UNL     1      -0.166   3.285  -0.942  0.00  0.00    +0.295 HD
ENDBRANCH  16  17
ENDBRANCH   1  16
TORSDOF 5
