REMARK  Name = 118701598
REMARK  8 active torsions:
REMARK  status: ('A' for Active; 'I' for Inactive)
REMARK    1  A    between atoms: C_3  and  O_10
REMARK    2  A    between atoms: C_6  and  C_17
REMARK    3  A    between atoms: O_10  and  C_12
REMARK    4  A    between atoms: C_12  and  C_13
REMARK    5  A    between atoms: C_17  and  O_18
REMARK    6  A    between atoms: O_18  and  C_20
REMARK    7  A    between atoms: C_20  and  C_23
REMARK    8  A    between atoms: C_23  and  O_29
REMARK                            x       y       z     vdW  Elec       q    Type
REMARK                         _______ _______ _______ _____ _____    ______ ____
ROOT
ATOM      1  N   UNL     1       1.366  -3.037   0.105  0.00  0.00    +0.396 N 
ATOM      2  C   UNL     1       0.745  -1.681   0.195  0.00  0.00    +0.006 C 
ATOM      3  C   UNL     1       1.781  -0.785   0.884  0.00  0.00    +0.152 C 
ATOM      4  C   UNL     1       2.707  -1.778   1.571  0.00  0.00    +0.019 C 
ATOM      5  C   UNL     1       2.751  -2.931   0.581  0.00  0.00    -0.073 C 
ATOM      6  C   UNL     1       0.307  -1.331  -1.191  0.00  0.00    -0.023 C 
ATOM      7  C   UNL     1       1.265  -3.456  -1.308  0.00  0.00    -0.050 C 
ATOM      8  C   UNL     1       0.602  -2.329  -2.029  0.00  0.00    -0.056 C 
ATOM      9  H   UNL     1       0.904  -3.740   0.683  0.00  0.00    -0.079 HD
ENDROOT
BRANCH   3  10
ATOM     10  O   UNL     1       2.529   0.007  -0.032  0.00  0.00    -0.451 OA
BRANCH  10  12
ATOM     11  O   UNL     1       2.919   1.569   1.614  0.00  0.00    -0.245 OA
ATOM     12  C   UNL     1       3.046   1.168   0.466  0.00  0.00    +0.337 C 
BRANCH  12  13
ATOM     13  C   UNL     1       3.794   1.888  -0.609  0.00  0.00    +0.049 C 
ATOM     14  C   UNL     1       3.055   2.267  -1.858  0.00  0.00    +0.037 C 
ATOM     15  C   UNL     1       5.099   2.111  -0.368  0.00  0.00    -0.024 C 
ATOM     16  C   UNL     1       5.875   1.719   0.850  0.00  0.00    +0.031 C 
ENDBRANCH  12  13
ENDBRANCH  10  12
ENDBRANCH   3  10
BRANCH   6  17
ATOM     17  C   UNL     1      -0.397  -0.063  -1.512  0.00  0.00    +0.229 C 
BRANCH  17  18
ATOM     18  O   UNL     1      -1.581   0.051  -0.737  0.00  0.00    -0.442 OA
BRANCH  18  20
ATOM     19  O   UNL     1      -2.053   2.087  -1.724  0.00  0.00    -0.247 OA
ATOM     20  C   UNL     1      -2.322   1.183  -0.944  0.00  0.00    +0.346 C 
BRANCH  20  23
ATOM     21  O   UNL     1      -3.842  -1.031   0.687  0.00  0.00    -0.449 OA
ATOM     22  O   UNL     1      -2.659  -0.931   2.647  0.00  0.00    -0.250 OA
ATOM     23  C   UNL     1      -3.541   1.168  -0.059  0.00  0.00    +0.224 C 
ATOM     24  C   UNL     1      -3.191   1.110   1.425  0.00  0.00    +0.137 C 
ATOM     25  C   UNL     1      -4.410  -0.072  -0.215  0.00  0.00    +0.204 C 
ATOM     26  C   UNL     1      -3.172  -0.378   1.687  0.00  0.00    +0.319 C 
ATOM     27  C   UNL     1      -1.898   1.797   1.834  0.00  0.00    +0.015 C 
ATOM     28  C   UNL     1      -4.496  -0.665  -1.613  0.00  0.00    +0.051 C 
BRANCH  23  29
ATOM     29  O   UNL     1      -4.279   2.341  -0.350  0.00  0.00    -0.373 OA
ATOM     30  H   UNL     1      -5.076   2.367   0.203  0.00  0.00    +0.211 HD
ENDBRANCH  23  29
ENDBRANCH  20  23
ENDBRANCH  18  20
ENDBRANCH  17  18
ENDBRANCH   6  17
TORSDOF 8
