REMARK  Name = 118734973
REMARK  8 active torsions:
REMARK  status: ('A' for Active; 'I' for Inactive)
REMARK    1  A    between atoms: C_2  and  C_23
REMARK    2  A    between atoms: C_4  and  C_28
REMARK    3  A    between atoms: C_6  and  C_15
REMARK    4  A    between atoms: C_23  and  C_26
REMARK    5  A    between atoms: C_28  and  C_29
REMARK    6  A    between atoms: C_29  and  C_30
REMARK    7  A    between atoms: C_29  and  O_35
REMARK    8  A    between atoms: C_30  and  O_33
REMARK                            x       y       z     vdW  Elec       q    Type
REMARK                         _______ _______ _______ _____ _____    ______ ____
ROOT
ATOM      1  N   UNK A   1       1.164   0.654   0.500  0.00  0.00    -0.356 N 
ATOM      2  C   UNK A   1      -0.013   1.307   0.252  0.00  0.00    +0.037 A 
ATOM      3  C   UNK A   1       1.071  -0.660   0.102  0.00  0.00    +0.052 A 
ATOM      4  C   UNK A   1       2.016  -1.692   0.161  0.00  0.00    -0.004 C 
ATOM      5  C   UNK A   1      -0.213  -0.843  -0.416  0.00  0.00    +0.016 A 
ATOM      6  C   UNK A   1      -0.885   0.407  -0.315  0.00  0.00    +0.014 A 
ATOM      7  C   UNK A   1       1.635  -2.946  -0.325  0.00  0.00    -0.003 C 
ATOM      8  C   UNK A   1      -0.574  -2.117  -0.899  0.00  0.00    +0.001 C 
ATOM      9  C   UNK A   1       0.360  -3.157  -0.847  0.00  0.00    -0.000 C 
ATOM     10  H   UNK A   1       1.962   1.065   0.905  0.00  0.00    +0.166 HD
ENDROOT
BRANCH   6  15
ATOM     11  O   UNK A   1      -4.730   1.530  -1.641  0.00  0.00    -0.269 OA
ATOM     12  O   ALA A   2      -4.413  -2.191   2.193  0.00  0.00    -0.273 OA
ATOM     13  N   UNK A   1      -3.343  -0.744   0.773  0.00  0.00    -0.279 N 
ATOM     14  N   ALA A   2      -5.741  -0.035  -0.302  0.00  0.00    -0.294 N 
ATOM     15  C   UNK A   1      -2.208   0.705  -0.713  0.00  0.00    +0.020 C 
ATOM     16  C   UNK A   1      -3.344   0.161  -0.258  0.00  0.00    +0.104 C 
ATOM     17  C   UNK A   1      -4.645   0.612  -0.829  0.00  0.00    +0.260 C 
ATOM     18  CA  ALA A   2      -5.680  -1.329   0.348  0.00  0.00    +0.149 C 
ATOM     19  C   ALA A   2      -4.454  -1.419   1.234  0.00  0.00    +0.244 C 
ATOM     20  CB  ALA A   2      -5.678  -2.460  -0.672  0.00  0.00    +0.031 C 
ATOM     21  H   UNK A   1      -2.483  -0.926   1.217  0.00  0.00    +0.155 HD
ATOM     22  H   ALA A   2      -6.618   0.408  -0.372  0.00  0.00    +0.150 HD
ENDBRANCH   6  15
BRANCH   2  23
ATOM     23  C   UNK A   1      -0.169   2.736   0.591  0.00  0.00    +0.052 C 
ATOM     24  C   UNK A   1       1.107   3.441   1.187  0.00  0.00    +0.010 C 
ATOM     25  C   UNK A   1      -1.260   2.918   1.705  0.00  0.00    +0.010 C 
BRANCH  23  26
ATOM     26  C   UNK A   1      -0.493   3.589  -0.664  0.00  0.00    -0.021 C 
ATOM     27  C   UNK A   1      -1.567   4.350  -0.907  0.00  0.00    -0.005 C 
ENDBRANCH  23  26
ENDBRANCH   2  23
BRANCH   4  28
ATOM     28  C   UNK A   1       3.408  -1.498   0.720  0.00  0.00    +0.059 C 
BRANCH  28  29
ATOM     29  C   UNK A   1       4.332  -0.773  -0.271  0.00  0.00    +0.140 C 
BRANCH  29  30
ATOM     30  C   UNK A   1       5.622  -0.189   0.359  0.00  0.00    +0.118 C 
ATOM     31  C   UNK A   1       6.445  -1.252   1.094  0.00  0.00    +0.032 C 
ATOM     32  C   UNK A   1       5.353   0.998   1.287  0.00  0.00    +0.032 C 
BRANCH  30  33
ATOM     33  O   UNK A   1       6.440   0.309  -0.711  0.00  0.00    -0.353 OA
ATOM     34  C   UNK A   1       5.756   1.304  -1.451  0.00  0.00    +0.174 C 
ENDBRANCH  30  33
ENDBRANCH  29  30
BRANCH  29  35
ATOM     35  O   UNK A   1       4.702  -1.715  -1.286  0.00  0.00    -0.382 OA
ATOM     36  H   UNK A   1       3.902  -2.087  -1.688  0.00  0.00    +0.210 HD
ENDBRANCH  29  35
ENDBRANCH  28  29
ENDBRANCH   4  28
TORSDOF 8
