REMARK  Name = 118701744
REMARK  10 active torsions:
REMARK  status: ('A' for Active; 'I' for Inactive)
REMARK    1  A    between atoms: C_1  and  N_3
REMARK    2  A    between atoms: C_1  and  C_15
REMARK    3  A    between atoms: C_1  and  C_18
REMARK    4  A    between atoms: C_4  and  CA_6
REMARK    5  A    between atoms: CA_6  and  N_7
REMARK    6  A    between atoms: CA_6  and  CB_11
REMARK    7  A    between atoms: C_15  and  O_16
REMARK    8  A    between atoms: C_18  and  O_19
REMARK    9  A    between atoms: C_18  and  C_21
REMARK   10  A    between atoms: C_21  and  C_26
REMARK                            x       y       z     vdW  Elec       q    Type
REMARK                         _______ _______ _______ _____ _____    ______ ____
ROOT
ATOM      1  C   UNK A   2       1.058   1.503  -0.483  0.00  0.00    +0.198 C 
ENDROOT
BRANCH   1   3
ATOM      2  O   VAL A   1       2.338  -0.689  -1.838  0.00  0.00    -0.277 OA
ATOM      3  N   UNK A   2       1.543   0.280   0.114  0.00  0.00    -0.297 N 
ATOM      4  C   VAL A   1       2.150  -0.727  -0.623  0.00  0.00    +0.202 C 
ATOM      5  H   UNK A   2       1.438   0.155   1.085  0.00  0.00    +0.150 HD
BRANCH   4   6
ATOM      6  CA  VAL A   1       2.562  -1.918   0.242  0.00  0.00    +0.013 C 
BRANCH   6   7
ATOM      7  N   VAL A   1       2.382  -3.121  -0.575  0.00  0.00    +0.387 N 
ATOM      8  H1  VAL A   1       1.420  -3.162  -0.911  0.00  0.00    -0.089 HD
ATOM      9  H2  VAL A   1       2.582  -3.947  -0.011  0.00  0.00    -0.089 HD
ATOM     10  H3  VAL A   1       3.020  -3.090  -1.371  0.00  0.00    -0.089 HD
ENDBRANCH   6   7
BRANCH   6  11
ATOM     11  CB  VAL A   1       4.011  -1.813   0.775  0.00  0.00    -0.011 C 
ATOM     12  CG1 VAL A   1       5.037  -1.822  -0.362  0.00  0.00    -0.002 C 
ATOM     13  CG2 VAL A   1       4.254  -0.603   1.683  0.00  0.00    -0.002 C 
ENDBRANCH   6  11
ENDBRANCH   4   6
ENDBRANCH   1   3
BRANCH   1  15
ATOM     14  O   UNK A   2       2.309   2.714   1.226  0.00  0.00    -0.248 OA
ATOM     15  C   UNK A   2       1.893   2.643   0.077  0.00  0.00    +0.334 C 
BRANCH  15  16
ATOM     16  O   UNK A   2       2.169   3.582  -0.865  0.00  0.00    -0.479 OA
ATOM     17  H   UNK A   2       1.830   3.488  -1.734  0.00  0.00    +0.295 HD
ENDBRANCH  15  16
ENDBRANCH   1  15
BRANCH   1  18
ATOM     18  C   UNK A   2      -0.449   1.691  -0.259  0.00  0.00    +0.142 C 
BRANCH  18  19
ATOM     19  O   UNK A   2      -0.695   1.861   1.137  0.00  0.00    -0.382 OA
ATOM     20  H   UNK A   2      -1.647   1.980   1.285  0.00  0.00    +0.210 HD
ENDBRANCH  18  19
BRANCH  18  21
ATOM     21  C   UNK A   2      -1.312   0.533  -0.779  0.00  0.00    +0.063 C 
BRANCH  21  26
ATOM     22  O   UNK A   2      -3.313   1.253   0.368  0.00  0.00    -0.339 OA
ATOM     23  O   UNK A   2      -3.383  -2.885   0.113  0.00  0.00    -0.276 OA
ATOM     24  N   UNK A   2      -4.284  -0.751  -0.336  0.00  0.00    -0.327 NA
ATOM     25  C   UNK A   2      -4.257   0.228   0.757  0.00  0.00    +0.187 C 
ATOM     26  C   UNK A   2      -2.772   0.937  -0.944  0.00  0.00    +0.138 C 
ATOM     27  C   UNK A   2      -3.650  -0.199  -1.516  0.00  0.00    +0.106 C 
ATOM     28  C   UNK A   2      -3.807  -0.916   1.681  0.00  0.00    +0.133 C 
ATOM     29  C   UNK A   2      -3.785  -1.782   0.407  0.00  0.00    +0.215 C 
ATOM     30  H   UNK A   2      -5.218  -0.773  -0.025  0.00  0.00    +0.132 HD
ENDBRANCH  21  26
ENDBRANCH  18  21
ENDBRANCH   1  18
TORSDOF 10
