REMARK  Name = 118701356
REMARK  4 active torsions:
REMARK  status: ('A' for Active; 'I' for Inactive)
REMARK    1  A    between atoms: C_7  and  O_20
REMARK    2  A    between atoms: C_11  and  O_22
REMARK    3  A    between atoms: C_13  and  C_17
REMARK    4  A    between atoms: C_13  and  O_24
REMARK                            x       y       z     vdW  Elec       q    Type
REMARK                         _______ _______ _______ _____ _____    ______ ____
ROOT
ATOM      1  O   UNL     1       2.805   1.940   0.282  0.00  0.00    -0.349 OA
ATOM      2  O   UNL     1       3.238  -1.235  -0.451  0.00  0.00    -0.351 OA
ATOM      3  O   UNL     1      -0.840  -0.953  -1.353  0.00  0.00    -0.447 OA
ATOM      4  O   UNL     1      -0.450   1.015  -2.487  0.00  0.00    -0.250 OA
ATOM      5  C   UNL     1       1.185  -0.392   0.748  0.00  0.00    +0.081 C 
ATOM      6  C   UNL     1       2.110  -0.346  -0.499  0.00  0.00    +0.152 C 
ATOM      7  C   UNL     1       0.471   1.062   0.672  0.00  0.00    +0.133 C 
ATOM      8  C   UNL     1       2.410   1.107  -0.819  0.00  0.00    +0.172 C 
ATOM      9  C   UNL     1       1.427   1.971  -0.089  0.00  0.00    +0.170 C 
ATOM     10  C   UNL     1      -0.897   1.015  -0.077  0.00  0.00    +0.158 C 
ATOM     11  C   UNL     1       0.117  -1.525   0.822  0.00  0.00    +0.158 C 
ATOM     12  C   UNL     1       2.316  -1.453  -1.519  0.00  0.00    +0.172 C 
ATOM     13  C   UNL     1      -1.873  -0.009   0.505  0.00  0.00    +0.155 C 
ATOM     14  C   UNL     1      -1.168  -1.271   0.012  0.00  0.00    +0.224 C 
ATOM     15  C   UNL     1       2.071  -0.519   2.021  0.00  0.00    +0.008 C 
ATOM     16  C   UNL     1      -0.711   0.413  -1.458  0.00  0.00    +0.322 C 
ENDROOT
BRANCH  13  17
ATOM     17  C   UNL     1      -3.260   0.135  -0.060  0.00  0.00    -0.016 C 
ATOM     18  C   UNL     1      -4.075  -1.122  -0.143  0.00  0.00    +0.029 C 
ATOM     19  C   UNL     1      -3.741   1.319  -0.468  0.00  0.00    -0.007 C 
ENDBRANCH  13  17
BRANCH   7  20
ATOM     20  O   UNL     1       0.250   1.623   1.962  0.00  0.00    -0.383 OA
ATOM     21  H   UNL     1       1.089   1.662   2.447  0.00  0.00    +0.210 HD
ENDBRANCH   7  20
BRANCH  11  22
ATOM     22  O   UNL     1       0.637  -2.807   0.487  0.00  0.00    -0.381 OA
ATOM     23  H   UNL     1       1.446  -2.971   0.995  0.00  0.00    +0.210 HD
ENDBRANCH  11  22
BRANCH  13  24
ATOM     24  O   UNL     1      -2.022   0.032   1.913  0.00  0.00    -0.379 OA
ATOM     25  H   UNL     1      -1.153  -0.057   2.333  0.00  0.00    +0.211 HD
ENDBRANCH  13  24
TORSDOF 4
