REMARK  Name = 118701210
REMARK  7 active torsions:
REMARK  status: ('A' for Active; 'I' for Inactive)
REMARK    1  A    between atoms: C_9  and  O_25
REMARK    2  A    between atoms: C_14  and  O_27
REMARK    3  A    between atoms: C_16  and  O_31
REMARK    4  A    between atoms: C_17  and  O_29
REMARK    5  A    between atoms: O_31  and  C_33
REMARK    6  A    between atoms: C_33  and  C_34
REMARK    7  A    between atoms: C_34  and  C_36
REMARK                            x       y       z     vdW  Elec       q    Type
REMARK                         _______ _______ _______ _____ _____    ______ ____
ROOT
ATOM      1  O   UNL     1      -1.934  -2.881  -0.982  0.00  0.00    -0.332 OA
ATOM      2  O   UNL     1       0.084   1.484  -1.683  0.00  0.00    -0.450 OA
ATOM      3  O   UNL     1       2.113   2.164  -1.026  0.00  0.00    -0.246 OA
ATOM      4  O   UNL     1      -1.930   1.355   3.220  0.00  0.00    -0.289 OA
ATOM      5  C   UNL     1      -0.773  -0.829  -1.349  0.00  0.00    +0.073 C 
ATOM      6  C   UNL     1      -1.541  -0.756  -0.013  0.00  0.00    +0.063 C 
ATOM      7  C   UNL     1      -2.927   0.040  -0.007  0.00  0.00    +0.040 C 
ATOM      8  C   UNL     1       0.730  -1.227  -1.118  0.00  0.00    +0.060 C 
ATOM      9  C   UNL     1      -1.591  -2.274   0.283  0.00  0.00    +0.209 C 
ATOM     10  C   UNL     1      -0.807   0.453  -2.169  0.00  0.00    +0.172 C 
ATOM     11  C   UNL     1      -2.826   1.371  -0.850  0.00  0.00    +0.025 C 
ATOM     12  C   UNL     1       0.858  -2.614  -0.398  0.00  0.00    +0.036 C 
ATOM     13  C   UNL     1      -1.483  -2.008  -2.037  0.00  0.00    +0.148 C 
ATOM     14  C   UNL     1      -0.199  -2.799   0.711  0.00  0.00    +0.161 C 
ATOM     15  C   UNL     1      -2.200   1.084  -2.237  0.00  0.00    +0.048 C 
ATOM     16  C   UNL     1       1.489  -0.078  -0.451  0.00  0.00    +0.266 C 
ATOM     17  C   UNL     1      -3.274   0.402   1.474  0.00  0.00    +0.172 C 
ATOM     18  C   UNL     1      -4.131  -0.770  -0.564  0.00  0.00    +0.003 C 
ATOM     19  C   UNL     1      -2.184   2.550  -0.114  0.00  0.00    -0.041 C 
ATOM     20  C   UNL     1       2.264  -2.985   0.076  0.00  0.00    +0.003 C 
ATOM     21  C   UNL     1       1.276   1.266  -1.099  0.00  0.00    +0.358 C 
ATOM     22  C   UNL     1      -2.314   1.415   2.054  0.00  0.00    +0.199 C 
ATOM     23  C   UNL     1      -1.904   2.547   1.198  0.00  0.00    +0.031 C 
ATOM     24  C   UNL     1      -1.961   3.822  -0.895  0.00  0.00    +0.026 C 
ENDROOT
BRANCH   9  25
ATOM     25  O   UNL     1      -2.533  -2.604   1.291  0.00  0.00    -0.362 OA
ATOM     26  H   UNL     1      -3.410  -2.279   1.033  0.00  0.00    +0.213 HD
ENDBRANCH   9  25
BRANCH  14  27
ATOM     27  O   UNL     1       0.187  -2.139   1.916  0.00  0.00    -0.380 OA
ATOM     28  H   UNL     1      -0.496  -2.274   2.591  0.00  0.00    +0.211 HD
ENDBRANCH  14  27
BRANCH  17  29
ATOM     29  O   UNL     1      -4.570   0.967   1.629  0.00  0.00    -0.377 OA
ATOM     30  H   UNL     1      -5.234   0.357   1.272  0.00  0.00    +0.211 HD
ENDBRANCH  17  29
BRANCH  16  31
ATOM     31  O   UNL     1       2.895  -0.297  -0.547  0.00  0.00    -0.441 OA
BRANCH  31  33
ATOM     32  O   UNL     1       3.222   0.913   1.390  0.00  0.00    -0.250 OA
ATOM     33  C   UNL     1       3.651   0.259   0.448  0.00  0.00    +0.317 C 
BRANCH  33  34
ATOM     34  C   UNL     1       5.122  -0.029   0.198  0.00  0.00    +0.099 C 
ATOM     35  C   UNL     1       5.474  -1.351   0.875  0.00  0.00    +0.012 C 
BRANCH  34  36
ATOM     36  C   UNL     1       6.014   1.107   0.718  0.00  0.00    +0.011 C 
ATOM     37  C   UNL     1       5.702   2.444   0.058  0.00  0.00    +0.001 C 
ENDBRANCH  34  36
ENDBRANCH  33  34
ENDBRANCH  31  33
ENDBRANCH  16  31
TORSDOF 7
