118721920
  -OEChem-03292013293D

 56 59  0     1  0  0  0  0  0999 V2000
    1.8217   -2.3568    0.1621 F   0  0  0  0  0  0  0  0  0  0  0  0
   -2.0100   -3.5409    1.0084 O   0  0  0  0  0  0  0  0  0  0  0  0
    6.9865    2.2336    1.0508 O   0  0  0  0  0  0  0  0  0  0  0  0
   -4.4840    3.0272    0.0838 O   0  0  0  0  0  0  0  0  0  0  0  0
   -2.2991    1.1854    0.1088 N   0  0  0  0  0  0  0  0  0  0  0  0
   -2.8530   -0.9649    0.2043 N   0  0  0  0  0  0  0  0  0  0  0  0
   -4.6180    0.6751    0.1780 N   0  0  0  0  0  0  0  0  0  0  0  0
    4.7399    0.2493   -1.0492 N   0  0  0  0  0  0  0  0  0  0  0  0
    4.4622    1.4918    0.9967 N   0  0  0  0  0  0  0  0  0  0  0  0
   -6.5487    1.9909    0.1679 N   0  0  0  0  0  0  0  0  0  0  0  0
   -0.8074   -3.2981    0.2510 C   0  0  1  0  0  0  0  0  0  0  0  0
   -1.0257   -3.9270   -1.1196 C   0  0  0  0  0  0  0  0  0  0  0  0
   -1.9511   -5.0719   -0.7921 C   0  0  0  0  0  0  0  0  0  0  0  0
   -0.4845   -1.8272    0.1880 C   0  0  0  0  0  0  0  0  0  0  0  0
   -2.8302   -4.4642    0.2782 C   0  0  0  0  0  0  0  0  0  0  0  0
   -1.4832   -0.8389    0.1706 C   0  0  0  0  0  0  0  0  0  0  0  0
    0.8559   -1.4236    0.1441 C   0  0  0  0  0  0  0  0  0  0  0  0
   -1.1107    0.5010    0.1106 C   0  0  0  0  0  0  0  0  0  0  0  0
    1.1984   -0.0708    0.0843 C   0  0  0  0  0  0  0  0  0  0  0  0
    0.2175    0.9262    0.0661 C   0  0  0  0  0  0  0  0  0  0  0  0
   -3.3098    0.2667    0.1660 C   0  0  0  0  0  0  0  0  0  0  0  0
    2.5938    0.3152    0.0388 C   0  0  0  0  0  0  0  0  0  0  0  0
    6.6165    1.4298   -0.0930 C   0  0  0  0  0  0  0  0  0  0  0  0
    3.4364   -0.0911   -0.9758 C   0  0  0  0  0  0  0  0  0  0  0  0
    3.1672    1.1134    1.0074 C   0  0  0  0  0  0  0  0  0  0  0  0
    5.1804    1.0308   -0.0449 C   0  0  0  0  0  0  0  0  0  0  0  0
    6.9408    2.2977   -1.3325 C   0  0  0  0  0  0  0  0  0  0  0  0
    7.5638    0.2063   -0.0645 C   0  0  0  0  0  0  0  0  0  0  0  0
   -5.1505    1.9963    0.1380 C   0  0  0  0  0  0  0  0  0  0  0  0
   -7.3427    3.1975    0.1379 C   0  0  0  0  0  0  0  0  0  0  0  0
   -7.4725    3.7412   -1.2700 C   0  0  0  0  0  0  0  0  0  0  0  0
   -0.0122   -3.8315    0.7868 H   0  0  0  0  0  0  0  0  0  0  0  0
   -0.0921   -4.2435   -1.5941 H   0  0  0  0  0  0  0  0  0  0  0  0
   -1.5299   -3.2322   -1.8032 H   0  0  0  0  0  0  0  0  0  0  0  0
   -2.5166   -5.4402   -1.6517 H   0  0  0  0  0  0  0  0  0  0  0  0
   -1.3747   -5.9060   -0.3749 H   0  0  0  0  0  0  0  0  0  0  0  0
   -3.6596   -3.9004   -0.1621 H   0  0  0  0  0  0  0  0  0  0  0  0
   -3.2404   -5.2128    0.9616 H   0  0  0  0  0  0  0  0  0  0  0  0
    0.4619    1.9824    0.0147 H   0  0  0  0  0  0  0  0  0  0  0  0
   -2.4041    2.1904    0.0718 H   0  0  0  0  0  0  0  0  0  0  0  0
    3.0900   -0.7170   -1.7929 H   0  0  0  0  0  0  0  0  0  0  0  0
    2.5985    1.4863    1.8541 H   0  0  0  0  0  0  0  0  0  0  0  0
   -5.2949   -0.0820    0.2219 H   0  0  0  0  0  0  0  0  0  0  0  0
    6.7491    1.7586   -2.2664 H   0  0  0  0  0  0  0  0  0  0  0  0
    7.3987   -0.3861    0.8433 H   0  0  0  0  0  0  0  0  0  0  0  0
    7.4108   -0.4465   -0.9305 H   0  0  0  0  0  0  0  0  0  0  0  0
    6.3312    3.2091   -1.3332 H   0  0  0  0  0  0  0  0  0  0  0  0
    8.6141    0.5192   -0.0491 H   0  0  0  0  0  0  0  0  0  0  0  0
    7.9885    2.6198   -1.3275 H   0  0  0  0  0  0  0  0  0  0  0  0
    7.9275    2.4648    0.9685 H   0  0  0  0  0  0  0  0  0  0  0  0
   -7.0305    1.0978    0.2021 H   0  0  0  0  0  0  0  0  0  0  0  0
   -8.3288    2.9522    0.5443 H   0  0  0  0  0  0  0  0  0  0  0  0
   -6.8759    3.9443    0.7886 H   0  0  0  0  0  0  0  0  0  0  0  0
   -6.4952    4.0031   -1.6885 H   0  0  0  0  0  0  0  0  0  0  0  0
   -7.9306    3.0009   -1.9345 H   0  0  0  0  0  0  0  0  0  0  0  0
   -8.0971    4.6397   -1.2757 H   0  0  0  0  0  0  0  0  0  0  0  0
  1 17  1  0  0  0  0
  2 11  1  0  0  0  0
  2 15  1  0  0  0  0
  3 23  1  0  0  0  0
  3 50  1  0  0  0  0
  4 29  2  0  0  0  0
  5 18  1  0  0  0  0
  5 21  1  0  0  0  0
  5 40  1  0  0  0  0
  6 16  1  0  0  0  0
  6 21  2  0  0  0  0
  7 21  1  0  0  0  0
  7 29  1  0  0  0  0
  7 43  1  0  0  0  0
  8 24  2  0  0  0  0
  8 26  1  0  0  0  0
  9 25  1  0  0  0  0
  9 26  2  0  0  0  0
 10 29  1  0  0  0  0
 10 30  1  0  0  0  0
 10 51  1  0  0  0  0
 11 12  1  0  0  0  0
 11 14  1  0  0  0  0
 11 32  1  0  0  0  0
 12 13  1  0  0  0  0
 12 33  1  0  0  0  0
 12 34  1  0  0  0  0
 13 15  1  0  0  0  0
 13 35  1  0  0  0  0
 13 36  1  0  0  0  0
 14 16  1  0  0  0  0
 14 17  2  0  0  0  0
 15 37  1  0  0  0  0
 15 38  1  0  0  0  0
 16 18  2  0  0  0  0
 17 19  1  0  0  0  0
 18 20  1  0  0  0  0
 19 20  2  0  0  0  0
 19 22  1  0  0  0  0
 20 39  1  0  0  0  0
 22 24  1  0  0  0  0
 22 25  2  0  0  0  0
 23 26  1  0  0  0  0
 23 27  1  0  0  0  0
 23 28  1  0  0  0  0
 24 41  1  0  0  0  0
 25 42  1  0  0  0  0
 27 44  1  0  0  0  0
 27 47  1  0  0  0  0
 27 49  1  0  0  0  0
 28 45  1  0  0  0  0
 28 46  1  0  0  0  0
 28 48  1  0  0  0  0
 30 31  1  0  0  0  0
 30 52  1  0  0  0  0
 30 53  1  0  0  0  0
 31 54  1  0  0  0  0
 31 55  1  0  0  0  0
 31 56  1  0  0  0  0
M  END
> <PUBCHEM_COMPOUND_CID>
118721920

> <PUBCHEM_CONFORMER_RMSD>
1

> <PUBCHEM_CONFORMER_DIVERSEORDER>
1
4
5
6
8
7
3
12
2
9
11
13
10

> <PUBCHEM_MMFF94_PARTIAL_CHARGES>
31
1 -0.19
10 -0.73
11 0.42
14 -0.14
15 0.28
16 0.23
17 0.19
18 -0.15
2 -0.56
20 -0.15
21 0.25
23 0.42
24 0.16
25 0.16
26 0.48
29 0.69
3 -0.68
30 0.3
39 0.15
4 -0.57
40 0.27
41 0.15
42 0.15
43 0.37
5 0.03
50 0.4
51 0.37
6 -0.57
7 -0.49
8 -0.62
9 -0.62

> <PUBCHEM_EFFECTIVE_ROTOR_COUNT>
8

> <PUBCHEM_PHARMACOPHORE_FEATURES>
14
1 10 donor
1 2 acceptor
1 3 acceptor
1 3 donor
1 4 acceptor
1 5 donor
1 7 donor
1 8 acceptor
3 23 27 28 hydrophobe
3 8 9 26 cation
5 2 11 12 13 15 rings
5 5 6 16 18 21 rings
6 14 16 17 18 19 20 rings
6 8 9 22 24 25 26 rings

> <PUBCHEM_HEAVY_ATOM_COUNT>
31

> <PUBCHEM_ATOM_DEF_STEREO_COUNT>
1

> <PUBCHEM_ATOM_UDEF_STEREO_COUNT>
0

> <PUBCHEM_BOND_DEF_STEREO_COUNT>
0

> <PUBCHEM_BOND_UDEF_STEREO_COUNT>
0

> <PUBCHEM_ISOTOPIC_ATOM_COUNT>
0

> <PUBCHEM_COMPONENT_COUNT>
1

> <PUBCHEM_CACTVS_TAUTO_COUNT>
27

> <PUBCHEM_CONFORMER_ID>
07138D8000000001

> <PUBCHEM_MMFF94_ENERGY>
69.0449

> <PUBCHEM_FEATURE_SELFOVERLAP>
71.233

> <PUBCHEM_SHAPE_FINGERPRINT>
10 15 18041001705283017345
10050765 1 18410013238939311314
10190206 1 18341601668988465287
10369192 42 18334294228663337389
10411042 1 17690562309424533467
10675989 125 17980487754495685249
11135609 127 18048588232556580965
11297750 10 17698156593471831163
11443803 9 18261663831847640771
11796584 16 18341617036587060938
12107183 9 18262790762831854402
12236239 1 17604427522503233112
12293681 160 17846216618582537633
12522641 68 18272367560116738591
12539765 74 18129949957980580205
12788726 201 18191576661210370107
13150687 139 18339647732944799646
13248334 5 17905890271676760051
13540713 4 18266762253717071775
13540713 5 18263906817962140883
13757389 114 18337397131490378045
14068700 686 18118688712992826509
14150023 24 18261949657125283059
14294032 229 18260261962843285053
14790565 3 18196096542788941377
14931854 50 17846217705062219625
14937079 2 18122627146178879154
15131766 46 15143238994313916238
15198563 99 18054783155834875087
15230672 131 18410014313445798958
15324884 4 17974326207546042227
15347591 1 18267866259082594288
15439362 3 18267585714900762999
15803439 3 17132110234775541079
15890870 6 18410292472059085933
15927050 60 18412260631821138663
16087824 20 18339360890430632639
16990366 60 10375284727102303677
18365409 1 18340203090171365711
20505436 4 18040713654120000554
20554085 129 18130490951707379730
21049683 118 18265873844390053939
21236236 1 18267869574117150642
21424621 283 18341615876096825105
21781055 127 17916022352756268626
23522609 53 17604723299742561492
23523788 1 12107781861509208168
23559900 14 18271814545123701046
23729398 52 17836095476563121023
23929065 36 18126268981480623315
25147074 1 18114726231788953178
3103668 31 18195236940389222567
3411729 13 18116151082529793739
3627633 1 17906169904117723423
4058900 60 18268156366162803241
4073 2 18341050830826454586
4403749 210 18408042931798293841
504843 32 18333446556727334023
5171179 24 17627505278504411288
5219985 13 18335983073827291317
563151 97 18338505366956062639
5969126 39 17984699184604406151
59755656 520 18409442587781551918
6057620 51 18270675365389839553
6327066 14 18408885118491366757
6669772 16 18200601293578759367
6700243 42 17551274995269072892
77188 2 17114101063426431935
7808743 9 18408602595526837576
9658208 31 18343576365125837025
9896288 288 18187652469935450147

> <PUBCHEM_SHAPE_MULTIPOLES>
583.2
18.81
5.76
0.97
8.22
7.18
0.16
-28.83
2.47
-11.13
1.07
0.51
-0.11
0.82

> <PUBCHEM_SHAPE_SELFOVERLAP>
1267.046

> <PUBCHEM_SHAPE_VOLUME>
321.5

> <PUBCHEM_COORDINATE_TYPE>
2
5
10

$$$$
