REMARK  Name = 11875272
REMARK  8 active torsions:
REMARK  status: ('A' for Active; 'I' for Inactive)
REMARK    1  A    between atoms: N_1  and  C_14
REMARK    2  A    between atoms: N_1  and  O_26
REMARK    3  A    between atoms: C_5  and  O_20
REMARK    4  A    between atoms: C_9  and  O_22
REMARK    5  A    between atoms: C_19  and  O_24
REMARK    6  A    between atoms: O_26  and  C_27
REMARK    7  A    between atoms: C_27  and  C_29
REMARK    8  A    between atoms: C_29  and  O_30
REMARK                            x       y       z     vdW  Elec       q    Type
REMARK                         _______ _______ _______ _____ _____    ______ ____
ROOT
ATOM      1  C   UNL     1      -3.769   0.372  -0.294  0.00  0.00    +0.027 C 
ATOM      2  C   UNL     1      -2.762  -0.637   0.287  0.00  0.00    +0.005 C 
ATOM      3  C   UNL     1      -1.309  -0.242   0.014  0.00  0.00    +0.006 C 
ATOM      4  C   UNL     1      -5.081  -0.338   0.085  0.00  0.00    +0.137 C 
ATOM      5  C   UNL     1      -1.022   1.142   0.657  0.00  0.00    +0.022 C 
ATOM      6  C   UNL     1      -3.542   1.715   0.408  0.00  0.00    +0.003 C 
ATOM      7  C   UNL     1      -3.271  -1.988  -0.219  0.00  0.00    +0.032 C 
ATOM      8  C   UNL     1      -4.803  -1.822  -0.236  0.00  0.00    +0.137 C 
ATOM      9  C   UNL     1      -2.090   2.197   0.255  0.00  0.00    +0.004 C 
ATOM     10  C   UNL     1      -3.679   0.569  -1.829  0.00  0.00    +0.002 C 
ATOM     11  C   UNL     1      -0.336  -1.267   0.586  0.00  0.00    +0.025 C 
ATOM     12  C   UNL     1       0.422   1.550   0.372  0.00  0.00    -0.025 C 
ATOM     13  C   UNL     1       1.102  -0.872   0.329  0.00  0.00    +0.125 C 
ATOM     14  C   UNL     1       1.436   0.579   0.216  0.00  0.00    -0.005 C 
ATOM     15  C   UNL     1       0.791   2.908   0.315  0.00  0.00    -0.001 C 
ATOM     16  C   UNL     1       2.759   0.979  -0.036  0.00  0.00    +0.033 C 
ATOM     17  C   UNL     1       2.108   3.295   0.070  0.00  0.00    +0.036 C 
ATOM     18  C   UNL     1       3.090   2.331  -0.112  0.00  0.00    +0.133 C 
ENDROOT
BRANCH   4  19
ATOM     19  O   UNL     1      -6.195   0.147  -0.643  0.00  0.00    -0.382 OA
ATOM     20  H   UNL     1      -6.345   1.079  -0.422  0.00  0.00    +0.210 HD
ENDBRANCH   4  19
BRANCH   8  21
ATOM     21  O   UNL     1      -5.410  -2.653   0.746  0.00  0.00    -0.382 OA
ATOM     22  H   UNL     1      -6.373  -2.535   0.720  0.00  0.00    +0.210 HD
ENDBRANCH   8  21
BRANCH  18  23
ATOM     23  O   UNL     1       4.375   2.705  -0.355  0.00  0.00    -0.506 OA
ATOM     24  H   UNL     1       5.038   2.054  -0.477  0.00  0.00    +0.292 HD
ENDBRANCH  18  23
BRANCH  13  25
ATOM     25  N   UNL     1       1.960  -1.838   0.254  0.00  0.00    -0.080 NA
BRANCH  25  26
ATOM     26  O   UNL     1       3.229  -1.281   0.053  0.00  0.00    -0.254 OA
BRANCH  26  27
ATOM     27  C   UNL     1       4.165  -2.345  -0.027  0.00  0.00    +0.277 C 
BRANCH  27  29
ATOM     28  O   UNL     1       5.834  -0.611  -0.361  0.00  0.00    -0.247 OA
ATOM     29  C   UNL     1       5.546  -1.793  -0.243  0.00  0.00    +0.347 C 
BRANCH  29  30
ATOM     30  O   UNL     1       6.452  -2.802  -0.291  0.00  0.00    -0.478 OA
ATOM     31  H   UNL     1       6.170  -3.690  -0.194  0.00  0.00    +0.295 HD
ENDBRANCH  29  30
ENDBRANCH  27  29
ENDBRANCH  26  27
ENDBRANCH  25  26
ENDBRANCH  13  25
TORSDOF 8
