REMARK  Name = 118720375
REMARK  6 active torsions:
REMARK  status: ('A' for Active; 'I' for Inactive)
REMARK    1  A    between atoms: C_10  and  O_23
REMARK    2  A    between atoms: C_11  and  O_27
REMARK    3  A    between atoms: C_16  and  O_31
REMARK    4  A    between atoms: O_23  and  C_25
REMARK    5  A    between atoms: O_27  and  C_29
REMARK    6  A    between atoms: O_31  and  C_33
REMARK                            x       y       z     vdW  Elec       q    Type
REMARK                         _______ _______ _______ _____ _____    ______ ____
ROOT
ATOM      1  O   UNL     1      -0.583   3.466  -0.144  0.00  0.00    -0.350 OA
ATOM      2  O   UNL     1      -0.626  -3.133   1.076  0.00  0.00    -0.288 OA
ATOM      3  C   UNL     1      -4.124   0.691  -0.880  0.00  0.00    +0.004 C 
ATOM      4  C   UNL     1      -5.052  -0.050   0.073  0.00  0.00    +0.004 C 
ATOM      5  C   UNL     1      -3.968  -0.810  -0.680  0.00  0.00    +0.022 C 
ATOM      6  C   UNL     1      -0.624   2.155  -0.735  0.00  0.00    +0.157 C 
ATOM      7  C   UNL     1      -3.108   1.694  -0.402  0.00  0.00    +0.003 C 
ATOM      8  C   UNL     1      -1.952   1.845  -1.400  0.00  0.00    +0.033 C 
ATOM      9  C   UNL     1       0.580  -0.091  -0.754  0.00  0.00    +0.126 C 
ATOM     10  C   UNL     1       0.022   1.064   0.111  0.00  0.00    +0.203 C 
ATOM     11  C   UNL     1       0.733  -1.447  -0.011  0.00  0.00    +0.197 C 
ATOM     12  C   UNL     1      -4.818   0.176   1.551  0.00  0.00    +0.000 C 
ATOM     13  C   UNL     1      -6.514  -0.234  -0.252  0.00  0.00    +0.000 C 
ATOM     14  C   UNL     1       0.222   3.272  -1.314  0.00  0.00    +0.173 C 
ATOM     15  C   UNL     1      -2.736  -1.319  -0.054  0.00  0.00    -0.028 C 
ATOM     16  C   UNL     1       1.966   0.109  -1.398  0.00  0.00    +0.176 C 
ATOM     17  C   UNL     1       2.255  -1.295  -1.945  0.00  0.00    +0.044 C 
ATOM     18  C   UNL     1       1.767  -2.245  -0.836  0.00  0.00    +0.052 C 
ATOM     19  C   UNL     1      -1.744  -2.003  -0.655  0.00  0.00    +0.012 C 
ATOM     20  C   UNL     1      -0.554  -2.262   0.206  0.00  0.00    +0.205 C 
ATOM     21  C   UNL     1       3.701  -1.552  -2.341  0.00  0.00    +0.004 C 
ATOM     22  C   UNL     1      -1.697  -2.476  -2.071  0.00  0.00    +0.034 C 
ENDROOT
BRANCH  10  23
ATOM     23  O   UNL     1       1.024   1.605   0.970  0.00  0.00    -0.449 OA
BRANCH  23  25
ATOM     24  O   UNL     1      -0.577   2.060   2.572  0.00  0.00    -0.250 OA
ATOM     25  C   UNL     1       0.580   2.069   2.175  0.00  0.00    +0.318 C 
ATOM     26  C   UNL     1       1.735   2.605   2.967  0.00  0.00    +0.121 C 
ENDBRANCH  23  25
ENDBRANCH  10  23
BRANCH  11  27
ATOM     27  O   UNL     1       1.268  -1.225   1.293  0.00  0.00    -0.448 OA
BRANCH  27  29
ATOM     28  O   UNL     1       1.768  -3.458   1.611  0.00  0.00    -0.250 OA
ATOM     29  C   UNL     1       1.963  -2.270   1.830  0.00  0.00    +0.318 C 
ATOM     30  C   UNL     1       3.025  -1.749   2.751  0.00  0.00    +0.121 C 
ENDBRANCH  27  29
ENDBRANCH  11  27
BRANCH  16  31
ATOM     31  O   UNL     1       2.945   0.496  -0.448  0.00  0.00    -0.452 OA
BRANCH  31  33
ATOM     32  O   UNL     1       4.168   1.544  -2.103  0.00  0.00    -0.250 OA
ATOM     33  C   UNL     1       4.002   1.215  -0.937  0.00  0.00    +0.317 C 
ATOM     34  C   UNL     1       4.951   1.552   0.173  0.00  0.00    +0.121 C 
ENDBRANCH  31  33
ENDBRANCH  16  31
TORSDOF 6
