118720375
  -OEChem-03292013293D

 70 73  0     1  0  0  0  0  0999 V2000
   -0.5830    3.4656   -0.1436 O   0  0  0  0  0  0  0  0  0  0  0  0
    1.0241    1.6050    0.9702 O   0  0  0  0  0  0  0  0  0  0  0  0
    1.2685   -1.2248    1.2931 O   0  0  0  0  0  0  0  0  0  0  0  0
    2.9452    0.4960   -0.4476 O   0  0  0  0  0  0  0  0  0  0  0  0
   -0.6261   -3.1329    1.0759 O   0  0  0  0  0  0  0  0  0  0  0  0
   -0.5770    2.0601    2.5720 O   0  0  0  0  0  0  0  0  0  0  0  0
    1.7683   -3.4577    1.6113 O   0  0  0  0  0  0  0  0  0  0  0  0
    4.1683    1.5443   -2.1035 O   0  0  0  0  0  0  0  0  0  0  0  0
   -4.1239    0.6905   -0.8804 C   0  0  2  0  0  0  0  0  0  0  0  0
   -5.0517   -0.0495    0.0734 C   0  0  0  0  0  0  0  0  0  0  0  0
   -3.9677   -0.8098   -0.6802 C   0  0  2  0  0  0  0  0  0  0  0  0
   -0.6239    2.1555   -0.7346 C   0  0  2  0  0  0  0  0  0  0  0  0
   -3.1084    1.6944   -0.4023 C   0  0  0  0  0  0  0  0  0  0  0  0
   -1.9518    1.8454   -1.3996 C   0  0  0  0  0  0  0  0  0  0  0  0
    0.5801   -0.0906   -0.7543 C   0  0  2  0  0  0  0  0  0  0  0  0
    0.0223    1.0638    0.1107 C   0  0  1  0  0  0  0  0  0  0  0  0
    0.7327   -1.4467   -0.0115 C   0  0  1  0  0  0  0  0  0  0  0  0
   -4.8181    0.1758    1.5514 C   0  0  0  0  0  0  0  0  0  0  0  0
   -6.5140   -0.2341   -0.2520 C   0  0  0  0  0  0  0  0  0  0  0  0
    0.2218    3.2722   -1.3140 C   0  0  0  0  0  0  0  0  0  0  0  0
   -2.7360   -1.3194   -0.0541 C   0  0  0  0  0  0  0  0  0  0  0  0
    1.9656    0.1090   -1.3984 C   0  0  2  0  0  0  0  0  0  0  0  0
    2.2550   -1.2950   -1.9450 C   0  0  2  0  0  0  0  0  0  0  0  0
    1.7671   -2.2455   -0.8357 C   0  0  0  0  0  0  0  0  0  0  0  0
   -1.7438   -2.0030   -0.6547 C   0  0  0  0  0  0  0  0  0  0  0  0
   -0.5545   -2.2623    0.2064 C   0  0  0  0  0  0  0  0  0  0  0  0
    3.7012   -1.5517   -2.3412 C   0  0  0  0  0  0  0  0  0  0  0  0
   -1.6974   -2.4759   -2.0708 C   0  0  0  0  0  0  0  0  0  0  0  0
    0.5804    2.0689    2.1752 C   0  0  0  0  0  0  0  0  0  0  0  0
    1.9631   -2.2697    1.8304 C   0  0  0  0  0  0  0  0  0  0  0  0
    4.0023    1.2148   -0.9369 C   0  0  0  0  0  0  0  0  0  0  0  0
    1.7349    2.6048    2.9666 C   0  0  0  0  0  0  0  0  0  0  0  0
    3.0254   -1.7492    2.7505 C   0  0  0  0  0  0  0  0  0  0  0  0
    4.9508    1.5515    0.1734 C   0  0  0  0  0  0  0  0  0  0  0  0
   -4.5510    1.0070   -1.8285 H   0  0  0  0  0  0  0  0  0  0  0  0
   -4.3388   -1.4454   -1.4807 H   0  0  0  0  0  0  0  0  0  0  0  0
   -2.7194    1.4555    0.5867 H   0  0  0  0  0  0  0  0  0  0  0  0
   -3.6070    2.6654   -0.2903 H   0  0  0  0  0  0  0  0  0  0  0  0
   -1.8444    0.9423   -2.0091 H   0  0  0  0  0  0  0  0  0  0  0  0
   -2.2142    2.6386   -2.1119 H   0  0  0  0  0  0  0  0  0  0  0  0
   -0.1072   -0.2409   -1.5921 H   0  0  0  0  0  0  0  0  0  0  0  0
   -0.7605    0.6194    0.7322 H   0  0  0  0  0  0  0  0  0  0  0  0
   -7.0869    0.6520    0.0394 H   0  0  0  0  0  0  0  0  0  0  0  0
   -6.9181   -1.1023    0.2784 H   0  0  0  0  0  0  0  0  0  0  0  0
   -6.6640   -0.3946   -1.3249 H   0  0  0  0  0  0  0  0  0  0  0  0
   -3.7890    0.3388    1.8711 H   0  0  0  0  0  0  0  0  0  0  0  0
   -5.3890    1.0520    1.8804 H   0  0  0  0  0  0  0  0  0  0  0  0
   -5.1905   -0.6876    2.1149 H   0  0  0  0  0  0  0  0  0  0  0  0
    1.2958    3.2429   -1.1824 H   0  0  0  0  0  0  0  0  0  0  0  0
   -0.0999    3.7543   -2.2284 H   0  0  0  0  0  0  0  0  0  0  0  0
   -2.5904   -1.0914    0.9980 H   0  0  0  0  0  0  0  0  0  0  0  0
    1.8875    0.8419   -2.2104 H   0  0  0  0  0  0  0  0  0  0  0  0
    1.6261   -1.4568   -2.8313 H   0  0  0  0  0  0  0  0  0  0  0  0
    1.3227   -3.1345   -1.2996 H   0  0  0  0  0  0  0  0  0  0  0  0
    2.6610   -2.5819   -0.3067 H   0  0  0  0  0  0  0  0  0  0  0  0
    4.3905   -1.4583   -1.4963 H   0  0  0  0  0  0  0  0  0  0  0  0
    4.0178   -0.8655   -3.1323 H   0  0  0  0  0  0  0  0  0  0  0  0
    3.8072   -2.5699   -2.7321 H   0  0  0  0  0  0  0  0  0  0  0  0
   -2.5008   -2.0522   -2.6797 H   0  0  0  0  0  0  0  0  0  0  0  0
   -1.7909   -3.5664   -2.1010 H   0  0  0  0  0  0  0  0  0  0  0  0
   -0.7553   -2.2073   -2.5553 H   0  0  0  0  0  0  0  0  0  0  0  0
    2.4637    1.8092    3.1415 H   0  0  0  0  0  0  0  0  0  0  0  0
    1.3753    2.9675    3.9336 H   0  0  0  0  0  0  0  0  0  0  0  0
    2.1958    3.4379    2.4301 H   0  0  0  0  0  0  0  0  0  0  0  0
    2.5662   -1.1756    3.5595 H   0  0  0  0  0  0  0  0  0  0  0  0
    3.5728   -2.5901    3.1856 H   0  0  0  0  0  0  0  0  0  0  0  0
    3.7281   -1.1280    2.1893 H   0  0  0  0  0  0  0  0  0  0  0  0
    4.4388    2.1562    0.9261 H   0  0  0  0  0  0  0  0  0  0  0  0
    5.7890    2.1286   -0.2272 H   0  0  0  0  0  0  0  0  0  0  0  0
    5.3403    0.6323    0.6178 H   0  0  0  0  0  0  0  0  0  0  0  0
  1 12  1  0  0  0  0
  1 20  1  0  0  0  0
  2 16  1  0  0  0  0
  2 29  1  0  0  0  0
  3 17  1  0  0  0  0
  3 30  1  0  0  0  0
  4 22  1  0  0  0  0
  4 31  1  0  0  0  0
  5 26  2  0  0  0  0
  6 29  2  0  0  0  0
  7 30  2  0  0  0  0
  8 31  2  0  0  0  0
  9 10  1  0  0  0  0
  9 11  1  0  0  0  0
  9 13  1  0  0  0  0
  9 35  1  0  0  0  0
 10 11  1  0  0  0  0
 10 18  1  0  0  0  0
 10 19  1  0  0  0  0
 11 21  1  0  0  0  0
 11 36  1  0  0  0  0
 12 14  1  0  0  0  0
 12 16  1  0  0  0  0
 12 20  1  0  0  0  0
 13 14  1  0  0  0  0
 13 37  1  0  0  0  0
 13 38  1  0  0  0  0
 14 39  1  0  0  0  0
 14 40  1  0  0  0  0
 15 16  1  0  0  0  0
 15 17  1  0  0  0  0
 15 22  1  0  0  0  0
 15 41  1  0  0  0  0
 16 42  1  0  0  0  0
 17 24  1  0  0  0  0
 17 26  1  0  0  0  0
 18 46  1  0  0  0  0
 18 47  1  0  0  0  0
 18 48  1  0  0  0  0
 19 43  1  0  0  0  0
 19 44  1  0  0  0  0
 19 45  1  0  0  0  0
 20 49  1  0  0  0  0
 20 50  1  0  0  0  0
 21 25  2  0  0  0  0
 21 51  1  0  0  0  0
 22 23  1  0  0  0  0
 22 52  1  0  0  0  0
 23 24  1  0  0  0  0
 23 27  1  0  0  0  0
 23 53  1  0  0  0  0
 24 54  1  0  0  0  0
 24 55  1  0  0  0  0
 25 26  1  0  0  0  0
 25 28  1  0  0  0  0
 27 56  1  0  0  0  0
 27 57  1  0  0  0  0
 27 58  1  0  0  0  0
 28 59  1  0  0  0  0
 28 60  1  0  0  0  0
 28 61  1  0  0  0  0
 29 32  1  0  0  0  0
 30 33  1  0  0  0  0
 31 34  1  0  0  0  0
 32 62  1  0  0  0  0
 32 63  1  0  0  0  0
 32 64  1  0  0  0  0
 33 65  1  0  0  0  0
 33 66  1  0  0  0  0
 33 67  1  0  0  0  0
 34 68  1  0  0  0  0
 34 69  1  0  0  0  0
 34 70  1  0  0  0  0
M  END
> <PUBCHEM_COMPOUND_CID>
118720375

> <PUBCHEM_CONFORMER_RMSD>
1

> <PUBCHEM_CONFORMER_DIVERSEORDER>
1

> <PUBCHEM_MMFF94_PARTIAL_CHARGES>
35
1 -0.3
10 -0.19
11 -0.06
12 -0.04
13 0.09
14 0.09
16 0.38
17 0.34
18 0.09
19 0.09
2 -0.43
20 -0.05
21 -0.19
22 0.28
25 -0.12
26 0.49
28 0.14
29 0.66
3 -0.43
30 0.66
31 0.66
32 0.06
33 0.06
34 0.06
35 0.1
36 0.1
4 -0.43
49 0.1
5 -0.57
50 0.1
51 0.15
6 -0.57
7 -0.57
8 -0.57
9 -0.19

> <PUBCHEM_EFFECTIVE_ROTOR_COUNT>
7.8

> <PUBCHEM_PHARMACOPHORE_FEATURES>
7
1 1 acceptor
1 5 acceptor
1 6 acceptor
1 7 acceptor
1 8 acceptor
3 10 18 19 hydrophobe
5 15 17 22 23 24 rings

> <PUBCHEM_HEAVY_ATOM_COUNT>
34

> <PUBCHEM_ATOM_DEF_STEREO_COUNT>
8

> <PUBCHEM_ATOM_UDEF_STEREO_COUNT>
0

> <PUBCHEM_BOND_DEF_STEREO_COUNT>
1

> <PUBCHEM_BOND_UDEF_STEREO_COUNT>
0

> <PUBCHEM_ISOTOPIC_ATOM_COUNT>
0

> <PUBCHEM_COMPONENT_COUNT>
1

> <PUBCHEM_CACTVS_TAUTO_COUNT>
24

> <PUBCHEM_CONFORMER_ID>
0713877700000001

> <PUBCHEM_MMFF94_ENERGY>
110.4755

> <PUBCHEM_FEATURE_SELFOVERLAP>
35.546

> <PUBCHEM_SHAPE_FINGERPRINT>
10006869 2 18336539413799605413
10906281 52 18120395386756047900
1100329 8 18190745434429336685
11578080 2 17097191858221372580
12035758 1 18339924947150493808
12156800 1 17753606046653932224
12467345 10 18042108909080435394
12553582 1 18337954477043779647
12633257 1 17987492923559545675
13140716 1 17974290121119603213
14713325 29 16385382736336088708
14787075 74 18130515200913916820
14790565 3 18115877462985717597
1601671 61 18272937153998970103
19319366 153 18040998470560668023
21421861 104 18188205403744931298
22121540 332 16056874724160310306
22393880 68 18117003173781422597
23419403 2 17771351056520469352
23559900 14 17060054900048502679
3052486 1 18044364165625472848
3380486 145 17915195708779933102
34934 24 18411702127115924231
4340502 62 15791734118199282297
469060 322 17389135457212899739
513532 50 17274811484983416571
70251023 43 18126021368110820950
7226269 152 18339927125257919264

> <PUBCHEM_SHAPE_MULTIPOLES>
652.75
8.74
3.98
2.58
8.8
0.35
-1.34
0.43
1.37
-1.6
-0.81
-2.48
0.12
-0.3

> <PUBCHEM_SHAPE_SELFOVERLAP>
1370.827

> <PUBCHEM_SHAPE_VOLUME>
367.2

> <PUBCHEM_COORDINATE_TYPE>
2
5
10

$$$$
