118708143
  -OEChem-03292013293D

 50 52  0     1  0  0  0  0  0999 V2000
   -3.0710   -2.2450    0.7711 O   0  0  0  0  0  0  0  0  0  0  0  0
   -7.4667   -1.3785   -0.5235 O   0  0  0  0  0  0  0  0  0  0  0  0
    1.9325   -1.2060    0.8965 O   0  0  0  0  0  0  0  0  0  0  0  0
   -0.2755    3.0976    0.0334 O   0  0  0  0  0  0  0  0  0  0  0  0
    6.0683    1.8214   -1.6032 O   0  0  0  0  0  0  0  0  0  0  0  0
   -5.9056    0.3230   -0.6055 N   0  0  0  0  0  0  0  0  0  0  0  0
   -5.2871   -1.8596    0.1282 N   0  0  0  0  0  0  0  0  0  0  0  0
    0.2355    0.9403    0.7131 N   0  0  0  0  0  0  0  0  0  0  0  0
   -2.3331    0.2498    0.2759 N   0  0  0  0  0  0  0  0  0  0  0  0
   -4.2364    2.0572   -0.6697 N   0  0  0  0  0  0  0  0  0  0  0  0
    3.7050    0.2042    0.2818 N   0  0  0  0  0  0  0  0  0  0  0  0
    6.8156    1.7694    0.5642 N   0  0  0  0  0  0  0  0  0  0  0  0
    1.6286    1.1838    1.0111 C   0  0  2  0  0  0  0  0  0  0  0  0
   -4.5751    0.7723   -0.4059 C   0  0  0  0  0  0  0  0  0  0  0  0
   -3.6198   -0.1035    0.0602 C   0  0  0  0  0  0  0  0  0  0  0  0
   -3.9530   -1.4982    0.3552 C   0  0  0  0  0  0  0  0  0  0  0  0
   -6.3048   -0.9961   -0.3476 C   0  0  0  0  0  0  0  0  0  0  0  0
   -2.0181    1.5290    0.0081 C   0  0  0  0  0  0  0  0  0  0  0  0
    2.4154   -0.0917    0.7158 C   0  0  0  0  0  0  0  0  0  0  0  0
    1.8101    1.6104    2.4595 C   0  0  0  0  0  0  0  0  0  0  0  0
   -0.6417    1.9243    0.2367 C   0  0  0  0  0  0  0  0  0  0  0  0
   -6.8693    1.3030   -1.1003 C   0  0  0  0  0  0  0  0  0  0  0  0
   -2.9551    2.4190   -0.4577 C   0  0  0  0  0  0  0  0  0  0  0  0
   -5.6606   -3.2433    0.4051 C   0  0  0  0  0  0  0  0  0  0  0  0
    4.7233   -0.7075   -0.0849 C   0  0  0  0  0  0  0  0  0  0  0  0
    5.9767   -0.2565   -0.4980 C   0  0  0  0  0  0  0  0  0  0  0  0
    4.4592   -2.0759   -0.0254 C   0  0  0  0  0  0  0  0  0  0  0  0
    6.9662   -1.1737   -0.8518 C   0  0  0  0  0  0  0  0  0  0  0  0
    5.4487   -2.9933   -0.3792 C   0  0  0  0  0  0  0  0  0  0  0  0
    6.7023   -2.5421   -0.7923 C   0  0  0  0  0  0  0  0  0  0  0  0
    6.2856    1.1662   -0.5708 C   0  0  0  0  0  0  0  0  0  0  0  0
    1.9768    1.9896    0.3541 H   0  0  0  0  0  0  0  0  0  0  0  0
   -0.1326    0.0078    0.8815 H   0  0  0  0  0  0  0  0  0  0  0  0
    1.4592    0.8331    3.1480 H   0  0  0  0  0  0  0  0  0  0  0  0
    1.2459    2.5241    2.6745 H   0  0  0  0  0  0  0  0  0  0  0  0
    2.8653    1.7988    2.6838 H   0  0  0  0  0  0  0  0  0  0  0  0
   -6.5374    1.6765   -2.0743 H   0  0  0  0  0  0  0  0  0  0  0  0
   -6.9437    2.1293   -0.3861 H   0  0  0  0  0  0  0  0  0  0  0  0
   -7.8624    0.8620   -1.2211 H   0  0  0  0  0  0  0  0  0  0  0  0
   -2.7281    3.4546   -0.6813 H   0  0  0  0  0  0  0  0  0  0  0  0
    3.9569    1.1873    0.2181 H   0  0  0  0  0  0  0  0  0  0  0  0
   -6.0687   -3.6857   -0.5093 H   0  0  0  0  0  0  0  0  0  0  0  0
   -4.8185   -3.8460    0.7530 H   0  0  0  0  0  0  0  0  0  0  0  0
   -6.4471   -3.2465    1.1665 H   0  0  0  0  0  0  0  0  0  0  0  0
    3.5183   -2.5100    0.2786 H   0  0  0  0  0  0  0  0  0  0  0  0
    7.9471   -0.8350   -1.1757 H   0  0  0  0  0  0  0  0  0  0  0  0
    5.2444   -4.0592   -0.3344 H   0  0  0  0  0  0  0  0  0  0  0  0
    7.4726   -3.2563   -1.0680 H   0  0  0  0  0  0  0  0  0  0  0  0
    6.9916    1.2502    1.4185 H   0  0  0  0  0  0  0  0  0  0  0  0
    7.0431    2.7581    0.5718 H   0  0  0  0  0  0  0  0  0  0  0  0
  1 16  2  0  0  0  0
  2 17  2  0  0  0  0
  3 19  2  0  0  0  0
  4 21  2  0  0  0  0
  5 31  2  0  0  0  0
  6 14  1  0  0  0  0
  6 17  1  0  0  0  0
  6 22  1  0  0  0  0
  7 16  1  0  0  0  0
  7 17  1  0  0  0  0
  7 24  1  0  0  0  0
  8 13  1  0  0  0  0
  8 21  1  0  0  0  0
  8 33  1  0  0  0  0
  9 15  2  0  0  0  0
  9 18  1  0  0  0  0
 10 14  2  0  0  0  0
 10 23  1  0  0  0  0
 11 19  1  0  0  0  0
 11 25  1  0  0  0  0
 11 41  1  0  0  0  0
 12 31  1  0  0  0  0
 12 49  1  0  0  0  0
 12 50  1  0  0  0  0
 13 19  1  0  0  0  0
 13 20  1  0  0  0  0
 13 32  1  0  0  0  0
 14 15  1  0  0  0  0
 15 16  1  0  0  0  0
 18 21  1  0  0  0  0
 18 23  2  0  0  0  0
 20 34  1  0  0  0  0
 20 35  1  0  0  0  0
 20 36  1  0  0  0  0
 22 37  1  0  0  0  0
 22 38  1  0  0  0  0
 22 39  1  0  0  0  0
 23 40  1  0  0  0  0
 24 42  1  0  0  0  0
 24 43  1  0  0  0  0
 24 44  1  0  0  0  0
 25 26  1  0  0  0  0
 25 27  2  0  0  0  0
 26 28  2  0  0  0  0
 26 31  1  0  0  0  0
 27 29  1  0  0  0  0
 27 45  1  0  0  0  0
 28 30  1  0  0  0  0
 28 46  1  0  0  0  0
 29 30  2  0  0  0  0
 29 47  1  0  0  0  0
 30 48  1  0  0  0  0
M  END
> <PUBCHEM_COMPOUND_CID>
118708143

> <PUBCHEM_CONFORMER_RMSD>
1

> <PUBCHEM_CONFORMER_DIVERSEORDER>
1
70
15
60
48
57
107
43
14
5
112
3
22
89
109
11
6
49
26
110
24
46
91
2
72
12
30
10
23
97
17
81
84
4
86
59
25
117
64
116
62
102
39
28
122
73
74
7
58
108
18
16
27
31
121
104
20
67
76
111
126
127
47
41
45
96
54
106
50
118
125
44
21
79
94
66
68
92
83
69
88
33
82
38
61
120
52
8
119
115
124
103
32
77
99
34
95
98
90
36
9
105
13
40
78
87
123
65
37
100
51
35
93
42
56
29
101
19
55
71
85
63
53
113
75
80
114

> <PUBCHEM_MMFF94_PARTIAL_CHARGES>
39
1 -0.57
10 -0.62
11 -0.55
12 -0.8
13 0.36
14 0.43
15 0.4
16 0.54
17 0.69
18 0.4
19 0.57
2 -0.57
21 0.54
22 0.3
23 0.16
24 0.3
25 0.12
26 0.09
27 -0.15
28 -0.15
29 -0.15
3 -0.57
30 -0.15
31 0.54
33 0.37
4 -0.57
40 0.15
41 0.37
45 0.15
46 0.15
47 0.15
48 0.15
49 0.37
5 -0.57
50 0.37
6 -0.48
7 -0.42
8 -0.73
9 -0.62

> <PUBCHEM_EFFECTIVE_ROTOR_COUNT>
7

> <PUBCHEM_PHARMACOPHORE_FEATURES>
12
1 1 acceptor
1 11 donor
1 12 donor
1 2 acceptor
1 3 acceptor
1 4 acceptor
1 5 acceptor
1 8 donor
1 9 acceptor
6 25 26 27 28 29 30 rings
6 6 7 14 15 16 17 rings
6 9 10 14 15 18 23 rings

> <PUBCHEM_HEAVY_ATOM_COUNT>
31

> <PUBCHEM_ATOM_DEF_STEREO_COUNT>
1

> <PUBCHEM_ATOM_UDEF_STEREO_COUNT>
0

> <PUBCHEM_BOND_DEF_STEREO_COUNT>
0

> <PUBCHEM_BOND_UDEF_STEREO_COUNT>
0

> <PUBCHEM_ISOTOPIC_ATOM_COUNT>
0

> <PUBCHEM_COMPONENT_COUNT>
1

> <PUBCHEM_CACTVS_TAUTO_COUNT>
157

> <PUBCHEM_CONFORMER_ID>
071357AF00000001

> <PUBCHEM_MMFF94_ENERGY>
92.1378

> <PUBCHEM_FEATURE_SELFOVERLAP>
60.944

> <PUBCHEM_SHAPE_FINGERPRINT>
10595046 47 18408889504043443892
11135609 99 18271243825643779966
11524674 6 16630521835062336591
117089 54 17342953547044968590
12422481 6 10303809887101001146
13402501 40 18342175557490430679
1361 4 18269275673590751918
13673619 4 18059856159917620672
13690498 29 18409444774289294181
13782708 43 17917422142511122959
14461889 52 18412255169502576592
14931854 50 18114452406222569723
150020 25 18413109472757710324
15082195 135 18115324366583604452
15183329 4 18334296422885093138
15352257 5 18342739606696770111
15361156 5 18413385458618231461
18335252 98 18342176691973180864
21196832 93 18263086659391132578
21223535 225 15430304820590621991
21267235 1 18334575789945016611
21307412 95 18411129226641078431
21623969 137 17489308551579360886
22149856 69 18059864935036615978
23522609 53 17985857923857756352
23559900 14 18411129273532647697
23576562 1 17676485086666723949
24771750 20 17829055651677078044
2838139 119 14201393906450062110
3004659 81 18187362125328077952
329604 57 18272092669598698328
335352 9 18335975425419062485
394071 54 15912749688283691992
4073 2 18187088373082640298
4107672 100 18114179671546621957
42767 28 18261958440602643170
437815 12 18130785651189211129
439807 62 18412547591549486542
484989 97 18343027679809046114
497634 4 18337111155156020804
54039377 194 17775007826827352310
6823239 73 18340195379876985161
8863177 126 18130781295622978250
999808 66 18272374165807866671

> <PUBCHEM_SHAPE_MULTIPOLES>
573.75
22.85
3.42
1.16
4.56
1.08
-0.37
9.98
8.01
-0.24
-0.02
0.73
-0.49
1.71

> <PUBCHEM_SHAPE_SELFOVERLAP>
1238.085

> <PUBCHEM_SHAPE_VOLUME>
311.2

> <PUBCHEM_COORDINATE_TYPE>
2
5
10

$$$$
