11875272
  -OEChem-03292013303D

 52 55  0     1  0  0  0  0  0999 V2000
   -6.1953    0.1470   -0.6434 O   0  0  0  0  0  0  0  0  0  0  0  0
   -5.4102   -2.6531    0.7456 O   0  0  0  0  0  0  0  0  0  0  0  0
    3.2288   -1.2810    0.0534 O   0  0  0  0  0  0  0  0  0  0  0  0
    4.3754    2.7054   -0.3547 O   0  0  0  0  0  0  0  0  0  0  0  0
    6.4523   -2.8022   -0.2910 O   0  0  0  0  0  0  0  0  0  0  0  0
    5.8337   -0.6113   -0.3610 O   0  0  0  0  0  0  0  0  0  0  0  0
    1.9604   -1.8376    0.2544 N   0  0  0  0  0  0  0  0  0  0  0  0
   -3.7686    0.3724   -0.2943 C   0  0  1  0  0  0  0  0  0  0  0  0
   -2.7617   -0.6375    0.2871 C   0  0  2  0  0  0  0  0  0  0  0  0
   -1.3091   -0.2420    0.0143 C   0  0  1  0  0  0  0  0  0  0  0  0
   -5.0812   -0.3384    0.0851 C   0  0  2  0  0  0  0  0  0  0  0  0
   -1.0218    1.1421    0.6566 C   0  0  2  0  0  0  0  0  0  0  0  0
   -3.5425    1.7152    0.4081 C   0  0  0  0  0  0  0  0  0  0  0  0
   -3.2712   -1.9879   -0.2193 C   0  0  0  0  0  0  0  0  0  0  0  0
   -4.8035   -1.8220   -0.2356 C   0  0  1  0  0  0  0  0  0  0  0  0
   -2.0896    2.1975    0.2546 C   0  0  0  0  0  0  0  0  0  0  0  0
   -3.6788    0.5687   -1.8286 C   0  0  0  0  0  0  0  0  0  0  0  0
   -0.3360   -1.2668    0.5862 C   0  0  0  0  0  0  0  0  0  0  0  0
    0.4219    1.5505    0.3722 C   0  0  0  0  0  0  0  0  0  0  0  0
    1.1019   -0.8718    0.3286 C   0  0  0  0  0  0  0  0  0  0  0  0
    1.4363    0.5787    0.2156 C   0  0  0  0  0  0  0  0  0  0  0  0
    0.7907    2.9079    0.3149 C   0  0  0  0  0  0  0  0  0  0  0  0
    2.7588    0.9790   -0.0359 C   0  0  0  0  0  0  0  0  0  0  0  0
    2.1084    3.2946    0.0695 C   0  0  0  0  0  0  0  0  0  0  0  0
    3.0897    2.3309   -0.1118 C   0  0  0  0  0  0  0  0  0  0  0  0
    4.1649   -2.3454   -0.0271 C   0  0  0  0  0  0  0  0  0  0  0  0
    5.5465   -1.7931   -0.2435 C   0  0  0  0  0  0  0  0  0  0  0  0
   -2.8842   -0.6593    1.3833 H   0  0  0  0  0  0  0  0  0  0  0  0
   -1.1359   -0.1844   -1.0686 H   0  0  0  0  0  0  0  0  0  0  0  0
   -5.3088   -0.2190    1.1522 H   0  0  0  0  0  0  0  0  0  0  0  0
   -1.0909    1.0332    1.7497 H   0  0  0  0  0  0  0  0  0  0  0  0
   -3.7653    1.6214    1.4791 H   0  0  0  0  0  0  0  0  0  0  0  0
   -4.2266    2.4782    0.0176 H   0  0  0  0  0  0  0  0  0  0  0  0
   -2.9013   -2.1804   -1.2328 H   0  0  0  0  0  0  0  0  0  0  0  0
   -2.9457   -2.8122    0.4234 H   0  0  0  0  0  0  0  0  0  0  0  0
   -5.2098   -2.1178   -1.2092 H   0  0  0  0  0  0  0  0  0  0  0  0
   -1.9197    2.5236   -0.7788 H   0  0  0  0  0  0  0  0  0  0  0  0
   -1.9796    3.0927    0.8789 H   0  0  0  0  0  0  0  0  0  0  0  0
   -2.6972    0.9248   -2.1522 H   0  0  0  0  0  0  0  0  0  0  0  0
   -3.8787   -0.3548   -2.3809 H   0  0  0  0  0  0  0  0  0  0  0  0
   -4.4117    1.3105   -2.1666 H   0  0  0  0  0  0  0  0  0  0  0  0
   -0.5087   -2.2466    0.1250 H   0  0  0  0  0  0  0  0  0  0  0  0
   -0.4660   -1.3855    1.6688 H   0  0  0  0  0  0  0  0  0  0  0  0
   -6.2903    1.0921   -0.4359 H   0  0  0  0  0  0  0  0  0  0  0  0
   -6.3653   -2.4706    0.7302 H   0  0  0  0  0  0  0  0  0  0  0  0
    0.0601    3.6976    0.4615 H   0  0  0  0  0  0  0  0  0  0  0  0
    3.6462    0.4475   -0.3098 H   0  0  0  0  0  0  0  0  0  0  0  0
    2.3517    4.3527    0.0250 H   0  0  0  0  0  0  0  0  0  0  0  0
    4.4234    3.6768   -0.3722 H   0  0  0  0  0  0  0  0  0  0  0  0
    4.1553   -2.9096    0.9118 H   0  0  0  0  0  0  0  0  0  0  0  0
    3.9097   -2.9930   -0.8728 H   0  0  0  0  0  0  0  0  0  0  0  0
    7.3643   -2.4691   -0.4312 H   0  0  0  0  0  0  0  0  0  0  0  0
  1 11  1  0  0  0  0
  1 44  1  0  0  0  0
  2 15  1  0  0  0  0
  2 45  1  0  0  0  0
  3  7  1  0  0  0  0
  3 26  1  0  0  0  0
  4 25  1  0  0  0  0
  4 49  1  0  0  0  0
  5 27  1  0  0  0  0
  5 52  1  0  0  0  0
  6 27  2  0  0  0  0
  7 20  2  0  0  0  0
  8  9  1  0  0  0  0
  8 11  1  0  0  0  0
  8 13  1  0  0  0  0
  8 17  1  0  0  0  0
  9 10  1  0  0  0  0
  9 14  1  0  0  0  0
  9 28  1  0  0  0  0
 10 12  1  0  0  0  0
 10 18  1  0  0  0  0
 10 29  1  0  0  0  0
 11 15  1  0  0  0  0
 11 30  1  0  0  0  0
 12 16  1  0  0  0  0
 12 19  1  0  0  0  0
 12 31  1  0  0  0  0
 13 16  1  0  0  0  0
 13 32  1  0  0  0  0
 13 33  1  0  0  0  0
 14 15  1  0  0  0  0
 14 34  1  0  0  0  0
 14 35  1  0  0  0  0
 15 36  1  0  0  0  0
 16 37  1  0  0  0  0
 16 38  1  0  0  0  0
 17 39  1  0  0  0  0
 17 40  1  0  0  0  0
 17 41  1  0  0  0  0
 18 20  1  0  0  0  0
 18 42  1  0  0  0  0
 18 43  1  0  0  0  0
 19 21  2  0  0  0  0
 19 22  1  0  0  0  0
 20 21  1  0  0  0  0
 21 23  1  0  0  0  0
 22 24  2  0  0  0  0
 22 46  1  0  0  0  0
 23 25  2  0  0  0  0
 23 47  1  0  0  0  0
 24 25  1  0  0  0  0
 24 48  1  0  0  0  0
 26 27  1  0  0  0  0
 26 50  1  0  0  0  0
 26 51  1  0  0  0  0
M  END
> <PUBCHEM_COMPOUND_CID>
11875272

> <PUBCHEM_CONFORMER_RMSD>
0.8

> <PUBCHEM_CONFORMER_DIVERSEORDER>
1
2
3
4

> <PUBCHEM_MMFF94_PARTIAL_CHARGES>
27
1 -0.68
11 0.28
12 0.14
15 0.28
18 0.06
19 -0.14
2 -0.68
20 0.3
21 0.09
22 -0.15
23 -0.15
24 -0.15
25 0.08
26 0.34
27 0.66
3 -0.22
4 -0.53
44 0.4
45 0.4
46 0.15
47 0.15
48 0.15
49 0.45
5 -0.65
52 0.5
6 -0.57
7 -0.51

> <PUBCHEM_EFFECTIVE_ROTOR_COUNT>
4.2

> <PUBCHEM_PHARMACOPHORE_FEATURES>
13
1 1 acceptor
1 1 donor
1 2 acceptor
1 2 donor
1 4 donor
1 5 acceptor
1 6 acceptor
1 7 acceptor
3 5 6 27 anion
5 8 9 11 14 15 rings
6 10 12 18 19 20 21 rings
6 19 21 22 23 24 25 rings
6 8 9 10 12 13 16 rings

> <PUBCHEM_HEAVY_ATOM_COUNT>
27

> <PUBCHEM_ATOM_DEF_STEREO_COUNT>
6

> <PUBCHEM_ATOM_UDEF_STEREO_COUNT>
0

> <PUBCHEM_BOND_DEF_STEREO_COUNT>
1

> <PUBCHEM_BOND_UDEF_STEREO_COUNT>
0

> <PUBCHEM_ISOTOPIC_ATOM_COUNT>
0

> <PUBCHEM_COMPONENT_COUNT>
1

> <PUBCHEM_CACTVS_TAUTO_COUNT>
3

> <PUBCHEM_CONFORMER_ID>
00B533C800000001

> <PUBCHEM_MMFF94_ENERGY>
113.1503

> <PUBCHEM_FEATURE_SELFOVERLAP>
66.127

> <PUBCHEM_SHAPE_FINGERPRINT>
10411042 1 18411420579588914762
10622 236 17486187192782549271
1100329 8 18196375814458485657
11135609 187 18192436488267608948
11963148 33 17977661240434165322
12107183 9 18198353857836682817
12166972 35 17895482436552565622
12293681 25 17823996725150585707
12403259 226 18409444799669188173
12553582 1 18192705644454454618
12645989 146 17980207384106817798
12788726 201 17560813125934406025
13009979 54 18060146401080688928
13140716 1 18270966738947025241
13533116 47 18271805757019694512
13782708 43 17894348903660896723
13862211 1 18337671893928855986
14117953 113 18201718397713891415
14347332 77 18412263956209189117
14790565 3 17115795410544343016
15064986 96 17916327051164993063
15196674 1 18410292553651966705
15927050 60 17981887759784889070
17492 89 18339079405855983603
17909252 39 18343306955329452170
18222031 100 18339076000331754226
18681886 176 18341887489971062066
20612939 158 18409168817960443165
20645477 70 18335135436182623896
20721686 56 18408609154743433746
21267235 1 18411423886666305419
21279426 13 18408038507111605837
221357 26 18408317770380619117
221490 88 18408888463964850779
22393880 68 18041268903244343765
23402539 116 18269835311839076998
23559900 14 18411410735265240761
249057 3 18338795603428835829
25147074 1 18200889399689530129
3004659 81 18333728013679617531
335352 9 18339641136528985149
350125 39 18410013234226573129
4280585 95 18264764368701796850
46194498 28 17677049161010058908
5104073 3 18202289108319925217
59755656 215 18265617773791431348
6669772 16 18125441071523001820
9709674 26 18263364844686203443
9981440 41 17689992762374589224

> <PUBCHEM_SHAPE_MULTIPOLES>
515.45
13.16
3.65
0.83
3.57
0.92
-0.21
-9.18
-2.26
3.58
0.19
-0.65
0.06
0.38

> <PUBCHEM_SHAPE_SELFOVERLAP>
1117.514

> <PUBCHEM_SHAPE_VOLUME>
281.4

> <PUBCHEM_COORDINATE_TYPE>
2
5
10

$$$$
