REMARK  Name = 118714758
REMARK  8 active torsions:
REMARK  status: ('A' for Active; 'I' for Inactive)
REMARK    1  A    between atoms: C_1  and  C_11
REMARK    2  A    between atoms: C_2  and  C_22
REMARK    3  A    between atoms: C_3  and  O_7
REMARK    4  A    between atoms: C_6  and  O_9
REMARK    5  A    between atoms: C_11  and  C_12
REMARK    6  A    between atoms: C_15  and  O_18
REMARK    7  A    between atoms: C_17  and  O_20
REMARK    8  A    between atoms: C_22  and  O_23
REMARK                            x       y       z     vdW  Elec       q    Type
REMARK                         _______ _______ _______ _____ _____    ______ ____
ROOT
ATOM      1  C   UNL     1       1.264  -0.095   0.558  0.00  0.00    +0.014 C 
ATOM      2  C   UNL     1       2.170  -0.925  -0.102  0.00  0.00    +0.009 C 
ATOM      3  C   UNL     1       1.479   1.283   0.595  0.00  0.00    +0.133 C 
ATOM      4  C   UNL     1       3.292  -0.378  -0.725  0.00  0.00    +0.035 C 
ATOM      5  C   UNL     1       2.601   1.830  -0.028  0.00  0.00    +0.073 C 
ATOM      6  C   UNL     1       3.507   1.000  -0.688  0.00  0.00    +0.136 C 
ENDROOT
BRANCH   3   7
ATOM      7  O   UNL     1       0.605   2.109   1.236  0.00  0.00    -0.506 OA
ATOM      8  H   UNL     1      -0.152   1.753   1.658  0.00  0.00    +0.292 HD
ENDBRANCH   3   7
BRANCH   6   9
ATOM      9  O   UNL     1       4.602   1.534  -1.295  0.00  0.00    -0.505 OA
ATOM     10  H   UNL     1       5.210   0.977  -1.739  0.00  0.00    +0.292 HD
ENDBRANCH   6   9
BRANCH   1  11
ATOM     11  C   UNL     1       0.044  -0.684   1.238  0.00  0.00    +0.056 C 
BRANCH  11  12
ATOM     12  C   UNL     1      -1.230  -0.461   0.495  0.00  0.00    -0.014 C 
ATOM     13  C   UNL     1      -2.294   0.191   1.117  0.00  0.00    +0.036 C 
ATOM     14  C   UNL     1      -1.356  -0.902  -0.822  0.00  0.00    -0.001 C 
ATOM     15  C   UNL     1      -3.486   0.402   0.422  0.00  0.00    +0.167 C 
ATOM     16  C   UNL     1      -2.547  -0.692  -1.517  0.00  0.00    +0.039 C 
ATOM     17  C   UNL     1      -3.612  -0.040  -0.895  0.00  0.00    +0.167 C 
BRANCH  15  18
ATOM     18  O   UNL     1      -4.517   1.042   1.040  0.00  0.00    -0.503 OA
ATOM     19  H   UNL     1      -4.424   1.335   1.925  0.00  0.00    +0.292 HD
ENDBRANCH  15  18
BRANCH  17  20
ATOM     20  O   UNL     1      -4.770   0.160  -1.584  0.00  0.00    -0.503 OA
ATOM     21  H   UNL     1      -5.489   0.597  -1.173  0.00  0.00    +0.292 HD
ENDBRANCH  17  20
ENDBRANCH  11  12
ENDBRANCH   1  11
BRANCH   2  22
ATOM     22  C   UNL     1       1.963  -2.403  -0.154  0.00  0.00    +0.163 C 
BRANCH  22  23
ATOM     23  O   UNL     1       2.283  -2.968   1.110  0.00  0.00    -0.377 OA
ATOM     24  H   UNL     1       2.149  -3.929   1.078  0.00  0.00    +0.211 HD
ENDBRANCH  22  23
ENDBRANCH   2  22
TORSDOF 8
