REMARK  Name = 118704580
REMARK  12 active torsions:
REMARK  status: ('A' for Active; 'I' for Inactive)
REMARK    1  A    between atoms: N_2  and  C_20
REMARK    2  A    between atoms: C_3  and  C_5
REMARK    3  A    between atoms: C_5  and  C_6
REMARK    4  A    between atoms: C_5  and  C_10
REMARK    5  A    between atoms: C_6  and  C_8
REMARK    6  A    between atoms: C_10  and  C_13
REMARK    7  A    between atoms: C_10  and  C_17
REMARK    8  A    between atoms: N_12  and  O_15
REMARK    9  A    between atoms: C_17  and  C_18
REMARK   10  A    between atoms: C_20  and  C_23
REMARK   11  A    between atoms: C_20  and  C_26
REMARK   12  A    between atoms: C_26  and  C_27
REMARK                            x       y       z     vdW  Elec       q    Type
REMARK                         _______ _______ _______ _____ _____    ______ ____
ROOT
ATOM      1  O   UNL     1      -0.066   1.403  -1.619  0.00  0.00    -0.275 OA
ATOM      2  N   UNL     1      -1.061   0.738   0.364  0.00  0.00    -0.298 N 
ATOM      3  C   UNL     1       0.024   1.002  -0.461  0.00  0.00    +0.223 C 
ATOM      4  H   UNL     1      -0.888   0.419   1.279  0.00  0.00    +0.150 HD
ENDROOT
BRANCH   3   5
ATOM      5  C   UNL     1       1.367   0.756   0.247  0.00  0.00    +0.085 C 
BRANCH   5   6
ATOM      6  C   UNL     1       2.219   2.046   0.486  0.00  0.00    +0.009 C 
ATOM      7  C   UNL     1       1.515   2.996   1.466  0.00  0.00    +0.001 C 
BRANCH   6   8
ATOM      8  C   UNL     1       2.661   2.763  -0.808  0.00  0.00    +0.000 C 
ATOM      9  C   UNL     1       3.553   3.974  -0.560  0.00  0.00    +0.000 C 
ENDBRANCH   6   8
ENDBRANCH   5   6
BRANCH   5  10
ATOM     10  C   UNL     1       2.210  -0.366  -0.444  0.00  0.00    +0.091 C 
BRANCH  10  13
ATOM     11  O   UNL     1       3.147  -1.345   1.577  0.00  0.00    -0.273 OA
ATOM     12  N   UNL     1       4.589  -0.517  -0.022  0.00  0.00    -0.197 N 
ATOM     13  C   UNL     1       3.347  -0.798   0.495  0.00  0.00    +0.245 C 
ATOM     14  H   UNL     1       4.706  -0.077  -0.895  0.00  0.00    +0.182 HD
BRANCH  12  15
ATOM     15  O   UNL     1       5.680  -0.896   0.772  0.00  0.00    -0.295 OA
ATOM     16  H   UNL     1       6.506  -0.656   0.323  0.00  0.00    +0.241 HD
ENDBRANCH  12  15
ENDBRANCH  10  13
BRANCH  10  17
ATOM     17  C   UNL     1       1.382  -1.577  -0.928  0.00  0.00    +0.036 C 
BRANCH  17  18
ATOM     18  C   UNL     1       2.241  -2.628  -1.579  0.00  0.00    -0.026 C 
ATOM     19  C   UNL     1       2.306  -3.899  -1.166  0.00  0.00    -0.005 C 
ENDBRANCH  17  18
ENDBRANCH  10  17
ENDBRANCH   5  10
ENDBRANCH   3   5
BRANCH   2  20
ATOM     20  C   UNL     1      -2.432   0.909  -0.058  0.00  0.00    +0.153 C 
BRANCH  20  23
ATOM     21  O   UNL     1      -2.384   2.997   1.172  0.00  0.00    -0.273 OA
ATOM     22  N   UNL     1      -3.633   2.876  -0.782  0.00  0.00    -0.301 N 
ATOM     23  C   UNL     1      -2.809   2.362   0.209  0.00  0.00    +0.241 C 
ATOM     24  C   UNL     1      -4.097   4.245  -0.797  0.00  0.00    +0.111 C 
ATOM     25  H   UNL     1      -3.916   2.279  -1.511  0.00  0.00    +0.150 HD
ENDBRANCH  20  23
BRANCH  20  26
ATOM     26  C   UNL     1      -3.388  -0.033   0.683  0.00  0.00    +0.055 C 
BRANCH  26  27
ATOM     27  C   UNL     1      -3.045  -1.489   0.479  0.00  0.00    -0.020 C 
ATOM     28  C   UNL     1      -3.606  -2.196  -0.584  0.00  0.00    -0.004 C 
ATOM     29  C   UNL     1      -2.168  -2.128   1.356  0.00  0.00    -0.004 C 
ATOM     30  C   UNL     1      -3.289  -3.542  -0.772  0.00  0.00    -0.000 C 
ATOM     31  C   UNL     1      -1.851  -3.473   1.169  0.00  0.00    -0.000 C 
ATOM     32  C   UNL     1      -2.412  -4.180   0.105  0.00  0.00    -0.000 C 
ENDBRANCH  26  27
ENDBRANCH  20  26
ENDBRANCH   2  20
TORSDOF 12
