REMARK  Name = 118888941
REMARK  6 active torsions:
REMARK  status: ('A' for Active; 'I' for Inactive)
REMARK    1  A    between atoms: C_4  and  C_12
REMARK    2  A    between atoms: C_5  and  C_31
REMARK    3  A    between atoms: C_15  and  C_20
REMARK    4  A    between atoms: N_19  and  C_22
REMARK    5  A    between atoms: C_22  and  C_24
REMARK    6  A    between atoms: N_30  and  C_35
REMARK                            x       y       z     vdW  Elec       q    Type
REMARK                         _______ _______ _______ _____ _____    ______ ____
ROOT
ATOM      1  O   UNL     1       7.048   0.188   0.072  0.00  0.00    -0.252 OA
ATOM      2  N   UNL     1       4.936   0.426   0.924  0.00  0.00    -0.283 N 
ATOM      3  N   UNL     1       5.457  -1.361  -0.495  0.00  0.00    -0.272 N 
ATOM      4  C   UNL     1       3.516   0.081   0.973  0.00  0.00    +0.123 C 
ATOM      5  C   UNL     1       3.255  -1.256   0.321  0.00  0.00    +0.063 C 
ATOM      6  C   UNL     1       4.192  -1.904  -0.395  0.00  0.00    +0.031 C 
ATOM      7  C   UNL     1       5.887  -0.218   0.156  0.00  0.00    +0.305 C 
ATOM      8  C   UNL     1       4.025  -3.203  -1.132  0.00  0.00    +0.047 C 
ATOM      9  H   UNL     1       5.239   1.177   1.484  0.00  0.00    +0.152 HD
ATOM     10  H   UNL     1       6.104  -1.823  -1.076  0.00  0.00    +0.156 HD
ENDROOT
BRANCH   4  12
ATOM     11  F   UNL     1       0.554   4.196  -1.465  0.00  0.00    -0.204 F 
ATOM     12  C   UNL     1       2.726   1.174   0.326  0.00  0.00    +0.000 C 
ATOM     13  C   UNL     1       1.464   1.507   0.818  0.00  0.00    +0.004 C 
ATOM     14  C   UNL     1       3.252   1.861  -0.768  0.00  0.00    -0.000 C 
ATOM     15  C   UNL     1       0.728   2.527   0.216  0.00  0.00    +0.081 C 
ATOM     16  C   UNL     1       2.515   2.881  -1.371  0.00  0.00    +0.030 C 
ATOM     17  C   UNL     1       1.253   3.214  -0.879  0.00  0.00    +0.144 C 
BRANCH  15  20
ATOM     18  O   UNL     1      -1.026   4.031   0.618  0.00  0.00    -0.270 OA
ATOM     19  N   UNL     1      -1.325   1.845   1.331  0.00  0.00    -0.296 N 
ATOM     20  C   UNL     1      -0.587   2.873   0.732  0.00  0.00    +0.248 C 
ATOM     21  H   UNL     1      -0.916   0.951   1.388  0.00  0.00    +0.150 HD
BRANCH  19  22
ATOM     22  C   UNL     1      -2.654   2.024   1.870  0.00  0.00    +0.136 C 
BRANCH  22  24
ATOM     23  N   UNL     1      -3.922   2.646  -0.107  0.00  0.00    -0.246 NA
ATOM     24  C   UNL     1      -3.717   1.718   0.855  0.00  0.00    +0.079 C 
ATOM     25  C   UNL     1      -4.422   0.529   0.948  0.00  0.00    +0.016 C 
ATOM     26  C   UNL     1      -5.400   0.275  -0.007  0.00  0.00    +0.003 C 
ATOM     27  C   UNL     1      -4.880   2.364  -1.018  0.00  0.00    +0.099 C 
ATOM     28  C   UNL     1      -5.639   1.205  -1.013  0.00  0.00    +0.021 C 
ENDBRANCH  22  24
ENDBRANCH  19  22
ENDBRANCH  15  20
ENDBRANCH   4  12
BRANCH   5  31
ATOM     29  O   UNL     1       1.722  -2.542   1.527  0.00  0.00    -0.270 OA
ATOM     30  N   UNL     1       1.022  -1.467  -0.448  0.00  0.00    -0.281 N 
ATOM     31  C   UNL     1       1.918  -1.833   0.545  0.00  0.00    +0.248 C 
ATOM     32  H   UNL     1       1.374  -0.885  -1.160  0.00  0.00    +0.155 HD
BRANCH  30  35
ATOM     33  N   UNL     1      -4.255  -3.048  -0.621  0.00  0.00    -0.236 N 
ATOM     34  N   UNL     1      -4.401  -3.815   0.473  0.00  0.00    -0.180 NA
ATOM     35  C   UNL     1      -0.341  -1.835  -0.554  0.00  0.00    +0.051 C 
ATOM     36  C   UNL     1      -0.910  -2.661   0.423  0.00  0.00    +0.018 C 
ATOM     37  C   UNL     1      -2.264  -3.014   0.299  0.00  0.00    +0.037 C 
ATOM     38  C   UNL     1      -1.099  -1.370  -1.631  0.00  0.00    +0.016 C 
ATOM     39  C   UNL     1      -2.995  -2.537  -0.783  0.00  0.00    +0.067 C 
ATOM     40  C   UNL     1      -2.448  -1.712  -1.769  0.00  0.00    +0.017 C 
ATOM     41  C   UNL     1      -3.188  -3.791   1.030  0.00  0.00    +0.119 C 
ATOM     42  H   UNL     1      -4.990  -2.870  -1.251  0.00  0.00    +0.174 HD
ENDBRANCH  30  35
ENDBRANCH   5  31
TORSDOF 6
