118888941
  -OEChem-03292013293D

 59 63  0     1  0  0  0  0  0999 V2000
    0.5539    4.1963   -1.4651 F   0  0  0  0  0  0  0  0  0  0  0  0
    1.7218   -2.5423    1.5273 O   0  0  0  0  0  0  0  0  0  0  0  0
    7.0482    0.1881    0.0724 O   0  0  0  0  0  0  0  0  0  0  0  0
   -1.0259    4.0310    0.6184 O   0  0  0  0  0  0  0  0  0  0  0  0
    4.9361    0.4261    0.9244 N   0  0  0  0  0  0  0  0  0  0  0  0
    5.4573   -1.3610   -0.4955 N   0  0  0  0  0  0  0  0  0  0  0  0
    1.0224   -1.4669   -0.4477 N   0  0  0  0  0  0  0  0  0  0  0  0
   -1.3247    1.8445    1.3307 N   0  0  0  0  0  0  0  0  0  0  0  0
   -4.2546   -3.0481   -0.6210 N   0  0  0  0  0  0  0  0  0  0  0  0
   -4.4008   -3.8146    0.4727 N   0  0  0  0  0  0  0  0  0  0  0  0
   -3.9219    2.6455   -0.1071 N   0  0  0  0  0  0  0  0  0  0  0  0
    3.5161    0.0812    0.9726 C   0  0  2  0  0  0  0  0  0  0  0  0
    3.2546   -1.2562    0.3214 C   0  0  0  0  0  0  0  0  0  0  0  0
    2.7263    1.1744    0.3260 C   0  0  0  0  0  0  0  0  0  0  0  0
    4.1925   -1.9044   -0.3945 C   0  0  0  0  0  0  0  0  0  0  0  0
    1.9181   -1.8327    0.5452 C   0  0  0  0  0  0  0  0  0  0  0  0
    1.4641    1.5073    0.8179 C   0  0  0  0  0  0  0  0  0  0  0  0
    5.8872   -0.2181    0.1559 C   0  0  0  0  0  0  0  0  0  0  0  0
    3.2517    1.8614   -0.7684 C   0  0  0  0  0  0  0  0  0  0  0  0
    0.7277    2.5273    0.2156 C   0  0  0  0  0  0  0  0  0  0  0  0
    4.0252   -3.2029   -1.1324 C   0  0  0  0  0  0  0  0  0  0  0  0
    2.5153    2.8813   -1.3708 C   0  0  0  0  0  0  0  0  0  0  0  0
    1.2532    3.2143   -0.8787 C   0  0  0  0  0  0  0  0  0  0  0  0
   -0.3411   -1.8348   -0.5541 C   0  0  0  0  0  0  0  0  0  0  0  0
   -0.5872    2.8727    0.7323 C   0  0  0  0  0  0  0  0  0  0  0  0
   -0.9100   -2.6609    0.4234 C   0  0  0  0  0  0  0  0  0  0  0  0
   -2.2641   -3.0137    0.2986 C   0  0  0  0  0  0  0  0  0  0  0  0
   -1.0986   -1.3696   -1.6306 C   0  0  0  0  0  0  0  0  0  0  0  0
   -2.9954   -2.5365   -0.7834 C   0  0  0  0  0  0  0  0  0  0  0  0
   -2.4477   -1.7120   -1.7686 C   0  0  0  0  0  0  0  0  0  0  0  0
   -2.6538    2.0237    1.8696 C   0  0  0  0  0  0  0  0  0  0  0  0
   -3.1878   -3.7913    1.0295 C   0  0  0  0  0  0  0  0  0  0  0  0
   -3.7174    1.7180    0.8549 C   0  0  0  0  0  0  0  0  0  0  0  0
   -4.4222    0.5286    0.9482 C   0  0  0  0  0  0  0  0  0  0  0  0
   -5.3996    0.2749   -0.0075 C   0  0  0  0  0  0  0  0  0  0  0  0
   -4.8800    2.3641   -1.0185 C   0  0  0  0  0  0  0  0  0  0  0  0
   -5.6390    1.2050   -1.0131 C   0  0  0  0  0  0  0  0  0  0  0  0
    3.2787    0.0253    2.0424 H   0  0  0  0  0  0  0  0  0  0  0  0
    5.2367    1.2445    1.4460 H   0  0  0  0  0  0  0  0  0  0  0  0
    1.0896    0.9789    1.6908 H   0  0  0  0  0  0  0  0  0  0  0  0
    6.1368   -1.8640   -1.0599 H   0  0  0  0  0  0  0  0  0  0  0  0
    4.2209    1.6198   -1.1940 H   0  0  0  0  0  0  0  0  0  0  0  0
    4.2169   -3.0597   -2.2013 H   0  0  0  0  0  0  0  0  0  0  0  0
    4.7298   -3.9501   -0.7516 H   0  0  0  0  0  0  0  0  0  0  0  0
    3.0194   -3.6207   -1.0325 H   0  0  0  0  0  0  0  0  0  0  0  0
    1.3647   -0.8709   -1.1988 H   0  0  0  0  0  0  0  0  0  0  0  0
    2.9218    3.4136   -2.2257 H   0  0  0  0  0  0  0  0  0  0  0  0
   -0.3835   -3.0541    1.2791 H   0  0  0  0  0  0  0  0  0  0  0  0
   -0.6455   -0.7266   -2.3824 H   0  0  0  0  0  0  0  0  0  0  0  0
   -3.0382   -1.3501   -2.6028 H   0  0  0  0  0  0  0  0  0  0  0  0
   -0.9598    0.8975    1.3365 H   0  0  0  0  0  0  0  0  0  0  0  0
   -2.7704    3.0569    2.2158 H   0  0  0  0  0  0  0  0  0  0  0  0
   -2.7407    1.3737    2.7470 H   0  0  0  0  0  0  0  0  0  0  0  0
   -3.0256   -4.3416    1.9455 H   0  0  0  0  0  0  0  0  0  0  0  0
   -5.0594   -2.9112   -1.2198 H   0  0  0  0  0  0  0  0  0  0  0  0
   -4.2287   -0.1928    1.7348 H   0  0  0  0  0  0  0  0  0  0  0  0
   -5.9787   -0.6424    0.0338 H   0  0  0  0  0  0  0  0  0  0  0  0
   -5.0278    3.1213   -1.7814 H   0  0  0  0  0  0  0  0  0  0  0  0
   -6.3965    1.0285   -1.7679 H   0  0  0  0  0  0  0  0  0  0  0  0
  1 23  1  0  0  0  0
  2 16  2  0  0  0  0
  3 18  2  0  0  0  0
  4 25  2  0  0  0  0
  5 12  1  0  0  0  0
  5 18  1  0  0  0  0
  5 39  1  0  0  0  0
  6 15  1  0  0  0  0
  6 18  1  0  0  0  0
  6 41  1  0  0  0  0
  7 16  1  0  0  0  0
  7 24  1  0  0  0  0
  7 46  1  0  0  0  0
  8 25  1  0  0  0  0
  8 31  1  0  0  0  0
  8 51  1  0  0  0  0
  9 10  1  0  0  0  0
  9 29  1  0  0  0  0
  9 55  1  0  0  0  0
 10 32  2  0  0  0  0
 11 33  1  0  0  0  0
 11 36  2  0  0  0  0
 12 13  1  0  0  0  0
 12 14  1  0  0  0  0
 12 38  1  0  0  0  0
 13 15  2  0  0  0  0
 13 16  1  0  0  0  0
 14 17  2  0  0  0  0
 14 19  1  0  0  0  0
 15 21  1  0  0  0  0
 17 20  1  0  0  0  0
 17 40  1  0  0  0  0
 19 22  2  0  0  0  0
 19 42  1  0  0  0  0
 20 23  2  0  0  0  0
 20 25  1  0  0  0  0
 21 43  1  0  0  0  0
 21 44  1  0  0  0  0
 21 45  1  0  0  0  0
 22 23  1  0  0  0  0
 22 47  1  0  0  0  0
 24 26  2  0  0  0  0
 24 28  1  0  0  0  0
 26 27  1  0  0  0  0
 26 48  1  0  0  0  0
 27 29  2  0  0  0  0
 27 32  1  0  0  0  0
 28 30  2  0  0  0  0
 28 49  1  0  0  0  0
 29 30  1  0  0  0  0
 30 50  1  0  0  0  0
 31 33  1  0  0  0  0
 31 52  1  0  0  0  0
 31 53  1  0  0  0  0
 32 54  1  0  0  0  0
 33 34  2  0  0  0  0
 34 35  1  0  0  0  0
 34 56  1  0  0  0  0
 35 37  2  0  0  0  0
 35 57  1  0  0  0  0
 36 37  1  0  0  0  0
 36 58  1  0  0  0  0
 37 59  1  0  0  0  0
M  END
> <PUBCHEM_COMPOUND_CID>
118888941

> <PUBCHEM_CONFORMER_RMSD>
1.2

> <PUBCHEM_CONFORMER_DIVERSEORDER>
1
173
174
79
73
131
149
225
41
67
231
13
144
213
65
218
137
204
125
110
66
197
232
188
4
195
234
136
128
165
221
32
6
201
142
2
168
45
51
81
123
105
167
193
150
120
141
98
172
219
63
184
236
129
48
224
191
93
205
130
91
100
175
203
209
217
19
180
47
14
126
16
96
52
118
10
208
216
42
90
114
56
152
151
5
71
230
211
59
107
189
115
159
140
70
37
206
202
176
196
103
108
124
157
215
60
161
190
68
95
53
200
64
134
185
38
55
22
160
54
226
106
39
94
222
86
171
198
113
24
8
223
44
177
31
166
29
170
9
154
233
25
72
43
46
58
207
27
74
77
109
36
102
135
78
228
156
164
97
162
169
49
133
183
87
155
178
99
127
76
18
229
3
187
75
84
28
227
182
186
101
112
61
181
7
35
57
143
145
20
30
69
132
147
146
153
199
214
88
11
82
122
138
212
62
179
194
235
80
119
12
83
158
26
163
210
33
116
104
220
148
89
17
111
117
85
21
34
139
192
23
40
121
50
92
15

> <PUBCHEM_MMFF94_PARTIAL_CHARGES>
52
1 -0.19
10 -0.71
11 -0.62
12 0.58
13 -0.12
14 -0.14
15 -0.03
16 0.62
17 -0.15
18 0.69
19 -0.15
2 -0.57
20 0.09
21 0.14
22 -0.15
23 0.19
24 0.12
25 0.54
26 -0.15
28 -0.15
29 -0.15
3 -0.57
30 -0.15
31 0.44
32 0.14
33 0.17
34 -0.15
35 -0.15
36 0.16
37 -0.15
39 0.37
4 -0.57
40 0.15
41 0.37
42 0.15
46 0.37
47 0.15
48 0.15
49 0.15
5 -0.73
50 0.15
51 0.37
54 0.15
55 0.27
56 0.15
57 0.15
58 0.15
59 0.15
6 -0.54
7 -0.55
8 -0.73
9 0.3

> <PUBCHEM_EFFECTIVE_ROTOR_COUNT>
8.6

> <PUBCHEM_PHARMACOPHORE_FEATURES>
15
1 10 acceptor
1 11 acceptor
1 2 acceptor
1 3 acceptor
1 4 acceptor
1 5 donor
1 6 donor
1 7 donor
1 8 donor
1 9 donor
5 9 10 27 29 32 rings
6 11 33 34 35 36 37 rings
6 14 17 19 20 22 23 rings
6 24 26 27 28 29 30 rings
6 5 6 12 13 15 18 rings

> <PUBCHEM_HEAVY_ATOM_COUNT>
37

> <PUBCHEM_ATOM_DEF_STEREO_COUNT>
0

> <PUBCHEM_ATOM_UDEF_STEREO_COUNT>
1

> <PUBCHEM_BOND_DEF_STEREO_COUNT>
0

> <PUBCHEM_BOND_UDEF_STEREO_COUNT>
0

> <PUBCHEM_ISOTOPIC_ATOM_COUNT>
0

> <PUBCHEM_COMPONENT_COUNT>
1

> <PUBCHEM_CACTVS_TAUTO_COUNT>
994

> <PUBCHEM_CONFORMER_ID>
071619ED00000001

> <PUBCHEM_MMFF94_ENERGY>
93.0881

> <PUBCHEM_FEATURE_SELFOVERLAP>
76.26

> <PUBCHEM_SHAPE_FINGERPRINT>
1100329 8 18410294700724222953
11479125 193 16373858540891932740
11513181 2 18130511932528175614
11578080 2 14853040402866081012
12107698 1 18340485693754329375
12156800 1 18055667012489732932
13583140 156 17895203173341464267
1361 2 18193272988671479793
14117953 113 17618494386115897957
14840074 17 18268432330369840665
15001296 14 18336539520778512553
15264996 142 18193017953065122683
15297060 5 17703513203457825307
15351339 4 18192141814053784768
15781502 13 14115225227922199045
15968369 153 17988636441475249888
20764821 26 18338817696423705443
21133410 62 18043795504420739301
21133410 90 17060336379393891825
21792965 302 18260556645382494678
338550 245 18408324418779184973
4144715 1 18410302418712811046
463206 1 18412544314785137945
469060 322 17458620120922250078

> <PUBCHEM_SHAPE_MULTIPOLES>
701.69
12.42
5.74
1.43
4.93
0.04
-0.1
-1.96
-0.61
-3.62
-0.4
-0.57
0.22
-0.17

> <PUBCHEM_SHAPE_SELFOVERLAP>
1555.498

> <PUBCHEM_SHAPE_VOLUME>
372.5

> <PUBCHEM_COORDINATE_TYPE>
2
5
10

$$$$
