118856142
  -OEChem-03292013293D

 57 60  0     1  0  0  0  0  0999 V2000
   -6.1240   -0.8152   -1.0573 O   0  0  0  0  0  0  0  0  0  0  0  0
   -3.4136   -0.9158   -1.5205 O   0  0  0  0  0  0  0  0  0  0  0  0
   -2.9181   -0.9684    0.8043 O   0  0  0  0  0  0  0  0  0  0  0  0
   -5.0212    2.1228   -2.1182 O   0  0  0  0  0  0  0  0  0  0  0  0
    3.9997   -2.0779   -0.1221 O   0  0  0  0  0  0  0  0  0  0  0  0
    6.6720   -2.2997   -0.9242 O   0  0  0  0  0  0  0  0  0  0  0  0
    5.3041    2.0736    0.1742 O   0  0  0  0  0  0  0  0  0  0  0  0
    7.3181    1.0970   -0.5619 N   0  0  0  0  0  0  0  0  0  0  0  0
   -5.2407   -0.8409    0.0760 C   0  0  2  0  0  0  0  0  0  0  0  0
   -5.6471    0.4544   -0.5872 C   0  0  1  0  0  0  0  0  0  0  0  0
   -3.8461   -1.3553   -0.2214 C   0  0  1  0  0  0  0  0  0  0  0  0
   -3.3035    0.5018   -1.5887 C   0  0  2  0  0  0  0  0  0  0  0  0
   -2.3152    0.9953   -0.5186 C   0  0  2  0  0  0  0  0  0  0  0  0
   -4.6937    1.1154   -1.5026 C   0  0  0  0  0  0  0  0  0  0  0  0
   -2.6897    0.4459    0.8732 C   0  0  2  0  0  0  0  0  0  0  0  0
   -5.9135   -1.2472    1.3499 C   0  0  0  0  0  0  0  0  0  0  0  0
   -3.8227   -2.8832   -0.2738 C   0  0  0  0  0  0  0  0  0  0  0  0
   -1.5917    0.6617    1.9102 C   0  0  1  0  0  0  0  0  0  0  0  0
   -2.1585    2.5149   -0.5377 C   0  0  0  0  0  0  0  0  0  0  0  0
   -2.0076    0.0798    3.2636 C   0  0  0  0  0  0  0  0  0  0  0  0
   -0.3055    0.0129    1.4478 C   0  0  0  0  0  0  0  0  0  0  0  0
    0.8901    0.5886    1.1976 C   0  0  0  0  0  0  0  0  0  0  0  0
    1.1696    2.0602    1.3576 C   0  0  0  0  0  0  0  0  0  0  0  0
    1.9944   -0.2649    0.7445 C   0  0  0  0  0  0  0  0  0  0  0  0
    3.2456    0.1303    0.4497 C   0  0  0  0  0  0  0  0  0  0  0  0
    4.3192   -0.7397    0.0018 C   0  0  0  0  0  0  0  0  0  0  0  0
    5.5474   -0.2797   -0.2761 C   0  0  0  0  0  0  0  0  0  0  0  0
    6.6907   -1.0953   -0.7352 C   0  0  0  0  0  0  0  0  0  0  0  0
    5.9810    1.1241   -0.1738 C   0  0  0  0  0  0  0  0  0  0  0  0
    7.8805   -0.1956   -0.9312 C   0  0  0  0  0  0  0  0  0  0  0  0
   -6.3503    1.0978   -0.0725 H   0  0  0  0  0  0  0  0  0  0  0  0
   -2.9151    0.7364   -2.5870 H   0  0  0  0  0  0  0  0  0  0  0  0
   -1.3548    0.5564   -0.8187 H   0  0  0  0  0  0  0  0  0  0  0  0
   -3.6040    0.9310    1.2371 H   0  0  0  0  0  0  0  0  0  0  0  0
   -6.1172   -2.3222    1.3581 H   0  0  0  0  0  0  0  0  0  0  0  0
   -6.8706   -0.7316    1.4846 H   0  0  0  0  0  0  0  0  0  0  0  0
   -5.2844   -1.0081    2.2130 H   0  0  0  0  0  0  0  0  0  0  0  0
   -2.8252   -3.2401   -0.5567 H   0  0  0  0  0  0  0  0  0  0  0  0
   -4.5287   -3.2687   -1.0174 H   0  0  0  0  0  0  0  0  0  0  0  0
   -4.0558   -3.3277    0.6993 H   0  0  0  0  0  0  0  0  0  0  0  0
   -1.4662    1.7361    2.0613 H   0  0  0  0  0  0  0  0  0  0  0  0
   -1.9858    2.8729   -1.5584 H   0  0  0  0  0  0  0  0  0  0  0  0
   -1.3088    2.8426    0.0642 H   0  0  0  0  0  0  0  0  0  0  0  0
   -3.0529    3.0142   -0.1509 H   0  0  0  0  0  0  0  0  0  0  0  0
   -2.1227   -1.0095    3.2342 H   0  0  0  0  0  0  0  0  0  0  0  0
   -1.2556    0.3088    4.0275 H   0  0  0  0  0  0  0  0  0  0  0  0
   -2.9581    0.5108    3.5964 H   0  0  0  0  0  0  0  0  0  0  0  0
   -0.3831   -1.0671    1.3099 H   0  0  0  0  0  0  0  0  0  0  0  0
    1.4122    2.5127    0.3897 H   0  0  0  0  0  0  0  0  0  0  0  0
    2.0092    2.2213    2.0435 H   0  0  0  0  0  0  0  0  0  0  0  0
    0.3345    2.6247    1.7750 H   0  0  0  0  0  0  0  0  0  0  0  0
    1.7494   -1.3219    0.6463 H   0  0  0  0  0  0  0  0  0  0  0  0
    3.4384    1.1840    0.5579 H   0  0  0  0  0  0  0  0  0  0  0  0
    8.6920   -0.4419   -0.2450 H   0  0  0  0  0  0  0  0  0  0  0  0
    8.1964   -0.1632   -1.9748 H   0  0  0  0  0  0  0  0  0  0  0  0
    4.7804   -2.5693   -0.4251 H   0  0  0  0  0  0  0  0  0  0  0  0
    7.8786    1.9431   -0.5860 H   0  0  0  0  0  0  0  0  0  0  0  0
  1  9  1  0  0  0  0
  1 10  1  0  0  0  0
  2 11  1  0  0  0  0
  2 12  1  0  0  0  0
  3 11  1  0  0  0  0
  3 15  1  0  0  0  0
  4 14  2  0  0  0  0
  5 26  1  0  0  0  0
  5 56  1  0  0  0  0
  6 28  2  0  0  0  0
  7 29  2  0  0  0  0
  8 29  1  0  0  0  0
  8 30  1  0  0  0  0
  8 57  1  0  0  0  0
  9 10  1  0  0  0  0
  9 11  1  0  0  0  0
  9 16  1  0  0  0  0
 10 14  1  0  0  0  0
 10 31  1  0  0  0  0
 11 17  1  0  0  0  0
 12 13  1  0  0  0  0
 12 14  1  0  0  0  0
 12 32  1  0  0  0  0
 13 15  1  0  0  0  0
 13 19  1  0  0  0  0
 13 33  1  0  0  0  0
 15 18  1  0  0  0  0
 15 34  1  0  0  0  0
 16 35  1  0  0  0  0
 16 36  1  0  0  0  0
 16 37  1  0  0  0  0
 17 38  1  0  0  0  0
 17 39  1  0  0  0  0
 17 40  1  0  0  0  0
 18 20  1  0  0  0  0
 18 21  1  0  0  0  0
 18 41  1  0  0  0  0
 19 42  1  0  0  0  0
 19 43  1  0  0  0  0
 19 44  1  0  0  0  0
 20 45  1  0  0  0  0
 20 46  1  0  0  0  0
 20 47  1  0  0  0  0
 21 22  2  0  0  0  0
 21 48  1  0  0  0  0
 22 23  1  0  0  0  0
 22 24  1  0  0  0  0
 23 49  1  0  0  0  0
 23 50  1  0  0  0  0
 23 51  1  0  0  0  0
 24 25  2  0  0  0  0
 24 52  1  0  0  0  0
 25 26  1  0  0  0  0
 25 53  1  0  0  0  0
 26 27  2  0  0  0  0
 27 28  1  0  0  0  0
 27 29  1  0  0  0  0
 28 30  1  0  0  0  0
 30 54  1  0  0  0  0
 30 55  1  0  0  0  0
M  END
> <PUBCHEM_COMPOUND_CID>
118856142

> <PUBCHEM_CONFORMER_RMSD>
0.8

> <PUBCHEM_CONFORMER_DIVERSEORDER>
1
164
256
78
231
163
66
236
137
177
214
130
209
112
25
183
23
84
204
37
175
180
87
94
251
250
159
199
141
41
28
224
208
155
79
19
254
202
114
15
123
206
138
50
168
147
181
192
7
233
18
176
201
115
122
65
82
16
230
59
5
144
14
127
31
124
2
185
46
162
119
27
246
129
113
30
86
70
142
156
215
227
128
195
136
158
110
48
72
118
234
8
249
198
61
53
40
99
4
226
13
47
167
243
101
93
248
143
235
182
255
12
85
237
11
21
188
221
197
63
22
9
97
10
67
116
68
96
42
45
222
132
154
106
64
179
32
187
104
60
131
126
171
190
109
196
83
89
161
165
205
194
145
71
105
100
55
253
34
151
98
6
228
38
80
133
160
103
56
211
117
135
172
219
245
3
76
207
125
54
62
252
49
242
33
24
212
75
169
17
52
58
26
20
90
153
36
69
186
120
35
74
148
51
44
88
111
178
81
107
92
173
39
77
223
166
193
150
149
244
73
203
108
218
157
121
189
216
238
43
200
139
240
170
229
241
91
210
29
239
217
174
102
57
213
220
134
191
247
146
95
184
140
232
225
152
257

> <PUBCHEM_MMFF94_PARTIAL_CHARGES>
32
1 -0.3
10 0.05
11 0.65
12 0.34
14 0.51
15 0.28
16 0.09
18 0.14
2 -0.56
21 -0.29
22 -0.14
23 0.14
24 -0.15
25 -0.15
26 0.08
27 0.03
28 0.49
29 0.62
3 -0.56
30 0.36
31 0.1
4 -0.57
48 0.15
5 -0.53
52 0.15
53 0.15
56 0.45
57 0.37
6 -0.57
7 -0.57
8 -0.73
9 -0.04

> <PUBCHEM_EFFECTIVE_ROTOR_COUNT>
5.4

> <PUBCHEM_PHARMACOPHORE_FEATURES>
14
1 1 acceptor
1 2 acceptor
1 20 hydrophobe
1 23 hydrophobe
1 27 anion
1 3 acceptor
1 4 acceptor
1 5 donor
1 6 acceptor
1 7 acceptor
1 8 donor
5 8 27 28 29 30 rings
6 2 3 11 12 13 15 rings
7 1 2 9 10 11 12 14 rings

> <PUBCHEM_HEAVY_ATOM_COUNT>
30

> <PUBCHEM_ATOM_DEF_STEREO_COUNT>
2

> <PUBCHEM_ATOM_UDEF_STEREO_COUNT>
5

> <PUBCHEM_BOND_DEF_STEREO_COUNT>
3

> <PUBCHEM_BOND_UDEF_STEREO_COUNT>
0

> <PUBCHEM_ISOTOPIC_ATOM_COUNT>
0

> <PUBCHEM_COMPONENT_COUNT>
1

> <PUBCHEM_CACTVS_TAUTO_COUNT>
26

> <PUBCHEM_CONFORMER_ID>
071599CE00000001

> <PUBCHEM_MMFF94_ENERGY>
75.4636

> <PUBCHEM_FEATURE_SELFOVERLAP>
71.809

> <PUBCHEM_SHAPE_FINGERPRINT>
10076449 9 16371020650178164209
10299344 5 17561370590760584114
11135926 11 18131355180674281830
11524674 6 11383833757564027301
117089 54 17833270105727435491
12760667 363 16774075172374228915
12988421 55 12613032735061057877
13690498 29 18339072817713917751
14068700 675 16128651963817796433
14556957 393 18060150837988478272
14840074 17 16558751208662689374
14856354 85 16415200108664507197
15183329 4 18410853244035820146
15188451 53 12750940153405657901
1577012 14 16226040068203112248
15799311 1 15554455115194601876
17780758 139 11671777174254961141
18393751 57 12757149035691238113
20281389 69 12396297080434717278
21033650 10 17822287951280374505
21756936 100 16443064976519048289
22061861 79 18412263935151051390
22393880 68 18335411387741571850
23198884 109 17167861950284292531
23522609 53 16557648484547414080
23559900 14 18059285586444468769
2767999 5 14851603284890598516
2838139 119 15285352929745985996
3004659 81 18413103962003166898
312425 54 12319744669491905108
351380 3 17060337426875488858
392239 28 9655288298312145855
4015057 19 18340780333654713320
4098825 35 18409731720880285913
44317340 157 18342175609457234776
44880568 143 17967818228338683988
484985 159 16128647527823740381
4938544 92 13470422036707722467
497634 4 18202008715474558080
504579 68 18201452384999286660
5265222 85 18336825385312071863
999808 66 18339653325451408379

> <PUBCHEM_SHAPE_MULTIPOLES>
571.32
20.49
2.24
1.93
32.58
0.26
-0.95
4.68
8.91
-0.37
0.5
-2.62
-0.52
1.67

> <PUBCHEM_SHAPE_SELFOVERLAP>
1222.544

> <PUBCHEM_SHAPE_VOLUME>
314

> <PUBCHEM_COORDINATE_TYPE>
2
5
10

$$$$
