REMARK  Name = 118855602
REMARK  7 active torsions:
REMARK  status: ('A' for Active; 'I' for Inactive)
REMARK    1  A    between atoms: C_2  and  O_7
REMARK    2  A    between atoms: C_2  and  C_15
REMARK    3  A    between atoms: C_3  and  O_9
REMARK    4  A    between atoms: C_4  and  O_11
REMARK    5  A    between atoms: C_5  and  O_13
REMARK    6  A    between atoms: C_15  and  N_17
REMARK    7  A    between atoms: C_18  and  C_22
REMARK                            x       y       z     vdW  Elec       q    Type
REMARK                         _______ _______ _______ _____ _____    ______ ____
ROOT
ATOM      1  O   UNL     1      -0.983   1.018   0.201  0.00  0.00    -0.328 OA
ATOM      2  C   UNL     1      -1.250  -0.393   0.285  0.00  0.00    +0.230 C 
ATOM      3  C   UNL     1      -2.637  -0.617   0.931  0.00  0.00    +0.193 C 
ATOM      4  C   UNL     1      -3.744   0.145   0.193  0.00  0.00    +0.171 C 
ATOM      5  C   UNL     1      -3.341   1.616   0.086  0.00  0.00    +0.169 C 
ATOM      6  C   UNL     1      -1.957   1.750  -0.540  0.00  0.00    +0.176 C 
ENDROOT
BRANCH   2   7
ATOM      7  O   UNL     1      -1.210  -1.010  -1.004  0.00  0.00    -0.361 OA
ATOM      8  H   UNL     1      -0.338  -0.866  -1.404  0.00  0.00    +0.213 HD
ENDBRANCH   2   7
BRANCH   3   9
ATOM      9  O   UNL     1      -2.979  -1.997   0.981  0.00  0.00    -0.378 OA
ATOM     10  H   UNL     1      -2.282  -2.486   1.447  0.00  0.00    +0.211 HD
ENDBRANCH   3   9
BRANCH   4  11
ATOM     11  O   UNL     1      -3.921  -0.407  -1.112  0.00  0.00    -0.379 OA
ATOM     12  H   UNL     1      -4.176  -1.340  -1.036  0.00  0.00    +0.211 HD
ENDBRANCH   4  11
BRANCH   5  13
ATOM     13  O   UNL     1      -4.283   2.340  -0.693  0.00  0.00    -0.379 OA
ATOM     14  H   UNL     1      -5.164   2.255  -0.295  0.00  0.00    +0.211 HD
ENDBRANCH   5  13
BRANCH   2  15
ATOM     15  C   UNL     1      -0.138  -1.004   1.142  0.00  0.00    +0.152 C 
BRANCH  15  17
ATOM     16  O   UNL     1       1.346  -2.714  -0.819  0.00  0.00    -0.275 OA
ATOM     17  N   UNL     1       1.157  -0.795   0.531  0.00  0.00    -0.275 N 
ATOM     18  C   UNL     1       3.046   0.351  -0.196  0.00  0.00    +0.029 C 
ATOM     19  C   UNL     1       2.001   0.314   0.910  0.00  0.00    +0.094 C 
ATOM     20  C   UNL     1       3.155  -1.111  -0.637  0.00  0.00    +0.087 C 
ATOM     21  C   UNL     1       1.778  -1.666  -0.360  0.00  0.00    +0.226 C 
BRANCH  18  22
ATOM     22  C   UNL     1       4.372   0.939   0.255  0.00  0.00    +0.002 C 
ATOM     23  C   UNL     1       5.402   0.857  -0.868  0.00  0.00    +0.000 C 
ATOM     24  C   UNL     1       4.187   2.383   0.713  0.00  0.00    +0.000 C 
ENDBRANCH  18  22
ENDBRANCH  15  17
ENDBRANCH   2  15
TORSDOF 7
