REMARK  Name = 118856142
REMARK  5 active torsions:
REMARK  status: ('A' for Active; 'I' for Inactive)
REMARK    1  A    between atoms: C_1  and  C_13
REMARK    2  A    between atoms: C_1  and  C_17
REMARK    3  A    between atoms: C_18  and  C_20
REMARK    4  A    between atoms: C_21  and  C_25
REMARK    5  A    between atoms: C_25  and  O_31
REMARK                            x       y       z     vdW  Elec       q    Type
REMARK                         _______ _______ _______ _____ _____    ______ ____
ROOT
ATOM      1  C   UNL     1      -1.592   0.662   1.910  0.00  0.00    +0.049 C 
ATOM      2  C   UNL     1      -2.008   0.080   3.264  0.00  0.00    +0.007 C 
ENDROOT
BRANCH   1  13
ATOM      3  O   UNL     1      -6.124  -0.815  -1.057  0.00  0.00    -0.343 OA
ATOM      4  O   UNL     1      -3.414  -0.916  -1.520  0.00  0.00    -0.327 OA
ATOM      5  O   UNL     1      -2.918  -0.968   0.804  0.00  0.00    -0.334 OA
ATOM      6  O   UNL     1      -5.021   2.123  -2.118  0.00  0.00    -0.291 OA
ATOM      7  C   UNL     1      -5.241  -0.841   0.076  0.00  0.00    +0.171 C 
ATOM      8  C   UNL     1      -5.647   0.454  -0.587  0.00  0.00    +0.204 C 
ATOM      9  C   UNL     1      -3.846  -1.355  -0.221  0.00  0.00    +0.213 C 
ATOM     10  C   UNL     1      -3.304   0.502  -1.589  0.00  0.00    +0.179 C 
ATOM     11  C   UNL     1      -2.315   0.995  -0.519  0.00  0.00    +0.062 C 
ATOM     12  C   UNL     1      -4.694   1.115  -1.503  0.00  0.00    +0.207 C 
ATOM     13  C   UNL     1      -2.690   0.446   0.873  0.00  0.00    +0.124 C 
ATOM     14  C   UNL     1      -5.913  -1.247   1.350  0.00  0.00    +0.038 C 
ATOM     15  C   UNL     1      -3.823  -2.883  -0.274  0.00  0.00    +0.064 C 
ATOM     16  C   UNL     1      -2.159   2.515  -0.538  0.00  0.00    +0.005 C 
ENDBRANCH   1  13
BRANCH   1  17
ATOM     17  C   UNL     1      -0.305   0.013   1.448  0.00  0.00    -0.028 C 
ATOM     18  C   UNL     1       0.890   0.589   1.198  0.00  0.00    -0.026 C 
ATOM     19  C   UNL     1       1.170   2.060   1.358  0.00  0.00    +0.031 C 
BRANCH  18  20
ATOM     20  C   UNL     1       1.994  -0.265   0.745  0.00  0.00    -0.001 C 
ATOM     21  C   UNL     1       3.246   0.130   0.450  0.00  0.00    +0.037 C 
BRANCH  21  25
ATOM     22  O   UNL     1       6.672  -2.300  -0.924  0.00  0.00    -0.289 OA
ATOM     23  O   UNL     1       5.304   2.074   0.174  0.00  0.00    -0.270 OA
ATOM     24  N   UNL     1       7.318   1.097  -0.562  0.00  0.00    -0.294 N 
ATOM     25  C   UNL     1       4.319  -0.740   0.002  0.00  0.00    +0.141 C 
ATOM     26  C   UNL     1       5.547  -0.280  -0.276  0.00  0.00    +0.123 C 
ATOM     27  C   UNL     1       6.691  -1.095  -0.735  0.00  0.00    +0.200 C 
ATOM     28  C   UNL     1       5.981   1.124  -0.174  0.00  0.00    +0.252 C 
ATOM     29  C   UNL     1       7.880  -0.196  -0.931  0.00  0.00    +0.160 C 
ATOM     30  H   UNL     1       7.861   1.918  -0.586  0.00  0.00    +0.150 HD
BRANCH  25  31
ATOM     31  O   UNL     1       4.000  -2.078  -0.122  0.00  0.00    -0.505 OA
ATOM     32  H   UNL     1       3.133  -2.373   0.079  0.00  0.00    +0.292 HD
ENDBRANCH  25  31
ENDBRANCH  21  25
ENDBRANCH  18  20
ENDBRANCH   1  17
TORSDOF 5
