REMARK  Name = 11880
REMARK  4 active torsions:
REMARK  status: ('A' for Active; 'I' for Inactive)
REMARK    1  A    between atoms: C_1  and  N_9
REMARK    2  A    between atoms: C_2  and  C_14
REMARK    3  A    between atoms: C_3  and  N_12
REMARK    4  A    between atoms: C_14  and  O_15
REMARK                            x       y       z     vdW  Elec       q    Type
REMARK                         _______ _______ _______ _____ _____    ______ ____
ROOT
ATOM      1  C   UNL     1       0.484  -0.581  -0.013  0.00  0.00    +0.151 C 
ATOM      2  C   UNL     1       0.955   0.732  -0.031  0.00  0.00    +0.098 C 
ATOM      3  C   UNL     1      -1.790   0.235  -0.006  0.00  0.00    +0.145 C 
ATOM      4  C   UNL     1      -0.888  -0.829  -0.001  0.00  0.00    +0.048 C 
ATOM      5  C   UNL     1       0.053   1.797  -0.036  0.00  0.00    +0.010 C 
ATOM      6  C   UNL     1      -1.319   1.548  -0.024  0.00  0.00    +0.024 C 
ENDROOT
BRANCH   1   9
ATOM      7  O   UNL     1       0.915  -2.846   0.006  0.00  0.00    -0.126 OA
ATOM      8  O   UNL     1       2.616  -1.459  -0.020  0.00  0.00    -0.126 OA
ATOM      9  N   UNL     1       1.383  -1.683  -0.009  0.00  0.00    +0.058 N 
ENDBRANCH   1   9
BRANCH   3  12
ATOM     10  O   UNL     1      -3.981   0.955   0.001  0.00  0.00    -0.126 OA
ATOM     11  O   UNL     1      -3.591  -1.205   0.021  0.00  0.00    -0.126 OA
ATOM     12  N   UNL     1      -3.187  -0.017   0.006  0.00  0.00    +0.058 N 
ENDBRANCH   3  12
BRANCH   2  14
ATOM     13  O   UNL     1       3.072   1.167  -1.057  0.00  0.00    -0.245 OA
ATOM     14  C   UNL     1       2.382   1.032  -0.044  0.00  0.00    +0.340 C 
BRANCH  14  15
ATOM     15  O   UNL     1       2.896   1.153   1.209  0.00  0.00    -0.477 OA
ATOM     16  H   UNL     1       2.341   1.043   1.956  0.00  0.00    +0.295 HD
ENDBRANCH  14  15
ENDBRANCH   2  14
TORSDOF 4
