118855602
  -OEChem-03292013293D

 43 44  0     1  0  0  0  0  0999 V2000
   -0.9827    1.0175    0.2012 O   0  0  0  0  0  0  0  0  0  0  0  0
   -1.2098   -1.0095   -1.0037 O   0  0  0  0  0  0  0  0  0  0  0  0
   -2.9789   -1.9968    0.9809 O   0  0  0  0  0  0  0  0  0  0  0  0
   -3.9210   -0.4071   -1.1119 O   0  0  0  0  0  0  0  0  0  0  0  0
   -4.2832    2.3400   -0.6925 O   0  0  0  0  0  0  0  0  0  0  0  0
    1.3459   -2.7136   -0.8185 O   0  0  0  0  0  0  0  0  0  0  0  0
    1.1569   -0.7950    0.5307 N   0  0  0  0  0  0  0  0  0  0  0  0
    3.0462    0.3508   -0.1957 C   0  0  2  0  0  0  0  0  0  0  0  0
   -1.2500   -0.3928    0.2853 C   0  0  1  0  0  0  0  0  0  0  0  0
    2.0006    0.3138    0.9102 C   0  0  0  0  0  0  0  0  0  0  0  0
   -0.1381   -1.0040    1.1416 C   0  0  0  0  0  0  0  0  0  0  0  0
   -2.6369   -0.6166    0.9306 C   0  0  1  0  0  0  0  0  0  0  0  0
    3.1551   -1.1112   -0.6370 C   0  0  0  0  0  0  0  0  0  0  0  0
    4.3715    0.9390    0.2550 C   0  0  0  0  0  0  0  0  0  0  0  0
   -3.7436    0.1451    0.1933 C   0  0  1  0  0  0  0  0  0  0  0  0
    1.7776   -1.6662   -0.3603 C   0  0  0  0  0  0  0  0  0  0  0  0
   -3.3410    1.6160    0.0855 C   0  0  1  0  0  0  0  0  0  0  0  0
   -1.9574    1.7505   -0.5400 C   0  0  0  0  0  0  0  0  0  0  0  0
    5.4019    0.8573   -0.8679 C   0  0  0  0  0  0  0  0  0  0  0  0
    4.1870    2.3829    0.7133 C   0  0  0  0  0  0  0  0  0  0  0  0
    2.6406    0.9305   -1.0380 H   0  0  0  0  0  0  0  0  0  0  0  0
    2.4292    0.0885    1.8929 H   0  0  0  0  0  0  0  0  0  0  0  0
    1.4270    1.2425    0.9643 H   0  0  0  0  0  0  0  0  0  0  0  0
   -0.2863   -2.0866    1.2276 H   0  0  0  0  0  0  0  0  0  0  0  0
   -0.1157   -0.5699    2.1473 H   0  0  0  0  0  0  0  0  0  0  0  0
   -2.6039   -0.2457    1.9636 H   0  0  0  0  0  0  0  0  0  0  0  0
    3.8790   -1.6781   -0.0421 H   0  0  0  0  0  0  0  0  0  0  0  0
    3.3915   -1.1995   -1.7010 H   0  0  0  0  0  0  0  0  0  0  0  0
    4.7602    0.3648    1.1064 H   0  0  0  0  0  0  0  0  0  0  0  0
   -4.7050    0.0363    0.7076 H   0  0  0  0  0  0  0  0  0  0  0  0
   -3.3274    2.0474    1.0940 H   0  0  0  0  0  0  0  0  0  0  0  0
   -1.9499    1.4328   -1.5897 H   0  0  0  0  0  0  0  0  0  0  0  0
   -1.6516    2.8027   -0.5427 H   0  0  0  0  0  0  0  0  0  0  0  0
    3.5300    2.4492    1.5863 H   0  0  0  0  0  0  0  0  0  0  0  0
    6.3435    1.3266   -0.5621 H   0  0  0  0  0  0  0  0  0  0  0  0
    5.6317   -0.1793   -1.1332 H   0  0  0  0  0  0  0  0  0  0  0  0
    5.1485    2.8229    0.9997 H   0  0  0  0  0  0  0  0  0  0  0  0
    5.0508    1.3708   -1.7697 H   0  0  0  0  0  0  0  0  0  0  0  0
    3.7601    3.0029   -0.0826 H   0  0  0  0  0  0  0  0  0  0  0  0
   -0.2981   -0.9658   -1.3316 H   0  0  0  0  0  0  0  0  0  0  0  0
   -3.8441   -2.0703    1.4184 H   0  0  0  0  0  0  0  0  0  0  0  0
   -4.5886    0.1341   -1.5671 H   0  0  0  0  0  0  0  0  0  0  0  0
   -3.9916    3.2672   -0.7204 H   0  0  0  0  0  0  0  0  0  0  0  0
  1  9  1  0  0  0  0
  1 18  1  0  0  0  0
  2  9  1  0  0  0  0
  2 40  1  0  0  0  0
  3 12  1  0  0  0  0
  3 41  1  0  0  0  0
  4 15  1  0  0  0  0
  4 42  1  0  0  0  0
  5 17  1  0  0  0  0
  5 43  1  0  0  0  0
  6 16  2  0  0  0  0
  7 10  1  0  0  0  0
  7 11  1  0  0  0  0
  7 16  1  0  0  0  0
  8 10  1  0  0  0  0
  8 13  1  0  0  0  0
  8 14  1  0  0  0  0
  8 21  1  0  0  0  0
  9 11  1  0  0  0  0
  9 12  1  0  0  0  0
 10 22  1  0  0  0  0
 10 23  1  0  0  0  0
 11 24  1  0  0  0  0
 11 25  1  0  0  0  0
 12 15  1  0  0  0  0
 12 26  1  0  0  0  0
 13 16  1  0  0  0  0
 13 27  1  0  0  0  0
 13 28  1  0  0  0  0
 14 19  1  0  0  0  0
 14 20  1  0  0  0  0
 14 29  1  0  0  0  0
 15 17  1  0  0  0  0
 15 30  1  0  0  0  0
 17 18  1  0  0  0  0
 17 31  1  0  0  0  0
 18 32  1  0  0  0  0
 18 33  1  0  0  0  0
 19 35  1  0  0  0  0
 19 36  1  0  0  0  0
 19 38  1  0  0  0  0
 20 34  1  0  0  0  0
 20 37  1  0  0  0  0
 20 39  1  0  0  0  0
M  END
> <PUBCHEM_COMPOUND_CID>
118855602

> <PUBCHEM_CONFORMER_RMSD>
0.8

> <PUBCHEM_CONFORMER_DIVERSEORDER>
1
50
13
36
25
55
64
54
20
81
43
79
75
44
33
61
38
45
11
30
34
52
48
22
68
49
69
10
18
40
41
4
77
80
42
16
56
19
6
63
31
32
17
70
9
37
67
7
57
12
51
76
58
3
39
29
72
60
71
28
5
74
73
14
82
62
35
65
26
8
27
23
47
66
21
78
24
59
15
2
53
46

> <PUBCHEM_MMFF94_PARTIAL_CHARGES>
20
1 -0.56
10 0.3
11 0.3
12 0.28
13 0.06
15 0.28
16 0.57
17 0.28
18 0.28
2 -0.68
3 -0.68
4 -0.68
40 0.4
41 0.4
42 0.4
43 0.4
5 -0.68
6 -0.57
7 -0.66
9 0.56

> <PUBCHEM_EFFECTIVE_ROTOR_COUNT>
5

> <PUBCHEM_PHARMACOPHORE_FEATURES>
13
1 1 acceptor
1 2 acceptor
1 2 donor
1 3 acceptor
1 3 donor
1 4 acceptor
1 4 donor
1 5 acceptor
1 5 donor
1 6 acceptor
3 14 19 20 hydrophobe
5 7 8 10 13 16 rings
6 1 9 12 15 17 18 rings

> <PUBCHEM_HEAVY_ATOM_COUNT>
20

> <PUBCHEM_ATOM_DEF_STEREO_COUNT>
3

> <PUBCHEM_ATOM_UDEF_STEREO_COUNT>
2

> <PUBCHEM_BOND_DEF_STEREO_COUNT>
0

> <PUBCHEM_BOND_UDEF_STEREO_COUNT>
0

> <PUBCHEM_ISOTOPIC_ATOM_COUNT>
0

> <PUBCHEM_COMPONENT_COUNT>
1

> <PUBCHEM_CACTVS_TAUTO_COUNT>
2

> <PUBCHEM_CONFORMER_ID>
071597B200000001

> <PUBCHEM_MMFF94_ENERGY>
47.9795

> <PUBCHEM_FEATURE_SELFOVERLAP>
66.04

> <PUBCHEM_SHAPE_FINGERPRINT>
10366900 7 18341045302449235819
10498660 4 18409727331160251004
10608611 8 18409731720695461656
10646746 165 18335139804338378576
10871710 139 16464745507668324956
11046707 91 11167944653886965016
11132069 177 18040437697975771965
11543360 7 18060412525822982679
11715629 250 18335983090595547660
11759241 127 18410005554840963637
11796584 16 11383574247608867172
12173636 292 18260268512768735143
12403259 415 18271249430195942088
12507557 5 17386287704748629868
12596602 18 15357985607125993176
12670546 177 17703507783040052230
12730499 353 18340215110835189275
13214271 11 18335421309015791947
14123255 52 18342172297804866684
14178342 30 17095816459622694563
15196674 1 18408886204790999304
15219456 202 18411424977144834970
15375358 24 18408321077257348105
18186145 218 17822575997213786018
19862831 5 16988564606549426712
200 152 17775566429181469530
20645477 56 18334019363324374361
20645477 70 17846223198388142526
21250096 35 8574440811503214884
21524375 3 18408885161694130322
23114952 82 18127135173542219134
231179 274 18343587343689869278
23227448 37 18127408075938345148
23402539 116 18114176497148824402
23402655 69 18201157654883107496
23557571 272 18187941619506397859
23559900 14 18196085543483594202
26918003 58 7853576794312732735
2838139 119 18266455589711718460
3472631 163 17822009787670448381
351380 180 18409444800301710368
3545911 37 18408610248894756328
4028521 119 18410856551176786904
474 4 17967256411939701244
5104073 3 18334860480633628649
633830 44 18050278173127281613
9709674 26 18339928112567699431
9925002 15 17476363176103570134

> <PUBCHEM_SHAPE_MULTIPOLES>
371.39
9.66
2.4
1.06
4.16
0.1
0.03
5.16
-1.37
-0.12
-0.22
-0.08
-0.15
1.15

> <PUBCHEM_SHAPE_SELFOVERLAP>
763.576

> <PUBCHEM_SHAPE_VOLUME>
213.3

> <PUBCHEM_COORDINATE_TYPE>
2
5
10

$$$$
