REMARK  Name = 118855455
REMARK  5 active torsions:
REMARK  status: ('A' for Active; 'I' for Inactive)
REMARK    1  A    between atoms: C_3  and  C_12
REMARK    2  A    between atoms: C_4  and  O_20
REMARK    3  A    between atoms: C_8  and  O_22
REMARK    4  A    between atoms: C_11  and  O_24
REMARK    5  A    between atoms: C_17  and  O_18
REMARK                            x       y       z     vdW  Elec       q    Type
REMARK                         _______ _______ _______ _____ _____    ______ ____
ROOT
ATOM      1  O   UNL     1       0.084   0.871   0.108  0.00  0.00    -0.471 OA
ATOM      2  O   UNL     1       1.762  -2.874  -0.025  0.00  0.00    -0.288 OA
ATOM      3  C   UNL     1      -0.649  -0.238  -0.436  0.00  0.00    +0.222 C 
ATOM      4  C   UNL     1      -0.232  -1.560   0.215  0.00  0.00    +0.217 C 
ATOM      5  C   UNL     1       1.251  -1.761   0.018  0.00  0.00    +0.209 C 
ATOM      6  C   UNL     1       2.071  -0.534  -0.052  0.00  0.00    +0.105 C 
ATOM      7  C   UNL     1       1.443   0.713   0.018  0.00  0.00    +0.148 C 
ATOM      8  C   UNL     1       3.463  -0.618  -0.144  0.00  0.00    +0.142 C 
ATOM      9  C   UNL     1       2.211   1.877   0.031  0.00  0.00    +0.074 C 
ATOM     10  C   UNL     1       4.225   0.551  -0.151  0.00  0.00    +0.073 C 
ATOM     11  C   UNL     1       3.601   1.796  -0.059  0.00  0.00    +0.140 C 
ENDROOT
BRANCH   3  12
ATOM     12  C   UNL     1      -2.138   0.015  -0.293  0.00  0.00    +0.020 C 
ATOM     13  C   UNL     1      -2.623   0.715   0.811  0.00  0.00    +0.002 C 
ATOM     14  C   UNL     1      -3.022  -0.454  -1.265  0.00  0.00    +0.002 C 
ATOM     15  C   UNL     1      -3.991   0.948   0.944  0.00  0.00    +0.036 C 
ATOM     16  C   UNL     1      -4.391  -0.222  -1.132  0.00  0.00    +0.036 C 
ATOM     17  C   UNL     1      -4.876   0.479  -0.028  0.00  0.00    +0.134 C 
BRANCH  17  18
ATOM     18  O   UNL     1      -6.212   0.705   0.102  0.00  0.00    -0.506 OA
ATOM     19  H   UNL     1      -6.537   1.176   0.843  0.00  0.00    +0.292 HD
ENDBRANCH  17  18
ENDBRANCH   3  12
BRANCH   4  20
ATOM     20  O   UNL     1      -0.454  -1.538   1.615  0.00  0.00    -0.374 OA
ATOM     21  H   UNL     1      -1.399  -1.409   1.791  0.00  0.00    +0.211 HD
ENDBRANCH   4  20
BRANCH   8  22
ATOM     22  O   UNL     1       4.125  -1.806  -0.220  0.00  0.00    -0.505 OA
ATOM     23  H   UNL     1       3.646  -2.611  -0.218  0.00  0.00    +0.292 HD
ENDBRANCH   8  22
BRANCH  11  24
ATOM     24  O   UNL     1       4.350   2.933  -0.057  0.00  0.00    -0.505 OA
ATOM     25  H   UNL     1       3.932   3.769   0.004  0.00  0.00    +0.292 HD
ENDBRANCH  11  24
TORSDOF 5
