REMARK  Name = 118987042
REMARK  1 active torsions:
REMARK  status: ('A' for Active; 'I' for Inactive)
REMARK    1  A    between atoms: C_7  and  C_18
REMARK                            x       y       z     vdW  Elec       q    Type
REMARK                         _______ _______ _______ _____ _____    ______ ____
ROOT
ATOM      1  N   UNL     1       0.245  -0.676  -0.177  0.00  0.00    -0.382 NA
ATOM      2  N   UNL     1       1.246   1.886   0.124  0.00  0.00    -0.320 NA
ATOM      3  N   UNL     1       3.403   1.049   0.207  0.00  0.00    -0.259 NA
ATOM      4  N   UNL     1       3.820  -1.306   0.027  0.00  0.00    -0.310 NA
ATOM      5  N   UNL     1      -0.959   2.756   0.041  0.00  0.00    -0.330 N 
ATOM      6  N   UNL     1       5.591   0.204   0.294  0.00  0.00    -0.283 N 
ATOM      7  C   UNL     1      -0.571   0.388  -0.142  0.00  0.00    +0.177 C 
ATOM      8  C   UNL     1       1.566  -0.444  -0.060  0.00  0.00    +0.261 C 
ATOM      9  C   UNL     1      -0.076   1.655   0.007  0.00  0.00    +0.219 C 
ATOM     10  C   UNL     1       2.086   0.844   0.092  0.00  0.00    +0.186 C 
ATOM     11  C   UNL     1       2.490  -1.471  -0.084  0.00  0.00    +0.232 C 
ATOM     12  C   UNL     1       4.205  -0.032   0.169  0.00  0.00    +0.208 C 
ATOM     13  H   UNL     1      -0.605   3.668   0.148  0.00  0.00    +0.145 HD
ATOM     14  H   UNL     1      -1.930   2.612  -0.043  0.00  0.00    +0.145 HD
ATOM     15  H   UNL     1       5.926   1.123   0.401  0.00  0.00    +0.156 HD
ATOM     16  H   UNL     1       6.222  -0.551   0.275  0.00  0.00    +0.156 HD
ATOM     17  N   UNL     1       2.006  -2.796  -0.238  0.00  0.00    -0.329 N 
ATOM     18  H   UNL     1       2.638  -3.551  -0.260  0.00  0.00    +0.145 HD
ATOM     19  H   UNL     1       1.039  -2.960  -0.324  0.00  0.00    +0.145 HD
ENDROOT
BRANCH   7  21
ATOM     20 CL   UNL     1      -5.049  -0.779   2.139  0.00  0.00    -0.082 Cl
ATOM     21  C   UNL     1      -1.976   0.082  -0.273  0.00  0.00    +0.034 C 
ATOM     22  C   UNL     1      -2.744  -0.171   0.864  0.00  0.00    +0.014 C 
ATOM     23  C   UNL     1      -2.566   0.040  -1.536  0.00  0.00    +0.003 C 
ATOM     24  C   UNL     1      -4.101  -0.466   0.737  0.00  0.00    +0.058 C 
ATOM     25  C   UNL     1      -3.924  -0.255  -1.663  0.00  0.00    +0.001 C 
ATOM     26  C   UNL     1      -4.691  -0.507  -0.526  0.00  0.00    +0.011 C 
ENDBRANCH   7  21
TORSDOF 1
