118988655
  -OEChem-03292013293D

 60 64  0     1  0  0  0  0  0999 V2000
    1.7695    0.0747   -0.7256 O   0  0  0  0  0  0  0  0  0  0  0  0
    2.8796   -1.6730    0.7684 O   0  0  0  0  0  0  0  0  0  0  0  0
   -1.1791   -3.3152    0.6500 O   0  0  0  0  0  0  0  0  0  0  0  0
    3.2825    1.0080    0.8468 O   0  0  0  0  0  0  0  0  0  0  0  0
    1.2176   -1.5521   -2.7279 O   0  0  0  0  0  0  0  0  0  0  0  0
   -0.7440    0.5161   -2.3072 O   0  0  0  0  0  0  0  0  0  0  0  0
    3.9843    3.8394    0.5755 O   0  0  0  0  0  0  0  0  0  0  0  0
   -2.5927    0.6385    2.6735 O   0  0  0  0  0  0  0  0  0  0  0  0
   -4.8433    1.5732    1.9143 O   0  0  0  0  0  0  0  0  0  0  0  0
    0.8534   -0.9754   -0.4012 C   0  0  2  0  0  0  0  0  0  0  0  0
    1.4539   -1.8688    0.7419 C   0  0  1  0  0  0  0  0  0  0  0  0
    1.2291   -3.3920    0.5210 C   0  0  0  0  0  0  0  0  0  0  0  0
   -0.0946   -3.7502   -0.1700 C   0  0  2  0  0  0  0  0  0  0  0  0
   -0.1894   -3.0791   -1.5467 C   0  0  0  0  0  0  0  0  0  0  0  0
    0.6921   -1.8476   -1.6525 C   0  0  0  0  0  0  0  0  0  0  0  0
   -0.4633   -0.2714   -0.0719 C   0  0  0  0  0  0  0  0  0  0  0  0
    0.9430   -1.4752    2.1067 C   0  0  0  0  0  0  0  0  0  0  0  0
   -0.9190   -0.1814    1.1927 C   0  0  0  0  0  0  0  0  0  0  0  0
    1.9370    0.9720    0.3679 C   0  0  1  0  0  0  0  0  0  0  0  0
   -0.2229   -5.2715   -0.3065 C   0  0  0  0  0  0  0  0  0  0  0  0
   -0.1362   -0.7077    2.2938 C   0  0  0  0  0  0  0  0  0  0  0  0
    1.4655    2.3668   -0.0359 C   0  0  0  0  0  0  0  0  0  0  0  0
   -1.2175    0.3909   -1.1833 C   0  0  0  0  0  0  0  0  0  0  0  0
    2.4261    3.0093   -1.0356 C   0  0  0  0  0  0  0  0  0  0  0  0
    4.2239    1.5118   -0.1091 C   0  0  1  0  0  0  0  0  0  0  0  0
    3.8650    2.9437   -0.5286 C   0  0  2  0  0  0  0  0  0  0  0  0
   -2.2107    0.4924    1.5173 C   0  0  0  0  0  0  0  0  0  0  0  0
   -2.5625    0.9187   -0.9023 C   0  0  0  0  0  0  0  0  0  0  0  0
   -3.0418    0.9703    0.4020 C   0  0  0  0  0  0  0  0  0  0  0  0
    5.6072    1.4093    0.5232 C   0  0  0  0  0  0  0  0  0  0  0  0
   -3.3576    1.3865   -1.9567 C   0  0  0  0  0  0  0  0  0  0  0  0
   -4.3176    1.4885    0.6590 C   0  0  0  0  0  0  0  0  0  0  0  0
   -4.6290    1.8999   -1.6995 C   0  0  0  0  0  0  0  0  0  0  0  0
   -5.1084    1.9509   -0.3929 C   0  0  0  0  0  0  0  0  0  0  0  0
    2.0608   -3.7941   -0.0763 H   0  0  0  0  0  0  0  0  0  0  0  0
    1.2948   -3.9123    1.4873 H   0  0  0  0  0  0  0  0  0  0  0  0
   -1.2167   -2.7832   -1.7851 H   0  0  0  0  0  0  0  0  0  0  0  0
    0.1578   -3.7681   -2.3267 H   0  0  0  0  0  0  0  0  0  0  0  0
    1.4721   -1.8504    2.9795 H   0  0  0  0  0  0  0  0  0  0  0  0
    1.3832    0.7507    1.2625 H   0  0  0  0  0  0  0  0  0  0  0  0
   -0.2291   -5.7518    0.6787 H   0  0  0  0  0  0  0  0  0  0  0  0
    0.5975   -5.6967   -0.8938 H   0  0  0  0  0  0  0  0  0  0  0  0
   -1.1695   -5.5410   -0.7890 H   0  0  0  0  0  0  0  0  0  0  0  0
   -0.4416   -0.4755    3.3091 H   0  0  0  0  0  0  0  0  0  0  0  0
    3.2565   -2.2603    1.4461 H   0  0  0  0  0  0  0  0  0  0  0  0
    1.4297    3.0026    0.8580 H   0  0  0  0  0  0  0  0  0  0  0  0
    0.4620    2.3592   -0.4664 H   0  0  0  0  0  0  0  0  0  0  0  0
   -2.0104   -3.5518    0.2044 H   0  0  0  0  0  0  0  0  0  0  0  0
    2.3527    2.4863   -1.9968 H   0  0  0  0  0  0  0  0  0  0  0  0
    2.1233    4.0493   -1.2038 H   0  0  0  0  0  0  0  0  0  0  0  0
    4.2062    0.8578   -0.9902 H   0  0  0  0  0  0  0  0  0  0  0  0
    4.5551    3.2886   -1.3068 H   0  0  0  0  0  0  0  0  0  0  0  0
    5.6580    1.9668    1.4646 H   0  0  0  0  0  0  0  0  0  0  0  0
    6.3812    1.7847   -0.1528 H   0  0  0  0  0  0  0  0  0  0  0  0
    5.8347    0.3659    0.7681 H   0  0  0  0  0  0  0  0  0  0  0  0
   -3.0063    1.3578   -2.9847 H   0  0  0  0  0  0  0  0  0  0  0  0
    3.7821    4.7339    0.2522 H   0  0  0  0  0  0  0  0  0  0  0  0
   -5.2443    2.2608   -2.5185 H   0  0  0  0  0  0  0  0  0  0  0  0
   -6.0992    2.3542   -0.2012 H   0  0  0  0  0  0  0  0  0  0  0  0
   -4.2691    1.1298    2.5565 H   0  0  0  0  0  0  0  0  0  0  0  0
  1 10  1  0  0  0  0
  1 19  1  0  0  0  0
  2 11  1  0  0  0  0
  2 45  1  0  0  0  0
  3 13  1  0  0  0  0
  3 48  1  0  0  0  0
  4 19  1  0  0  0  0
  4 25  1  0  0  0  0
  5 15  2  0  0  0  0
  6 23  2  0  0  0  0
  7 26  1  0  0  0  0
  7 57  1  0  0  0  0
  8 27  2  0  0  0  0
  9 32  1  0  0  0  0
  9 60  1  0  0  0  0
 10 11  1  0  0  0  0
 10 15  1  0  0  0  0
 10 16  1  0  0  0  0
 11 12  1  0  0  0  0
 11 17  1  0  0  0  0
 12 13  1  0  0  0  0
 12 35  1  0  0  0  0
 12 36  1  0  0  0  0
 13 14  1  0  0  0  0
 13 20  1  0  0  0  0
 14 15  1  0  0  0  0
 14 37  1  0  0  0  0
 14 38  1  0  0  0  0
 16 18  2  0  0  0  0
 16 23  1  0  0  0  0
 17 21  2  0  0  0  0
 17 39  1  0  0  0  0
 18 21  1  0  0  0  0
 18 27  1  0  0  0  0
 19 22  1  0  0  0  0
 19 40  1  0  0  0  0
 20 41  1  0  0  0  0
 20 42  1  0  0  0  0
 20 43  1  0  0  0  0
 21 44  1  0  0  0  0
 22 24  1  0  0  0  0
 22 46  1  0  0  0  0
 22 47  1  0  0  0  0
 23 28  1  0  0  0  0
 24 26  1  0  0  0  0
 24 49  1  0  0  0  0
 24 50  1  0  0  0  0
 25 26  1  0  0  0  0
 25 30  1  0  0  0  0
 25 51  1  0  0  0  0
 26 52  1  0  0  0  0
 27 29  1  0  0  0  0
 28 29  2  0  0  0  0
 28 31  1  0  0  0  0
 29 32  1  0  0  0  0
 30 53  1  0  0  0  0
 30 54  1  0  0  0  0
 30 55  1  0  0  0  0
 31 33  2  0  0  0  0
 31 56  1  0  0  0  0
 32 34  2  0  0  0  0
 33 34  1  0  0  0  0
 33 58  1  0  0  0  0
 34 59  1  0  0  0  0
M  END
> <PUBCHEM_COMPOUND_CID>
118988655

> <PUBCHEM_CONFORMER_RMSD>
0.8

> <PUBCHEM_CONFORMER_DIVERSEORDER>
1
7
4
5
8
3
2
6
9

> <PUBCHEM_MMFF94_PARTIAL_CHARGES>
38
1 -0.56
10 0.48
11 0.42
13 0.28
14 0.06
15 0.45
16 -0.12
17 -0.29
18 0.01
19 0.56
2 -0.68
21 -0.15
23 0.47
25 0.28
26 0.28
27 0.47
28 0.09
29 0.09
3 -0.68
31 -0.15
32 0.08
33 -0.15
34 -0.15
39 0.15
4 -0.56
44 0.15
45 0.4
48 0.4
5 -0.57
56 0.15
57 0.4
58 0.15
59 0.15
6 -0.57
60 0.45
7 -0.68
8 -0.57
9 -0.53

> <PUBCHEM_EFFECTIVE_ROTOR_COUNT>
3.8

> <PUBCHEM_PHARMACOPHORE_FEATURES>
17
1 1 acceptor
1 2 acceptor
1 2 donor
1 3 acceptor
1 3 donor
1 4 acceptor
1 5 acceptor
1 6 acceptor
1 7 acceptor
1 7 donor
1 8 acceptor
1 9 donor
6 10 11 12 13 14 15 rings
6 10 11 16 17 18 21 rings
6 16 18 23 27 28 29 rings
6 28 29 31 32 33 34 rings
6 4 19 22 24 25 26 rings

> <PUBCHEM_HEAVY_ATOM_COUNT>
34

> <PUBCHEM_ATOM_DEF_STEREO_COUNT>
6

> <PUBCHEM_ATOM_UDEF_STEREO_COUNT>
0

> <PUBCHEM_BOND_DEF_STEREO_COUNT>
0

> <PUBCHEM_BOND_UDEF_STEREO_COUNT>
0

> <PUBCHEM_ISOTOPIC_ATOM_COUNT>
0

> <PUBCHEM_COMPONENT_COUNT>
1

> <PUBCHEM_CACTVS_TAUTO_COUNT>
10

> <PUBCHEM_CONFORMER_ID>
07179F6F00000001

> <PUBCHEM_MMFF94_ENERGY>
119.4679

> <PUBCHEM_FEATURE_SELFOVERLAP>
86.495

> <PUBCHEM_SHAPE_FINGERPRINT>
10764073 3 16445571772640710464
11421498 54 17703508788294826481
11582403 64 17968084331262808291
11640471 11 18060413620918759069
11763715 3 17116651942892285406
1200032 147 16412704106186018385
12156800 1 17622406813301185075
12293681 4 16605453763958485630
12788726 201 17689698076004187066
13004483 165 17474672131773532282
13134695 92 17900534575695158946
133893 2 17914341182107546907
13911987 19 17760692141798662534
14142880 1 18047183339314629636
14713325 29 17982173632296284542
14955137 171 18119522142447744082
15219462 58 17834434183544714553
15439362 3 18343306929591680124
15664445 248 17910113512400998183
17138139 8 17555980875203434351
17980427 26 17768850526264877875
1813 80 17410775761376709263
20587220 17 12259422060538562815
21120745 212 17182519814503757357
22907989 373 17765436830434407564
23419403 2 16664553776935906150
23558518 356 17827630667574212244
23559900 14 18192707839799804145
283562 15 17688298410850732770
3493558 16 17684914092089711103
35225 105 18048050845277554468
38695281 34 18410004425380784184
4093350 32 18263637369658366709
469060 322 17182216358063747664
474 4 18413105039623512333
6669772 16 18412546479696562126

> <PUBCHEM_SHAPE_MULTIPOLES>
646.88
8.03
5.07
2.17
2.16
5.28
0.11
-10.99
0.68
-3.11
-0.99
1.43
0.25
0.11

> <PUBCHEM_SHAPE_SELFOVERLAP>
1441.738

> <PUBCHEM_SHAPE_VOLUME>
337.2

> <PUBCHEM_COORDINATE_TYPE>
2
5
10

$$$$
