REMARK  Name = 118984411
REMARK  6 active torsions:
REMARK  status: ('A' for Active; 'I' for Inactive)
REMARK    1  A    between atoms: C_2  and  O_3
REMARK    2  A    between atoms: C_2  and  C_17
REMARK    3  A    between atoms: O_3  and  C_12
REMARK    4  A    between atoms: C_17  and  C_19
REMARK    5  A    between atoms: C_17  and  C_24
REMARK    6  A    between atoms: C_17  and  O_28
REMARK                            x       y       z     vdW  Elec       q    Type
REMARK                         _______ _______ _______ _____ _____    ______ ____
ROOT
ATOM      1  O   UNL     1      -0.985  -1.944  -0.020  0.00  0.00    -0.247 OA
ATOM      2  C   UNL     1      -1.128  -0.820   0.445  0.00  0.00    +0.350 C 
ENDROOT
BRANCH   2   3
ATOM      3  O   UNL     1      -0.097  -0.019   0.870  0.00  0.00    -0.450 OA
BRANCH   3  12
ATOM      4  N   UNL     1       3.608   0.925   0.350  0.00  0.00    +0.388 N 
ATOM      5  C   UNL     1       3.250  -0.222  -0.496  0.00  0.00    -0.054 C 
ATOM      6  C   UNL     1       4.559  -0.673  -1.122  0.00  0.00    -0.017 C 
ATOM      7  C   UNL     1       3.607   0.359   1.675  0.00  0.00    -0.054 C 
ATOM      8  C   UNL     1       5.515  -0.819   0.171  0.00  0.00    -0.004 C 
ATOM      9  C   UNL     1       1.766  -0.303  -0.711  0.00  0.00    +0.023 C 
ATOM     10  C   UNL     1       4.745  -0.748   1.590  0.00  0.00    -0.021 C 
ATOM     11  C   UNL     1       2.127  -0.102   1.971  0.00  0.00    +0.023 C 
ATOM     12  C   UNL     1       1.210  -0.567   0.745  0.00  0.00    +0.165 C 
ATOM     13  C   UNL     1       5.131   0.342  -2.121  0.00  0.00    -0.002 C 
ATOM     14  C   UNL     1       4.413  -2.027  -1.837  0.00  0.00    -0.002 C 
ATOM     15  C   UNL     1       2.920   2.186   0.172  0.00  0.00    -0.100 C 
ATOM     16  H   UNL     1       4.514   1.304   0.072  0.00  0.00    -0.080 HD
ENDBRANCH   3  12
ENDBRANCH   2   3
BRANCH   2  17
ATOM     17  C   UNL     1      -2.470  -0.099   0.594  0.00  0.00    +0.227 C 
BRANCH  17  19
ATOM     18  S   UNL     1      -3.847  -1.225  -1.571  0.00  0.00    -0.088 S 
ATOM     19  C   UNL     1      -3.671  -0.911   0.103  0.00  0.00    +0.046 C 
ATOM     20  C   UNL     1      -4.694  -1.462   0.843  0.00  0.00    +0.006 C 
ATOM     21  C   UNL     1      -5.636  -2.151   0.024  0.00  0.00    +0.007 C 
ATOM     22  C   UNL     1      -5.296  -2.100  -1.310  0.00  0.00    +0.035 C 
ENDBRANCH  17  19
BRANCH  17  24
ATOM     23  S   UNL     1      -3.274   2.580   0.762  0.00  0.00    -0.088 S 
ATOM     24  C   UNL     1      -2.463   1.297  -0.031  0.00  0.00    +0.046 C 
ATOM     25  C   UNL     1      -1.871   1.708  -1.205  0.00  0.00    +0.006 C 
ATOM     26  C   UNL     1      -2.086   3.094  -1.456  0.00  0.00    +0.007 C 
ATOM     27  C   UNL     1      -2.833   3.690  -0.465  0.00  0.00    +0.035 C 
ENDBRANCH  17  24
BRANCH  17  28
ATOM     28  O   UNL     1      -2.499   0.014   2.032  0.00  0.00    -0.369 OA
ATOM     29  H   UNL     1      -2.503  -0.873   2.426  0.00  0.00    +0.212 HD
ENDBRANCH  17  28
ENDBRANCH   2  17
TORSDOF 6
