118987042
  -OEChem-03292013293D

 30 32  0     0  0  0  0  0  0999 V2000
   -5.0486   -0.7795    2.1395 Cl  0  0  0  0  0  0  0  0  0  0  0  0
    0.2448   -0.6765   -0.1774 N   0  0  0  0  0  0  0  0  0  0  0  0
    1.2460    1.8856    0.1238 N   0  0  0  0  0  0  0  0  0  0  0  0
    3.4034    1.0489    0.2066 N   0  0  0  0  0  0  0  0  0  0  0  0
    3.8204   -1.3057    0.0272 N   0  0  0  0  0  0  0  0  0  0  0  0
   -0.9594    2.7561    0.0408 N   0  0  0  0  0  0  0  0  0  0  0  0
    2.0062   -2.7960   -0.2383 N   0  0  0  0  0  0  0  0  0  0  0  0
    5.5908    0.2037    0.2940 N   0  0  0  0  0  0  0  0  0  0  0  0
   -0.5714    0.3883   -0.1421 C   0  0  0  0  0  0  0  0  0  0  0  0
   -1.9762    0.0817   -0.2730 C   0  0  0  0  0  0  0  0  0  0  0  0
    1.5662   -0.4435   -0.0603 C   0  0  0  0  0  0  0  0  0  0  0  0
   -0.0759    1.6545    0.0068 C   0  0  0  0  0  0  0  0  0  0  0  0
    2.0856    0.8438    0.0922 C   0  0  0  0  0  0  0  0  0  0  0  0
    2.4899   -1.4708   -0.0844 C   0  0  0  0  0  0  0  0  0  0  0  0
   -2.7439   -0.1712    0.8639 C   0  0  0  0  0  0  0  0  0  0  0  0
   -2.5661    0.0400   -1.5364 C   0  0  0  0  0  0  0  0  0  0  0  0
   -4.1015   -0.4655    0.7374 C   0  0  0  0  0  0  0  0  0  0  0  0
   -3.9236   -0.2546   -1.6629 C   0  0  0  0  0  0  0  0  0  0  0  0
    4.2047   -0.0321    0.1687 C   0  0  0  0  0  0  0  0  0  0  0  0
   -4.6915   -0.5072   -0.5260 C   0  0  0  0  0  0  0  0  0  0  0  0
   -2.2853   -0.1395    1.8504 H   0  0  0  0  0  0  0  0  0  0  0  0
   -1.9816    0.2347   -2.4325 H   0  0  0  0  0  0  0  0  0  0  0  0
   -4.3828   -0.2871   -2.6466 H   0  0  0  0  0  0  0  0  0  0  0  0
   -5.7481   -0.7354   -0.6399 H   0  0  0  0  0  0  0  0  0  0  0  0
   -1.8279    2.7038   -0.4764 H   0  0  0  0  0  0  0  0  0  0  0  0
   -0.5402    3.6705    0.1591 H   0  0  0  0  0  0  0  0  0  0  0  0
    1.0716   -3.0059    0.0902 H   0  0  0  0  0  0  0  0  0  0  0  0
    2.6937   -3.5391   -0.2450 H   0  0  0  0  0  0  0  0  0  0  0  0
    5.9259    1.1507    0.4040 H   0  0  0  0  0  0  0  0  0  0  0  0
    6.2318   -0.5773    0.2724 H   0  0  0  0  0  0  0  0  0  0  0  0
  1 17  1  0  0  0  0
  2  9  2  0  0  0  0
  2 11  1  0  0  0  0
  3 12  2  0  0  0  0
  3 13  1  0  0  0  0
  4 13  2  0  0  0  0
  4 19  1  0  0  0  0
  5 14  1  0  0  0  0
  5 19  2  0  0  0  0
  6 12  1  0  0  0  0
  6 25  1  0  0  0  0
  6 26  1  0  0  0  0
  7 14  1  0  0  0  0
  7 27  1  0  0  0  0
  7 28  1  0  0  0  0
  8 19  1  0  0  0  0
  8 29  1  0  0  0  0
  8 30  1  0  0  0  0
  9 10  1  0  0  0  0
  9 12  1  0  0  0  0
 10 15  2  0  0  0  0
 10 16  1  0  0  0  0
 11 13  1  0  0  0  0
 11 14  2  0  0  0  0
 15 17  1  0  0  0  0
 15 21  1  0  0  0  0
 16 18  2  0  0  0  0
 16 22  1  0  0  0  0
 17 20  2  0  0  0  0
 18 20  1  0  0  0  0
 18 23  1  0  0  0  0
 20 24  1  0  0  0  0
M  END
> <PUBCHEM_COMPOUND_CID>
118987042

> <PUBCHEM_CONFORMER_RMSD>
0.6

> <PUBCHEM_CONFORMER_DIVERSEORDER>
2
5
4
3
6
1

> <PUBCHEM_MMFF94_PARTIAL_CHARGES>
29
1 -0.18
11 0.31
12 0.41
13 0.62
14 0.41
15 -0.15
16 -0.15
17 0.18
18 -0.15
19 0.72
2 -0.62
20 -0.15
21 0.15
22 0.15
23 0.15
24 0.15
25 0.4
26 0.4
27 0.4
28 0.4
29 0.4
3 -0.62
30 0.4
4 -0.62
5 -0.62
6 -0.9
7 -0.9
8 -0.9
9 0.31

> <PUBCHEM_EFFECTIVE_ROTOR_COUNT>
1

> <PUBCHEM_PHARMACOPHORE_FEATURES>
10
1 2 acceptor
1 6 donor
1 7 cation
1 7 donor
1 8 donor
3 3 6 12 cation
4 4 5 8 19 cation
6 10 15 16 17 18 20 rings
6 2 3 9 11 12 13 rings
6 4 5 11 13 14 19 rings

> <PUBCHEM_HEAVY_ATOM_COUNT>
20

> <PUBCHEM_ATOM_DEF_STEREO_COUNT>
0

> <PUBCHEM_ATOM_UDEF_STEREO_COUNT>
0

> <PUBCHEM_BOND_DEF_STEREO_COUNT>
0

> <PUBCHEM_BOND_UDEF_STEREO_COUNT>
0

> <PUBCHEM_ISOTOPIC_ATOM_COUNT>
0

> <PUBCHEM_COMPONENT_COUNT>
1

> <PUBCHEM_CACTVS_TAUTO_COUNT>
73

> <PUBCHEM_CONFORMER_ID>
0717992200000002

> <PUBCHEM_MMFF94_ENERGY>
81.2262

> <PUBCHEM_FEATURE_SELFOVERLAP>
50.79

> <PUBCHEM_SHAPE_FINGERPRINT>
11471102 20 18410849984313975852
11796584 16 16805590426758608530
12236239 1 17560799961663970591
12553582 1 18413671305222789710
12596602 18 17203326766795301499
12670546 56 17275378824604411129
13140716 1 18196369445290250840
13544653 18 18408323263543401453
13760787 5 18341050808471104884
13862211 1 18411973664081675822
14252887 29 18272941496401109086
14386348 63 18040716974319623707
15196674 1 18340201878573609108
15375462 189 18060418006042931971
15527383 91 18343025497411486281
16945 1 18412538834248248620
17357779 13 18262222366174196885
1813 80 18272385160507582405
18785283 64 17898581031369620389
200 152 18343574140491058941
20645477 70 18338505366291645199
21033650 10 14780672557032476070
21267235 1 18412549795257924206
21641784 216 18187942646573846836
221490 88 18194967340500881310
23175994 123 18260548939873782429
23402539 116 18342450439433392036
23557571 272 17240755164717147677
23559900 14 17313374574789819786
26918003 58 18186517704840612857
2871803 45 18337104579987825638
474 4 17557124401144902112
5104073 3 18267581313234037784
573450 72 16702301265463918055
602551 16 14979661251945419455
7495541 125 17386010623433584124
77492 1 17560802177867160309
9709674 26 18337672992860325910

> <PUBCHEM_SHAPE_MULTIPOLES>
378.59
10.3
1.9
1.24
0.55
0.25
0.09
-2.95
2.09
1.27
0.05
-2.41
-0.23
0.67

> <PUBCHEM_SHAPE_SELFOVERLAP>
836.19

> <PUBCHEM_SHAPE_VOLUME>
204.3

> <PUBCHEM_COORDINATE_TYPE>
2
5
10

$$$$
