118987333
  -OEChem-03292013293D

 34 37  0     1  0  0  0  0  0999 V2000
   -3.4127    1.6863   -0.2491 P   0  0  0  0  0  0  0  0  0  0  0  0
   -1.1651   -1.5926   -1.2046 O   0  0  0  0  0  0  0  0  0  0  0  0
   -1.9003    1.1714   -0.4893 O   0  0  0  0  0  0  0  0  0  0  0  0
   -2.4963   -3.3350    0.9581 O   0  0  0  0  0  0  0  0  0  0  0  0
   -3.3056    2.4527    1.1708 O   0  0  0  0  0  0  0  0  0  0  0  0
   -3.5824    2.8937   -1.3115 O   0  0  0  0  0  0  0  0  0  0  0  0
   -4.4666    0.6200   -0.3160 O   0  0  0  0  0  0  0  0  0  0  0  0
    0.8021   -0.7653   -0.3000 N   0  0  0  0  0  0  0  0  0  0  0  0
    0.9271    1.2605    0.6093 N   0  0  0  0  0  0  0  0  0  0  0  0
    3.1510   -1.1761   -0.7774 N   0  0  0  0  0  0  0  0  0  0  0  0
    4.5222    0.7212   -0.0894 N   0  0  0  0  0  0  0  0  0  0  0  0
    3.5923    2.6821    0.9173 N   0  0  0  0  0  0  0  0  0  0  0  0
   -1.8870   -1.2040   -0.0058 C   0  0  1  0  0  0  0  0  0  0  0  0
    0.1331   -1.9849   -0.7150 C   0  0  1  0  0  0  0  0  0  0  0  0
   -1.5151   -2.3028    0.9945 C   0  0  2  0  0  0  0  0  0  0  0  0
   -0.1946   -2.8741    0.4758 C   0  0  0  0  0  0  0  0  0  0  0  0
   -1.3705    0.1953    0.4024 C   0  0  1  0  0  0  0  0  0  0  0  0
    0.1132    0.2820    0.2678 C   0  0  0  0  0  0  0  0  0  0  0  0
    2.1218   -0.4456   -0.3211 C   0  0  0  0  0  0  0  0  0  0  0  0
    2.1803    0.8202    0.2479 C   0  0  0  0  0  0  0  0  0  0  0  0
    3.4394    1.4030    0.3548 C   0  0  0  0  0  0  0  0  0  0  0  0
    4.3137   -0.5078   -0.6194 C   0  0  0  0  0  0  0  0  0  0  0  0
   -2.9499   -1.2145   -0.2472 H   0  0  0  0  0  0  0  0  0  0  0  0
    0.7142   -2.4727   -1.5018 H   0  0  0  0  0  0  0  0  0  0  0  0
   -1.4550   -1.9347    2.0233 H   0  0  0  0  0  0  0  0  0  0  0  0
    0.5901   -2.8591    1.2395 H   0  0  0  0  0  0  0  0  0  0  0  0
   -0.3214   -3.9114    0.1442 H   0  0  0  0  0  0  0  0  0  0  0  0
   -1.6698    0.4369    1.4277 H   0  0  0  0  0  0  0  0  0  0  0  0
   -2.2134   -4.0269    1.5803 H   0  0  0  0  0  0  0  0  0  0  0  0
    5.2031   -1.0250   -0.9636 H   0  0  0  0  0  0  0  0  0  0  0  0
    2.7862    3.1934    1.2504 H   0  0  0  0  0  0  0  0  0  0  0  0
    4.5173    3.0843    0.9848 H   0  0  0  0  0  0  0  0  0  0  0  0
   -4.4562    3.3313   -1.3968 H   0  0  0  0  0  0  0  0  0  0  0  0
   -4.1260    2.7841    1.5942 H   0  0  0  0  0  0  0  0  0  0  0  0
  1  3  1  0  0  0  0
  1  5  1  0  0  0  0
  1  6  1  0  0  0  0
  1  7  2  0  0  0  0
  2 13  1  0  0  0  0
  2 14  1  0  0  0  0
  3 17  1  0  0  0  0
  4 15  1  0  0  0  0
  4 29  1  0  0  0  0
  5 34  1  0  0  0  0
  6 33  1  0  0  0  0
  8 14  1  0  0  0  0
  8 18  1  0  0  0  0
  8 19  1  0  0  0  0
  9 18  2  0  0  0  0
  9 20  1  0  0  0  0
 10 19  2  0  0  0  0
 10 22  1  0  0  0  0
 11 21  1  0  0  0  0
 11 22  2  0  0  0  0
 12 21  1  0  0  0  0
 12 31  1  0  0  0  0
 12 32  1  0  0  0  0
 13 15  1  0  0  0  0
 13 17  1  0  0  0  0
 13 23  1  0  0  0  0
 14 16  1  0  0  0  0
 14 24  1  0  0  0  0
 15 16  1  0  0  0  0
 15 25  1  0  0  0  0
 16 26  1  0  0  0  0
 16 27  1  0  0  0  0
 17 18  1  0  0  0  0
 17 28  1  0  0  0  0
 19 20  1  0  0  0  0
 20 21  2  0  0  0  0
 22 30  1  0  0  0  0
M  END
> <PUBCHEM_COMPOUND_CID>
118987333

> <PUBCHEM_CONFORMER_RMSD>
0.6

> <PUBCHEM_CONFORMER_DIVERSEORDER>
1
4
2
3

> <PUBCHEM_MMFF94_PARTIAL_CHARGES>
27
1 1.51
10 -0.57
11 -0.62
12 -0.9
13 0.28
14 0.54
15 0.28
17 0.46
18 0.01
19 0.11
2 -0.56
20 0.23
21 0.41
22 0.47
29 0.4
3 -0.55
30 0.15
31 0.4
32 0.4
33 0.5
34 0.5
4 -0.68
5 -0.77
6 -0.77
7 -0.7
8 0.05
9 -0.57

> <PUBCHEM_EFFECTIVE_ROTOR_COUNT>
2.8

> <PUBCHEM_PHARMACOPHORE_FEATURES>
15
1 12 cation
1 12 donor
1 2 acceptor
1 4 acceptor
1 4 donor
1 5 acceptor
1 6 acceptor
1 7 acceptor
3 10 11 22 cation
3 8 10 19 cation
3 8 9 18 cation
4 1 5 6 7 anion
5 8 9 18 19 20 rings
6 10 11 19 20 21 22 rings
8 2 8 13 14 15 16 17 18 rings

> <PUBCHEM_HEAVY_ATOM_COUNT>
22

> <PUBCHEM_ATOM_DEF_STEREO_COUNT>
4

> <PUBCHEM_ATOM_UDEF_STEREO_COUNT>
0

> <PUBCHEM_BOND_DEF_STEREO_COUNT>
0

> <PUBCHEM_BOND_UDEF_STEREO_COUNT>
0

> <PUBCHEM_ISOTOPIC_ATOM_COUNT>
0

> <PUBCHEM_COMPONENT_COUNT>
1

> <PUBCHEM_CACTVS_TAUTO_COUNT>
6

> <PUBCHEM_CONFORMER_ID>
07179A4500000001

> <PUBCHEM_MMFF94_ENERGY>
21.6721

> <PUBCHEM_FEATURE_SELFOVERLAP>
76.782

> <PUBCHEM_SHAPE_FINGERPRINT>
10608611 8 18269836570338276320
10906281 52 17987253140262919532
10922049 32 18410013195914758879
10948715 1 18410854322109709927
10967382 1 18269560425399980256
1100329 8 16826722782730716296
11578080 2 16485548043862967059
12173636 292 18335134336312144287
12403259 415 18409731720949175925
12500047 106 18408603660831428348
12532896 13 18408597050470753231
12730499 353 18118687609133275861
12769317 202 18049991204397321597
13140716 1 18412263935103578970
13464514 151 18125446310770536367
13583140 156 17603309249562003752
14178342 30 18114453582853497258
14223421 5 18196374951438363216
14787075 74 18343292700507238805
15420108 30 15540398602015712656
16945 1 18128265480064570534
18186145 218 18270962319446795693
19049666 15 18412267276493618162
19591789 44 18192713345346516815
20510252 161 18268431415578262579
20602899 9 16200431377245666815
20645477 56 18410292549014536816
20645477 70 17561089094588508500
21033648 29 18334850576482234985
21524375 3 18339360764783726623
22182313 1 18130521828723103422
22182937 141 18412833498890170977
23419403 2 17341299992639730671
23493267 7 18408321107760060338
23558518 356 18189055463666725010
23559900 14 18271810082557994782
238 59 17615652212687669325
23845131 108 18191319169905040017
25 1 18198061387152583765
2748010 2 18272378606772200918
335352 9 18341052896505459134
350125 39 18339656640522017112
3759504 43 18260270724175693671
474 4 18198909106592040569
495365 180 17560786750386876712
5104073 3 18411980304348756808
6138700 20 17980484460556839542
633830 44 18128814149457721101
81228 2 18043815496707349139
84936 182 17978222760357902265
9709674 26 18343023328331701958

> <PUBCHEM_SHAPE_MULTIPOLES>
396.48
7.55
3.45
1
2.69
0.73
0.02
-5.12
0.61
-2.72
-0.61
-0.34
-0.03
1.43

> <PUBCHEM_SHAPE_SELFOVERLAP>
867.777

> <PUBCHEM_SHAPE_VOLUME>
217.3

> <PUBCHEM_COORDINATE_TYPE>
2
5
10

$$$$
