REMARK  Name = 118984435
REMARK  4 active torsions:
REMARK  status: ('A' for Active; 'I' for Inactive)
REMARK    1  A    between atoms: N_4  and  C_32
REMARK    2  A    between atoms: C_8  and  O_28
REMARK    3  A    between atoms: C_22  and  O_30
REMARK    4  A    between atoms: C_32  and  C_33
REMARK                            x       y       z     vdW  Elec       q    Type
REMARK                         _______ _______ _______ _____ _____    ______ ____
ROOT
ATOM      1  O   UNL     1       1.509  -0.621   1.523  0.00  0.00    -0.474 OA
ATOM      2  O   UNL     1       3.050   2.926   1.314  0.00  0.00    -0.273 OA
ATOM      3  O   UNL     1       4.986  -0.511  -1.010  0.00  0.00    -0.252 OA
ATOM      4  N   UNL     1      -3.265   0.599  -0.089  0.00  0.00    +0.393 N 
ATOM      5  N   UNL     1       2.765   0.173  -0.780  0.00  0.00    -0.281 N 
ATOM      6  N   UNL     1       4.349   1.309   0.285  0.00  0.00    -0.238 N 
ATOM      7  C   UNL     1      -0.423   0.412   0.498  0.00  0.00    +0.079 C 
ATOM      8  C   UNL     1      -0.962   1.257  -0.663  0.00  0.00    +0.078 C 
ATOM      9  C   UNL     1       1.019   0.665   0.989  0.00  0.00    +0.196 C 
ATOM     10  C   UNL     1      -2.253   0.533  -1.176  0.00  0.00    -0.027 C 
ATOM     11  C   UNL     1       2.008   1.207  -0.090  0.00  0.00    +0.165 C 
ATOM     12  C   UNL     1      -1.462   0.411   1.649  0.00  0.00    -0.013 C 
ATOM     13  C   UNL     1       0.100   1.514  -1.742  0.00  0.00    +0.028 C 
ATOM     14  C   UNL     1      -0.215  -0.998   0.069  0.00  0.00    +0.016 C 
ATOM     15  C   UNL     1       1.355   2.141  -1.116  0.00  0.00    +0.033 C 
ATOM     16  C   UNL     1      -1.955  -0.915  -1.702  0.00  0.00    +0.008 C 
ATOM     17  C   UNL     1      -2.858  -0.034   1.170  0.00  0.00    -0.076 C 
ATOM     18  C   UNL     1      -0.938  -1.676  -0.893  0.00  0.00    -0.025 C 
ATOM     19  C   UNL     1       0.844  -1.555   0.758  0.00  0.00    +0.168 C 
ATOM     20  C   UNL     1       3.170   1.938   0.601  0.00  0.00    +0.249 C 
ATOM     21  C   UNL     1      -0.601  -3.013  -1.102  0.00  0.00    -0.001 C 
ATOM     22  C   UNL     1       1.181  -2.877   0.581  0.00  0.00    +0.167 C 
ATOM     23  C   UNL     1       4.137   0.240  -0.550  0.00  0.00    +0.307 C 
ATOM     24  C   UNL     1       0.439  -3.611  -0.356  0.00  0.00    +0.039 C 
ATOM     25  H   UNL     1      -3.324   1.597   0.111  0.00  0.00    -0.079 HD
ATOM     26  H   UNL     1       2.347  -0.509  -1.354  0.00  0.00    +0.151 HD
ATOM     27  H   UNL     1       5.233   1.589   0.615  0.00  0.00    +0.159 HD
ENDROOT
BRANCH   8  28
ATOM     28  O   UNL     1      -1.336   2.555  -0.167  0.00  0.00    -0.388 OA
ATOM     29  H   UNL     1      -2.010   2.456   0.523  0.00  0.00    +0.210 HD
ENDBRANCH   8  28
BRANCH  22  30
ATOM     30  O   UNL     1       2.214  -3.444   1.249  0.00  0.00    -0.503 OA
ATOM     31  H   UNL     1       2.702  -2.942   1.872  0.00  0.00    +0.292 HD
ENDBRANCH  22  30
BRANCH   4  32
ATOM     32  C   UNL     1      -4.596   0.167  -0.500  0.00  0.00    -0.050 C 
BRANCH  32  33
ATOM     33  C   UNL     1      -5.669   0.902   0.242  0.00  0.00    -0.049 C 
ATOM     34  C   UNL     1      -6.592   0.307   1.006  0.00  0.00    -0.007 C 
ENDBRANCH  32  33
ENDBRANCH   4  32
TORSDOF 4
