REMARK  Name = 118987333
REMARK  5 active torsions:
REMARK  status: ('A' for Active; 'I' for Inactive)
REMARK    1  A    between atoms: C_8  and  O_19
REMARK    2  A    between atoms: C_10  and  O_21
REMARK    3  A    between atoms: O_21  and  P_22
REMARK    4  A    between atoms: P_22  and  O_24
REMARK    5  A    between atoms: P_22  and  O_26
REMARK                            x       y       z     vdW  Elec       q    Type
REMARK                         _______ _______ _______ _____ _____    ______ ____
ROOT
ATOM      1  O   UNL     1      -1.165  -1.593  -1.205  0.00  0.00    -0.334 OA
ATOM      2  N   UNL     1       0.802  -0.765  -0.300  0.00  0.00    -0.224 N 
ATOM      3  N   UNL     1       0.927   1.260   0.609  0.00  0.00    -0.383 NA
ATOM      4  N   UNL     1       3.151  -1.176  -0.777  0.00  0.00    -0.227 NA
ATOM      5  N   UNL     1       4.522   0.721  -0.089  0.00  0.00    -0.227 NA
ATOM      6  C   UNL     1      -1.887  -1.204  -0.006  0.00  0.00    +0.180 C 
ATOM      7  C   UNL     1       0.133  -1.985  -0.715  0.00  0.00    +0.201 C 
ATOM      8  C   UNL     1      -1.515  -2.303   0.995  0.00  0.00    +0.145 C 
ATOM      9  C   UNL     1      -0.195  -2.874   0.476  0.00  0.00    +0.083 C 
ATOM     10  C   UNL     1      -1.371   0.195   0.402  0.00  0.00    +0.222 C 
ATOM     11  C   UNL     1       0.113   0.282   0.268  0.00  0.00    +0.197 C 
ATOM     12  C   UNL     1       2.122  -0.446  -0.321  0.00  0.00    +0.169 C 
ATOM     13  C   UNL     1       2.180   0.820   0.248  0.00  0.00    +0.195 C 
ATOM     14  C   UNL     1       3.439   1.403   0.355  0.00  0.00    +0.155 C 
ATOM     15  C   UNL     1       4.314  -0.508  -0.619  0.00  0.00    +0.253 C 
ATOM     16  N   UNL     1       3.592   2.682   0.917  0.00  0.00    -0.341 N 
ATOM     17  H   UNL     1       4.488   3.085   0.988  0.00  0.00    +0.144 HD
ATOM     18  H   UNL     1       2.804   3.175   1.241  0.00  0.00    +0.144 HD
ENDROOT
BRANCH   8  19
ATOM     19  O   UNL     1      -2.496  -3.335   0.958  0.00  0.00    -0.382 OA
ATOM     20  H   UNL     1      -3.342  -2.989   1.284  0.00  0.00    +0.210 HD
ENDBRANCH   8  19
BRANCH  10  21
ATOM     21  O   UNL     1      -1.900   1.171  -0.489  0.00  0.00    -0.265 OA
BRANCH  21  22
ATOM     22  P   UNL     1      -3.413   1.686  -0.249  0.00  0.00    +0.474 P 
ATOM     23  O   UNL     1      -4.467   0.620  -0.316  0.00  0.00    -0.227 OA
BRANCH  22  24
ATOM     24  O   UNL     1      -3.306   2.453   1.171  0.00  0.00    -0.303 OA
ATOM     25  H   UNL     1      -2.604   3.121   1.125  0.00  0.00    +0.222 HD
ENDBRANCH  22  24
BRANCH  22  26
ATOM     26  O   UNL     1      -3.582   2.894  -1.312  0.00  0.00    -0.303 OA
ATOM     27  H   UNL     1      -2.861   3.531  -1.195  0.00  0.00    +0.222 HD
ENDBRANCH  22  26
ENDBRANCH  21  22
ENDBRANCH  10  21
TORSDOF 5
