REMARK  Name = 118988655
REMARK  6 active torsions:
REMARK  status: ('A' for Active; 'I' for Inactive)
REMARK    1  A    between atoms: C_4  and  O_29
REMARK    2  A    between atoms: C_5  and  O_23
REMARK    3  A    between atoms: C_7  and  O_25
REMARK    4  A    between atoms: C_20  and  O_27
REMARK    5  A    between atoms: O_29  and  C_31
REMARK    6  A    between atoms: C_35  and  O_37
REMARK                            x       y       z     vdW  Elec       q    Type
REMARK                         _______ _______ _______ _____ _____    ______ ____
ROOT
ATOM      1  O   UNL     1       1.218  -1.552  -2.728  0.00  0.00    -0.293 OA
ATOM      2  O   UNL     1      -0.744   0.516  -2.307  0.00  0.00    -0.287 OA
ATOM      3  O   UNL     1      -2.593   0.638   2.674  0.00  0.00    -0.286 OA
ATOM      4  C   UNL     1       0.853  -0.975  -0.401  0.00  0.00    +0.193 C 
ATOM      5  C   UNL     1       1.454  -1.869   0.742  0.00  0.00    +0.142 C 
ATOM      6  C   UNL     1       1.229  -3.392   0.521  0.00  0.00    +0.062 C 
ATOM      7  C   UNL     1      -0.095  -3.750  -0.170  0.00  0.00    +0.098 C 
ATOM      8  C   UNL     1      -0.189  -3.079  -1.547  0.00  0.00    +0.094 C 
ATOM      9  C   UNL     1       0.692  -1.848  -1.653  0.00  0.00    +0.184 C 
ATOM     10  C   UNL     1      -0.463  -0.271  -0.072  0.00  0.00    +0.053 C 
ATOM     11  C   UNL     1       0.943  -1.475   2.107  0.00  0.00    +0.003 C 
ATOM     12  C   UNL     1      -0.919  -0.181   1.193  0.00  0.00    +0.041 C 
ATOM     13  C   UNL     1      -0.223  -5.271  -0.306  0.00  0.00    +0.030 C 
ATOM     14  C   UNL     1      -0.136  -0.708   2.294  0.00  0.00    +0.001 C 
ATOM     15  C   UNL     1      -1.218   0.391  -1.183  0.00  0.00    +0.195 C 
ATOM     16  C   UNL     1      -2.211   0.492   1.517  0.00  0.00    +0.198 C 
ATOM     17  C   UNL     1      -2.563   0.919  -0.902  0.00  0.00    +0.045 C 
ATOM     18  C   UNL     1      -3.042   0.970   0.402  0.00  0.00    +0.076 C 
ATOM     19  C   UNL     1      -3.358   1.387  -1.957  0.00  0.00    +0.003 C 
ATOM     20  C   UNL     1      -4.318   1.488   0.659  0.00  0.00    +0.137 C 
ATOM     21  C   UNL     1      -4.629   1.900  -1.700  0.00  0.00    +0.003 C 
ATOM     22  C   UNL     1      -5.108   1.951  -0.393  0.00  0.00    +0.037 C 
ENDROOT
BRANCH   5  23
ATOM     23  O   UNL     1       2.880  -1.673   0.768  0.00  0.00    -0.380 OA
ATOM     24  H   UNL     1       3.255  -1.914  -0.093  0.00  0.00    +0.211 HD
ENDBRANCH   5  23
BRANCH   7  25
ATOM     25  O   UNL     1      -1.179  -3.315   0.650  0.00  0.00    -0.386 OA
ATOM     26  H   UNL     1      -1.134  -2.353   0.762  0.00  0.00    +0.210 HD
ENDBRANCH   7  25
BRANCH  20  27
ATOM     27  O   UNL     1      -4.843   1.573   1.914  0.00  0.00    -0.505 OA
ATOM     28  H   UNL     1      -4.347   1.274   2.651  0.00  0.00    +0.292 HD
ENDBRANCH  20  27
BRANCH   4  29
ATOM     29  O   UNL     1       1.770   0.075  -0.726  0.00  0.00    -0.321 OA
BRANCH  29  31
ATOM     30  O   UNL     1       3.283   1.008   0.847  0.00  0.00    -0.331 OA
ATOM     31  C   UNL     1       1.937   0.972   0.368  0.00  0.00    +0.236 C 
ATOM     32  C   UNL     1       1.466   2.367  -0.036  0.00  0.00    +0.064 C 
ATOM     33  C   UNL     1       2.426   3.009  -1.036  0.00  0.00    +0.037 C 
ATOM     34  C   UNL     1       4.224   1.512  -0.109  0.00  0.00    +0.144 C 
ATOM     35  C   UNL     1       3.865   2.944  -0.529  0.00  0.00    +0.138 C 
ATOM     36  C   UNL     1       5.607   1.409   0.523  0.00  0.00    +0.035 C 
BRANCH  35  37
ATOM     37  O   UNL     1       3.984   3.839   0.576  0.00  0.00    -0.382 OA
ATOM     38  H   UNL     1       3.754   4.737   0.290  0.00  0.00    +0.210 HD
ENDBRANCH  35  37
ENDBRANCH  29  31
ENDBRANCH   4  29
TORSDOF 6
