118984411
  -OEChem-03292013293D

 54 57  0     1  0  0  0  0  0999 V2000
   -3.8474   -1.2253   -1.5712 S   0  0  0  0  0  0  0  0  0  0  0  0
   -3.2742    2.5799    0.7624 S   0  0  0  0  0  0  0  0  0  0  0  0
   -0.0974   -0.0187    0.8699 O   0  0  0  0  0  0  0  0  0  0  0  0
   -0.9846   -1.9445   -0.0200 O   0  0  0  0  0  0  0  0  0  0  0  0
   -2.4991    0.0136    2.0317 O   0  0  0  0  0  0  0  0  0  0  0  0
    3.6085    0.9246    0.3497 N   0  0  2  0  0  0  0  0  0  0  0  0
    3.2498   -0.2221   -0.4963 C   0  0  2  0  0  0  0  0  0  0  0  0
    4.5594   -0.6733   -1.1223 C   0  0  0  0  0  0  0  0  0  0  0  0
    3.6074    0.3586    1.6755 C   0  0  2  0  0  0  0  0  0  0  0  0
    5.5149   -0.8189    0.1705 C   0  0  0  0  0  0  0  0  0  0  0  0
    1.7662   -0.3035   -0.7113 C   0  0  0  0  0  0  0  0  0  0  0  0
    4.7452   -0.7475    1.5902 C   0  0  0  0  0  0  0  0  0  0  0  0
    2.1273   -0.1020    1.9710 C   0  0  0  0  0  0  0  0  0  0  0  0
    1.2101   -0.5671    0.7448 C   0  0  1  0  0  0  0  0  0  0  0  0
    5.1309    0.3421   -2.1211 C   0  0  0  0  0  0  0  0  0  0  0  0
    4.4126   -2.0270   -1.8374 C   0  0  0  0  0  0  0  0  0  0  0  0
    2.9197    2.1856    0.1720 C   0  0  0  0  0  0  0  0  0  0  0  0
   -1.1282   -0.8203    0.4452 C   0  0  0  0  0  0  0  0  0  0  0  0
   -2.4704   -0.0993    0.5943 C   0  0  0  0  0  0  0  0  0  0  0  0
   -3.6710   -0.9114    0.1028 C   0  0  0  0  0  0  0  0  0  0  0  0
   -2.4635    1.2973   -0.0313 C   0  0  0  0  0  0  0  0  0  0  0  0
   -4.6945   -1.4617    0.8427 C   0  0  0  0  0  0  0  0  0  0  0  0
   -1.8711    1.7080   -1.2052 C   0  0  0  0  0  0  0  0  0  0  0  0
   -5.6358   -2.1505    0.0243 C   0  0  0  0  0  0  0  0  0  0  0  0
   -2.0855    3.0939   -1.4563 C   0  0  0  0  0  0  0  0  0  0  0  0
   -5.2959   -2.1002   -1.3097 C   0  0  0  0  0  0  0  0  0  0  0  0
   -2.8335    3.6897   -0.4649 C   0  0  0  0  0  0  0  0  0  0  0  0
    3.2096   -1.1608    0.0823 H   0  0  0  0  0  0  0  0  0  0  0  0
    3.9147    1.0883    2.4346 H   0  0  0  0  0  0  0  0  0  0  0  0
    6.2521   -0.0048    0.1646 H   0  0  0  0  0  0  0  0  0  0  0  0
    6.0844   -1.7546    0.1270 H   0  0  0  0  0  0  0  0  0  0  0  0
    1.4924   -1.1397   -1.3655 H   0  0  0  0  0  0  0  0  0  0  0  0
    1.3335    0.5931   -1.1657 H   0  0  0  0  0  0  0  0  0  0  0  0
    4.3263   -1.7367    1.8153 H   0  0  0  0  0  0  0  0  0  0  0  0
    5.4987   -0.5443    2.3611 H   0  0  0  0  0  0  0  0  0  0  0  0
    2.1432   -0.9023    2.7214 H   0  0  0  0  0  0  0  0  0  0  0  0
    1.6124    0.7405    2.4537 H   0  0  0  0  0  0  0  0  0  0  0  0
    1.1581   -1.6598    0.8653 H   0  0  0  0  0  0  0  0  0  0  0  0
    3.7019   -1.9562   -2.6682 H   0  0  0  0  0  0  0  0  0  0  0  0
    4.4357    0.5035   -2.9525 H   0  0  0  0  0  0  0  0  0  0  0  0
    4.0560   -2.8086   -1.1572 H   0  0  0  0  0  0  0  0  0  0  0  0
    5.3735   -2.3622   -2.2436 H   0  0  0  0  0  0  0  0  0  0  0  0
    6.0797   -0.0130   -2.5386 H   0  0  0  0  0  0  0  0  0  0  0  0
    5.3274    1.3150   -1.6589 H   0  0  0  0  0  0  0  0  0  0  0  0
    3.4060    2.9620    0.7731 H   0  0  0  0  0  0  0  0  0  0  0  0
    1.8636    2.1677    0.4572 H   0  0  0  0  0  0  0  0  0  0  0  0
    2.9865    2.5129   -0.8712 H   0  0  0  0  0  0  0  0  0  0  0  0
   -1.8204    0.6568    2.3014 H   0  0  0  0  0  0  0  0  0  0  0  0
   -4.7749   -1.3803    1.9191 H   0  0  0  0  0  0  0  0  0  0  0  0
   -1.3081    1.0538   -1.8587 H   0  0  0  0  0  0  0  0  0  0  0  0
   -6.5174   -2.6569    0.3951 H   0  0  0  0  0  0  0  0  0  0  0  0
   -1.7097    3.6268   -2.3200 H   0  0  0  0  0  0  0  0  0  0  0  0
   -5.8290   -2.5353   -2.1432 H   0  0  0  0  0  0  0  0  0  0  0  0
   -3.1423    4.7237   -0.4025 H   0  0  0  0  0  0  0  0  0  0  0  0
  1 20  1  0  0  0  0
  1 26  1  0  0  0  0
  2 21  1  0  0  0  0
  2 27  1  0  0  0  0
  3 14  1  0  0  0  0
  3 18  1  0  0  0  0
  4 18  2  0  0  0  0
  5 19  1  0  0  0  0
  5 48  1  0  0  0  0
  6  7  1  0  0  0  0
  6  9  1  0  0  0  0
  6 17  1  0  0  0  0
  7  8  1  0  0  0  0
  7 11  1  0  0  0  0
  7 28  1  0  0  0  0
  8 10  1  0  0  0  0
  8 15  1  0  0  0  0
  8 16  1  0  0  0  0
  9 12  1  0  0  0  0
  9 13  1  0  0  0  0
  9 29  1  0  0  0  0
 10 12  1  0  0  0  0
 10 30  1  0  0  0  0
 10 31  1  0  0  0  0
 11 14  1  0  0  0  0
 11 32  1  0  0  0  0
 11 33  1  0  0  0  0
 12 34  1  0  0  0  0
 12 35  1  0  0  0  0
 13 14  1  0  0  0  0
 13 36  1  0  0  0  0
 13 37  1  0  0  0  0
 14 38  1  0  0  0  0
 15 40  1  0  0  0  0
 15 43  1  0  0  0  0
 15 44  1  0  0  0  0
 16 39  1  0  0  0  0
 16 41  1  0  0  0  0
 16 42  1  0  0  0  0
 17 45  1  0  0  0  0
 17 46  1  0  0  0  0
 17 47  1  0  0  0  0
 18 19  1  0  0  0  0
 19 20  1  0  0  0  0
 19 21  1  0  0  0  0
 20 22  2  0  0  0  0
 21 23  2  0  0  0  0
 22 24  1  0  0  0  0
 22 49  1  0  0  0  0
 23 25  1  0  0  0  0
 23 50  1  0  0  0  0
 24 26  2  0  0  0  0
 24 51  1  0  0  0  0
 25 27  2  0  0  0  0
 25 52  1  0  0  0  0
 26 53  1  0  0  0  0
 27 54  1  0  0  0  0
M  END
> <PUBCHEM_COMPOUND_CID>
118984411

> <PUBCHEM_CONFORMER_RMSD>
0.8

> <PUBCHEM_CONFORMER_DIVERSEORDER>
1
220
127
186
137
232
33
218
234
160
163
180
239
246
221
49
238
46
227
24
15
228
178
217
164
196
207
161
199
200
162
192
189
128
138
93
225
214
231
236
82
56
8
71
155
204
53
142
77
6
219
215
229
121
153
48
72
212
194
165
197
81
183
92
223
243
42
51
179
190
59
184
235
175
170
67
98
132
154
244
159
169
172
133
171
222
173
85
216
147
209
39
195
83
146
110
211
50
148
149
87
57
38
125
242
168
74
55
19
198
106
111
188
28
88
240
140
54
233
124
120
25
32
203
123
63
230
131
158
86
193
90
104
36
12
174
102
114
94
205
117
95
118
139
37
70
30
201
84
181
96
9
41
80
69
58
22
27
100
245
44
115
151
156
91
61
35
202
135
21
116
185
112
75
40
210
157
166
47
152
226
29
101
143
99
60
213
68
26
13
109
126
65
130
107
108
62
5
97
177
79
224
113
103
145
20
76
78
208
187
45
3
136
241
23
31
167
7
182
119
73
18
52
14
176
64
89
43
11
66
17
4
191
237
150
141
10
134
2
105
34
129
206
16
122
144

> <PUBCHEM_MMFF94_PARTIAL_CHARGES>
27
1 -0.08
14 0.28
17 0.27
18 0.66
19 0.7
2 -0.08
20 -0.14
21 -0.14
22 -0.15
23 -0.15
24 -0.15
25 -0.15
26 -0.11
27 -0.11
3 -0.43
4 -0.57
48 0.4
49 0.15
5 -0.68
50 0.15
51 0.15
52 0.15
53 0.15
54 0.15
6 -0.81
7 0.27
9 0.27

> <PUBCHEM_EFFECTIVE_ROTOR_COUNT>
6.4

> <PUBCHEM_PHARMACOPHORE_FEATURES>
9
1 4 acceptor
1 5 acceptor
1 5 donor
1 6 cation
3 8 15 16 hydrophobe
5 1 20 22 24 26 rings
5 2 21 23 25 27 rings
6 6 7 8 9 10 12 rings
6 6 7 9 11 13 14 rings

> <PUBCHEM_HEAVY_ATOM_COUNT>
27

> <PUBCHEM_ATOM_DEF_STEREO_COUNT>
3

> <PUBCHEM_ATOM_UDEF_STEREO_COUNT>
0

> <PUBCHEM_BOND_DEF_STEREO_COUNT>
0

> <PUBCHEM_BOND_UDEF_STEREO_COUNT>
0

> <PUBCHEM_ISOTOPIC_ATOM_COUNT>
0

> <PUBCHEM_COMPONENT_COUNT>
1

> <PUBCHEM_CACTVS_TAUTO_COUNT>
1

> <PUBCHEM_CONFORMER_ID>
07178EDB00000001

> <PUBCHEM_MMFF94_ENERGY>
135.0659

> <PUBCHEM_FEATURE_SELFOVERLAP>
46.341

> <PUBCHEM_SHAPE_FINGERPRINT>
10366900 7 17967255316543413696
10369192 42 17199932673353930280
10670039 82 18259990353569814454
11045515 52 18041267881575091933
11089746 13 13045933621295239466
11101153 10 18262804085198303828
11545043 162 18272647901284814224
11796584 16 18055073156279216118
12107698 1 18335137618073476500
12166972 35 17167862010619582871
12403259 415 17917991672517959288
12403260 363 18334003995683339536
12422481 6 18059308616744729687
12788726 201 18114175337655192011
13224815 77 18113617876358848672
13583140 156 17489296448123870852
13617811 41 18335419097461478599
13782708 43 18060423525081955166
13911987 19 17822576118064084383
14251751 93 18343018844032371607
14294032 229 18190745220372483941
14347332 77 18411978040189224183
14528608 73 15213294257292043002
14556957 393 17967535679498258549
14910302 57 18060697303582363591
14955137 171 18194690491578462475
15788980 27 14836125416772514610
15961568 22 18190457362768435860
16752209 62 18187077339116179154
16994733 274 14129602356626535335
17349148 13 17603585231480913303
17844677 252 18342175578785497224
1813 80 18269550710437151567
20645477 70 16774085077096600366
21033648 29 17774424011241954632
21033650 10 18117296774030940866
21641784 216 17967246490776251117
21864079 5 17677062243659783588
221357 26 18411423929415420876
22393880 68 18198908015717898110
23402539 116 18335697261155228915
23557571 272 18342449340064306153
23559900 14 18129667546627073750
25147074 1 17678163915449946187
312423 11 18040715857380174448
32027 91 17557146095810950958
3268164 11 18410005525082114781
3388396 114 17751379471231598188
393628 179 17829066634594399860
44062 13 18269276768073448798
460360 51 17751632157010458242
46194498 28 18271249417247665252
469060 322 18333737914333823649
497634 4 17774734116312430489
508706 21 18337959995343934726
5104073 3 15985112877292099154
5252454 2 18120938300317845769
5281201 14 18202567276377376560
6913067 236 18271511096250739783
7399639 24 18129932490010573696

> <PUBCHEM_SHAPE_MULTIPOLES>
540.76
13.19
3.08
1.89
4.69
2.64
-0.08
-6.49
-2.41
-4.67
-1.09
1.38
-0.14
0.45

> <PUBCHEM_SHAPE_SELFOVERLAP>
1125.477

> <PUBCHEM_SHAPE_VOLUME>
311.1

> <PUBCHEM_COORDINATE_TYPE>
2
5
10

$$$$
