REMARK  Name = 118989091
REMARK  5 active torsions:
REMARK  status: ('A' for Active; 'I' for Inactive)
REMARK    1  A    between atoms: C_10  and  C_14
REMARK    2  A    between atoms: C_11  and  C_24
REMARK    3  A    between atoms: C_12  and  C_33
REMARK    4  A    between atoms: C_17  and  N_22
REMARK    5  A    between atoms: C_27  and  N_32
REMARK                            x       y       z     vdW  Elec       q    Type
REMARK                         _______ _______ _______ _____ _____    ______ ____
ROOT
ATOM      1  O   UNL     1      -0.160  -0.183  -0.121  0.00  0.00    -0.287 OA
ATOM      2  O   UNL     1       5.390   1.084   0.734  0.00  0.00    -0.270 OA
ATOM      3  N   UNL     1       4.167  -0.885   0.506  0.00  0.00    -0.272 N 
ATOM      4  C   UNL     1       3.904  -2.170  -0.156  0.00  0.00    +0.099 C 
ATOM      5  C   UNL     1       2.785  -2.048  -1.187  0.00  0.00    +0.051 C 
ATOM      6  C   UNL     1       3.150  -0.451   1.465  0.00  0.00    +0.124 C 
ATOM      7  C   UNL     1       1.427  -1.895  -0.555  0.00  0.00    +0.018 C 
ATOM      8  C   UNL     1       2.025   0.226   0.733  0.00  0.00    +0.036 C 
ATOM      9  C   UNL     1       0.996  -0.580   0.007  0.00  0.00    +0.189 C 
ATOM     10  C   UNL     1       0.516  -2.879  -0.545  0.00  0.00    -0.001 C 
ATOM     11  C   UNL     1       1.837   1.554   0.773  0.00  0.00    +0.001 C 
ATOM     12  C   UNL     1       5.234  -0.029   0.228  0.00  0.00    +0.249 C 
ENDROOT
BRANCH  10  14
ATOM     13  F   UNL     1      -4.709  -2.462   1.429  0.00  0.00    -0.202 F 
ATOM     14  C   UNL     1      -0.858  -2.770  -0.032  0.00  0.00    +0.002 C 
ATOM     15  C   UNL     1      -1.895  -2.393  -0.886  0.00  0.00    +0.026 C 
ATOM     16  C   UNL     1      -1.123  -3.041   1.310  0.00  0.00    +0.002 C 
ATOM     17  C   UNL     1      -3.197  -2.288  -0.397  0.00  0.00    +0.170 C 
ATOM     18  C   UNL     1      -2.425  -2.935   1.799  0.00  0.00    +0.031 C 
ATOM     19  C   UNL     1      -3.462  -2.559   0.945  0.00  0.00    +0.162 C 
BRANCH  17  22
ATOM     20  O   UNL     1      -3.989  -1.665  -2.471  0.00  0.00    -0.126 OA
ATOM     21  O   UNL     1      -5.415  -1.812  -0.809  0.00  0.00    -0.126 OA
ATOM     22  N   UNL     1      -4.251  -1.903  -1.268  0.00  0.00    +0.060 N 
ENDBRANCH  17  22
ENDBRANCH  10  14
BRANCH  11  24
ATOM     23  F   UNL     1      -2.448   4.308  -1.557  0.00  0.00    -0.202 F 
ATOM     24  C   UNL     1       0.710   2.278   0.166  0.00  0.00    +0.002 C 
ATOM     25  C   UNL     1      -0.447   2.518   0.908  0.00  0.00    +0.026 C 
ATOM     26  C   UNL     1       0.798   2.722  -1.153  0.00  0.00    +0.002 C 
ATOM     27  C   UNL     1      -1.516   3.203   0.330  0.00  0.00    +0.170 C 
ATOM     28  C   UNL     1      -0.271   3.407  -1.731  0.00  0.00    +0.031 C 
ATOM     29  C   UNL     1      -1.428   3.647  -0.989  0.00  0.00    +0.162 C 
BRANCH  27  32
ATOM     30  O   UNL     1      -2.749   3.036   2.271  0.00  0.00    -0.126 OA
ATOM     31  O   UNL     1      -3.645   4.061   0.549  0.00  0.00    -0.126 OA
ATOM     32  N   UNL     1      -2.693   3.445   1.086  0.00  0.00    +0.060 N 
ENDBRANCH  27  32
ENDBRANCH  11  24
BRANCH  12  33
ATOM     33  C   UNL     1       6.240  -0.481  -0.754  0.00  0.00    +0.058 C 
ATOM     34  C   UNL     1       7.500  -0.060  -0.626  0.00  0.00    +0.005 C 
ENDBRANCH  12  33
TORSDOF 5
