REMARK  Name = 118987259
REMARK  3 active torsions:
REMARK  status: ('A' for Active; 'I' for Inactive)
REMARK    1  A    between atoms: C_6  and  O_34
REMARK    2  A    between atoms: C_8  and  C_27
REMARK    3  A    between atoms: C_12  and  O_36
REMARK                            x       y       z     vdW  Elec       q    Type
REMARK                         _______ _______ _______ _____ _____    ______ ____
ROOT
ATOM      1  O   UNL     1      -0.302  -1.017   0.781  0.00  0.00    -0.334 OA
ATOM      2  O   UNL     1       2.295   1.452   0.941  0.00  0.00    -0.330 OA
ATOM      3  O   UNL     1      -4.443   2.474  -0.620  0.00  0.00    -0.295 OA
ATOM      4  C   UNL     1       0.351   0.195   0.475  0.00  0.00    +0.149 C 
ATOM      5  C   UNL     1       1.396  -0.125  -0.580  0.00  0.00    +0.059 C 
ATOM      6  C   UNL     1      -1.018  -1.603  -0.312  0.00  0.00    +0.184 C 
ATOM      7  C   UNL     1      -2.533  -1.362  -0.020  0.00  0.00    +0.056 C 
ATOM      8  C   UNL     1       2.432   0.993  -0.433  0.00  0.00    +0.134 C 
ATOM      9  C   UNL     1      -2.987   0.137  -0.028  0.00  0.00    +0.015 C 
ATOM     10  C   UNL     1      -0.676   1.303   0.138  0.00  0.00    +0.032 C 
ATOM     11  C   UNL     1       0.779  -0.480  -1.916  0.00  0.00    +0.010 C 
ATOM     12  C   UNL     1       1.273   0.671   1.605  0.00  0.00    +0.258 C 
ATOM     13  C   UNL     1      -2.050   1.074   0.789  0.00  0.00    +0.003 C 
ATOM     14  C   UNL     1      -0.593  -1.158  -1.749  0.00  0.00    +0.056 C 
ATOM     15  C   UNL     1      -4.496   0.262   0.432  0.00  0.00    +0.070 C 
ATOM     16  C   UNL     1      -3.433  -2.204  -0.947  0.00  0.00    +0.031 C 
ATOM     17  C   UNL     1       2.244   2.201  -1.351  0.00  0.00    +0.034 C 
ATOM     18  C   UNL     1      -5.385  -0.784  -0.246  0.00  0.00    -0.021 C 
ATOM     19  C   UNL     1      -4.888  -1.876  -0.850  0.00  0.00    -0.030 C 
ATOM     20  C   UNL     1      -4.624   0.151   1.969  0.00  0.00    +0.012 C 
ATOM     21  C   UNL     1      -5.095   1.615  -0.025  0.00  0.00    +0.158 C 
ATOM     22  C   UNL     1      -6.822  -0.549  -0.263  0.00  0.00    -0.008 C 
ATOM     23  C   UNL     1      -6.558   1.870   0.304  0.00  0.00    +0.091 C 
ATOM     24  C   UNL     1      -7.363   0.647   0.007  0.00  0.00    -0.019 C 
ENDROOT
BRANCH   8  27
ATOM     25  O   UNL     1       4.053  -0.590   0.365  0.00  0.00    -0.447 OA
ATOM     26  O   UNL     1       5.462  -2.150   1.180  0.00  0.00    -0.245 OA
ATOM     27  C   UNL     1       3.857   0.457  -0.602  0.00  0.00    +0.198 C 
ATOM     28  C   UNL     1       4.892   1.548  -0.388  0.00  0.00    +0.068 C 
ATOM     29  C   UNL     1       6.265   0.933  -0.400  0.00  0.00    -0.038 C 
ATOM     30  C   UNL     1       5.295  -1.107   0.554  0.00  0.00    +0.337 C 
ATOM     31  C   UNL     1       6.448  -0.343  -0.005  0.00  0.00    +0.046 C 
ATOM     32  C   UNL     1       7.355   1.861  -0.861  0.00  0.00    +0.026 C 
ATOM     33  C   UNL     1       7.755  -1.083  -0.020  0.00  0.00    +0.037 C 
ENDBRANCH   8  27
BRANCH   6  34
ATOM     34  O   UNL     1      -0.748  -3.015  -0.264  0.00  0.00    -0.364 OA
ATOM     35  H   UNL     1      -0.990  -3.361   0.609  0.00  0.00    +0.213 HD
ENDBRANCH   6  34
BRANCH  12  36
ATOM     36  O   UNL     1       1.862  -0.398   2.341  0.00  0.00    -0.358 OA
ATOM     37  H   UNL     1       2.431  -0.036   3.038  0.00  0.00    +0.213 HD
ENDBRANCH  12  36
TORSDOF 3
