REMARK  Name = 119031
REMARK  10 active torsions:
REMARK  status: ('A' for Active; 'I' for Inactive)
REMARK    1  A    between atoms: C_1  and  C_4
REMARK    2  A    between atoms: C_1  and  C_16
REMARK    3  A    between atoms: C_1  and  C_20
REMARK    4  A    between atoms: N_3  and  C_6
REMARK    5  A    between atoms: C_6  and  C_9
REMARK    6  A    between atoms: C_6  and  C_12
REMARK    7  A    between atoms: C_16  and  C_17
REMARK    8  A    between atoms: C_20  and  C_23
REMARK    9  A    between atoms: C_20  and  O_27
REMARK   10  A    between atoms: N_22  and  O_25
REMARK                            x       y       z     vdW  Elec       q    Type
REMARK                         _______ _______ _______ _____ _____    ______ ____
ROOT
ATOM      1  C   UNL     1      -1.431   0.226  -0.038  0.00  0.00    +0.112 C 
ENDROOT
BRANCH   1   4
ATOM      2  O   UNL     1       0.177   0.836   1.679  0.00  0.00    -0.275 OA
ATOM      3  N   UNL     1       0.908  -0.422  -0.126  0.00  0.00    -0.298 N 
ATOM      4  C   UNL     1      -0.043   0.269   0.610  0.00  0.00    +0.225 C 
ATOM      5  H   UNL     1       0.639  -0.846  -0.973  0.00  0.00    +0.150 HD
BRANCH   3   6
ATOM      6  C   UNL     1       2.278  -0.541   0.311  0.00  0.00    +0.148 C 
BRANCH   6   9
ATOM      7  O   UNL     1       2.719   1.251  -1.265  0.00  0.00    -0.273 OA
ATOM      8  N   UNL     1       3.894   1.222   0.731  0.00  0.00    -0.301 N 
ATOM      9  C   UNL     1       2.975   0.727  -0.182  0.00  0.00    +0.240 C 
ATOM     10  C   UNL     1       4.649   2.426   0.480  0.00  0.00    +0.111 C 
ATOM     11  H   UNL     1       4.037   0.737   1.575  0.00  0.00    +0.150 HD
ENDBRANCH   6   9
BRANCH   6  12
ATOM     12  C   UNL     1       2.950  -1.866  -0.160  0.00  0.00    +0.025 C 
ATOM     13  C   UNL     1       4.392  -2.008   0.365  0.00  0.00    +0.002 C 
ATOM     14  C   UNL     1       2.980  -1.941  -1.699  0.00  0.00    +0.002 C 
ATOM     15  C   UNL     1       2.127  -3.069   0.351  0.00  0.00    +0.002 C 
ENDBRANCH   6  12
ENDBRANCH   3   6
ENDBRANCH   1   4
BRANCH   1  16
ATOM     16  C   UNL     1      -2.250   1.492   0.296  0.00  0.00    +0.012 C 
BRANCH  16  17
ATOM     17  C   UNL     1      -1.936   2.718  -0.591  0.00  0.00    +0.001 C 
ATOM     18  C   UNL     1      -0.459   3.095  -0.440  0.00  0.00    +0.000 C 
ATOM     19  C   UNL     1      -2.810   3.926  -0.252  0.00  0.00    +0.000 C 
ENDBRANCH  16  17
ENDBRANCH   1  16
BRANCH   1  20
ATOM     20  C   UNL     1      -2.139  -1.072   0.418  0.00  0.00    +0.197 C 
BRANCH  20  23
ATOM     21  O   UNL     1      -3.729  -1.185  -1.401  0.00  0.00    -0.270 OA
ATOM     22  N   UNL     1      -4.516  -1.292   0.767  0.00  0.00    -0.195 N 
ATOM     23  C   UNL     1      -3.534  -1.192  -0.187  0.00  0.00    +0.272 C 
ATOM     24  H   UNL     1      -4.311  -1.293   1.730  0.00  0.00    +0.182 HD
BRANCH  22  25
ATOM     25  O   UNL     1      -5.829  -1.393   0.288  0.00  0.00    -0.295 OA
ATOM     26  H   UNL     1      -6.443  -1.458   1.036  0.00  0.00    +0.241 HD
ENDBRANCH  22  25
ENDBRANCH  20  23
BRANCH  20  27
ATOM     27  O   UNL     1      -1.372  -2.207   0.045  0.00  0.00    -0.375 OA
ATOM     28  H   UNL     1      -0.483  -2.136   0.427  0.00  0.00    +0.211 HD
ENDBRANCH  20  27
ENDBRANCH   1  20
TORSDOF 10
