REMARK  Name = 119057400
REMARK  10 active torsions:
REMARK  status: ('A' for Active; 'I' for Inactive)
REMARK    1  A    between atoms: C_1  and  C_5
REMARK    2  A    between atoms: C_3  and  C_20
REMARK    3  A    between atoms: C_5  and  C_10
REMARK    4  A    between atoms: C_11  and  O_14
REMARK    5  A    between atoms: C_11  and  C_16
REMARK    6  A    between atoms: C_16  and  C_17
REMARK    7  A    between atoms: C_17  and  O_18
REMARK    8  A    between atoms: C_21  and  C_22
REMARK    9  A    between atoms: C_23  and  C_25
REMARK   10  A    between atoms: C_26  and  C_30
REMARK                            x       y       z     vdW  Elec       q    Type
REMARK                         _______ _______ _______ _____ _____    ______ ____
ROOT
ATOM      1  C   UNL     1      -2.151   0.998  -0.307  0.00  0.00    +0.016 C 
ATOM      2  C   UNL     1      -2.321   0.271  -1.608  0.00  0.00    +0.034 C 
ATOM      3  C   UNL     1      -0.998   1.166   0.368  0.00  0.00    -0.001 C 
ENDROOT
BRANCH   1   5
ATOM      4  O   UNL     1      -3.295   2.711   0.927  0.00  0.00    -0.289 OA
ATOM      5  C   UNL     1      -3.352   1.662   0.296  0.00  0.00    +0.204 C 
BRANCH   5  10
ATOM      6  O   UNL     1      -5.333   0.642   1.269  0.00  0.00    -0.336 OA
ATOM      7  O   UNL     1      -5.634   2.408  -1.611  0.00  0.00    -0.272 OA
ATOM      8  N   UNL     1      -6.215   0.141  -1.384  0.00  0.00    -0.282 N 
ATOM      9  C   UNL     1      -4.864  -0.418   0.431  0.00  0.00    +0.198 C 
ATOM     10  C   UNL     1      -4.675   1.013   0.064  0.00  0.00    +0.244 C 
ATOM     11  C   UNL     1      -5.853  -0.991  -0.546  0.00  0.00    +0.179 C 
ATOM     12  C   UNL     1      -5.544   1.315  -1.077  0.00  0.00    +0.258 C 
ATOM     13  H   UNL     1      -6.879   0.080  -2.108  0.00  0.00    +0.152 HD
BRANCH  11  14
ATOM     14  O   UNL     1      -5.205  -1.962  -1.357  0.00  0.00    -0.368 OA
ATOM     15  H   UNL     1      -4.435  -1.560  -1.789  0.00  0.00    +0.212 HD
ENDBRANCH  11  14
BRANCH  11  16
ATOM     16  C   UNL     1      -7.061  -1.613   0.135  0.00  0.00    +0.081 C 
BRANCH  16  17
ATOM     17  C   UNL     1      -6.660  -2.718   1.099  0.00  0.00    +0.141 C 
BRANCH  17  18
ATOM     18  O   UNL     1      -7.834  -3.262   1.686  0.00  0.00    -0.382 OA
ATOM     19  H   UNL     1      -7.589  -3.969   2.304  0.00  0.00    +0.210 HD
ENDBRANCH  17  18
ENDBRANCH  16  17
ENDBRANCH  11  16
ENDBRANCH   5  10
ENDBRANCH   1   5
BRANCH   3  20
ATOM     20  C   UNL     1       0.299   0.629   0.000  0.00  0.00    -0.001 C 
ATOM     21  C   UNL     1       1.407   0.844   0.730  0.00  0.00    -0.004 C 
BRANCH  21  22
ATOM     22  C   UNL     1       2.753   0.344   0.443  0.00  0.00    -0.022 C 
ATOM     23  C   UNL     1       3.754   0.661   1.292  0.00  0.00    -0.009 C 
ATOM     24  C   UNL     1       2.939  -0.517  -0.781  0.00  0.00    +0.031 C 
BRANCH  23  25
ATOM     25  C   UNL     1       5.154   0.276   1.184  0.00  0.00    -0.022 C 
ATOM     26  C   UNL     1       5.856   0.242   0.035  0.00  0.00    +0.002 C 
ATOM     27  C   UNL     1       5.800  -0.057   2.501  0.00  0.00    +0.031 C 
BRANCH  26  30
ATOM     28  O   UNL     1       9.116  -1.086  -1.059  0.00  0.00    -0.440 OA
ATOM     29  O   UNL     1       7.124  -1.391  -2.163  0.00  0.00    -0.245 OA
ATOM     30  C   UNL     1       7.236  -0.129  -0.126  0.00  0.00    +0.075 C 
ATOM     31  C   UNL     1       8.269   0.165   0.659  0.00  0.00    +0.027 C 
ATOM     32  C   UNL     1       9.520  -0.410   0.135  0.00  0.00    +0.235 C 
ATOM     33  C   UNL     1       7.770  -0.933  -1.236  0.00  0.00    +0.341 C 
ENDBRANCH  26  30
ENDBRANCH  23  25
ENDBRANCH  21  22
ENDBRANCH   3  20
TORSDOF 10
