REMARK  Name = 119077
REMARK  11 active torsions:
REMARK  status: ('A' for Active; 'I' for Inactive)
REMARK    1  A    between atoms: C_2  and  O_7
REMARK    2  A    between atoms: C_3  and  O_9
REMARK    3  A    between atoms: C_4  and  C_15
REMARK    4  A    between atoms: C_5  and  O_11
REMARK    5  A    between atoms: C_6  and  O_13
REMARK    6  A    between atoms: C_15  and  O_16
REMARK    7  A    between atoms: O_16  and  C_18
REMARK    8  A    between atoms: C_18  and  C_19
REMARK    9  A    between atoms: C_19  and  C_21
REMARK   10  A    between atoms: C_21  and  C_22
REMARK   11  A    between atoms: C_22  and  O_23
REMARK                            x       y       z     vdW  Elec       q    Type
REMARK                         _______ _______ _______ _____ _____    ______ ____
ROOT
ATOM      1  O   UNL     1      -1.686   1.331   0.241  0.00  0.00    -0.325 OA
ATOM      2  C   UNL     1      -1.527  -1.065   0.579  0.00  0.00    +0.171 C 
ATOM      3  C   UNL     1      -2.957  -1.239   0.068  0.00  0.00    +0.172 C 
ATOM      4  C   UNL     1      -1.335   0.324   1.192  0.00  0.00    +0.190 C 
ATOM      5  C   UNL     1      -3.381  -0.059  -0.806  0.00  0.00    +0.196 C 
ATOM      6  C   UNL     1      -3.061   1.275  -0.131  0.00  0.00    +0.262 C 
ENDROOT
BRANCH   2   7
ATOM      7  O   UNL     1      -1.254  -2.057   1.564  0.00  0.00    -0.379 OA
ATOM      8  H   UNL     1      -1.374  -2.938   1.178  0.00  0.00    +0.211 HD
ENDBRANCH   2   7
BRANCH   3   9
ATOM      9  O   UNL     1      -3.008  -2.442  -0.701  0.00  0.00    -0.379 OA
ATOM     10  H   UNL     1      -2.739  -3.192  -0.147  0.00  0.00    +0.211 HD
ENDBRANCH   3   9
BRANCH   5  11
ATOM     11  O   UNL     1      -4.789  -0.119  -1.033  0.00  0.00    -0.378 OA
ATOM     12  H   UNL     1      -5.012  -0.960  -1.461  0.00  0.00    +0.211 HD
ENDBRANCH   5  11
BRANCH   6  13
ATOM     13  O   UNL     1      -3.351   2.319  -1.061  0.00  0.00    -0.358 OA
ATOM     14  H   UNL     1      -3.156   3.178  -0.655  0.00  0.00    +0.213 HD
ENDBRANCH   6  13
BRANCH   4  15
ATOM     15  C   UNL     1       0.114   0.565   1.603  0.00  0.00    +0.241 C 
BRANCH  15  16
ATOM     16  O   UNL     1       0.934   0.447   0.455  0.00  0.00    -0.443 OA
BRANCH  16  18
ATOM     17  O   UNL     1       2.804   0.893   1.718  0.00  0.00    -0.245 OA
ATOM     18  C   UNL     1       2.274   0.635   0.645  0.00  0.00    +0.337 C 
BRANCH  18  19
ATOM     19  C   UNL     1       3.043   0.520  -0.629  0.00  0.00    +0.056 C 
ATOM     20  C   UNL     1       2.429   0.235  -1.788  0.00  0.00    +0.002 C 
BRANCH  19  21
ATOM     21  C   UNL     1       4.543   0.677  -0.543  0.00  0.00    +0.065 C 
BRANCH  21  22
ATOM     22  C   UNL     1       5.252  -0.628  -0.194  0.00  0.00    +0.142 C 
BRANCH  22  23
ATOM     23  O   UNL     1       4.956  -1.612  -1.178  0.00  0.00    -0.382 OA
ATOM     24  H   UNL     1       5.408  -2.440  -0.953  0.00  0.00    +0.210 HD
ENDBRANCH  22  23
ENDBRANCH  21  22
ENDBRANCH  19  21
ENDBRANCH  18  19
ENDBRANCH  16  18
ENDBRANCH  15  16
ENDBRANCH   4  15
TORSDOF 11
