11902903
  -OEChem-03292013303D

 34 34  0     1  0  0  0  0  0999 V2000
   -0.9297    1.6033    0.8864 O   0  0  0  0  0  0  0  0  0  0  0  0
    0.7457   -0.6620   -1.3291 O   0  0  0  0  0  0  0  0  0  0  0  0
    2.7788    1.6805    0.5093 O   0  0  0  0  0  0  0  0  0  0  0  0
    4.7391    1.3363   -0.5800 O   0  0  0  0  0  0  0  0  0  0  0  0
   -1.4466   -0.5442    0.1954 N   0  0  0  0  0  0  0  0  0  0  0  0
    2.0890   -0.8387    0.5638 N   0  0  0  0  0  0  0  0  0  0  0  0
   -3.4672    2.3715    0.7235 N   0  0  0  0  0  0  0  0  0  0  0  0
   -0.2713   -1.1899    0.7651 C   0  0  1  0  0  0  0  0  0  0  0  0
   -0.5982   -2.6786    0.7427 C   0  0  0  0  0  0  0  0  0  0  0  0
   -1.5430   -2.8166   -0.4486 C   0  0  0  0  0  0  0  0  0  0  0  0
   -2.3443   -1.5242   -0.4107 C   0  0  0  0  0  0  0  0  0  0  0  0
   -1.7131    0.8049    0.3697 C   0  0  0  0  0  0  0  0  0  0  0  0
    0.8888   -0.8613   -0.1257 C   0  0  0  0  0  0  0  0  0  0  0  0
   -3.0557    1.2722   -0.1329 C   0  0  2  0  0  0  0  0  0  0  0  0
   -2.9415    1.7192   -1.5766 C   0  0  0  0  0  0  0  0  0  0  0  0
    3.3596   -0.5691   -0.0696 C   0  0  0  0  0  0  0  0  0  0  0  0
    3.7096    0.8966   -0.0826 C   0  0  0  0  0  0  0  0  0  0  0  0
   -0.0985   -0.8151    1.7799 H   0  0  0  0  0  0  0  0  0  0  0  0
   -1.1314   -2.9551    1.6604 H   0  0  0  0  0  0  0  0  0  0  0  0
    0.2813   -3.3229    0.6495 H   0  0  0  0  0  0  0  0  0  0  0  0
   -0.9657   -2.8759   -1.3789 H   0  0  0  0  0  0  0  0  0  0  0  0
   -2.1768   -3.7056   -0.3877 H   0  0  0  0  0  0  0  0  0  0  0  0
   -2.6718   -1.2082   -1.4034 H   0  0  0  0  0  0  0  0  0  0  0  0
   -3.2179   -1.6338    0.2412 H   0  0  0  0  0  0  0  0  0  0  0  0
   -3.8133    0.4898   -0.0471 H   0  0  0  0  0  0  0  0  0  0  0  0
    2.0923   -1.0128    1.5645 H   0  0  0  0  0  0  0  0  0  0  0  0
   -2.2235    2.5408   -1.6868 H   0  0  0  0  0  0  0  0  0  0  0  0
   -2.5972    0.9085   -2.2262 H   0  0  0  0  0  0  0  0  0  0  0  0
   -3.9081    2.0655   -1.9588 H   0  0  0  0  0  0  0  0  0  0  0  0
   -3.6259    2.0316    1.6714 H   0  0  0  0  0  0  0  0  0  0  0  0
   -4.3599    2.7444    0.4027 H   0  0  0  0  0  0  0  0  0  0  0  0
    3.3290   -0.9290   -1.1023 H   0  0  0  0  0  0  0  0  0  0  0  0
    4.1250   -1.1070    0.4965 H   0  0  0  0  0  0  0  0  0  0  0  0
    3.0296    2.6286    0.4881 H   0  0  0  0  0  0  0  0  0  0  0  0
  1 12  2  0  0  0  0
  2 13  2  0  0  0  0
  3 17  1  0  0  0  0
  3 34  1  0  0  0  0
  4 17  2  0  0  0  0
  5  8  1  0  0  0  0
  5 11  1  0  0  0  0
  5 12  1  0  0  0  0
  6 13  1  0  0  0  0
  6 16  1  0  0  0  0
  6 26  1  0  0  0  0
  7 14  1  0  0  0  0
  7 30  1  0  0  0  0
  7 31  1  0  0  0  0
  8  9  1  0  0  0  0
  8 13  1  0  0  0  0
  8 18  1  0  0  0  0
  9 10  1  0  0  0  0
  9 19  1  0  0  0  0
  9 20  1  0  0  0  0
 10 11  1  0  0  0  0
 10 21  1  0  0  0  0
 10 22  1  0  0  0  0
 11 23  1  0  0  0  0
 11 24  1  0  0  0  0
 12 14  1  0  0  0  0
 14 15  1  0  0  0  0
 14 25  1  0  0  0  0
 15 27  1  0  0  0  0
 15 28  1  0  0  0  0
 15 29  1  0  0  0  0
 16 17  1  0  0  0  0
 16 32  1  0  0  0  0
 16 33  1  0  0  0  0
M  END
> <PUBCHEM_COMPOUND_CID>
11902903

> <PUBCHEM_CONFORMER_RMSD>
0.8

> <PUBCHEM_CONFORMER_DIVERSEORDER>
1
41
19
25
55
31
35
21
56
57
52
58
38
12
10
45
46
33
34
22
47
40
2
51
42
44
37
13
11
36
26
15
20
28
49
29
23
48
17
27
16
7
14
6
32
50
5
43
4
8
30
3
54
53
18
39
9
24

> <PUBCHEM_MMFF94_PARTIAL_CHARGES>
18
1 -0.57
11 0.3
12 0.57
13 0.57
14 0.33
16 0.36
17 0.66
2 -0.57
26 0.37
3 -0.65
30 0.36
31 0.36
34 0.5
4 -0.57
5 -0.66
6 -0.73
7 -0.99
8 0.36

> <PUBCHEM_EFFECTIVE_ROTOR_COUNT>
7

> <PUBCHEM_PHARMACOPHORE_FEATURES>
9
1 1 acceptor
1 2 acceptor
1 3 acceptor
1 4 acceptor
1 6 donor
1 7 cation
1 7 donor
3 3 4 17 anion
5 5 8 9 10 11 rings

> <PUBCHEM_HEAVY_ATOM_COUNT>
17

> <PUBCHEM_ATOM_DEF_STEREO_COUNT>
2

> <PUBCHEM_ATOM_UDEF_STEREO_COUNT>
0

> <PUBCHEM_BOND_DEF_STEREO_COUNT>
0

> <PUBCHEM_BOND_UDEF_STEREO_COUNT>
0

> <PUBCHEM_ISOTOPIC_ATOM_COUNT>
0

> <PUBCHEM_COMPONENT_COUNT>
1

> <PUBCHEM_CACTVS_TAUTO_COUNT>
2

> <PUBCHEM_CONFORMER_ID>
00B59FB700000001

> <PUBCHEM_MMFF94_ENERGY>
29.2768

> <PUBCHEM_FEATURE_SELFOVERLAP>
45.73

> <PUBCHEM_SHAPE_FINGERPRINT>
11725454 13 16589968448810450085
12138202 97 18343580733107934151
12173636 292 18412538812562220887
122479 349 18335990787187472234
12491281 212 18333732437817887306
12500047 106 18408600379460713372
13583140 156 17313382271328938601
14123255 52 18263924341412097989
14787075 74 18273496763243522545
15342168 16 18266747870388191845
15775835 57 18260832557590527328
16945 1 17689147908068831907
17134986 127 18192707839277779111
1741750 31 18411698772793795562
18186145 218 18267584606809275804
204376 136 18335985259897033809
20510252 161 18338238270649202531
20645477 56 18410863178485203042
21499 59 18265891363624820405
21501502 16 18409161126164769466
21524375 3 18262518078914602867
22182937 141 18412834594133237801
23382010 3 18198883890817569693
23419403 2 17057508521128472243
23557571 272 18129113366933216846
23558518 356 18260835937962450242
23559900 14 18272086042707331834
25 1 18269554953205547800
2748010 2 18264787479572851807
474 4 18196937656404958713
6333272 397 18338237055347160721
633830 44 18055919796816055669
7364860 26 17763465011207243851
81228 2 18191038987001763579

> <PUBCHEM_SHAPE_MULTIPOLES>
311.43
6.63
2.98
1.04
6.57
0.96
0.22
-5.11
0.94
-2.1
-0.14
-0.47
-0.21
-0.18

> <PUBCHEM_SHAPE_SELFOVERLAP>
628.518

> <PUBCHEM_SHAPE_VOLUME>
182

> <PUBCHEM_COORDINATE_TYPE>
2
5
10

$$$$
