119077
  -OEChem-03292013323D

 37 37  0     1  0  0  0  0  0999 V2000
   -1.6861    1.3305    0.2409 O   0  0  0  0  0  0  0  0  0  0  0  0
   -1.2537   -2.0571    1.5642 O   0  0  0  0  0  0  0  0  0  0  0  0
   -3.0079   -2.4422   -0.7008 O   0  0  0  0  0  0  0  0  0  0  0  0
   -4.7888   -0.1187   -1.0330 O   0  0  0  0  0  0  0  0  0  0  0  0
   -3.3513    2.3187   -1.0609 O   0  0  0  0  0  0  0  0  0  0  0  0
    0.9337    0.4469    0.4546 O   0  0  0  0  0  0  0  0  0  0  0  0
    2.8038    0.8927    1.7177 O   0  0  0  0  0  0  0  0  0  0  0  0
    4.9560   -1.6117   -1.1776 O   0  0  0  0  0  0  0  0  0  0  0  0
   -1.5267   -1.0645    0.5786 C   0  0  1  0  0  0  0  0  0  0  0  0
   -2.9571   -1.2393    0.0679 C   0  0  1  0  0  0  0  0  0  0  0  0
   -1.3351    0.3243    1.1924 C   0  0  1  0  0  0  0  0  0  0  0  0
   -3.3809   -0.0586   -0.8058 C   0  0  2  0  0  0  0  0  0  0  0  0
   -3.0613    1.2754   -0.1311 C   0  0  1  0  0  0  0  0  0  0  0  0
    0.1141    0.5652    1.6031 C   0  0  0  0  0  0  0  0  0  0  0  0
    2.2743    0.6347    0.6446 C   0  0  0  0  0  0  0  0  0  0  0  0
    3.0429    0.5198   -0.6292 C   0  0  0  0  0  0  0  0  0  0  0  0
    4.5434    0.6773   -0.5433 C   0  0  0  0  0  0  0  0  0  0  0  0
    5.2522   -0.6285   -0.1943 C   0  0  0  0  0  0  0  0  0  0  0  0
    2.4286    0.2352   -1.7882 C   0  0  0  0  0  0  0  0  0  0  0  0
   -0.8304   -1.2254   -0.2539 H   0  0  0  0  0  0  0  0  0  0  0  0
   -3.6496   -1.3760    0.9078 H   0  0  0  0  0  0  0  0  0  0  0  0
   -1.9595    0.4382    2.0886 H   0  0  0  0  0  0  0  0  0  0  0  0
   -2.8932   -0.1139   -1.7871 H   0  0  0  0  0  0  0  0  0  0  0  0
   -3.6980    1.4332    0.7488 H   0  0  0  0  0  0  0  0  0  0  0  0
    0.4277   -0.1559    2.3664 H   0  0  0  0  0  0  0  0  0  0  0  0
    0.2153    1.5810    2.0038 H   0  0  0  0  0  0  0  0  0  0  0  0
   -1.4107   -2.9250    1.1547 H   0  0  0  0  0  0  0  0  0  0  0  0
   -3.9351   -2.5946   -0.9490 H   0  0  0  0  0  0  0  0  0  0  0  0
   -4.9715   -0.9264   -1.5417 H   0  0  0  0  0  0  0  0  0  0  0  0
   -3.5223    3.1232   -0.5423 H   0  0  0  0  0  0  0  0  0  0  0  0
    4.9188    1.0364   -1.5108 H   0  0  0  0  0  0  0  0  0  0  0  0
    4.8050    1.4517    0.1871 H   0  0  0  0  0  0  0  0  0  0  0  0
    6.3367   -0.4846   -0.1601 H   0  0  0  0  0  0  0  0  0  0  0  0
    4.9273   -1.0100    0.7789 H   0  0  0  0  0  0  0  0  0  0  0  0
    3.0007    0.1327   -2.7055 H   0  0  0  0  0  0  0  0  0  0  0  0
    1.3571    0.0961   -1.8764 H   0  0  0  0  0  0  0  0  0  0  0  0
    5.2793   -1.2782   -2.0319 H   0  0  0  0  0  0  0  0  0  0  0  0
  1 11  1  0  0  0  0
  1 13  1  0  0  0  0
  2  9  1  0  0  0  0
  2 27  1  0  0  0  0
  3 10  1  0  0  0  0
  3 28  1  0  0  0  0
  4 12  1  0  0  0  0
  4 29  1  0  0  0  0
  5 13  1  0  0  0  0
  5 30  1  0  0  0  0
  6 14  1  0  0  0  0
  6 15  1  0  0  0  0
  7 15  2  0  0  0  0
  8 18  1  0  0  0  0
  8 37  1  0  0  0  0
  9 10  1  0  0  0  0
  9 11  1  0  0  0  0
  9 20  1  0  0  0  0
 10 12  1  0  0  0  0
 10 21  1  0  0  0  0
 11 14  1  0  0  0  0
 11 22  1  0  0  0  0
 12 13  1  0  0  0  0
 12 23  1  0  0  0  0
 13 24  1  0  0  0  0
 14 25  1  0  0  0  0
 14 26  1  0  0  0  0
 15 16  1  0  0  0  0
 16 17  1  0  0  0  0
 16 19  2  0  0  0  0
 17 18  1  0  0  0  0
 17 31  1  0  0  0  0
 17 32  1  0  0  0  0
 18 33  1  0  0  0  0
 18 34  1  0  0  0  0
 19 35  1  0  0  0  0
 19 36  1  0  0  0  0
M  END
> <PUBCHEM_COMPOUND_CID>
119077

> <PUBCHEM_CONFORMER_RMSD>
1

> <PUBCHEM_CONFORMER_DIVERSEORDER>
2
198
156
104
12
65
13
99
206
24
31
97
93
123
193
72
181
149
5
58
191
194
100
68
70
162
107
89
175
133
135
60
1
88
137
192
15
179
19
143
141
56
67
49
39
203
115
167
120
188
125
169
91
98
196
6
113
108
185
130
95
109
4
82
81
114
96
10
150
27
38
126
73
53
140
87
195
146
154
45
94
199
184
170
63
164
190
64
138
44
47
172
78
129
37
134
158
122
25
80
163
142
79
131
151
127
66
23
9
119
207
40
74
111
84
132
160
3
200
178
182
8
90
77
22
35
118
201
205
187
102
174
139
34
176
69
116
197
145
171
14
7
148
204
54
183
48
152
26
112
144
36
33
16
157
202
46
147
208
41
28
105
128
106
189
57
101
86
21
55
161
165
92
110
11
186
83
168
42
51
52
173
177
71
153
17
209
75
32
61
30
20
85
121
155
124
43
18
29
62
136
117
180
59
50
76
159
166
103

> <PUBCHEM_MMFF94_PARTIAL_CHARGES>
26
1 -0.56
10 0.28
11 0.28
12 0.28
13 0.56
14 0.28
15 0.71
16 -0.12
17 0.14
18 0.28
19 -0.3
2 -0.68
27 0.4
28 0.4
29 0.4
3 -0.68
30 0.4
35 0.15
36 0.15
37 0.4
4 -0.68
5 -0.68
6 -0.43
7 -0.57
8 -0.68
9 0.28

> <PUBCHEM_EFFECTIVE_ROTOR_COUNT>
7.2

> <PUBCHEM_PHARMACOPHORE_FEATURES>
14
1 1 acceptor
1 19 hydrophobe
1 2 acceptor
1 2 donor
1 3 acceptor
1 3 donor
1 4 acceptor
1 4 donor
1 5 acceptor
1 5 donor
1 7 acceptor
1 8 acceptor
1 8 donor
6 1 9 10 11 12 13 rings

> <PUBCHEM_HEAVY_ATOM_COUNT>
19

> <PUBCHEM_ATOM_DEF_STEREO_COUNT>
5

> <PUBCHEM_ATOM_UDEF_STEREO_COUNT>
0

> <PUBCHEM_BOND_DEF_STEREO_COUNT>
0

> <PUBCHEM_BOND_UDEF_STEREO_COUNT>
0

> <PUBCHEM_ISOTOPIC_ATOM_COUNT>
0

> <PUBCHEM_COMPONENT_COUNT>
1

> <PUBCHEM_CACTVS_TAUTO_COUNT>
1

> <PUBCHEM_CONFORMER_ID>
0001D12500000002

> <PUBCHEM_MMFF94_ENERGY>
39.7338

> <PUBCHEM_FEATURE_SELFOVERLAP>
71.109

> <PUBCHEM_SHAPE_FINGERPRINT>
11543360 7 18336552724045926956
11796584 16 18342176631617246646
12251169 10 9799693714059597043
12363563 72 17489316282493963624
14123260 362 16298389062786854172
14251764 30 17973738166478366427
14341114 328 11743833686262122778
14787075 74 13398615166054945122
15163728 17 16952234427602011799
15342168 16 13767930117427549274
15375462 189 13758068632145516049
17349148 13 15841551869024994798
17870717 6 18341339928468295662
18186145 218 18272080595992351809
19433438 38 18131633365563118940
19433438 48 14405188352430506332
19862831 5 18114184146427322696
200 152 16056879126111599152
20645476 183 17385720331121318635
20645477 70 17346880065969726140
20671657 53 17561084713342357144
20871999 31 18409450301553657105
21637258 2 15913033362146397263
21650355 55 11024104361203734619
231179 274 14129054833673257808
23366157 5 17244683586946610147
23402539 116 18336263453413605820
23403322 49 17988927777264141070
23526113 38 17845920944285508793
23557571 272 17752484536235502608
23559900 14 18271238413367399144
23598291 2 17168688757385125338
27216 239 11241967105273761419
474 4 16081083779428036537
4921388 177 18041570229375631187
5161694 15 18409173190595606340
559249 180 18263360305185567154
59027123 10 18113625607479368932
633830 44 16298401171069691132
90316 7 12103301424824684435
9709674 26 18196084662761486890

> <PUBCHEM_SHAPE_MULTIPOLES>
344.06
10.14
1.85
1.55
7.64
0.54
-0.2
1.34
4.31
-1.63
0.18
0.31
-0.05
0.81

> <PUBCHEM_SHAPE_SELFOVERLAP>
689.985

> <PUBCHEM_SHAPE_VOLUME>
198.7

> <PUBCHEM_COORDINATE_TYPE>
2
5
10

$$$$
