119057400
  -OEChem-03292013293D

 55 57  0     1  0  0  0  0  0999 V2000
   -5.3332    0.6422    1.2693 O   0  0  0  0  0  0  0  0  0  0  0  0
   -5.2050   -1.9617   -1.3569 O   0  0  0  0  0  0  0  0  0  0  0  0
   -5.6340    2.4079   -1.6111 O   0  0  0  0  0  0  0  0  0  0  0  0
   -3.2954    2.7106    0.9272 O   0  0  0  0  0  0  0  0  0  0  0  0
   -7.8338   -3.2620    1.6862 O   0  0  0  0  0  0  0  0  0  0  0  0
    9.1164   -1.0862   -1.0592 O   0  0  0  0  0  0  0  0  0  0  0  0
    7.1241   -1.3907   -2.1635 O   0  0  0  0  0  0  0  0  0  0  0  0
   -6.2150    0.1414   -1.3843 N   0  0  0  0  0  0  0  0  0  0  0  0
   -4.8638   -0.4185    0.4308 C   0  0  2  0  0  0  0  0  0  0  0  0
   -4.6750    1.0128    0.0638 C   0  0  1  0  0  0  0  0  0  0  0  0
   -5.8531   -0.9913   -0.5456 C   0  0  2  0  0  0  0  0  0  0  0  0
   -5.5440    1.3147   -1.0767 C   0  0  0  0  0  0  0  0  0  0  0  0
   -7.0613   -1.6125    0.1350 C   0  0  0  0  0  0  0  0  0  0  0  0
   -3.3522    1.6623    0.2962 C   0  0  0  0  0  0  0  0  0  0  0  0
   -6.6600   -2.7177    1.0990 C   0  0  0  0  0  0  0  0  0  0  0  0
   -2.1514    0.9978   -0.3066 C   0  0  0  0  0  0  0  0  0  0  0  0
   -2.3212    0.2713   -1.6080 C   0  0  0  0  0  0  0  0  0  0  0  0
   -0.9979    1.1662    0.3682 C   0  0  0  0  0  0  0  0  0  0  0  0
    0.2987    0.6289    0.0002 C   0  0  0  0  0  0  0  0  0  0  0  0
    1.4065    0.8437    0.7304 C   0  0  0  0  0  0  0  0  0  0  0  0
    2.7531    0.3444    0.4429 C   0  0  0  0  0  0  0  0  0  0  0  0
    3.7544    0.6606    1.2917 C   0  0  0  0  0  0  0  0  0  0  0  0
    2.9389   -0.5171   -0.7812 C   0  0  0  0  0  0  0  0  0  0  0  0
    5.1539    0.2760    1.1842 C   0  0  0  0  0  0  0  0  0  0  0  0
    5.8556    0.2421    0.0355 C   0  0  0  0  0  0  0  0  0  0  0  0
    7.2357   -0.1292   -0.1264 C   0  0  0  0  0  0  0  0  0  0  0  0
    5.7999   -0.0574    2.5012 C   0  0  0  0  0  0  0  0  0  0  0  0
    8.2688    0.1649    0.6586 C   0  0  0  0  0  0  0  0  0  0  0  0
    9.5204   -0.4104    0.1349 C   0  0  0  0  0  0  0  0  0  0  0  0
    7.7699   -0.9334   -1.2359 C   0  0  0  0  0  0  0  0  0  0  0  0
   -4.0611   -1.0505    0.7714 H   0  0  0  0  0  0  0  0  0  0  0  0
   -6.8661    0.0673   -2.1594 H   0  0  0  0  0  0  0  0  0  0  0  0
   -7.7461   -2.0296   -0.6153 H   0  0  0  0  0  0  0  0  0  0  0  0
   -7.6420   -0.8547    0.6772 H   0  0  0  0  0  0  0  0  0  0  0  0
   -4.7064   -1.4766   -2.0355 H   0  0  0  0  0  0  0  0  0  0  0  0
   -6.1311   -3.5246    0.5821 H   0  0  0  0  0  0  0  0  0  0  0  0
   -6.0273   -2.3389    1.9072 H   0  0  0  0  0  0  0  0  0  0  0  0
   -2.6146   -0.7668   -1.4320 H   0  0  0  0  0  0  0  0  0  0  0  0
   -1.4018    0.2652   -2.2008 H   0  0  0  0  0  0  0  0  0  0  0  0
   -3.0745    0.7530   -2.2384 H   0  0  0  0  0  0  0  0  0  0  0  0
   -1.0062    1.7348    1.2976 H   0  0  0  0  0  0  0  0  0  0  0  0
   -7.5492   -3.9655    2.2942 H   0  0  0  0  0  0  0  0  0  0  0  0
    0.3445    0.0359   -0.9058 H   0  0  0  0  0  0  0  0  0  0  0  0
    1.3153    1.4485    1.6328 H   0  0  0  0  0  0  0  0  0  0  0  0
    3.5346    1.2695    2.1690 H   0  0  0  0  0  0  0  0  0  0  0  0
    3.8434   -1.1288   -0.7575 H   0  0  0  0  0  0  0  0  0  0  0  0
    2.1304   -1.2516   -0.8705 H   0  0  0  0  0  0  0  0  0  0  0  0
    2.9501    0.0974   -1.6873 H   0  0  0  0  0  0  0  0  0  0  0  0
    5.3792    0.5299   -0.8992 H   0  0  0  0  0  0  0  0  0  0  0  0
    6.2528    0.8341    2.9475 H   0  0  0  0  0  0  0  0  0  0  0  0
    5.0566   -0.4369    3.2139 H   0  0  0  0  0  0  0  0  0  0  0  0
    6.5476   -0.8523    2.4243 H   0  0  0  0  0  0  0  0  0  0  0  0
    8.2372    0.7680    1.5541 H   0  0  0  0  0  0  0  0  0  0  0  0
   10.2538    0.3605   -0.1176 H   0  0  0  0  0  0  0  0  0  0  0  0
    9.9624   -1.1327    0.8268 H   0  0  0  0  0  0  0  0  0  0  0  0
  1  9  1  0  0  0  0
  1 10  1  0  0  0  0
  2 11  1  0  0  0  0
  2 35  1  0  0  0  0
  3 12  2  0  0  0  0
  4 14  2  0  0  0  0
  5 15  1  0  0  0  0
  5 42  1  0  0  0  0
  6 29  1  0  0  0  0
  6 30  1  0  0  0  0
  7 30  2  0  0  0  0
  8 11  1  0  0  0  0
  8 12  1  0  0  0  0
  8 32  1  0  0  0  0
  9 10  1  0  0  0  0
  9 11  1  0  0  0  0
  9 31  1  0  0  0  0
 10 12  1  0  0  0  0
 10 14  1  0  0  0  0
 11 13  1  0  0  0  0
 13 15  1  0  0  0  0
 13 33  1  0  0  0  0
 13 34  1  0  0  0  0
 14 16  1  0  0  0  0
 15 36  1  0  0  0  0
 15 37  1  0  0  0  0
 16 17  1  0  0  0  0
 16 18  2  0  0  0  0
 17 38  1  0  0  0  0
 17 39  1  0  0  0  0
 17 40  1  0  0  0  0
 18 19  1  0  0  0  0
 18 41  1  0  0  0  0
 19 20  2  0  0  0  0
 19 43  1  0  0  0  0
 20 21  1  0  0  0  0
 20 44  1  0  0  0  0
 21 22  2  0  0  0  0
 21 23  1  0  0  0  0
 22 24  1  0  0  0  0
 22 45  1  0  0  0  0
 23 46  1  0  0  0  0
 23 47  1  0  0  0  0
 23 48  1  0  0  0  0
 24 25  2  0  0  0  0
 24 27  1  0  0  0  0
 25 26  1  0  0  0  0
 25 49  1  0  0  0  0
 26 28  2  0  0  0  0
 26 30  1  0  0  0  0
 27 50  1  0  0  0  0
 27 51  1  0  0  0  0
 27 52  1  0  0  0  0
 28 29  1  0  0  0  0
 28 53  1  0  0  0  0
 29 54  1  0  0  0  0
 29 55  1  0  0  0  0
M  END
> <PUBCHEM_COMPOUND_CID>
119057400

> <PUBCHEM_CONFORMER_RMSD>
1

> <PUBCHEM_CONFORMER_DIVERSEORDER>
1
60
2
117
90
163
12
42
118
111
95
138
24
152
25
30
104
77
4
6
76
41
5
68
150
73
136
22
7
100
97
17
11
72
131
86
49
20
145
50
45
65
64
122
78
53
75
28
167
162
81
51
59
10
93
58
19
46
96
34
27
92
165
13
47
126
99
33
79
40
21
55
36
63
18
74
128
43
52
109
102
98
85
103
14
3
146
57
88
125
48
80
137
142
61
38
164
113
151
166
143
54
35
69
84
71
161
39
16
153
112
159
123
15
26
158
147
157
66
8
135
91
119
89
29
148
70
37
32
107
108
140
82
127
124
133
9
120
83
31
130
62
132
114
94
144
110
154
141
87
44
116
67
106
129
105
156
115
56
121
149
101
139
23
134
155
160

> <PUBCHEM_MMFF94_PARTIAL_CHARGES>
39
1 -0.3
10 0.15
11 0.68
12 0.63
14 0.56
15 0.28
16 -0.12
17 0.14
18 -0.15
19 -0.15
2 -0.68
20 -0.15
21 -0.14
22 -0.15
23 0.14
24 -0.14
25 -0.15
26 0.01
27 0.14
28 -0.29
29 0.42
3 -0.57
30 0.71
31 0.1
32 0.37
35 0.4
4 -0.57
41 0.15
42 0.4
43 0.15
44 0.15
45 0.15
49 0.15
5 -0.68
53 0.15
6 -0.43
7 -0.57
8 -0.73
9 -0.05

> <PUBCHEM_EFFECTIVE_ROTOR_COUNT>
9

> <PUBCHEM_PHARMACOPHORE_FEATURES>
14
1 1 acceptor
1 17 hydrophobe
1 2 acceptor
1 2 donor
1 23 hydrophobe
1 27 hydrophobe
1 3 acceptor
1 4 acceptor
1 5 acceptor
1 5 donor
1 7 acceptor
1 8 donor
5 6 26 28 29 30 rings
6 1 8 9 10 11 12 rings

> <PUBCHEM_HEAVY_ATOM_COUNT>
30

> <PUBCHEM_ATOM_DEF_STEREO_COUNT>
3

> <PUBCHEM_ATOM_UDEF_STEREO_COUNT>
0

> <PUBCHEM_BOND_DEF_STEREO_COUNT>
4

> <PUBCHEM_BOND_UDEF_STEREO_COUNT>
0

> <PUBCHEM_ISOTOPIC_ATOM_COUNT>
0

> <PUBCHEM_COMPONENT_COUNT>
1

> <PUBCHEM_CACTVS_TAUTO_COUNT>
16

> <PUBCHEM_CONFORMER_ID>
0718ABF800000001

> <PUBCHEM_MMFF94_ENERGY>
70.1812

> <PUBCHEM_FEATURE_SELFOVERLAP>
71.095

> <PUBCHEM_SHAPE_FINGERPRINT>
10162869 55 16298384695933846362
10533779 1 11743025489978207099
11181472 205 11383844783783773706
11315181 36 15430038743035230181
11761917 87 17131565959646091470
12089408 11 17676487229913062128
125118 31 8070020083027755782
12664476 115 8934997088695370975
13553643 46 11169912793314418526
13668630 136 18410292506544638844
13782708 43 18201996616831104096
14344974 204 17559104591527427247
14344974 52 12107790727222902595
14429380 56 14707212145730639670
14729087 3 8142087563272907368
15183329 4 16917057838067753220
15352257 5 18060419110477683950
15461852 350 17894068506825926226
15510794 2 17988923366722962565
1577012 14 17313098614551195384
17093844 174 9151172061068421605
1754911 235 16588027897145563982
17686467 74 18409443726433968104
18608769 82 18131350821514325302
19611394 137 18200876291575365163
20105231 36 17989490723561269462
20982279 24 17559978575271484566
21150785 3 16950280707124336090
21267235 1 18131068242752170440
21756936 100 11671783772031947477
21781051 124 18271817860485383110
22288116 15 17095245847647901771
23081809 10 17168135703084287704
23522609 53 17096095649751157052
23569943 247 17977389327130439306
2747138 104 18201715171840297080
3178227 256 16415479359850159438
328311 84 17704071785877704016
3383291 50 18340769338053703283
4093350 32 10880002341931028612
4169191 19 14201400460823434724
444735 82 11386665009629382254
45377200 153 18337112366806589330
504579 68 17312823784220875842
54039377 194 18261396702278365979
58083652 198 15051720984940520568
636775 72 9583528611764979475
636775 8 18408328808267403506
9995097 26 18411985793227257016
999808 66 17988926686590244359

> <PUBCHEM_SHAPE_MULTIPOLES>
571.32
31.71
2.19
1.7
39.24
0.85
-0.04
16.04
2.44
-6.94
-0.38
0.91
0.38
3.38

> <PUBCHEM_SHAPE_SELFOVERLAP>
1208.64

> <PUBCHEM_SHAPE_VOLUME>
320.2

> <PUBCHEM_COORDINATE_TYPE>
2
5
10

$$$$
