REMARK  Name = 119051
REMARK  6 active torsions:
REMARK  status: ('A' for Active; 'I' for Inactive)
REMARK    1  A    between atoms: N_3  and  C1*_12
REMARK    2  A    between atoms: C_7  and  C_20
REMARK    3  A    between atoms: C3*_11  and  O3*_15
REMARK    4  A    between atoms: C4*_14  and  C5*_17
REMARK    5  A    between atoms: C5*_17  and  O5*_18
REMARK    6  A    between atoms: C_20  and  O_21
REMARK                            x       y       z     vdW  Elec       q    Type
REMARK                         _______ _______ _______ _____ _____    ______ ____
ROOT
ATOM      1  O   UNL     1       0.181   3.357   0.020  0.00  0.00    -0.252 OA
ATOM      2  O   UNL     1      -3.884   1.217  -0.175  0.00  0.00    -0.270 OA
ATOM      3  N   UNL     1       0.176   1.032  -0.186  0.00  0.00    -0.219 N 
ATOM      4  N   UNL     1      -1.839   2.277  -0.078  0.00  0.00    -0.236 N 
ATOM      5  C   UNL     1      -0.597  -0.118  -0.289  0.00  0.00    +0.074 C 
ATOM      6  C   UNL     1      -0.440   2.297  -0.074  0.00  0.00    +0.315 C 
ATOM      7  C   UNL     1      -1.935  -0.134  -0.292  0.00  0.00    +0.076 C 
ATOM      8  C   UNL     1      -2.657   1.162  -0.178  0.00  0.00    +0.252 C 
ATOM      9  H   UNL     1      -2.291   3.148  -0.001  0.00  0.00    +0.159 HD
ENDROOT
BRANCH   3  12
ATOM     10  O4* UNL     1       1.971  -0.207  -1.032  0.00  0.00    -0.335 OA
ATOM     11  C3* UNL     1       3.375  -0.238   0.878  0.00  0.00    +0.144 C 
ATOM     12  C1* UNL     1       1.603   0.899  -0.197  0.00  0.00    +0.202 C 
ATOM     13  C2* UNL     1       2.181   0.636   1.184  0.00  0.00    +0.083 C 
ATOM     14  C4* UNL     1       2.914  -1.040  -0.331  0.00  0.00    +0.173 C 
BRANCH  11  15
ATOM     15  O3* UNL     1       4.489   0.579   0.522  0.00  0.00    -0.382 OA
ATOM     16  H3* UNL     1       4.777   1.087   1.297  0.00  0.00    +0.210 HD
ENDBRANCH  11  15
BRANCH  14  17
ATOM     17  C5* UNL     1       2.203  -2.332   0.051  0.00  0.00    +0.169 C 
BRANCH  17  18
ATOM     18  O5* UNL     1       1.803  -3.002  -1.133  0.00  0.00    -0.379 OA
ATOM     19  H5* UNL     1       1.349  -3.827  -0.900  0.00  0.00    +0.211 HD
ENDBRANCH  17  18
ENDBRANCH  14  17
ENDBRANCH   3  12
BRANCH   7  20
ATOM     20  C   UNL     1      -2.748  -1.383  -0.404  0.00  0.00    +0.174 C 
BRANCH  20  21
ATOM     21  O   UNL     1      -3.012  -1.905   0.887  0.00  0.00    -0.346 OA
ATOM     22  C   UNL     1      -3.785  -3.097   0.825  0.00  0.00    +0.175 C 
ENDBRANCH  20  21
ENDBRANCH   7  20
TORSDOF 6
