119032
  -OEChem-03292013323D

 37 38  0     0  0  0  0  0  0999 V2000
   -0.7156   -1.5560    0.4435 O   0  0  0  0  0  0  0  0  0  0  0  0
   -2.8102    1.6670   -1.0136 O   0  0  0  0  0  0  0  0  0  0  0  0
    4.1904    0.7928   -0.1404 O   0  0  0  0  0  0  0  0  0  0  0  0
   -0.8715   -0.2160   -1.4585 O   0  0  0  0  0  0  0  0  0  0  0  0
   -2.0991    2.5444    1.0369 O   0  0  0  0  0  0  0  0  0  0  0  0
    5.7030    1.4221    1.3478 O   0  5  0  0  0  0  0  0  0  0  0  0
    5.4342    2.6648   -0.4839 O   0  0  0  0  0  0  0  0  0  0  0  0
    5.1949    1.7144    0.2647 N   0  3  0  0  0  0  0  0  0  0  0  0
    2.9190   -1.1741    0.2731 C   0  0  0  0  0  0  0  0  0  0  0  0
    0.6216   -1.7925    0.1139 C   0  0  0  0  0  0  0  0  0  0  0  0
    1.5844   -0.9381    0.6029 C   0  0  0  0  0  0  0  0  0  0  0  0
   -2.7667   -0.5278   -0.0462 C   0  0  0  0  0  0  0  0  0  0  0  0
    3.2559   -2.2586   -0.5370 C   0  0  0  0  0  0  0  0  0  0  0  0
    3.9856   -0.2669    0.7860 C   0  0  0  0  0  0  0  0  0  0  0  0
   -3.4349    0.6613   -0.3385 C   0  0  0  0  0  0  0  0  0  0  0  0
    0.9237   -2.8707   -0.6878 C   0  0  0  0  0  0  0  0  0  0  0  0
    2.2584   -3.1069   -1.0174 C   0  0  0  0  0  0  0  0  0  0  0  0
   -1.3832   -0.7276   -0.4545 C   0  0  0  0  0  0  0  0  0  0  0  0
   -3.4235   -1.5445    0.6471 C   0  0  0  0  0  0  0  0  0  0  0  0
   -4.7599    0.8334    0.0625 C   0  0  0  0  0  0  0  0  0  0  0  0
   -4.7484   -1.3722    1.0481 C   0  0  0  0  0  0  0  0  0  0  0  0
   -5.4165   -0.1833    0.7559 C   0  0  0  0  0  0  0  0  0  0  0  0
   -2.1470    2.5863   -0.1854 C   0  0  0  0  0  0  0  0  0  0  0  0
   -1.4947    3.6488   -1.0191 C   0  0  0  0  0  0  0  0  0  0  0  0
    1.3084   -0.0960    1.2311 H   0  0  0  0  0  0  0  0  0  0  0  0
    4.2917   -2.4521   -0.8033 H   0  0  0  0  0  0  0  0  0  0  0  0
    3.6799    0.1295    1.7638 H   0  0  0  0  0  0  0  0  0  0  0  0
    4.9108   -0.8427    0.9242 H   0  0  0  0  0  0  0  0  0  0  0  0
    0.1471   -3.5308   -1.0611 H   0  0  0  0  0  0  0  0  0  0  0  0
    2.5205   -3.9509   -1.6486 H   0  0  0  0  0  0  0  0  0  0  0  0
   -2.9365   -2.4884    0.8776 H   0  0  0  0  0  0  0  0  0  0  0  0
   -5.2872    1.7566   -0.1622 H   0  0  0  0  0  0  0  0  0  0  0  0
   -5.2612   -2.1650    1.5850 H   0  0  0  0  0  0  0  0  0  0  0  0
   -6.4484   -0.0495    1.0673 H   0  0  0  0  0  0  0  0  0  0  0  0
   -0.7614    3.1930   -1.6890 H   0  0  0  0  0  0  0  0  0  0  0  0
   -0.9780    4.3569   -0.3652 H   0  0  0  0  0  0  0  0  0  0  0  0
   -2.2546    4.1890   -1.5890 H   0  0  0  0  0  0  0  0  0  0  0  0
  1 10  1  0  0  0  0
  1 18  1  0  0  0  0
  2 15  1  0  0  0  0
  2 23  1  0  0  0  0
  3  8  1  0  0  0  0
  3 14  1  0  0  0  0
  4 18  2  0  0  0  0
  5 23  2  0  0  0  0
  6  8  1  0  0  0  0
  7  8  2  0  0  0  0
  9 11  2  0  0  0  0
  9 13  1  0  0  0  0
  9 14  1  0  0  0  0
 10 11  1  0  0  0  0
 10 16  2  0  0  0  0
 11 25  1  0  0  0  0
 12 15  1  0  0  0  0
 12 18  1  0  0  0  0
 12 19  2  0  0  0  0
 13 17  2  0  0  0  0
 13 26  1  0  0  0  0
 14 27  1  0  0  0  0
 14 28  1  0  0  0  0
 15 20  2  0  0  0  0
 16 17  1  0  0  0  0
 16 29  1  0  0  0  0
 17 30  1  0  0  0  0
 19 21  1  0  0  0  0
 19 31  1  0  0  0  0
 20 22  1  0  0  0  0
 20 32  1  0  0  0  0
 21 22  2  0  0  0  0
 21 33  1  0  0  0  0
 22 34  1  0  0  0  0
 23 24  1  0  0  0  0
 24 35  1  0  0  0  0
 24 36  1  0  0  0  0
 24 37  1  0  0  0  0
M  CHG  2   6  -1   8   1
M  END
> <PUBCHEM_COMPOUND_CID>
119032

> <PUBCHEM_CONFORMER_RMSD>
0.8

> <PUBCHEM_CONFORMER_DIVERSEORDER>
1
360
93
356
261
130
389
275
113
26
345
196
65
38
242
165
212
166
346
359
209
396
148
73
180
45
135
142
164
284
198
304
167
282
391
114
61
296
262
379
157
179
358
250
381
281
276
327
269
126
293
78
32
251
175
287
185
140
331
49
160
373
324
30
278
132
107
263
60
11
288
117
226
115
21
321
7
351
386
144
33
101
372
123
364
72
398
224
258
292
116
264
247
58
326
77
52
332
171
393
106
294
35
195
143
383
248
240
390
361
169
125
355
97
159
100
13
207
189
138
271
119
203
342
46
254
308
102
266
74
98
69
89
56
81
29
59
378
277
194
155
362
322
385
286
178
370
47
168
380
316
272
350
54
289
31
283
40
333
244
319
36
348
150
330
96
340
103
218
343
357
80
352
50
384
91
260
267
231
183
382
83
42
235
341
302
306
186
122
154
225
182
295
255
265
238
320
334
88
366
219
395
375
221
108
39
299
95
344
349
232
199
146
118
311
147
297
392
252
336
236
290
152
16
124
317
323
291
253
307
20
53
328
71
75
279
285
338
28
201
163
214
397
367
66
270
228
48
204
173
24
353
325
176
229
237
347
335
121
368
256
120
92
268
376
188
174
257
27
17
233
337
259
274
133
312
227
84
76
82
280
109
318
309
177
14
62
191
210
151
25
181
216
86
208
99
241
388
394
9
301
245
377
79
19
315
365
369
34
230
220
354
200
217
111
70
63
313
129
193
374
128
300
18
310
206
131
139
222
213
246
8
64
314
329
305
205
145
68
211
105
57
223
170
127
44
158
371
239
136
55
87
192
149
273
141
94
197
41
153
5
243
67
10
339
202
234
104
190
6
249
162
37
172
363
43
22
23
184
90
303
215
51
112
187
156
137
110
387
3
161
4
134
15
85
12
298
2

> <PUBCHEM_MMFF94_PARTIAL_CHARGES>
32
1 -0.23
10 0.08
11 -0.15
12 0.09
13 -0.15
14 0.42
15 0.08
16 -0.15
17 -0.15
18 0.63
19 -0.15
2 -0.23
20 -0.15
21 -0.15
22 -0.15
23 0.66
24 0.06
25 0.15
26 0.15
29 0.15
3 -0.27
30 0.15
31 0.15
32 0.15
33 0.15
34 0.15
4 -0.57
5 -0.57
6 -0.52
7 -0.52
8 1.03
9 -0.14

> <PUBCHEM_EFFECTIVE_ROTOR_COUNT>
8

> <PUBCHEM_PHARMACOPHORE_FEATURES>
6
1 4 acceptor
1 5 acceptor
1 6 acceptor
1 7 acceptor
6 12 15 19 20 21 22 rings
6 9 10 11 13 16 17 rings

> <PUBCHEM_HEAVY_ATOM_COUNT>
24

> <PUBCHEM_ATOM_DEF_STEREO_COUNT>
0

> <PUBCHEM_ATOM_UDEF_STEREO_COUNT>
0

> <PUBCHEM_BOND_DEF_STEREO_COUNT>
0

> <PUBCHEM_BOND_UDEF_STEREO_COUNT>
0

> <PUBCHEM_ISOTOPIC_ATOM_COUNT>
0

> <PUBCHEM_COMPONENT_COUNT>
1

> <PUBCHEM_CACTVS_TAUTO_COUNT>
1

> <PUBCHEM_CONFORMER_ID>
0001D0F800000001

> <PUBCHEM_MMFF94_ENERGY>
79.812

> <PUBCHEM_FEATURE_SELFOVERLAP>
30.519

> <PUBCHEM_SHAPE_FINGERPRINT>
10670039 82 18334590036014330708
12596602 18 17095514128390309016
12925494 130 18195804076991745305
12978246 48 18336542819899159384
13402501 40 18410854390882129312
14251764 38 18337670794111162792
14787075 74 18336825385623171803
15052358 14 10375605767285466235
15806764 133 17769670706036552510
15927050 60 17113832241106422765
15961568 22 18333454261429048068
17349148 13 13334740098226288043
17844677 252 18269281170441781499
19611394 137 17753345445197733394
20510252 161 18192714445670690451
20600515 1 17313677043751451903
21315764 371 16298105401940777008
21623110 236 18412269402502624881
21652331 79 18410291402168221161
23557571 272 18187657851318065343
23559900 14 18050284769722736071
245318 6 17534076430309464444
3004659 81 11167950169247361448
46194498 28 17987809501351842438
474144 1 17387427945862829244
5104073 3 18262242114549758235
5281201 14 18057045696644088942
621550 34 18340492183724161679
6287921 2 18337121055403122372
7399639 24 18411700967501504335
7808743 9 18268144452276795634

> <PUBCHEM_SHAPE_MULTIPOLES>
447.84
11.85
3.88
1.09
6.38
2.16
-0.03
4.81
3.28
2.06
-0.99
0.04
0.06
1.68

> <PUBCHEM_SHAPE_SELFOVERLAP>
957.139

> <PUBCHEM_SHAPE_VOLUME>
244.5

> <PUBCHEM_COORDINATE_TYPE>
2
5
10

$$$$
