REMARK  Name = 119033
REMARK  9 active torsions:
REMARK  status: ('A' for Active; 'I' for Inactive)
REMARK    1  A    between atoms: C_2  and  O_7
REMARK    2  A    between atoms: C_3  and  O_9
REMARK    3  A    between atoms: C_4  and  O_11
REMARK    4  A    between atoms: C_5  and  C_23
REMARK    5  A    between atoms: C_6  and  O_13
REMARK    6  A    between atoms: O_13  and  C_14
REMARK    7  A    between atoms: C_14  and  C_15
REMARK    8  A    between atoms: C_14  and  C_22
REMARK    9  A    between atoms: C_23  and  O_24
REMARK                            x       y       z     vdW  Elec       q    Type
REMARK                         _______ _______ _______ _____ _____    ______ ____
ROOT
ATOM      1  O   UNL     1       1.643  -1.053   0.187  0.00  0.00    -0.326 OA
ATOM      2  C   UNL     1       2.447   1.705   0.177  0.00  0.00    +0.172 C 
ATOM      3  C   UNL     1       3.438   0.561  -0.040  0.00  0.00    +0.169 C 
ATOM      4  C   UNL     1       1.197   1.222   0.912  0.00  0.00    +0.196 C 
ATOM      5  C   UNL     1       2.737  -0.658  -0.644  0.00  0.00    +0.176 C 
ATOM      6  C   UNL     1       0.634  -0.049   0.276  0.00  0.00    +0.267 C 
ENDROOT
BRANCH   2   7
ATOM      7  O   UNL     1       3.098   2.710   0.956  0.00  0.00    -0.379 OA
ATOM      8  H   UNL     1       3.891   3.017   0.490  0.00  0.00    +0.211 HD
ENDBRANCH   2   7
BRANCH   3   9
ATOM      9  O   UNL     1       4.472   0.993  -0.920  0.00  0.00    -0.379 OA
ATOM     10  H   UNL     1       4.919   1.766  -0.540  0.00  0.00    +0.211 HD
ENDBRANCH   3   9
BRANCH   4  11
ATOM     11  O   UNL     1       0.192   2.234   0.853  0.00  0.00    -0.378 OA
ATOM     12  H   UNL     1       0.531   3.050   1.253  0.00  0.00    +0.211 HD
ENDBRANCH   4  11
BRANCH   6  13
ATOM     13  O   UNL     1      -0.437  -0.515   1.096  0.00  0.00    -0.312 OA
BRANCH  13  14
ATOM     14  C   UNL     1      -1.412  -1.204   0.330  0.00  0.00    +0.230 C 
BRANCH  14  15
ATOM     15  C   UNL     1      -2.422  -0.210  -0.193  0.00  0.00    +0.019 C 
ATOM     16  C   UNL     1      -3.026  -0.438  -1.419  0.00  0.00    -0.001 C 
ATOM     17  C   UNL     1      -2.724   0.911   0.563  0.00  0.00    -0.001 C 
ATOM     18  C   UNL     1      -3.959   0.480  -1.901  0.00  0.00    -0.000 C 
ATOM     19  C   UNL     1      -3.657   1.829   0.081  0.00  0.00    -0.000 C 
ATOM     20  C   UNL     1      -4.274   1.613  -1.152  0.00  0.00    -0.000 C 
ENDBRANCH  14  15
BRANCH  14  22
ATOM     21  N   UNL     1      -2.545  -3.086   1.777  0.00  0.00    -0.193 NA
ATOM     22  C   UNL     1      -2.045  -2.255   1.140  0.00  0.00    +0.107 C 
ENDBRANCH  14  22
ENDBRANCH  13  14
ENDBRANCH   6  13
BRANCH   5  23
ATOM     23  C   UNL     1       3.679  -1.852  -0.762  0.00  0.00    +0.169 C 
BRANCH  23  24
ATOM     24  O   UNL     1       2.962  -2.940  -1.315  0.00  0.00    -0.379 OA
ATOM     25  H   UNL     1       3.550  -3.707  -1.396  0.00  0.00    +0.211 HD
ENDBRANCH  23  24
ENDBRANCH   5  23
TORSDOF 9
