119058382
  -OEChem-03292013293D

 58 59  0     1  0  0  0  0  0999 V2000
    6.8247   -0.9808   -0.2420 F   0  0  0  0  0  0  0  0  0  0  0  0
   -5.3169    1.2018    1.2370 O   0  0  0  0  0  0  0  0  0  0  0  0
   -5.6090   -2.1440    0.4431 O   0  0  0  0  0  0  0  0  0  0  0  0
   -0.7112   -4.5814    0.2043 O   0  0  0  0  0  0  0  0  0  0  0  0
    1.3638   -1.6331   -0.1516 O   0  0  0  0  0  0  0  0  0  0  0  0
    3.1574    2.9982    1.9810 O   0  0  0  0  0  0  0  0  0  0  0  0
    3.5999    3.7583   -0.1104 O   0  0  0  0  0  0  0  0  0  0  0  0
   -3.4816    0.6180   -0.2796 C   0  0  1  0  0  0  0  0  0  0  0  0
   -3.5679   -0.8716    0.0987 C   0  0  1  0  0  0  0  0  0  0  0  0
   -4.9336    1.0841   -0.1282 C   0  0  1  0  0  0  0  0  0  0  0  0
   -4.9176   -1.3244   -0.4922 C   0  0  2  0  0  0  0  0  0  0  0  0
   -5.7351   -0.0512   -0.7612 C   0  0  0  0  0  0  0  0  0  0  0  0
   -2.4868    1.3991    0.5687 C   0  0  0  0  0  0  0  0  0  0  0  0
   -2.4217   -1.6881   -0.4091 C   0  0  0  0  0  0  0  0  0  0  0  0
   -2.3746    2.8739    0.2973 C   0  0  0  0  0  0  0  0  0  0  0  0
   -1.6051   -2.4008    0.3807 C   0  0  0  0  0  0  0  0  0  0  0  0
   -0.4539   -3.2203   -0.1312 C   0  0  1  0  0  0  0  0  0  0  0  0
   -1.5146    3.4824   -0.5335 C   0  0  0  0  0  0  0  0  0  0  0  0
   -0.4911    2.7510   -1.3524 C   0  0  0  0  0  0  0  0  0  0  0  0
    0.8671   -2.7914    0.5026 C   0  0  0  0  0  0  0  0  0  0  0  0
    0.9548    3.1630   -1.0434 C   0  0  0  0  0  0  0  0  0  0  0  0
    1.3790    2.9035    0.4053 C   0  0  0  0  0  0  0  0  0  0  0  0
    2.7252   -1.4705   -0.1741 C   0  0  0  0  0  0  0  0  0  0  0  0
    2.8136    3.2850    0.6983 C   0  0  0  0  0  0  0  0  0  0  0  0
    3.5053   -1.9758    0.8660 C   0  0  0  0  0  0  0  0  0  0  0  0
    3.3301   -0.8001   -1.2372 C   0  0  0  0  0  0  0  0  0  0  0  0
    4.8901   -1.8104    0.8432 C   0  0  0  0  0  0  0  0  0  0  0  0
    4.7148   -0.6346   -1.2602 C   0  0  0  0  0  0  0  0  0  0  0  0
    5.4948   -1.1397   -0.2200 C   0  0  0  0  0  0  0  0  0  0  0  0
   -3.1960    0.7092   -1.3381 H   0  0  0  0  0  0  0  0  0  0  0  0
   -3.6160   -0.9628    1.1937 H   0  0  0  0  0  0  0  0  0  0  0  0
   -5.1177    2.0425   -0.6237 H   0  0  0  0  0  0  0  0  0  0  0  0
   -4.8011   -1.9020   -1.4167 H   0  0  0  0  0  0  0  0  0  0  0  0
   -5.7813    0.1116   -1.8448 H   0  0  0  0  0  0  0  0  0  0  0  0
   -6.7567   -0.1143   -0.3728 H   0  0  0  0  0  0  0  0  0  0  0  0
   -1.4977    0.9325    0.4926 H   0  0  0  0  0  0  0  0  0  0  0  0
   -2.7421    1.2905    1.6319 H   0  0  0  0  0  0  0  0  0  0  0  0
   -2.2508   -1.6874   -1.4832 H   0  0  0  0  0  0  0  0  0  0  0  0
   -6.2518    1.4685    1.2563 H   0  0  0  0  0  0  0  0  0  0  0  0
   -6.4585   -2.3936    0.0410 H   0  0  0  0  0  0  0  0  0  0  0  0
   -3.0856    3.5045    0.8280 H   0  0  0  0  0  0  0  0  0  0  0  0
   -1.7761   -2.4067    1.4549 H   0  0  0  0  0  0  0  0  0  0  0  0
   -0.3894   -3.1517   -1.2238 H   0  0  0  0  0  0  0  0  0  0  0  0
   -1.5592    4.5634   -0.6360 H   0  0  0  0  0  0  0  0  0  0  0  0
   -0.6913    2.9775   -2.4075 H   0  0  0  0  0  0  0  0  0  0  0  0
   -0.5750    1.6636   -1.2671 H   0  0  0  0  0  0  0  0  0  0  0  0
    1.5685   -3.6313    0.4019 H   0  0  0  0  0  0  0  0  0  0  0  0
    0.7423   -2.5883    1.5740 H   0  0  0  0  0  0  0  0  0  0  0  0
    1.6265    2.6200   -1.7204 H   0  0  0  0  0  0  0  0  0  0  0  0
    1.0878    4.2284   -1.2729 H   0  0  0  0  0  0  0  0  0  0  0  0
   -0.0080   -5.1211   -0.1954 H   0  0  0  0  0  0  0  0  0  0  0  0
    1.2639    1.8366    0.6290 H   0  0  0  0  0  0  0  0  0  0  0  0
    0.7463    3.4775    1.0910 H   0  0  0  0  0  0  0  0  0  0  0  0
    3.0729   -2.4791    1.7256 H   0  0  0  0  0  0  0  0  0  0  0  0
    2.7270   -0.4031   -2.0493 H   0  0  0  0  0  0  0  0  0  0  0  0
    4.0931    3.2259    2.1681 H   0  0  0  0  0  0  0  0  0  0  0  0
    5.4977   -2.1979    1.6557 H   0  0  0  0  0  0  0  0  0  0  0  0
    5.1858   -0.1117   -2.0873 H   0  0  0  0  0  0  0  0  0  0  0  0
  1 29  1  0  0  0  0
  2 10  1  0  0  0  0
  2 39  1  0  0  0  0
  3 11  1  0  0  0  0
  3 40  1  0  0  0  0
  4 17  1  0  0  0  0
  4 51  1  0  0  0  0
  5 20  1  0  0  0  0
  5 23  1  0  0  0  0
  6 24  1  0  0  0  0
  6 56  1  0  0  0  0
  7 24  2  0  0  0  0
  8  9  1  0  0  0  0
  8 10  1  0  0  0  0
  8 13  1  0  0  0  0
  8 30  1  0  0  0  0
  9 11  1  0  0  0  0
  9 14  1  0  0  0  0
  9 31  1  0  0  0  0
 10 12  1  0  0  0  0
 10 32  1  0  0  0  0
 11 12  1  0  0  0  0
 11 33  1  0  0  0  0
 12 34  1  0  0  0  0
 12 35  1  0  0  0  0
 13 15  1  0  0  0  0
 13 36  1  0  0  0  0
 13 37  1  0  0  0  0
 14 16  2  0  0  0  0
 14 38  1  0  0  0  0
 15 18  2  0  0  0  0
 15 41  1  0  0  0  0
 16 17  1  0  0  0  0
 16 42  1  0  0  0  0
 17 20  1  0  0  0  0
 17 43  1  0  0  0  0
 18 19  1  0  0  0  0
 18 44  1  0  0  0  0
 19 21  1  0  0  0  0
 19 45  1  0  0  0  0
 19 46  1  0  0  0  0
 20 47  1  0  0  0  0
 20 48  1  0  0  0  0
 21 22  1  0  0  0  0
 21 49  1  0  0  0  0
 21 50  1  0  0  0  0
 22 24  1  0  0  0  0
 22 52  1  0  0  0  0
 22 53  1  0  0  0  0
 23 25  2  0  0  0  0
 23 26  1  0  0  0  0
 25 27  1  0  0  0  0
 25 54  1  0  0  0  0
 26 28  2  0  0  0  0
 26 55  1  0  0  0  0
 27 29  2  0  0  0  0
 27 57  1  0  0  0  0
 28 29  1  0  0  0  0
 28 58  1  0  0  0  0
M  END
> <PUBCHEM_COMPOUND_CID>
119058382

> <PUBCHEM_CONFORMER_RMSD>
1.2

> <PUBCHEM_CONFORMER_DIVERSEORDER>
1
65
102
132
139
20
124
31
131
87
72
121
79
101
57
76
116
50
114
48
105
127
82
123
138
77
130
9
115
88
104
122
28
128
89
107
99
6
67
24
37
81
32
68
95
75
7
129
73
93
91
136
17
49
8
117
52
84
137
25
47
19
92
74
78
134
34
63
111
98
96
16
100
135
12
60
27
133
30
23
126
39
86
38
46
41
35
69
103
106
85
51
118
26
29
80
64
53
33
58
71
61
83
45
62
55
113
18
54
2
70
15
110
42
43
10
22
109
3
59
4
119
120
108
94
14
21
5
56
66
36
125
112
13
97
44
90
40
11

> <PUBCHEM_MMFF94_PARTIAL_CHARGES>
38
1 -0.19
10 0.28
11 0.28
13 0.14
14 -0.29
15 -0.29
16 -0.29
17 0.42
18 -0.29
19 0.14
2 -0.68
20 0.28
22 0.06
23 0.08
24 0.66
25 -0.15
26 -0.15
27 -0.15
28 -0.15
29 0.19
3 -0.68
38 0.15
39 0.4
4 -0.68
40 0.4
41 0.15
42 0.15
44 0.15
5 -0.36
51 0.4
54 0.15
55 0.15
56 0.5
57 0.15
58 0.15
6 -0.65
7 -0.57
9 0.14

> <PUBCHEM_EFFECTIVE_ROTOR_COUNT>
12

> <PUBCHEM_PHARMACOPHORE_FEATURES>
13
1 2 acceptor
1 2 donor
1 3 acceptor
1 3 donor
1 4 acceptor
1 4 donor
1 5 acceptor
1 6 acceptor
1 7 acceptor
3 6 7 24 anion
4 18 19 21 22 hydrophobe
5 8 9 10 11 12 rings
6 23 25 26 27 28 29 rings

> <PUBCHEM_HEAVY_ATOM_COUNT>
29

> <PUBCHEM_ATOM_DEF_STEREO_COUNT>
5

> <PUBCHEM_ATOM_UDEF_STEREO_COUNT>
0

> <PUBCHEM_BOND_DEF_STEREO_COUNT>
2

> <PUBCHEM_BOND_UDEF_STEREO_COUNT>
0

> <PUBCHEM_ISOTOPIC_ATOM_COUNT>
0

> <PUBCHEM_COMPONENT_COUNT>
1

> <PUBCHEM_CACTVS_TAUTO_COUNT>
2

> <PUBCHEM_CONFORMER_ID>
0718AFCE00000001

> <PUBCHEM_MMFF94_ENERGY>
60.1942

> <PUBCHEM_FEATURE_SELFOVERLAP>
66.032

> <PUBCHEM_SHAPE_FINGERPRINT>
10032420 55 17968373425506467264
10670039 82 18191599557859989934
10864689 126 17980480066557057620
1100329 8 18410013260123237503
11513181 2 17914616305049446582
12422481 6 18053076679486408936
12645989 146 18343021056426560110
13140716 1 18411708686301001097
13402501 40 18411417302375763644
13615921 28 17274815814310893472
14068700 675 18273209777259463553
14394314 77 18336552616149985933
14647877 51 18341330102142512200
14725015 67 18410285887345726063
16112460 7 18271258161046992048
17093844 170 18194119840268878260
18336668 15 18041002825509281013
19319366 153 17749107764761187050
19611394 137 18042140880770560395
20642791 35 18337672022698506702
20721686 56 18336546139349145162
20764821 26 18336542828261760132
21344244 246 18123455345070278759
23559900 14 18411972560185676353
373842 8 18192710265870984995
469060 322 18264500493926117473
5047190 69 18340477869531171898
59755656 215 18267022945789778668
6823239 73 18339911641668956088
9543594 6 18411132558697111488
9961470 85 18196360635985636441

> <PUBCHEM_SHAPE_MULTIPOLES>
554.32
13.17
5.79
1.13
1.46
2.34
0.06
-3.98
-0.1
1.73
0.61
0.62
0.57
0.38

> <PUBCHEM_SHAPE_SELFOVERLAP>
1132.209

> <PUBCHEM_SHAPE_VOLUME>
319.8

> <PUBCHEM_COORDINATE_TYPE>
2
5
10

$$$$
