REMARK  Name = 119057413
REMARK  14 active torsions:
REMARK  status: ('A' for Active; 'I' for Inactive)
REMARK    1  A    between atoms: C_1  and  C_5
REMARK    2  A    between atoms: C_3  and  C_20
REMARK    3  A    between atoms: C_5  and  C_10
REMARK    4  A    between atoms: C_11  and  O_14
REMARK    5  A    between atoms: C_11  and  C_16
REMARK    6  A    between atoms: C_16  and  C_17
REMARK    7  A    between atoms: C_17  and  O_18
REMARK    8  A    between atoms: C_21  and  C_22
REMARK    9  A    between atoms: C_24  and  C_25
REMARK   10  A    between atoms: C_27  and  C_28
REMARK   11  A    between atoms: C_28  and  C_31
REMARK   12  A    between atoms: C_29  and  C_34
REMARK   13  A    between atoms: C_31  and  O_32
REMARK   14  A    between atoms: C_34  and  O_35
REMARK                            x       y       z     vdW  Elec       q    Type
REMARK                         _______ _______ _______ _____ _____    ______ ____
ROOT
ATOM      1  C   UNL     1      -2.625   2.430  -0.494  0.00  0.00    +0.016 C 
ATOM      2  C   UNL     1      -2.316   3.874  -0.782  0.00  0.00    +0.034 C 
ATOM      3  C   UNL     1      -1.730   1.432  -0.374  0.00  0.00    -0.001 C 
ENDROOT
BRANCH   1   5
ATOM      4  O   UNL     1      -4.934   3.028  -0.407  0.00  0.00    -0.289 OA
ATOM      5  C   UNL     1      -4.089   2.145  -0.304  0.00  0.00    +0.204 C 
BRANCH   5  10
ATOM      6  O   UNL     1      -4.143  -0.188  -0.984  0.00  0.00    -0.336 OA
ATOM      7  O   UNL     1      -3.946   0.563   2.318  0.00  0.00    -0.272 OA
ATOM      8  N   UNL     1      -5.681  -0.694   1.351  0.00  0.00    -0.282 N 
ATOM      9  C   UNL     1      -5.540   0.087  -0.842  0.00  0.00    +0.198 C 
ATOM     10  C   UNL     1      -4.519   0.753   0.014  0.00  0.00    +0.244 C 
ATOM     11  C   UNL     1      -6.320  -0.838   0.051  0.00  0.00    +0.179 C 
ATOM     12  C   UNL     1      -4.647   0.229   1.377  0.00  0.00    +0.258 C 
ATOM     13  H   UNL     1      -5.960  -1.207   2.143  0.00  0.00    +0.152 HD
BRANCH  11  14
ATOM     14  O   UNL     1      -7.659  -0.373   0.155  0.00  0.00    -0.368 OA
ATOM     15  H   UNL     1      -7.659   0.545   0.467  0.00  0.00    +0.212 HD
ENDBRANCH  11  14
BRANCH  11  16
ATOM     16  C   UNL     1      -6.311  -2.277  -0.438  0.00  0.00    +0.081 C 
BRANCH  16  17
ATOM     17  C   UNL     1      -7.144  -3.182   0.455  0.00  0.00    +0.141 C 
BRANCH  17  18
ATOM     18  O   UNL     1      -7.080  -4.509  -0.049  0.00  0.00    -0.382 OA
ATOM     19  H   UNL     1      -7.609  -5.095   0.514  0.00  0.00    +0.210 HD
ENDBRANCH  17  18
ENDBRANCH  16  17
ENDBRANCH  11  16
ENDBRANCH   5  10
ENDBRANCH   1   5
BRANCH   3  20
ATOM     20  C   UNL     1      -0.288   1.541  -0.504  0.00  0.00    -0.001 C 
ATOM     21  C   UNL     1       0.534   0.486  -0.369  0.00  0.00    -0.004 C 
BRANCH  21  22
ATOM     22  C   UNL     1       1.994   0.498  -0.473  0.00  0.00    -0.022 C 
ATOM     23  C   UNL     1       2.669   1.809  -0.786  0.00  0.00    +0.031 C 
ATOM     24  C   UNL     1       2.663  -0.663  -0.308  0.00  0.00    -0.009 C 
BRANCH  24  25
ATOM     25  C   UNL     1       4.104  -0.863  -0.339  0.00  0.00    -0.022 C 
ATOM     26  C   UNL     1       4.529  -2.134  -1.023  0.00  0.00    +0.031 C 
ATOM     27  C   UNL     1       5.012  -0.024   0.199  0.00  0.00    +0.002 C 
BRANCH  27  28
ATOM     28  C   UNL     1       6.463  -0.150   0.210  0.00  0.00    +0.073 C 
ATOM     29  C   UNL     1       7.281   0.755   0.781  0.00  0.00    +0.012 C 
BRANCH  28  31
ATOM     30  O   UNL     1       7.360  -1.587  -1.488  0.00  0.00    -0.245 OA
ATOM     31  C   UNL     1       7.047  -1.410  -0.321  0.00  0.00    +0.341 C 
BRANCH  31  32
ATOM     32  O   UNL     1       7.164  -2.300   0.702  0.00  0.00    -0.441 OA
ATOM     33  C   UNL     1       7.715  -3.572   0.350  0.00  0.00    +0.256 C 
ENDBRANCH  31  32
ENDBRANCH  28  31
BRANCH  29  34
ATOM     34  C   UNL     1       6.908   2.020   1.491  0.00  0.00    +0.164 C 
BRANCH  34  35
ATOM     35  O   UNL     1       7.532   3.113   0.833  0.00  0.00    -0.377 OA
ATOM     36  H   UNL     1       7.298   3.938   1.285  0.00  0.00    +0.211 HD
ENDBRANCH  34  35
ENDBRANCH  29  34
ENDBRANCH  27  28
ENDBRANCH  24  25
ENDBRANCH  21  22
ENDBRANCH   3  20
TORSDOF 14
