REMARK  Name = 119069
REMARK  9 active torsions:
REMARK  status: ('A' for Active; 'I' for Inactive)
REMARK    1  A    between atoms: S_1  and  C_2
REMARK    2  A    between atoms: S_1  and  C_12
REMARK    3  A    between atoms: C_2  and  C_3
REMARK    4  A    between atoms: C_3  and  C_4
REMARK    5  A    between atoms: C_3  and  O_10
REMARK    6  A    between atoms: C_12  and  C_13
REMARK    7  A    between atoms: C_13  and  N_15
REMARK    8  A    between atoms: C_13  and  C_20
REMARK    9  A    between atoms: C_20  and  O_21
REMARK                            x       y       z     vdW  Elec       q    Type
REMARK                         _______ _______ _______ _____ _____    ______ ____
ROOT
ATOM      1  S   UNK A   1       0.640   0.479   0.661  0.00  0.00    -0.135 S 
ENDROOT
BRANCH   1   2
ATOM      2  C   UNK A   1      -0.982   0.220  -0.089  0.00  0.00    +0.091 C 
BRANCH   2   3
ATOM      3  C   UNK A   1      -2.100   0.268   0.958  0.00  0.00    +0.143 C 
BRANCH   3   4
ATOM      4  C   UNK A   1      -3.457   0.060   0.320  0.00  0.00    +0.005 C 
ATOM      5  C   UNK A   1      -4.166   1.159  -0.132  0.00  0.00    -0.002 C 
ATOM      6  C   UNK A   1      -3.957  -1.225   0.203  0.00  0.00    -0.002 C 
ATOM      7  C   UNK A   1      -5.417   0.967  -0.720  0.00  0.00    -0.000 C 
ATOM      8  C   UNK A   1      -5.208  -1.417  -0.386  0.00  0.00    -0.000 C 
ATOM      9  C   UNK A   1      -5.937  -0.321  -0.847  0.00  0.00    -0.000 C 
ENDBRANCH   3   4
BRANCH   3  10
ATOM     10  O   UNK A   1      -1.911  -0.751   1.938  0.00  0.00    -0.379 OA
ATOM     11  H   UNK A   1      -1.046  -0.637   2.361  0.00  0.00    +0.211 HD
ENDBRANCH   3  10
ENDBRANCH   2   3
ENDBRANCH   1   2
BRANCH   1  12
ATOM     12  C   UNK A   1       1.651   0.304  -0.846  0.00  0.00    +0.089 C 
BRANCH  12  13
ATOM     13  C   UNK A   1       3.150   0.509  -0.611  0.00  0.00    +0.182 C 
BRANCH  13  15
ATOM     14  O   UNK A   0       4.237  -2.027  -1.514  0.00  0.00    -0.275 OA
ATOM     15  N   UNK A   1       3.716  -0.540   0.200  0.00  0.00    -0.296 N 
ATOM     16  C   UNK A   0       4.213  -1.723  -0.325  0.00  0.00    +0.223 C 
ATOM     17  C   UNK A   0       4.768  -2.633   0.739  0.00  0.00    +0.095 C 
ATOM     18  H   UNK A   1       3.752  -0.410   1.175  0.00  0.00    +0.150 HD
ENDBRANCH  13  15
BRANCH  13  20
ATOM     19  O   UNK A   1       3.179   2.933  -0.627  0.00  0.00    -0.248 OA
ATOM     20  C   UNK A   1       3.466   1.888  -0.056  0.00  0.00    +0.333 C 
BRANCH  20  21
ATOM     21  O   UNK A   1       4.114   1.851   1.133  0.00  0.00    -0.479 OA
ATOM     22  H   UNK A   1       4.313   1.028   1.533  0.00  0.00    +0.295 HD
ENDBRANCH  20  21
ENDBRANCH  13  20
ENDBRANCH  12  13
ENDBRANCH   1  12
TORSDOF 9
