REMARK  Name = 11902903
REMARK  6 active torsions:
REMARK  status: ('A' for Active; 'I' for Inactive)
REMARK    1  A    between atoms: CA_3  and  C_10
REMARK    2  A    between atoms: C_7  and  CA_17
REMARK    3  A    between atoms: N_9  and  CA_12
REMARK    4  A    between atoms: CA_12  and  C_14
REMARK    5  A    between atoms: C_14  and  O_15
REMARK    6  A    between atoms: CA_17  and  N_19
REMARK                            x       y       z     vdW  Elec       q    Type
REMARK                         _______ _______ _______ _____ _____    ______ ____
ROOT
ATOM      1  O   ALA A   1      -0.930   1.603   0.886  0.00  0.00    -0.277 OA
ATOM      2  N   PRO A   2      -1.447  -0.544   0.195  0.00  0.00    -0.275 N 
ATOM      3  CA  PRO A   2      -0.271  -1.190   0.765  0.00  0.00    +0.152 C 
ATOM      4  CB  PRO A   2      -0.598  -2.679   0.743  0.00  0.00    +0.031 C 
ATOM      5  CG  PRO A   2      -1.543  -2.817  -0.449  0.00  0.00    +0.024 C 
ATOM      6  CD  PRO A   2      -2.344  -1.524  -0.411  0.00  0.00    +0.094 C 
ATOM      7  C   ALA A   1      -1.713   0.805   0.370  0.00  0.00    +0.205 C 
ENDROOT
BRANCH   3  10
ATOM      8  O   PRO A   2       0.746  -0.662  -1.329  0.00  0.00    -0.273 OA
ATOM      9  N   GLY A   3       2.089  -0.839   0.564  0.00  0.00    -0.294 N 
ATOM     10  C   PRO A   2       0.889  -0.861  -0.126  0.00  0.00    +0.241 C 
ATOM     11  H   GLY A   3       2.076  -1.015   1.532  0.00  0.00    +0.150 HD
BRANCH   9  12
ATOM     12  CA  GLY A   3       3.360  -0.569  -0.070  0.00  0.00    +0.200 C 
BRANCH  12  14
ATOM     13  OXT GLY A   3       4.739   1.336  -0.580  0.00  0.00    -0.248 OA
ATOM     14  C   GLY A   3       3.710   0.897  -0.083  0.00  0.00    +0.334 C 
BRANCH  14  15
ATOM     15  O   GLY A   3       2.779   1.681   0.509  0.00  0.00    -0.479 OA
ATOM     16  H   GLY A   3       2.007   1.296   0.876  0.00  0.00    +0.295 HD
ENDBRANCH  14  15
ENDBRANCH  12  14
ENDBRANCH   9  12
ENDBRANCH   3  10
BRANCH   7  17
ATOM     17  CA  ALA A   1      -3.056   1.272  -0.133  0.00  0.00    +0.013 C 
ATOM     18  CB  ALA A   1      -2.942   1.719  -1.577  0.00  0.00    -0.015 C 
BRANCH  17  19
ATOM     19  N   ALA A   1      -3.467   2.372   0.724  0.00  0.00    +0.387 N 
ATOM     20  H1  ALA A   1      -3.536   2.044   1.687  0.00  0.00    -0.089 HD
ATOM     21  H2  ALA A   1      -4.376   2.720   0.417  0.00  0.00    -0.089 HD
ATOM     22  H3  ALA A   1      -2.779   3.122   0.668  0.00  0.00    -0.089 HD
ENDBRANCH  17  19
ENDBRANCH   7  17
TORSDOF 6
