REMARK  Name = 119046
REMARK  9 active torsions:
REMARK  status: ('A' for Active; 'I' for Inactive)
REMARK    1  A    between atoms: C_6  and  C_24
REMARK    2  A    between atoms: C_13  and  O_20
REMARK    3  A    between atoms: C_19  and  O_22
REMARK    4  A    between atoms: C_24  and  C_26
REMARK    5  A    between atoms: C_26  and  C_27
REMARK    6  A    between atoms: C_27  and  C_30
REMARK    7  A    between atoms: N_29  and  C_32
REMARK    8  A    between atoms: C_32  and  C_33
REMARK    9  A    between atoms: C_33  and  S_34
REMARK                            x       y       z     vdW  Elec       q    Type
REMARK                         _______ _______ _______ _____ _____    ______ ____
ROOT
ATOM      1  C   UNL     1      -1.165  -0.364  -0.801  0.00  0.00    +0.000 C 
ATOM      2  C   UNL     1      -0.747  -1.720  -0.191  0.00  0.00    +0.000 C 
ATOM      3  C   UNL     1      -2.668  -0.277  -1.086  0.00  0.00    +0.002 C 
ATOM      4  C   UNL     1      -3.443  -0.465   0.259  0.00  0.00    +0.000 C 
ATOM      5  C   UNL     1      -5.003  -0.338   0.067  0.00  0.00    +0.002 C 
ATOM      6  C   UNL     1       0.780  -1.486  -0.092  0.00  0.00    +0.000 C 
ATOM      7  C   UNL     1      -5.329   1.028  -0.631  0.00  0.00    +0.029 C 
ATOM      8  C   UNL     1      -1.465  -1.868   1.158  0.00  0.00    +0.000 C 
ATOM      9  C   UNL     1      -2.993  -1.749   1.007  0.00  0.00    +0.000 C 
ATOM     10  C   UNL     1      -0.178  -0.169  -1.948  0.00  0.00    +0.000 C 
ATOM     11  C   UNL     1      -3.035   1.050  -1.760  0.00  0.00    +0.029 C 
ATOM     12  C   UNL     1       1.131  -0.791  -1.428  0.00  0.00    +0.000 C 
ATOM     13  C   UNL     1      -4.543   1.197  -1.949  0.00  0.00    +0.111 C 
ATOM     14  C   UNL     1      -5.774  -0.403   1.418  0.00  0.00    +0.003 C 
ATOM     15  C   UNL     1      -1.066  -2.944  -1.086  0.00  0.00    +0.000 C 
ATOM     16  C   UNL     1      -5.121   2.238   0.310  0.00  0.00    +0.032 C 
ATOM     17  C   UNL     1      -5.554  -1.504  -0.794  0.00  0.00    +0.000 C 
ATOM     18  C   UNL     1      -5.525   0.790   2.331  0.00  0.00    +0.029 C 
ATOM     19  C   UNL     1      -5.876   2.094   1.627  0.00  0.00    +0.111 C 
ENDROOT
BRANCH  13  20
ATOM     20  O   UNL     1      -4.800   2.471  -2.535  0.00  0.00    -0.384 OA
ATOM     21  H   UNL     1      -5.755   2.582  -2.662  0.00  0.00    +0.210 HD
ENDBRANCH  13  20
BRANCH  19  22
ATOM     22  O   UNL     1      -5.541   3.194   2.466  0.00  0.00    -0.384 OA
ATOM     23  H   UNL     1      -5.766   4.024   2.016  0.00  0.00    +0.210 HD
ENDBRANCH  19  22
BRANCH   6  24
ATOM     24  C   UNL     1       1.641  -2.710   0.183  0.00  0.00    +0.000 C 
ATOM     25  C   UNL     1       1.559  -3.087   1.667  0.00  0.00    +0.000 C 
BRANCH  24  26
ATOM     26  C   UNL     1       3.118  -2.501  -0.210  0.00  0.00    +0.010 C 
BRANCH  26  27
ATOM     27  C   UNL     1       3.806  -1.391   0.587  0.00  0.00    +0.085 C 
BRANCH  27  30
ATOM     28  O   UNL     1       5.837  -1.951  -0.607  0.00  0.00    -0.275 OA
ATOM     29  N   UNL     1       5.882  -0.240   0.965  0.00  0.00    -0.303 N 
ATOM     30  C   UNL     1       5.277  -1.250   0.232  0.00  0.00    +0.223 C 
ATOM     31  H   UNL     1       5.336   0.261   1.614  0.00  0.00    +0.149 HD
BRANCH  29  32
ATOM     32  C   UNL     1       7.276   0.114   0.821  0.00  0.00    +0.115 C 
BRANCH  32  33
ATOM     33  C   UNL     1       7.490   1.180  -0.235  0.00  0.00    +0.179 C 
BRANCH  33  34
ATOM     34  S   UNL     1       6.591   2.660   0.113  0.00  0.00    +0.024 S 
ATOM     35  O   UNL     1       7.221   3.576  -1.080  0.00  0.00    -0.069 OA
ATOM     36  O   UNL     1       7.032   3.188   1.391  0.00  0.00    -0.069 OA
ATOM     37  O   UNL     1       5.186   2.429  -0.170  0.00  0.00    -0.069 OA
ENDBRANCH  33  34
ENDBRANCH  32  33
ENDBRANCH  29  32
ENDBRANCH  27  30
ENDBRANCH  26  27
ENDBRANCH  24  26
ENDBRANCH   6  24
TORSDOF 9
