REMARK  Name = 119058382
REMARK  15 active torsions:
REMARK  status: ('A' for Active; 'I' for Inactive)
REMARK    1  A    between atoms: C_1  and  C_24
REMARK    2  A    between atoms: C_2  and  C_10
REMARK    3  A    between atoms: C_3  and  O_6
REMARK    4  A    between atoms: C_4  and  O_8
REMARK    5  A    between atoms: C_11  and  C_12
REMARK    6  A    between atoms: C_12  and  O_13
REMARK    7  A    between atoms: C_12  and  C_15
REMARK    8  A    between atoms: C_15  and  O_16
REMARK    9  A    between atoms: O_16  and  C_18
REMARK   10  A    between atoms: C_24  and  C_25
REMARK   11  A    between atoms: C_26  and  C_27
REMARK   12  A    between atoms: C_27  and  C_28
REMARK   13  A    between atoms: C_28  and  C_29
REMARK   14  A    between atoms: C_29  and  C_31
REMARK   15  A    between atoms: C_31  and  O_32
REMARK                            x       y       z     vdW  Elec       q    Type
REMARK                         _______ _______ _______ _____ _____    ______ ____
ROOT
ATOM      1  C   UNL     1      -3.482   0.618  -0.280  0.00  0.00    +0.038 C 
ATOM      2  C   UNL     1      -3.568  -0.872   0.099  0.00  0.00    +0.051 C 
ATOM      3  C   UNL     1      -4.934   1.084  -0.128  0.00  0.00    +0.114 C 
ATOM      4  C   UNL     1      -4.918  -1.324  -0.492  0.00  0.00    +0.117 C 
ATOM      5  C   UNL     1      -5.735  -0.051  -0.761  0.00  0.00    +0.059 C 
ENDROOT
BRANCH   3   6
ATOM      6  O   UNL     1      -5.317   1.202   1.237  0.00  0.00    -0.384 OA
ATOM      7  H   UNL     1      -4.815   1.920   1.653  0.00  0.00    +0.210 HD
ENDBRANCH   3   6
BRANCH   4   8
ATOM      8  O   UNL     1      -5.609  -2.144   0.443  0.00  0.00    -0.384 OA
ATOM      9  H   UNL     1      -5.093  -2.947   0.613  0.00  0.00    +0.210 HD
ENDBRANCH   4   8
BRANCH   2  10
ATOM     10  C   UNL     1      -2.422  -1.688  -0.409  0.00  0.00    -0.026 C 
ATOM     11  C   UNL     1      -1.605  -2.401   0.381  0.00  0.00    +0.002 C 
BRANCH  11  12
ATOM     12  C   UNL     1      -0.454  -3.220  -0.131  0.00  0.00    +0.176 C 
BRANCH  12  13
ATOM     13  O   UNL     1      -0.711  -4.581   0.204  0.00  0.00    -0.376 OA
ATOM     14  H   UNL     1      -1.550  -4.860  -0.196  0.00  0.00    +0.211 HD
ENDBRANCH  12  13
BRANCH  12  15
ATOM     15  C   UNL     1       0.867  -2.791   0.503  0.00  0.00    +0.239 C 
BRANCH  15  16
ATOM     16  O   UNL     1       1.364  -1.633  -0.152  0.00  0.00    -0.472 OA
BRANCH  16  18
ATOM     17  F   UNL     1       6.825  -0.981  -0.242  0.00  0.00    -0.204 F 
ATOM     18  C   UNL     1       2.725  -1.470  -0.174  0.00  0.00    +0.139 C 
ATOM     19  C   UNL     1       3.505  -1.976   0.866  0.00  0.00    +0.039 C 
ATOM     20  C   UNL     1       3.330  -0.800  -1.237  0.00  0.00    +0.039 C 
ATOM     21  C   UNL     1       4.890  -1.810   0.843  0.00  0.00    +0.033 C 
ATOM     22  C   UNL     1       4.715  -0.635  -1.260  0.00  0.00    +0.033 C 
ATOM     23  C   UNL     1       5.495  -1.140  -0.220  0.00  0.00    +0.140 C 
ENDBRANCH  16  18
ENDBRANCH  15  16
ENDBRANCH  12  15
ENDBRANCH  11  12
ENDBRANCH   2  10
BRANCH   1  24
ATOM     24  C   UNL     1      -2.487   1.399   0.569  0.00  0.00    +0.028 C 
BRANCH  24  25
ATOM     25  C   UNL     1      -2.375   2.874   0.297  0.00  0.00    -0.031 C 
ATOM     26  C   UNL     1      -1.515   3.482  -0.533  0.00  0.00    -0.031 C 
BRANCH  26  27
ATOM     27  C   UNL     1      -0.491   2.751  -1.352  0.00  0.00    +0.026 C 
BRANCH  27  28
ATOM     28  C   UNL     1       0.955   3.163  -1.043  0.00  0.00    +0.016 C 
BRANCH  28  29
ATOM     29  C   UNL     1       1.379   2.904   0.405  0.00  0.00    +0.110 C 
BRANCH  29  31
ATOM     30  O   UNL     1       3.600   3.758  -0.110  0.00  0.00    -0.250 OA
ATOM     31  C   UNL     1       2.814   3.285   0.698  0.00  0.00    +0.314 C 
BRANCH  31  32
ATOM     32  O   UNL     1       3.157   2.998   1.981  0.00  0.00    -0.480 OA
ATOM     33  H   UNL     1       2.522   2.636   2.567  0.00  0.00    +0.295 HD
ENDBRANCH  31  32
ENDBRANCH  29  31
ENDBRANCH  28  29
ENDBRANCH  27  28
ENDBRANCH  26  27
ENDBRANCH  24  25
ENDBRANCH   1  24
TORSDOF 15
