REMARK  Name = 11908605
REMARK  6 active torsions:
REMARK  status: ('A' for Active; 'I' for Inactive)
REMARK    1  A    between atoms: C_2  and  O_12
REMARK    2  A    between atoms: C_3  and  N_8
REMARK    3  A    between atoms: C_4  and  O_14
REMARK    4  A    between atoms: C_5  and  C_18
REMARK    5  A    between atoms: C_6  and  O_16
REMARK    6  A    between atoms: C_18  and  O_19
REMARK                            x       y       z     vdW  Elec       q    Type
REMARK                         _______ _______ _______ _____ _____    ______ ____
ROOT
ATOM      1  O   UNL     1      -1.194   1.197  -0.107  0.00  0.00    -0.327 OA
ATOM      2  C   UNL     1       0.155  -1.331  -0.451  0.00  0.00    +0.162 C 
ATOM      3  C   UNL     1       0.840   0.008  -0.749  0.00  0.00    +0.158 C 
ATOM      4  C   UNL     1      -1.024  -1.146   0.514  0.00  0.00    +0.169 C 
ATOM      5  C   UNL     1      -1.951  -0.007   0.065  0.00  0.00    +0.176 C 
ATOM      6  C   UNL     1      -0.197   1.081  -1.122  0.00  0.00    +0.253 C 
ENDROOT
BRANCH   3   8
ATOM      7  O   UNL     1       3.623  -0.629  -0.214  0.00  0.00    -0.275 OA
ATOM      8  N   UNL     1       1.638   0.428   0.386  0.00  0.00    -0.299 N 
ATOM      9  C   UNL     1       2.964   0.070   0.551  0.00  0.00    +0.223 C 
ATOM     10  C   UNL     1       3.561   0.661   1.800  0.00  0.00    +0.095 C 
ATOM     11  H   UNL     1       1.216   0.995   1.071  0.00  0.00    +0.150 HD
ENDBRANCH   3   8
BRANCH   2  12
ATOM     12  O   UNL     1      -0.282  -1.920  -1.678  0.00  0.00    -0.380 OA
ATOM     13  H   UNL     1       0.476  -2.028  -2.273  0.00  0.00    +0.211 HD
ENDBRANCH   2  12
BRANCH   4  14
ATOM     14  O   UNL     1      -1.729  -2.377   0.623  0.00  0.00    -0.379 OA
ATOM     15  H   UNL     1      -1.119  -3.075   0.907  0.00  0.00    +0.211 HD
ENDBRANCH   4  14
BRANCH   6  16
ATOM     16  O   UNL     1       0.471   2.324  -1.324  0.00  0.00    -0.359 OA
ATOM     17  H   UNL     1      -0.178   3.005  -1.560  0.00  0.00    +0.213 HD
ENDBRANCH   6  16
BRANCH   5  18
ATOM     18  C   UNL     1      -3.038   0.290   1.094  0.00  0.00    +0.169 C 
BRANCH  18  19
ATOM     19  O   UNL     1      -3.837   1.353   0.611  0.00  0.00    -0.379 OA
ATOM     20  H   UNL     1      -4.534   1.554   1.256  0.00  0.00    +0.211 HD
ENDBRANCH  18  19
ENDBRANCH   5  18
TORSDOF 6
