119051
  -OEChem-03292013323D

 35 36  0     1  0  0  0  0  0999 V2000
    1.9713   -0.2068   -1.0324 O   0  0  0  0  0  0  0  0  0  0  0  0
    4.4889    0.5785    0.5225 O   0  0  0  0  0  0  0  0  0  0  0  0
    1.8032   -3.0023   -1.1327 O   0  0  0  0  0  0  0  0  0  0  0  0
    0.1815    3.3574    0.0202 O   0  0  0  0  0  0  0  0  0  0  0  0
   -3.0117   -1.9045    0.8874 O   0  0  0  0  0  0  0  0  0  0  0  0
   -3.8840    1.2169   -0.1754 O   0  0  0  0  0  0  0  0  0  0  0  0
    0.1756    1.0320   -0.1863 N   0  0  0  0  0  0  0  0  0  0  0  0
   -1.8391    2.2770   -0.0778 N   0  0  0  0  0  0  0  0  0  0  0  0
    3.3751   -0.2378    0.8779 C   0  0  1  0  0  0  0  0  0  0  0  0
    1.6031    0.8995   -0.1966 C   0  0  1  0  0  0  0  0  0  0  0  0
    2.1807    0.6359    1.1844 C   0  0  0  0  0  0  0  0  0  0  0  0
    2.9141   -1.0402   -0.3307 C   0  0  1  0  0  0  0  0  0  0  0  0
    2.2033   -2.3320    0.0514 C   0  0  0  0  0  0  0  0  0  0  0  0
   -0.5967   -0.1179   -0.2891 C   0  0  0  0  0  0  0  0  0  0  0  0
   -0.4401    2.2970   -0.0745 C   0  0  0  0  0  0  0  0  0  0  0  0
   -1.9354   -0.1335   -0.2920 C   0  0  0  0  0  0  0  0  0  0  0  0
   -2.6571    1.1617   -0.1781 C   0  0  0  0  0  0  0  0  0  0  0  0
   -2.7479   -1.3834   -0.4036 C   0  0  0  0  0  0  0  0  0  0  0  0
   -3.7847   -3.0974    0.8253 C   0  0  0  0  0  0  0  0  0  0  0  0
    2.0564    1.7993   -0.6293 H   0  0  0  0  0  0  0  0  0  0  0  0
    3.6815   -0.8649    1.7205 H   0  0  0  0  0  0  0  0  0  0  0  0
    1.4701    0.0828    1.8105 H   0  0  0  0  0  0  0  0  0  0  0  0
    2.4284    1.5687    1.7006 H   0  0  0  0  0  0  0  0  0  0  0  0
    3.7331   -1.2517   -1.0270 H   0  0  0  0  0  0  0  0  0  0  0  0
    1.3264   -2.1694    0.6820 H   0  0  0  0  0  0  0  0  0  0  0  0
    2.8911   -2.9891    0.5944 H   0  0  0  0  0  0  0  0  0  0  0  0
   -0.0836   -1.0613   -0.3798 H   0  0  0  0  0  0  0  0  0  0  0  0
    4.7150    1.1165    1.3004 H   0  0  0  0  0  0  0  0  0  0  0  0
   -2.3045    3.1769    0.0015 H   0  0  0  0  0  0  0  0  0  0  0  0
    1.3656   -3.8270   -0.8609 H   0  0  0  0  0  0  0  0  0  0  0  0
   -2.1981   -2.1328   -0.9878 H   0  0  0  0  0  0  0  0  0  0  0  0
   -3.6880   -1.1926   -0.9349 H   0  0  0  0  0  0  0  0  0  0  0  0
   -4.7543   -2.9016    0.3575 H   0  0  0  0  0  0  0  0  0  0  0  0
   -3.9543   -3.4503    1.8460 H   0  0  0  0  0  0  0  0  0  0  0  0
   -3.2476   -3.8737    0.2718 H   0  0  0  0  0  0  0  0  0  0  0  0
  1 10  1  0  0  0  0
  1 12  1  0  0  0  0
  2  9  1  0  0  0  0
  2 28  1  0  0  0  0
  3 13  1  0  0  0  0
  3 30  1  0  0  0  0
  4 15  2  0  0  0  0
  5 18  1  0  0  0  0
  5 19  1  0  0  0  0
  6 17  2  0  0  0  0
  7 10  1  0  0  0  0
  7 14  1  0  0  0  0
  7 15  1  0  0  0  0
  8 15  1  0  0  0  0
  8 17  1  0  0  0  0
  8 29  1  0  0  0  0
  9 11  1  0  0  0  0
  9 12  1  0  0  0  0
  9 21  1  0  0  0  0
 10 11  1  0  0  0  0
 10 20  1  0  0  0  0
 11 22  1  0  0  0  0
 11 23  1  0  0  0  0
 12 13  1  0  0  0  0
 12 24  1  0  0  0  0
 13 25  1  0  0  0  0
 13 26  1  0  0  0  0
 14 16  2  0  0  0  0
 14 27  1  0  0  0  0
 16 17  1  0  0  0  0
 16 18  1  0  0  0  0
 18 31  1  0  0  0  0
 18 32  1  0  0  0  0
 19 33  1  0  0  0  0
 19 34  1  0  0  0  0
 19 35  1  0  0  0  0
M  END
> <PUBCHEM_COMPOUND_CID>
119051

> <PUBCHEM_CONFORMER_RMSD>
0.6

> <PUBCHEM_CONFORMER_DIVERSEORDER>
2
69
68
92
59
53
47
74
36
89
60
18
45
65
27
76
40
48
62
38
50
82
49
90
55
79
20
73
64
57
22
32
43
12
83
58
29
93
44
72
26
61
23
17
51
75
21
70
56
33
77
39
86
41
63
67
5
88
54
37
85
52
30
84
71
10
8
87
34
46
25
80
9
28
81
3
15
19
24
6
13
1
42
31
91
66
35
7
14
16
78
4
11

> <PUBCHEM_MMFF94_PARTIAL_CHARGES>
22
1 -0.56
10 0.58
12 0.28
13 0.28
14 -0.04
15 0.69
16 -0.12
17 0.62
18 0.42
19 0.28
2 -0.68
27 0.15
28 0.4
29 0.37
3 -0.68
30 0.4
4 -0.57
5 -0.56
6 -0.57
7 -0.47
8 -0.49
9 0.28

> <PUBCHEM_EFFECTIVE_ROTOR_COUNT>
5

> <PUBCHEM_PHARMACOPHORE_FEATURES>
11
1 1 acceptor
1 2 acceptor
1 2 donor
1 3 acceptor
1 3 donor
1 4 acceptor
1 5 acceptor
1 6 acceptor
1 8 donor
5 1 9 10 11 12 rings
6 7 8 14 15 16 17 rings

> <PUBCHEM_HEAVY_ATOM_COUNT>
19

> <PUBCHEM_ATOM_DEF_STEREO_COUNT>
3

> <PUBCHEM_ATOM_UDEF_STEREO_COUNT>
0

> <PUBCHEM_BOND_DEF_STEREO_COUNT>
0

> <PUBCHEM_BOND_UDEF_STEREO_COUNT>
0

> <PUBCHEM_ISOTOPIC_ATOM_COUNT>
0

> <PUBCHEM_COMPONENT_COUNT>
1

> <PUBCHEM_CACTVS_TAUTO_COUNT>
3

> <PUBCHEM_CONFORMER_ID>
0001D10B00000002

> <PUBCHEM_MMFF94_ENERGY>
47.6419

> <PUBCHEM_FEATURE_SELFOVERLAP>
55.829

> <PUBCHEM_SHAPE_FINGERPRINT>
10366900 7 18058713746014434080
10616163 171 18410572890124987078
10967382 1 18340201873735355428
12382932 28 18411413990655285114
12553582 1 18194412301645247175
12824470 246 17531230803563036811
13140716 1 18410851096531625304
14178342 30 18409443674381852034
14223421 5 18270675355870775646
14251705 54 18337676428850103883
14790565 3 17038679526654038117
15422964 175 18411140255278525511
16945 1 18338803295029597164
17804303 29 17910114603681283430
19049666 15 17912075050051369816
19591789 44 16751005532595534068
19784866 170 18342451539446355088
20645477 70 17631727162847944622
21197605 99 15812577916214926635
23402539 116 18187074058235989992
23557571 272 18342739568469442868
23559900 14 18339919299922243644
2748010 2 18343017783148835439
3312278 4 18409448072449507360
34934 24 18339350886211311189
5104073 3 18413099559687907056
58807428 26 17691127037551794913
5902787 121 18261385693459469809
7364860 26 18050567640384255489
81228 2 18266740190622585377
8809292 202 18266741277201565590
9709674 26 18269271262062908686

> <PUBCHEM_SHAPE_MULTIPOLES>
345.83
6.81
3.49
0.92
0.43
0.52
0.07
3.18
1.38
1.94
-0.01
-0.28
0.36
1.17

> <PUBCHEM_SHAPE_SELFOVERLAP>
718.759

> <PUBCHEM_SHAPE_VOLUME>
197.6

> <PUBCHEM_COORDINATE_TYPE>
2
5
10

$$$$
