REMARK  Name = 119167
REMARK  4 active torsions:
REMARK  status: ('A' for Active; 'I' for Inactive)
REMARK    1  A    between atoms: C_3  and  C_16
REMARK    2  A    between atoms: C_6  and  C_8
REMARK    3  A    between atoms: C_9  and  O_13
REMARK    4  A    between atoms: C_16  and  O_17
REMARK                            x       y       z     vdW  Elec       q    Type
REMARK                         _______ _______ _______ _____ _____    ______ ____
ROOT
ATOM      1  S   UNL     1      -0.705  -1.611   1.252  0.00  0.00    -0.091 S 
ATOM      2  N   UNL     1      -0.817   0.665   0.000  0.00  0.00    -0.255 NA
ATOM      3  C   UNL     1      -2.213   0.335   0.347  0.00  0.00    +0.184 C 
ATOM      4  C   UNL     1      -2.245  -0.696   1.472  0.00  0.00    +0.097 C 
ATOM      5  C   UNL     1      -2.928   1.622   0.753  0.00  0.00    +0.037 C 
ATOM      6  C   UNL     1      -0.002  -0.265   0.381  0.00  0.00    +0.122 C 
ENDROOT
BRANCH   6   8
ATOM      7  N   UNL     1       2.068  -1.408  -0.029  0.00  0.00    -0.239 NA
ATOM      8  C   UNL     1       1.456  -0.207   0.116  0.00  0.00    +0.138 C 
ATOM      9  C   UNL     1       2.126   1.008   0.025  0.00  0.00    +0.153 C 
ATOM     10  C   UNL     1       3.493   0.989  -0.228  0.00  0.00    +0.040 C 
ATOM     11  C   UNL     1       3.398  -1.387  -0.273  0.00  0.00    +0.099 C 
ATOM     12  C   UNL     1       4.149  -0.228  -0.381  0.00  0.00    +0.024 C 
BRANCH   9  13
ATOM     13  O   UNL     1       1.477   2.192   0.174  0.00  0.00    -0.504 OA
ATOM     14  H   UNL     1       0.556   2.203   0.344  0.00  0.00    +0.292 HD
ENDBRANCH   9  13
ENDBRANCH   6   8
BRANCH   3  16
ATOM     15  O   UNL     1      -2.272  -0.302  -1.991  0.00  0.00    -0.248 OA
ATOM     16  C   UNL     1      -2.844  -0.189  -0.917  0.00  0.00    +0.335 C 
BRANCH  16  17
ATOM     17  O   UNL     1      -4.141  -0.518  -0.703  0.00  0.00    -0.479 OA
ATOM     18  H   UNL     1      -4.519  -0.407   0.147  0.00  0.00    +0.295 HD
ENDBRANCH  16  17
ENDBRANCH   3  16
TORSDOF 4
