REMARK  Name = 119163
REMARK  5 active torsions:
REMARK  status: ('A' for Active; 'I' for Inactive)
REMARK    1  A    between atoms: C_1  and  N_4
REMARK    2  A    between atoms: C_1  and  C_12
REMARK    3  A    between atoms: N_11  and  C_14
REMARK    4  A    between atoms: C_14  and  C_15
REMARK    5  A    between atoms: C_15  and  O_16
REMARK                            x       y       z     vdW  Elec       q    Type
REMARK                         _______ _______ _______ _____ _____    ______ ____
ROOT
ATOM      1  C   UNL     1       0.318  -0.004   1.119  0.00  0.00    +0.198 C 
ENDROOT
BRANCH   1   4
ATOM      2  O   UNL     1      -5.130  -0.434  -0.703  0.00  0.00    -0.115 OA
ATOM      3  O   UNL     1      -4.453   1.493   0.100  0.00  0.00    -0.115 OA
ATOM      4  N   UNL     1      -0.989  -0.388   0.594  0.00  0.00    -0.189 N 
ATOM      5  N   UNL     1      -1.984   0.497   0.558  0.00  0.00    -0.104 NA
ATOM      6  N   UNL     1      -2.609  -1.545  -0.263  0.00  0.00    -0.176 NA
ATOM      7  N   UNL     1      -4.218   0.285  -0.199  0.00  0.00    +0.124 N 
ATOM      8  C   UNL     1      -1.352  -1.594   0.112  0.00  0.00    +0.250 C 
ATOM      9  C   UNL     1      -2.951  -0.255   0.028  0.00  0.00    +0.197 C 
ENDBRANCH   1   4
BRANCH   1  12
ATOM     10  O   UNL     1       0.916   0.662  -1.128  0.00  0.00    -0.273 OA
ATOM     11  N   UNL     1       2.477   0.885   0.578  0.00  0.00    -0.301 N 
ATOM     12  C   UNL     1       1.241   0.543   0.051  0.00  0.00    +0.244 C 
ATOM     13  H   UNL     1       2.633   0.748   1.540  0.00  0.00    +0.150 HD
BRANCH  11  14
ATOM     14  C   UNL     1       3.546   1.435  -0.224  0.00  0.00    +0.122 C 
BRANCH  14  15
ATOM     15  C   UNL     1       4.402   0.308  -0.772  0.00  0.00    +0.163 C 
BRANCH  15  16
ATOM     16  O   UNL     1       4.983  -0.413   0.307  0.00  0.00    -0.349 OA
ATOM     17  C   UNL     1       5.801  -1.478  -0.157  0.00  0.00    +0.174 C 
ENDBRANCH  15  16
ENDBRANCH  14  15
ENDBRANCH  11  14
ENDBRANCH   1  12
TORSDOF 5
