REMARK  Name = 119182
REMARK  4 active torsions:
REMARK  status: ('A' for Active; 'I' for Inactive)
REMARK    1  A    between atoms: N_2  and  C_13
REMARK    2  A    between atoms: C_14  and  O_17
REMARK    3  A    between atoms: C_16  and  C_19
REMARK    4  A    between atoms: C_19  and  O_20
REMARK                            x       y       z     vdW  Elec       q    Type
REMARK                         _______ _______ _______ _____ _____    ______ ____
ROOT
ATOM      1 CL   UNL     1       1.731   3.376   0.373  0.00  0.00    +0.024 Cl
ATOM      2  N   UNL     1       0.083  -1.311  -0.360  0.00  0.00    -0.236 N 
ATOM      3  N   UNL     1       2.091  -2.290  -0.311  0.00  0.00    -0.240 NA
ATOM      4  N   UNL     1       0.745   1.001  -0.013  0.00  0.00    -0.314 NA
ATOM      5  N   UNL     1       3.166   1.210   0.220  0.00  0.00    -0.314 NA
ATOM      6  C   UNL     1       0.994  -0.309  -0.156  0.00  0.00    +0.221 C 
ATOM      7  C   UNL     1       0.795  -2.482  -0.445  0.00  0.00    +0.224 C 
ATOM      8  C   UNL     1       2.229  -0.936  -0.130  0.00  0.00    +0.167 C 
ATOM      9  C   UNL     1       3.342  -0.125   0.067  0.00  0.00    +0.212 C 
ATOM     10  C   UNL     1       1.897   1.683   0.172  0.00  0.00    +0.207 C 
ATOM     11  N   UNL     1       4.635  -0.676   0.108  0.00  0.00    -0.331 N 
ATOM     12  H   UNL     1       5.414  -0.091   0.248  0.00  0.00    +0.145 HD
ATOM     13  H   UNL     1       4.760  -1.646  -0.004  0.00  0.00    +0.145 HD
ENDROOT
BRANCH   2  16
ATOM     14  F   UNL     1      -1.399  -0.547   1.814  0.00  0.00    -0.230 F 
ATOM     15  O   UNL     1      -1.705   0.070  -1.103  0.00  0.00    -0.333 OA
ATOM     16  C   UNL     1      -1.365  -1.173  -0.465  0.00  0.00    +0.231 C 
ATOM     17  C   UNL     1      -3.355  -0.410   0.556  0.00  0.00    +0.177 C 
ATOM     18  C   UNL     1      -2.109  -1.206   0.861  0.00  0.00    +0.236 C 
ATOM     19  C   UNL     1      -2.880   0.616  -0.469  0.00  0.00    +0.176 C 
BRANCH  17  20
ATOM     20  O   UNL     1      -4.342  -1.261  -0.017  0.00  0.00    -0.379 OA
ATOM     21  H   UNL     1      -4.635  -1.908   0.644  0.00  0.00    +0.211 HD
ENDBRANCH  17  20
BRANCH  19  22
ATOM     22  C   UNL     1      -2.493   1.947   0.161  0.00  0.00    +0.169 C 
BRANCH  22  23
ATOM     23  O   UNL     1      -2.058   2.825  -0.862  0.00  0.00    -0.379 OA
ATOM     24  H   UNL     1      -1.809   3.677  -0.473  0.00  0.00    +0.211 HD
ENDBRANCH  22  23
ENDBRANCH  19  22
ENDBRANCH   2  16
TORSDOF 4
