REMARK  Name = 119184
REMARK  5 active torsions:
REMARK  status: ('A' for Active; 'I' for Inactive)
REMARK    1  A    between atoms: C_2  and  C_19
REMARK    2  A    between atoms: C_3  and  O_16
REMARK    3  A    between atoms: C_4  and  N_7
REMARK    4  A    between atoms: C_5  and  C_20
REMARK    5  A    between atoms: C_20  and  O_21
REMARK                            x       y       z     vdW  Elec       q    Type
REMARK                         _______ _______ _______ _____ _____    ______ ____
ROOT
ATOM      1  O   UNL     1       1.301  -0.386  -1.160  0.00  0.00    -0.333 OA
ATOM      2  C   UNL     1       1.264   1.139   0.671  0.00  0.00    +0.168 C 
ATOM      3  C   UNL     1       2.715   0.873   0.300  0.00  0.00    +0.158 C 
ATOM      4  C   UNL     1       0.535   0.684  -0.592  0.00  0.00    +0.223 C 
ATOM      5  C   UNL     1       2.653  -0.306  -0.671  0.00  0.00    +0.174 C 
ENDROOT
BRANCH   4   7
ATOM      6  O   UNL     1      -1.736   2.325  -0.846  0.00  0.00    -0.193 OA
ATOM      7  N   UNL     1      -0.819   0.256  -0.395  0.00  0.00    -0.179 N 
ATOM      8  N   UNL     1      -3.193   0.661  -0.338  0.00  0.00    -0.306 NA
ATOM      9  N   UNL     1      -4.681  -1.049   0.186  0.00  0.00    -0.332 N 
ATOM     10  C   UNL     1      -1.052  -1.065  -0.052  0.00  0.00    +0.083 C 
ATOM     11  C   UNL     1      -1.912   1.143  -0.542  0.00  0.00    +0.275 C 
ATOM     12  C   UNL     1      -2.276  -1.548   0.151  0.00  0.00    +0.065 C 
ATOM     13  C   UNL     1      -3.399  -0.589  -0.013  0.00  0.00    +0.193 C 
ATOM     14  H   UNL     1      -5.445  -0.436   0.084  0.00  0.00    +0.145 HD
ATOM     15  H   UNL     1      -4.833  -1.990   0.430  0.00  0.00    +0.145 HD
ENDBRANCH   4   7
BRANCH   3  16
ATOM     16  O   UNL     1       3.244   2.018  -0.373  0.00  0.00    -0.381 OA
ATOM     17  H   UNL     1       3.283   2.766   0.244  0.00  0.00    +0.210 HD
ENDBRANCH   3  16
BRANCH   2  19
ATOM     18  N   UNL     1       0.586  -0.226   2.819  0.00  0.00    -0.196 NA
ATOM     19  C   UNL     1       0.884   0.375   1.873  0.00  0.00    +0.079 C 
ENDBRANCH   2  19
BRANCH   5  20
ATOM     20  C   UNL     1       2.991  -1.640  -0.020  0.00  0.00    +0.169 C 
BRANCH  20  21
ATOM     21  O   UNL     1       2.895  -2.664  -0.997  0.00  0.00    -0.379 OA
ATOM     22  H   UNL     1       3.109  -3.519  -0.591  0.00  0.00    +0.211 HD
ENDBRANCH  20  21
ENDBRANCH   5  20
TORSDOF 5
