119163
  -OEChem-03292013323D

 27 27  0     0  0  0  0  0  0999 V2000
    4.9827   -0.4126    0.3073 O   0  0  0  0  0  0  0  0  0  0  0  0
    0.9163    0.6625   -1.1278 O   0  0  0  0  0  0  0  0  0  0  0  0
   -5.1305   -0.4337   -0.7031 O   0  5  0  0  0  0  0  0  0  0  0  0
   -4.4526    1.4934    0.1004 O   0  0  0  0  0  0  0  0  0  0  0  0
    2.4774    0.8855    0.5777 N   0  0  0  0  0  0  0  0  0  0  0  0
   -0.9889   -0.3883    0.5942 N   0  0  0  0  0  0  0  0  0  0  0  0
   -1.9837    0.4968    0.5581 N   0  0  0  0  0  0  0  0  0  0  0  0
   -2.6090   -1.5446   -0.2631 N   0  0  0  0  0  0  0  0  0  0  0  0
   -4.2177    0.2853   -0.1989 N   0  3  0  0  0  0  0  0  0  0  0  0
    0.3178   -0.0039    1.1186 C   0  0  0  0  0  0  0  0  0  0  0  0
    3.5464    1.4351   -0.2238 C   0  0  0  0  0  0  0  0  0  0  0  0
    1.2408    0.5428    0.0506 C   0  0  0  0  0  0  0  0  0  0  0  0
    4.4024    0.3081   -0.7724 C   0  0  0  0  0  0  0  0  0  0  0  0
   -1.3516   -1.5941    0.1115 C   0  0  0  0  0  0  0  0  0  0  0  0
   -2.9507   -0.2549    0.0278 C   0  0  0  0  0  0  0  0  0  0  0  0
    5.8008   -1.4775   -0.1571 C   0  0  0  0  0  0  0  0  0  0  0  0
    0.1566    0.7491    1.8978 H   0  0  0  0  0  0  0  0  0  0  0  0
    0.7639   -0.8955    1.5726 H   0  0  0  0  0  0  0  0  0  0  0  0
    4.1337    2.0832    0.4343 H   0  0  0  0  0  0  0  0  0  0  0  0
    3.1267    2.0337   -1.0383 H   0  0  0  0  0  0  0  0  0  0  0  0
    2.6534    0.7396    1.5677 H   0  0  0  0  0  0  0  0  0  0  0  0
    5.1975    0.7285   -1.3988 H   0  0  0  0  0  0  0  0  0  0  0  0
    3.7966   -0.3724   -1.3828 H   0  0  0  0  0  0  0  0  0  0  0  0
   -0.6950   -2.4504    0.0506 H   0  0  0  0  0  0  0  0  0  0  0  0
    5.2078   -2.1930   -0.7348 H   0  0  0  0  0  0  0  0  0  0  0  0
    6.2201   -1.9930    0.7110 H   0  0  0  0  0  0  0  0  0  0  0  0
    6.6246   -1.0917   -0.7655 H   0  0  0  0  0  0  0  0  0  0  0  0
  1 13  1  0  0  0  0
  1 16  1  0  0  0  0
  2 12  2  0  0  0  0
  3  9  1  0  0  0  0
  4  9  2  0  0  0  0
  5 11  1  0  0  0  0
  5 12  1  0  0  0  0
  5 21  1  0  0  0  0
  6  7  1  0  0  0  0
  6 10  1  0  0  0  0
  6 14  1  0  0  0  0
  7 15  2  0  0  0  0
  8 14  2  0  0  0  0
  8 15  1  0  0  0  0
  9 15  1  0  0  0  0
 10 12  1  0  0  0  0
 10 17  1  0  0  0  0
 10 18  1  0  0  0  0
 11 13  1  0  0  0  0
 11 19  1  0  0  0  0
 11 20  1  0  0  0  0
 13 22  1  0  0  0  0
 13 23  1  0  0  0  0
 14 24  1  0  0  0  0
 16 25  1  0  0  0  0
 16 26  1  0  0  0  0
 16 27  1  0  0  0  0
M  CHG  2   3  -1   9   1
M  END
> <PUBCHEM_COMPOUND_CID>
119163

> <PUBCHEM_CONFORMER_RMSD>
0.8

> <PUBCHEM_CONFORMER_DIVERSEORDER>
1
102
30
34
50
97
87
94
75
95
78
107
105
42
15
13
26
32
18
19
66
114
89
64
25
67
20
5
104
113
24
17
91
27
79
88
51
35
100
39
49
69
43
63
28
109
92
56
110
112
55
29
44
22
9
108
76
59
46
57
47
58
103
106
52
14
74
40
21
8
77
96
80
99
62
3
11
72
31
84
7
115
6
41
36
93
37
85
65
73
90
61
12
48
81
82
111
68
60
16
101
10
98
38
45
83
86
4
53
54
33
70
2
71
23

> <PUBCHEM_MMFF94_PARTIAL_CHARGES>
18
1 -0.56
10 0.32
11 0.3
12 0.57
13 0.28
14 0.04
15 0.6
16 0.28
2 -0.57
21 0.37
24 0.15
3 -0.52
4 -0.52
5 -0.73
6 0.31
7 -0.71
8 -0.57
9 0.96

> <PUBCHEM_EFFECTIVE_ROTOR_COUNT>
7

> <PUBCHEM_PHARMACOPHORE_FEATURES>
7
1 1 acceptor
1 2 acceptor
1 3 acceptor
1 4 acceptor
1 5 donor
4 7 8 9 15 cation
5 6 7 8 14 15 rings

> <PUBCHEM_HEAVY_ATOM_COUNT>
16

> <PUBCHEM_ATOM_DEF_STEREO_COUNT>
0

> <PUBCHEM_ATOM_UDEF_STEREO_COUNT>
0

> <PUBCHEM_BOND_DEF_STEREO_COUNT>
0

> <PUBCHEM_BOND_UDEF_STEREO_COUNT>
0

> <PUBCHEM_ISOTOPIC_ATOM_COUNT>
0

> <PUBCHEM_COMPONENT_COUNT>
1

> <PUBCHEM_CACTVS_TAUTO_COUNT>
2

> <PUBCHEM_CONFORMER_ID>
0001D17B00000001

> <PUBCHEM_MMFF94_ENERGY>
23.4936

> <PUBCHEM_FEATURE_SELFOVERLAP>
35.604

> <PUBCHEM_SHAPE_FINGERPRINT>
11401426 45 15052016757942375841
11806522 49 11384110847346772040
11858739 19 18059859424788831422
124424 183 17989490744492227864
12555020 224 18413103961423366455
13237642 15 10087639303951950094
13897977 58 10809344438129997146
14123238 8 10737285753333828304
14787075 74 10231746791125226318
15531645 54 18335702706767422500
17834072 8 18113899351419825590
18186145 218 16153705483572083100
19489759 90 17346601837539736272
200 152 15052021164705383129
20279233 1 16773805817758317276
20645477 70 18412548717432188030
21119208 17 18335138717199845872
21354914 88 18412546488338776062
21652331 79 8574712386680684406
22485316 2 18340769334158694440
23218964 4 18334857186668031220
23272321 79 9367336042593742818
23402539 116 18131630063086994609
23559900 14 18272086149891370168
300161 21 18336827593626550484
3004659 81 18335141973813801798
32948 21 18408888429990325068
449060 50 8574717892675348616
5207 123 18269562646230758878
559249 180 18341328916320224718
58051976 100 18334857242502937422
633830 44 17313664962023765856
9971528 1 18187081793514788492

> <PUBCHEM_SHAPE_MULTIPOLES>
280.89
11.96
1.45
0.86
5.12
0.25
-0.01
1.43
2.12
0.37
0.06
0.14
-0.05
-0.22

> <PUBCHEM_SHAPE_SELFOVERLAP>
564.092

> <PUBCHEM_SHAPE_VOLUME>
166.1

> <PUBCHEM_COORDINATE_TYPE>
2
5
10

$$$$
