REMARK  Name = 119255
REMARK  5 active torsions:
REMARK  status: ('A' for Active; 'I' for Inactive)
REMARK    1  A    between atoms: C_3  and  C_18
REMARK    2  A    between atoms: C_4  and  O_24
REMARK    3  A    between atoms: C_5  and  O_26
REMARK    4  A    between atoms: C_13  and  O_28
REMARK    5  A    between atoms: C_15  and  O_30
REMARK                            x       y       z     vdW  Elec       q    Type
REMARK                         _______ _______ _______ _____ _____    ______ ____
ROOT
ATOM      1  O   UNL     1       1.433  -2.399   0.243  0.00  0.00    -0.286 OA
ATOM      2  O   UNL     1       2.105   2.878  -0.263  0.00  0.00    -0.287 OA
ATOM      3  C   UNL     1      -1.984   0.013  -0.013  0.00  0.00    +0.072 C 
ATOM      4  C   UNL     1      -0.875  -0.829   0.076  0.00  0.00    +0.138 C 
ATOM      5  C   UNL     1      -1.808   1.389  -0.144  0.00  0.00    +0.135 C 
ATOM      6  C   UNL     1       0.417  -0.291   0.032  0.00  0.00    +0.076 C 
ATOM      7  C   UNL     1       0.593   1.088  -0.100  0.00  0.00    +0.048 C 
ATOM      8  C   UNL     1      -0.523   1.929  -0.189  0.00  0.00    +0.040 C 
ATOM      9  C   UNL     1       1.585  -1.190   0.126  0.00  0.00    +0.202 C 
ATOM     10  C   UNL     1       1.950   1.669  -0.147  0.00  0.00    +0.196 C 
ATOM     11  C   UNL     1       2.942  -0.609   0.079  0.00  0.00    +0.076 C 
ATOM     12  C   UNL     1       3.119   0.770  -0.053  0.00  0.00    +0.048 C 
ATOM     13  C   UNL     1       4.058  -1.450   0.169  0.00  0.00    +0.140 C 
ATOM     14  C   UNL     1       4.411   1.308  -0.096  0.00  0.00    +0.040 C 
ATOM     15  C   UNL     1       5.520   0.466  -0.006  0.00  0.00    +0.137 C 
ATOM     16  C   UNL     1       5.344  -0.910   0.126  0.00  0.00    +0.073 C 
ENDROOT
BRANCH   3  18
ATOM     17  O   UNL     1      -4.251   0.382   0.674  0.00  0.00    -0.354 OA
ATOM     18  C   UNL     1      -3.382  -0.562   0.034  0.00  0.00    +0.143 C 
ATOM     19  C   UNL     1      -3.897  -0.896  -1.371  0.00  0.00    +0.034 C 
ATOM     20  C   UNL     1      -5.337  -1.396  -1.309  0.00  0.00    +0.005 C 
ATOM     21  C   UNL     1      -6.208  -0.422  -0.522  0.00  0.00    +0.030 C 
ATOM     22  C   UNL     1      -5.581  -0.119   0.841  0.00  0.00    +0.116 C 
ATOM     23  C   UNL     1      -6.383   0.936   1.589  0.00  0.00    +0.032 C 
ENDBRANCH   3  18
BRANCH   4  24
ATOM     24  O   UNL     1      -1.101  -2.169   0.205  0.00  0.00    -0.506 OA
ATOM     25  H   UNL     1      -1.979  -2.495   0.231  0.00  0.00    +0.292 HD
ENDBRANCH   4  24
BRANCH   5  26
ATOM     26  O   UNL     1      -2.881   2.225  -0.231  0.00  0.00    -0.506 OA
ATOM     27  H   UNL     1      -3.751   1.876  -0.203  0.00  0.00    +0.292 HD
ENDBRANCH   5  26
BRANCH  13  28
ATOM     28  O   UNL     1       3.960  -2.804   0.298  0.00  0.00    -0.505 OA
ATOM     29  H   UNL     1       3.117  -3.212   0.332  0.00  0.00    +0.292 HD
ENDBRANCH  13  28
BRANCH  15  30
ATOM     30  O   UNL     1       6.776   0.990  -0.049  0.00  0.00    -0.505 OA
ATOM     31  H   UNL     1       6.894   1.915  -0.137  0.00  0.00    +0.292 HD
ENDBRANCH  15  30
TORSDOF 5
