119283
  -OEChem-03292013323D

 25 25  0     0  0  0  0  0  0999 V2000
    5.4591   -0.2909   -0.0149 O   0  5  0  0  0  0  0  0  0  0  0  0
    4.1372   -2.0429    0.0294 O   0  0  0  0  0  0  0  0  0  0  0  0
   -4.9869    0.0842   -0.6412 O   0  0  0  0  0  0  0  0  0  0  0  0
   -2.7430   -1.8745    1.3151 O   0  0  0  0  0  0  0  0  0  0  0  0
   -4.1503    1.9228    0.4584 O   0  0  0  0  0  0  0  0  0  0  0  0
   -2.7403   -2.1508   -0.9636 O   0  0  0  0  0  0  0  0  0  0  0  0
   -0.5174   -0.1981    0.0010 N   0  0  0  0  0  0  0  0  0  0  0  0
    4.3128   -0.8010    0.0006 N   0  3  0  0  0  0  0  0  0  0  0  0
   -1.5995    0.6032   -0.0187 N   0  0  0  0  0  0  0  0  0  0  0  0
    0.7759    0.3488   -0.0144 C   0  0  0  0  0  0  0  0  0  0  0  0
    1.8945   -0.4894    0.0013 C   0  0  0  0  0  0  0  0  0  0  0  0
    3.1791    0.0542   -0.0143 C   0  0  0  0  0  0  0  0  0  0  0  0
    0.9528    1.7351   -0.0459 C   0  0  0  0  0  0  0  0  0  0  0  0
    3.3503    1.4382   -0.0458 C   0  0  0  0  0  0  0  0  0  0  0  0
    2.2372    2.2786   -0.0615 C   0  0  0  0  0  0  0  0  0  0  0  0
   -2.7655    0.0359   -0.0028 C   0  0  0  0  0  0  0  0  0  0  0  0
   -4.0495    0.8132   -0.0217 C   0  0  0  0  0  0  0  0  0  0  0  0
   -2.7464   -1.4666    0.0390 C   0  0  0  0  0  0  0  0  0  0  0  0
    1.7377   -1.5659    0.0256 H   0  0  0  0  0  0  0  0  0  0  0  0
    0.1094    2.4205   -0.0588 H   0  0  0  0  0  0  0  0  0  0  0  0
    4.3356    1.8972   -0.0590 H   0  0  0  0  0  0  0  0  0  0  0  0
    2.3706    3.3562   -0.0860 H   0  0  0  0  0  0  0  0  0  0  0  0
   -0.5780   -1.2084    0.0245 H   0  0  0  0  0  0  0  0  0  0  0  0
   -5.8500    0.5482   -0.6854 H   0  0  0  0  0  0  0  0  0  0  0  0
   -2.7317   -2.8523    1.3927 H   0  0  0  0  0  0  0  0  0  0  0  0
  1  8  1  0  0  0  0
  2  8  2  0  0  0  0
  3 17  1  0  0  0  0
  3 24  1  0  0  0  0
  4 18  1  0  0  0  0
  4 25  1  0  0  0  0
  5 17  2  0  0  0  0
  6 18  2  0  0  0  0
  7  9  1  0  0  0  0
  7 10  1  0  0  0  0
  7 23  1  0  0  0  0
  8 12  1  0  0  0  0
  9 16  2  0  0  0  0
 10 11  2  0  0  0  0
 10 13  1  0  0  0  0
 11 12  1  0  0  0  0
 11 19  1  0  0  0  0
 12 14  2  0  0  0  0
 13 15  2  0  0  0  0
 13 20  1  0  0  0  0
 14 15  1  0  0  0  0
 14 21  1  0  0  0  0
 15 22  1  0  0  0  0
 16 17  1  0  0  0  0
 16 18  1  0  0  0  0
M  CHG  2   1  -1   8   1
M  END
> <PUBCHEM_COMPOUND_CID>
119283

> <PUBCHEM_CONFORMER_RMSD>
0.6

> <PUBCHEM_CONFORMER_DIVERSEORDER>
1
21
20
25
24
3
12
22
17
9
14
6
15
7
4
11
10
18
23
26
8
19
13
5
16
2

> <PUBCHEM_MMFF94_PARTIAL_CHARGES>
25
1 -0.52
10 0.1
11 -0.15
12 0.13
13 -0.15
14 -0.15
15 -0.15
16 0.45
17 0.72
18 0.72
19 0.15
2 -0.52
20 0.15
21 0.15
22 0.15
23 0.4
24 0.5
25 0.5
3 -0.65
4 -0.65
5 -0.57
6 -0.57
7 -0.46
8 0.91
9 -0.49

> <PUBCHEM_EFFECTIVE_ROTOR_COUNT>
5

> <PUBCHEM_PHARMACOPHORE_FEATURES>
13
1 1 acceptor
1 1 anion
1 16 anion
1 2 acceptor
1 3 acceptor
1 4 acceptor
1 5 acceptor
1 6 acceptor
1 7 donor
1 9 acceptor
3 3 5 17 anion
3 4 6 18 anion
6 10 11 12 13 14 15 rings

> <PUBCHEM_HEAVY_ATOM_COUNT>
18

> <PUBCHEM_ATOM_DEF_STEREO_COUNT>
0

> <PUBCHEM_ATOM_UDEF_STEREO_COUNT>
0

> <PUBCHEM_BOND_DEF_STEREO_COUNT>
0

> <PUBCHEM_BOND_UDEF_STEREO_COUNT>
0

> <PUBCHEM_ISOTOPIC_ATOM_COUNT>
0

> <PUBCHEM_COMPONENT_COUNT>
1

> <PUBCHEM_CACTVS_TAUTO_COUNT>
1

> <PUBCHEM_CONFORMER_ID>
0001D1F300000001

> <PUBCHEM_MMFF94_ENERGY>
58.4269

> <PUBCHEM_FEATURE_SELFOVERLAP>
66.782

> <PUBCHEM_SHAPE_FINGERPRINT>
11405975 8 18410294735004911856
11471102 20 18409445899502257620
124424 183 18343021099143337841
12555020 224 18410564073000279487
13167823 11 18411697720405592534
13296908 3 18337674225336195449
13583140 156 17273684549947062872
14252887 29 17917437510600583334
14289901 80 18197214969268027145
14965852 173 18410855499062565773
15196674 1 18338234967913848924
15442244 35 18411700980417762336
17492 89 18266458891597258355
18186145 218 17385715941506180776
19141452 34 18411981351582252575
200 152 17988921176062774989
20279233 1 17775574143032436615
20281475 54 18335139825507208180
20645477 70 18343019999636991702
20681651 13 17630893909222980579
21065198 57 18409731802347468929
21267235 1 18410863169937433927
221490 88 18263088880199791840
22485316 2 18411698790295313930
23402539 116 18131062715567090909
23402655 69 18410295834880627204
23559900 14 18412258471815890824
23622692 118 18058436780895893847
335352 9 18338798918367966212
4214541 1 18411136939785150021
4921388 177 16588314937635187955
5104073 3 18410012182091695688
559249 180 18339074887397095531
58051976 100 18410009965988836119
633830 44 17458344182036914840
77779 3 18409168852304311797
8809292 202 18261115179180931961
9709674 26 18190462855640600155
9981440 41 17472695205451024768

> <PUBCHEM_SHAPE_MULTIPOLES>
320.27
10.44
2.21
0.72
0.57
0.06
-0.05
1.31
0.3
0
-0.07
-0.46
0.19
-0.13

> <PUBCHEM_SHAPE_SELFOVERLAP>
673.713

> <PUBCHEM_SHAPE_VOLUME>
179.1

> <PUBCHEM_COORDINATE_TYPE>
2
5
10

$$$$
