REMARK  Name = 119283
REMARK  7 active torsions:
REMARK  status: ('A' for Active; 'I' for Inactive)
REMARK    1  A    between atoms: N_1  and  C_3
REMARK    2  A    between atoms: N_1  and  N_12
REMARK    3  A    between atoms: C_5  and  N_11
REMARK    4  A    between atoms: C_13  and  C_15
REMARK    5  A    between atoms: C_13  and  C_19
REMARK    6  A    between atoms: C_15  and  O_16
REMARK    7  A    between atoms: C_19  and  O_20
REMARK                            x       y       z     vdW  Elec       q    Type
REMARK                         _______ _______ _______ _____ _____    ______ ____
ROOT
ATOM      1  N   UNL     1      -0.517  -0.198   0.001  0.00  0.00    -0.236 N 
ATOM      2  H   UNL     1      -0.634  -1.175   0.026  0.00  0.00    +0.174 HD
ENDROOT
BRANCH   1   3
ATOM      3  C   UNL     1       0.776   0.349  -0.014  0.00  0.00    +0.067 C 
ATOM      4  C   UNL     1       1.895  -0.489   0.001  0.00  0.00    +0.040 C 
ATOM      5  C   UNL     1       3.179   0.054  -0.014  0.00  0.00    +0.144 C 
ATOM      6  C   UNL     1       0.953   1.735  -0.046  0.00  0.00    +0.016 C 
ATOM      7  C   UNL     1       3.350   1.438  -0.046  0.00  0.00    +0.024 C 
ATOM      8  C   UNL     1       2.237   2.279  -0.061  0.00  0.00    +0.003 C 
BRANCH   5  11
ATOM      9  O   UNL     1       5.459  -0.291  -0.015  0.00  0.00    -0.126 OA
ATOM     10  O   UNL     1       4.137  -2.043   0.029  0.00  0.00    -0.126 OA
ATOM     11  N   UNL     1       4.313  -0.801   0.001  0.00  0.00    +0.058 N 
ENDBRANCH   5  11
ENDBRANCH   1   3
BRANCH   1  12
ATOM     12  N   UNL     1      -1.599   0.603  -0.019  0.00  0.00    -0.168 NA
ATOM     13  C   UNL     1      -2.765   0.036  -0.003  0.00  0.00    +0.248 C 
BRANCH  13  15
ATOM     14  O   UNL     1      -4.150   1.923   0.458  0.00  0.00    -0.243 OA
ATOM     15  C   UNL     1      -4.050   0.813  -0.022  0.00  0.00    +0.364 C 
BRANCH  15  16
ATOM     16  O   UNL     1      -4.987   0.084  -0.641  0.00  0.00    -0.476 OA
ATOM     17  H   UNL     1      -4.777  -0.768  -0.970  0.00  0.00    +0.295 HD
ENDBRANCH  15  16
ENDBRANCH  13  15
BRANCH  13  19
ATOM     18  O   UNL     1      -2.740  -2.151  -0.964  0.00  0.00    -0.243 OA
ATOM     19  C   UNL     1      -2.746  -1.467   0.039  0.00  0.00    +0.364 C 
BRANCH  19  20
ATOM     20  O   UNL     1      -2.743  -1.875   1.315  0.00  0.00    -0.476 OA
ATOM     21  H   UNL     1      -2.749  -1.244   2.008  0.00  0.00    +0.295 HD
ENDBRANCH  19  20
ENDBRANCH  13  19
ENDBRANCH   1  12
TORSDOF 7
