REMARK  Name = 119239
REMARK  7 active torsions:
REMARK  status: ('A' for Active; 'I' for Inactive)
REMARK    1  A    between atoms: C_2  and  O_7
REMARK    2  A    between atoms: C_3  and  O_9
REMARK    3  A    between atoms: C_4  and  O_11
REMARK    4  A    between atoms: C_5  and  C_14
REMARK    5  A    between atoms: C_6  and  O_17
REMARK    6  A    between atoms: C_14  and  O_15
REMARK    7  A    between atoms: O_17  and  C_18
REMARK                            x       y       z     vdW  Elec       q    Type
REMARK                         _______ _______ _______ _____ _____    ______ ____
ROOT
ATOM      1  O   UNL     1       0.327  -0.430   0.229  0.00  0.00    -0.307 OA
ATOM      2  C   UNL     1       2.552   1.338  -0.193  0.00  0.00    +0.173 C 
ATOM      3  C   UNL     1       2.736  -0.158   0.062  0.00  0.00    +0.178 C 
ATOM      4  C   UNL     1       1.202   1.831   0.328  0.00  0.00    +0.210 C 
ATOM      5  C   UNL     1       1.506  -0.938  -0.385  0.00  0.00    +0.246 C 
ATOM      6  C   UNL     1       0.064   0.922  -0.138  0.00  0.00    +0.318 C 
ENDROOT
BRANCH   2   7
ATOM      7  O   UNL     1       3.604   2.034   0.477  0.00  0.00    -0.379 OA
ATOM      8  H   UNL     1       4.461   1.721   0.146  0.00  0.00    +0.211 HD
ENDBRANCH   2   7
BRANCH   3   9
ATOM      9  O   UNL     1       3.866  -0.622  -0.676  0.00  0.00    -0.379 OA
ATOM     10  H   UNL     1       4.656  -0.132  -0.400  0.00  0.00    +0.211 HD
ENDBRANCH   3   9
BRANCH   4  11
ATOM     11  O   UNL     1       0.955   3.147  -0.167  0.00  0.00    -0.377 OA
ATOM     12  H   UNL     1       1.668   3.739   0.119  0.00  0.00    +0.211 HD
ENDBRANCH   4  11
BRANCH   5  14
ATOM     13  O   UNL     1       0.750  -2.812   0.884  0.00  0.00    -0.247 OA
ATOM     14  C   UNL     1       1.564  -2.351   0.098  0.00  0.00    +0.344 C 
BRANCH  14  15
ATOM     15  O   UNL     1       2.604  -3.036  -0.435  0.00  0.00    -0.478 OA
ATOM     16  H   UNL     1       3.187  -2.612  -1.034  0.00  0.00    +0.295 HD
ENDBRANCH  14  15
ENDBRANCH   5  14
BRANCH   6  17
ATOM     17  O   UNL     1      -1.139   1.366   0.489  0.00  0.00    -0.451 OA
BRANCH  17  18
ATOM     18  C   UNL     1      -2.276   0.664   0.199  0.00  0.00    +0.141 C 
ATOM     19  C   UNL     1      -2.720   0.581  -1.117  0.00  0.00    +0.037 C 
ATOM     20  C   UNL     1      -2.982   0.039   1.223  0.00  0.00    +0.037 C 
ATOM     21  C   UNL     1      -3.880  -0.135  -1.413  0.00  0.00    +0.003 C 
ATOM     22  C   UNL     1      -4.142  -0.677   0.927  0.00  0.00    +0.003 C 
ATOM     23  C   UNL     1      -4.591  -0.763  -0.391  0.00  0.00    +0.000 C 
ENDBRANCH  17  18
ENDBRANCH   6  17
TORSDOF 7
