REMARK  Name = 119269
REMARK  7 active torsions:
REMARK  status: ('A' for Active; 'I' for Inactive)
REMARK    1  A    between atoms: C_3  and  C_12
REMARK    2  A    between atoms: C_8  and  C_26
REMARK    3  A    between atoms: C_9  and  O_22
REMARK    4  A    between atoms: C_10  and  O_24
REMARK    5  A    between atoms: C_13  and  O_18
REMARK    6  A    between atoms: C_17  and  O_20
REMARK    7  A    between atoms: C_26  and  C_27
REMARK                            x       y       z     vdW  Elec       q    Type
REMARK                         _______ _______ _______ _____ _____    ______ ____
ROOT
ATOM      1  O   UNL     1       0.972   0.811   0.830  0.00  0.00    -0.475 OA
ATOM      2  O   UNL     1      -1.487  -2.293  -0.263  0.00  0.00    -0.291 OA
ATOM      3  C   UNL     1      -1.305  -0.056   0.650  0.00  0.00    +0.131 C 
ATOM      4  C   UNL     1      -0.331   1.068   0.294  0.00  0.00    +0.217 C 
ATOM      5  C   UNL     1       0.701  -1.467   0.001  0.00  0.00    +0.103 C 
ATOM      6  C   UNL     1      -0.772  -1.355   0.072  0.00  0.00    +0.186 C 
ATOM      7  C   UNL     1       1.490  -0.384   0.403  0.00  0.00    +0.143 C 
ATOM      8  C   UNL     1       2.880  -0.504   0.412  0.00  0.00    +0.050 C 
ATOM      9  C   UNL     1       1.301  -2.655  -0.425  0.00  0.00    +0.142 C 
ATOM     10  C   UNL     1       3.480  -1.690  -0.011  0.00  0.00    +0.136 C 
ATOM     11  C   UNL     1       2.692  -2.761  -0.433  0.00  0.00    +0.073 C 
ENDROOT
BRANCH   3  12
ATOM     12  C   UNL     1      -2.717   0.251   0.198  0.00  0.00    +0.022 C 
ATOM     13  C   UNL     1      -3.762   0.318   1.119  0.00  0.00    +0.133 C 
ATOM     14  C   UNL     1      -2.967   0.468  -1.157  0.00  0.00    +0.002 C 
ATOM     15  C   UNL     1      -5.057   0.602   0.686  0.00  0.00    +0.073 C 
ATOM     16  C   UNL     1      -4.262   0.752  -1.591  0.00  0.00    +0.037 C 
ATOM     17  C   UNL     1      -5.307   0.819  -0.669  0.00  0.00    +0.137 C 
BRANCH  13  18
ATOM     18  O   UNL     1      -3.535   0.108   2.446  0.00  0.00    -0.506 OA
ATOM     19  H   UNL     1      -2.669  -0.084   2.749  0.00  0.00    +0.292 HD
ENDBRANCH  13  18
BRANCH  17  20
ATOM     20  O   UNL     1      -6.571   1.095  -1.093  0.00  0.00    -0.505 OA
ATOM     21  H   UNL     1      -7.273   1.140  -0.474  0.00  0.00    +0.292 HD
ENDBRANCH  17  20
ENDBRANCH   3  12
BRANCH   9  22
ATOM     22  O   UNL     1       0.583  -3.738  -0.833  0.00  0.00    -0.505 OA
ATOM     23  H   UNL     1      -0.354  -3.704  -0.841  0.00  0.00    +0.292 HD
ENDBRANCH   9  22
BRANCH  10  24
ATOM     24  O   UNL     1       4.837  -1.822  -0.018  0.00  0.00    -0.506 OA
ATOM     25  H   UNL     1       5.378  -1.110   0.263  0.00  0.00    +0.292 HD
ENDBRANCH  10  24
BRANCH   8  26
ATOM     26  C   UNL     1       3.736   0.638   0.862  0.00  0.00    +0.058 C 
BRANCH  26  27
ATOM     27  C   UNL     1       4.119   1.561  -0.266  0.00  0.00    -0.030 C 
ATOM     28  C   UNL     1       3.874   2.881  -0.379  0.00  0.00    -0.048 C 
ATOM     29  C   UNL     1       4.286   3.744  -1.537  0.00  0.00    +0.026 C 
ATOM     30  C   UNL     1       3.121   3.610   0.702  0.00  0.00    +0.026 C 
ENDBRANCH  26  27
ENDBRANCH   8  26
TORSDOF 7
