REMARK  Name = 119290
REMARK  9 active torsions:
REMARK  status: ('A' for Active; 'I' for Inactive)
REMARK    1  A    between atoms: C_3  and  C_25
REMARK    2  A    between atoms: C_6  and  O_17
REMARK    3  A    between atoms: C_7  and  O_19
REMARK    4  A    between atoms: C_13  and  O_21
REMARK    5  A    between atoms: C_15  and  O_23
REMARK    6  A    between atoms: C_25  and  C_27
REMARK    7  A    between atoms: C_25  and  C_28
REMARK    8  A    between atoms: C_28  and  C_29
REMARK    9  A    between atoms: C_29  and  O_30
REMARK                            x       y       z     vdW  Elec       q    Type
REMARK                         _______ _______ _______ _____ _____    ______ ____
ROOT
ATOM      1  O   UNL     1      -1.014  -2.392   0.320  0.00  0.00    -0.286 OA
ATOM      2  O   UNL     1      -1.652   2.882  -0.262  0.00  0.00    -0.287 OA
ATOM      3  C   UNL     1       2.410   0.024   0.308  0.00  0.00    +0.052 C 
ATOM      4  C   UNL     1       0.013  -0.283   0.175  0.00  0.00    +0.076 C 
ATOM      5  C   UNL     1      -0.154   1.095   0.024  0.00  0.00    +0.048 C 
ATOM      6  C   UNL     1       1.299  -0.819   0.318  0.00  0.00    +0.136 C 
ATOM      7  C   UNL     1       2.244   1.399   0.157  0.00  0.00    +0.133 C 
ATOM      8  C   UNL     1      -2.508  -0.605   0.033  0.00  0.00    +0.076 C 
ATOM      9  C   UNL     1      -1.158  -1.184   0.186  0.00  0.00    +0.202 C 
ATOM     10  C   UNL     1      -2.676   0.773  -0.119  0.00  0.00    +0.048 C 
ATOM     11  C   UNL     1       0.964   1.937   0.014  0.00  0.00    +0.040 C 
ATOM     12  C   UNL     1      -1.505   1.673  -0.129  0.00  0.00    +0.196 C 
ATOM     13  C   UNL     1      -3.627  -1.448   0.040  0.00  0.00    +0.140 C 
ATOM     14  C   UNL     1      -3.961   1.308  -0.263  0.00  0.00    +0.040 C 
ATOM     15  C   UNL     1      -5.073   0.465  -0.255  0.00  0.00    +0.137 C 
ATOM     16  C   UNL     1      -4.906  -0.910  -0.104  0.00  0.00    +0.073 C 
ENDROOT
BRANCH   6  17
ATOM     17  O   UNL     1       1.517  -2.158   0.471  0.00  0.00    -0.506 OA
ATOM     18  H   UNL     1       2.391  -2.483   0.564  0.00  0.00    +0.292 HD
ENDBRANCH   6  17
BRANCH   7  19
ATOM     19  O   UNL     1       3.319   2.236   0.146  0.00  0.00    -0.506 OA
ATOM     20  H   UNL     1       4.184   1.888   0.241  0.00  0.00    +0.292 HD
ENDBRANCH   7  19
BRANCH  13  21
ATOM     21  O   UNL     1      -3.537  -2.801   0.184  0.00  0.00    -0.505 OA
ATOM     22  H   UNL     1      -2.698  -3.207   0.284  0.00  0.00    +0.292 HD
ENDBRANCH  13  21
BRANCH  15  23
ATOM     23  O   UNL     1      -6.323   0.986  -0.396  0.00  0.00    -0.505 OA
ATOM     24  H   UNL     1      -6.436   1.911  -0.498  0.00  0.00    +0.292 HD
ENDBRANCH  15  23
BRANCH   3  25
ATOM     25  C   UNL     1       3.787  -0.542   0.461  0.00  0.00    +0.096 C 
BRANCH  25  27
ATOM     26  O   UNL     1       3.897   0.220   2.777  0.00  0.00    -0.288 OA
ATOM     27  C   UNL     1       4.483  -0.078   1.740  0.00  0.00    +0.212 C 
ENDBRANCH  25  27
BRANCH  25  28
ATOM     28  C   UNL     1       4.729  -0.262  -0.734  0.00  0.00    +0.044 C 
BRANCH  28  29
ATOM     29  C   UNL     1       4.248  -0.905  -2.031  0.00  0.00    +0.138 C 
BRANCH  29  30
ATOM     30  O   UNL     1       5.183  -0.610  -3.061  0.00  0.00    -0.382 OA
ATOM     31  H   UNL     1       4.888  -1.014  -3.892  0.00  0.00    +0.210 HD
ENDBRANCH  29  30
ENDBRANCH  28  29
ENDBRANCH  25  28
ENDBRANCH   3  25
TORSDOF 9
