REMARK  Name = 119287
REMARK  3 active torsions:
REMARK  status: ('A' for Active; 'I' for Inactive)
REMARK    1  A    between atoms: C_23  and  C_32
REMARK    2  A    between atoms: C_29  and  O_37
REMARK    3  A    between atoms: C_32  and  O_35
REMARK                            x       y       z     vdW  Elec       q    Type
REMARK                         _______ _______ _______ _____ _____    ______ ____
ROOT
ATOM      1  O   UNL     1      -3.442   1.145  -0.478  0.00  0.00    -0.356 OA
ATOM      2  O   UNL     1       1.945  -3.272   0.706  0.00  0.00    -0.296 OA
ATOM      3  O   UNL     1      -4.796  -1.824  -2.346  0.00  0.00    -0.296 OA
ATOM      4  O   UNL     1       6.814   1.253  -0.607  0.00  0.00    -0.288 OA
ATOM      5  C   UNL     1      -0.351   0.193   0.519  0.00  0.00    +0.004 C 
ATOM      6  C   UNL     1      -0.940  -1.270   0.428  0.00  0.00    +0.010 C 
ATOM      7  C   UNL     1       0.904   0.179   1.451  0.00  0.00    +0.012 C 
ATOM      8  C   UNL     1      -2.282  -0.992  -0.304  0.00  0.00    +0.035 C 
ATOM      9  C   UNL     1       2.020  -0.852   1.030  0.00  0.00    +0.059 C 
ATOM     10  C   UNL     1      -1.570   0.970   1.068  0.00  0.00    +0.030 C 
ATOM     11  C   UNL     1      -2.809   0.274   0.449  0.00  0.00    +0.116 C 
ATOM     12  C   UNL     1       0.094  -2.144  -0.282  0.00  0.00    +0.065 C 
ATOM     13  C   UNL     1       1.388  -2.184   0.525  0.00  0.00    +0.150 C 
ATOM     14  C   UNL     1      -0.037   0.860  -0.857  0.00  0.00    +0.000 C 
ATOM     15  C   UNL     1      -3.375  -2.079  -0.388  0.00  0.00    +0.060 C 
ATOM     16  C   UNL     1       2.970  -0.301  -0.104  0.00  0.00    +0.050 C 
ATOM     17  C   UNL     1       1.500   1.568   1.745  0.00  0.00    +0.026 C 
ATOM     18  C   UNL     1      -1.254  -1.938   1.807  0.00  0.00    +0.001 C 
ATOM     19  C   UNL     1       2.834  -1.179   2.317  0.00  0.00    +0.008 C 
ATOM     20  C   UNL     1       3.308   1.186   0.018  0.00  0.00    -0.038 C 
ATOM     21  C   UNL     1       2.640   1.983   0.873  0.00  0.00    -0.034 C 
ATOM     22  C   UNL     1      -4.554  -1.502  -1.183  0.00  0.00    +0.153 C 
ATOM     23  C   UNL     1      -4.844   0.958  -0.692  0.00  0.00    +0.147 C 
ATOM     24  C   UNL     1       4.438   1.696  -0.889  0.00  0.00    +0.074 C 
ATOM     25  C   UNL     1      -2.916  -3.380  -1.042  0.00  0.00    +0.008 C 
ATOM     26  C   UNL     1       4.230  -1.136  -0.263  0.00  0.00    +0.018 C 
ATOM     27  C   UNL     1      -5.391  -0.457  -0.480  0.00  0.00    +0.096 C 
ATOM     28  C   UNL     1       5.666   0.809  -0.624  0.00  0.00    +0.209 C 
ATOM     29  C   UNL     1       5.463  -0.655  -0.462  0.00  0.00    +0.165 C 
ATOM     30  C   UNL     1       4.846   3.167  -0.646  0.00  0.00    +0.012 C 
ATOM     31  C   UNL     1       4.047   1.571  -2.374  0.00  0.00    +0.012 C 
ENDROOT
BRANCH  23  32
ATOM     32  C   UNL     1      -5.590   1.957   0.188  0.00  0.00    +0.114 C 
ATOM     33  C   UNL     1      -7.082   1.967  -0.144  0.00  0.00    +0.032 C 
ATOM     34  C   UNL     1      -4.997   3.355   0.035  0.00  0.00    +0.032 C 
BRANCH  32  35
ATOM     35  O   UNL     1      -5.431   1.568   1.553  0.00  0.00    -0.384 OA
ATOM     36  H   UNL     1      -5.800   0.680   1.682  0.00  0.00    +0.210 HD
ENDBRANCH  32  35
ENDBRANCH  23  32
BRANCH  29  37
ATOM     37  O   UNL     1       6.554  -1.492  -0.547  0.00  0.00    -0.503 OA
ATOM     38  H   UNL     1       6.444  -2.417  -0.447  0.00  0.00    +0.292 HD
ENDBRANCH  29  37
TORSDOF 3
