REMARK  Name = 119212
REMARK  14 active torsions:
REMARK  status: ('A' for Active; 'I' for Inactive)
REMARK    1  A    between atoms: C_1  and  C_6
REMARK    2  A    between atoms: C_1  and  C_17
REMARK    3  A    between atoms: C_1  and  N_29
REMARK    4  A    between atoms: CA_5  and  C_12
REMARK    5  A    between atoms: C_12  and  O_13
REMARK    6  A    between atoms: N_16  and  C_19
REMARK    7  A    between atoms: C_19  and  C_20
REMARK    8  A    between atoms: C_20  and  C_21
REMARK    9  A    between atoms: C_21  and  C_22
REMARK   10  A    between atoms: C_22  and  C_23
REMARK   11  A    between atoms: C_23  and  C_25
REMARK   12  A    between atoms: C_25  and  O_26
REMARK   13  A    between atoms: C_30  and  C_32
REMARK   14  A    between atoms: C_32  and  C_33
REMARK                            x       y       z     vdW  Elec       q    Type
REMARK                         _______ _______ _______ _____ _____    ______ ____
ROOT
ATOM      1  C   UNL     1      -0.933   0.561   0.041  0.00  0.00    +0.139 C 
ENDROOT
BRANCH   1   6
ATOM      2  S   UNL     1      -0.189   3.145  -0.579  0.00  0.00    -0.164 S 
ATOM      3  N   UNL     1       1.445   1.058  -0.271  0.00  0.00    +0.401 N 
ATOM      4  C   UNL     1       1.526   3.475  -0.028  0.00  0.00    +0.030 C 
ATOM      5  CA  UNL     1       2.265   2.235  -0.567  0.00  0.00    +0.050 C 
ATOM      6  C   UNL     1       0.093   1.352  -0.755  0.00  0.00    +0.016 C 
ATOM      7  C   UNL     1       2.040   4.766  -0.665  0.00  0.00    +0.009 C 
ATOM      8  C   UNL     1       1.514   3.599   1.502  0.00  0.00    +0.009 C 
ATOM      9  H1  UNL     1       1.428   0.886   0.735  0.00  0.00    -0.082 HD
ATOM     10  H2  UNL     1       1.823   0.225  -0.723  0.00  0.00    -0.082 HD
BRANCH   5  12
ATOM     11  OXT UNL     1       3.790   1.404   1.111  0.00  0.00    -0.253 OA
ATOM     12  C   UNL     1       3.600   2.022   0.074  0.00  0.00    +0.294 C 
BRANCH  12  13
ATOM     13  O   UNL     1       4.580   2.614  -0.651  0.00  0.00    -0.482 OA
ATOM     14  H   UNL     1       4.367   3.074  -1.439  0.00  0.00    +0.295 HD
ENDBRANCH  12  13
ENDBRANCH   5  12
ENDBRANCH   1   6
BRANCH   1  17
ATOM     15  O   UNL     1      -1.219  -1.595  -1.028  0.00  0.00    -0.273 OA
ATOM     16  N   UNL     1       0.080  -1.461   0.890  0.00  0.00    -0.303 N 
ATOM     17  C   UNL     1      -0.713  -0.937  -0.122  0.00  0.00    +0.239 C 
ATOM     18  H   UNL     1       0.440  -0.849   1.572  0.00  0.00    +0.149 HD
BRANCH  16  19
ATOM     19  C   UNL     1       0.399  -2.866   0.982  0.00  0.00    +0.089 C 
BRANCH  19  20
ATOM     20  C   UNL     1       1.677  -3.199   0.220  0.00  0.00    +0.021 C 
BRANCH  20  21
ATOM     21  C   UNL     1       2.902  -2.431   0.723  0.00  0.00    +0.002 C 
BRANCH  21  22
ATOM     22  C   UNL     1       4.178  -2.742  -0.062  0.00  0.00    +0.012 C 
BRANCH  22  23
ATOM     23  C   UNL     1       5.365  -1.940   0.471  0.00  0.00    +0.109 C 
BRANCH  23  25
ATOM     24  O   UNL     1       6.717  -2.955  -1.280  0.00  0.00    -0.250 OA
ATOM     25  C   UNL     1       6.627  -2.207  -0.316  0.00  0.00    +0.314 C 
BRANCH  25  26
ATOM     26  O   UNL     1       7.679  -1.505   0.180  0.00  0.00    -0.480 OA
ATOM     27  H   UNL     1       7.560  -0.944   0.921  0.00  0.00    +0.295 HD
ENDBRANCH  25  26
ENDBRANCH  23  25
ENDBRANCH  22  23
ENDBRANCH  21  22
ENDBRANCH  20  21
ENDBRANCH  19  20
ENDBRANCH  16  19
ENDBRANCH   1  17
BRANCH   1  29
ATOM     28  O   UNL     1      -3.317   0.485   1.652  0.00  0.00    -0.275 OA
ATOM     29  N   UNL     1      -2.274   0.863  -0.388  0.00  0.00    -0.299 N 
ATOM     30  C   UNL     1      -3.369   0.798   0.465  0.00  0.00    +0.227 C 
ATOM     31  H   UNL     1      -2.421   1.125  -1.326  0.00  0.00    +0.150 HD
BRANCH  30  32
ATOM     32  C   UNL     1      -4.656   1.170  -0.246  0.00  0.00    +0.111 C 
BRANCH  32  33
ATOM     33  C   UNL     1      -5.683   0.069  -0.235  0.00  0.00    -0.013 C 
ATOM     34  C   UNL     1      -5.710  -0.870  -1.267  0.00  0.00    -0.004 C 
ATOM     35  C   UNL     1      -6.608  -0.013   0.806  0.00  0.00    -0.004 C 
ATOM     36  C   UNL     1      -6.661  -1.891  -1.257  0.00  0.00    -0.000 C 
ATOM     37  C   UNL     1      -7.559  -1.033   0.815  0.00  0.00    -0.000 C 
ATOM     38  C   UNL     1      -7.586  -1.972  -0.216  0.00  0.00    -0.000 C 
ENDBRANCH  32  33
ENDBRANCH  30  32
ENDBRANCH   1  29
TORSDOF 14
