REMARK  Name = 119345
REMARK  14 active torsions:
REMARK  status: ('A' for Active; 'I' for Inactive)
REMARK    1  A    between atoms: CA_1  and  N_3
REMARK    2  A    between atoms: CA_1  and  C_19
REMARK    3  A    between atoms: CA_1  and  CB_26
REMARK    4  A    between atoms: C_4  and  C_6
REMARK    5  A    between atoms: C_6  and  C_7
REMARK    6  A    between atoms: C_7  and  CA_8
REMARK    7  A    between atoms: CA_8  and  N_9
REMARK    8  A    between atoms: CA_8  and  C_14
REMARK    9  A    between atoms: C_14  and  O_15
REMARK   10  A    between atoms: N_18  and  CA_21
REMARK   11  A    between atoms: CA_21  and  C_23
REMARK   12  A    between atoms: C_23  and  O_24
REMARK   13  A    between atoms: CB_26  and  SG_27
REMARK   14  A    between atoms: SG_27  and  C_31
REMARK                            x       y       z     vdW  Elec       q    Type
REMARK                         _______ _______ _______ _____ _____    ______ ____
ROOT
ATOM      1  CA  UNL     1       0.885  -0.887  -0.923  0.00  0.00    +0.160 C 
ENDROOT
BRANCH   1   3
ATOM      2  O   UNL     1      -1.690  -0.676  -2.210  0.00  0.00    -0.275 OA
ATOM      3  N   UNL     1      -0.412  -1.001  -0.297  0.00  0.00    -0.298 N 
ATOM      4  C   UNL     1      -1.601  -0.884  -1.003  0.00  0.00    +0.223 C 
ATOM      5  H   UNL     1      -0.455  -1.168   0.672  0.00  0.00    +0.150 HD
BRANCH   4   6
ATOM      6  C   UNL     1      -2.808  -1.037  -0.093  0.00  0.00    +0.083 C 
BRANCH   6   7
ATOM      7  C   UNL     1      -4.131  -0.912  -0.852  0.00  0.00    -0.001 C 
BRANCH   7   8
ATOM      8  CA  UNL     1      -5.354  -1.136   0.043  0.00  0.00    +0.036 C 
BRANCH   8   9
ATOM      9  N   UNL     1      -6.576  -1.000  -0.754  0.00  0.00    +0.389 N 
ATOM     10  H1  UNL     1      -6.567  -1.685  -1.509  0.00  0.00    -0.088 HD
ATOM     11  H2  UNL     1      -6.621  -0.060  -1.148  0.00  0.00    -0.088 HD
ATOM     12  H3  UNL     1      -7.389  -1.158  -0.160  0.00  0.00    -0.088 HD
ENDBRANCH   8   9
BRANCH   8  14
ATOM     13  OXT UNL     1      -5.959   1.008   1.031  0.00  0.00    -0.253 OA
ATOM     14  C   UNL     1      -5.433  -0.092   1.142  0.00  0.00    +0.293 C 
BRANCH  14  15
ATOM     15  O   UNL     1      -4.822  -0.500   2.285  0.00  0.00    -0.482 OA
ATOM     16  H   UNL     1      -4.431  -1.351   2.329  0.00  0.00    +0.295 HD
ENDBRANCH  14  15
ENDBRANCH   8  14
ENDBRANCH   7   8
ENDBRANCH   6   7
ENDBRANCH   4   6
ENDBRANCH   1   3
BRANCH   1  19
ATOM     17  O   UNL     1       1.558  -2.481   0.778  0.00  0.00    -0.273 OA
ATOM     18  N   UNL     1       3.098  -1.866  -0.845  0.00  0.00    -0.294 N 
ATOM     19  C   ACE A   1       1.855  -1.839  -0.227  0.00  0.00    +0.242 C 
ATOM     20  H   UNL     1       3.238  -1.313  -1.647  0.00  0.00    +0.150 HD
BRANCH  18  21
ATOM     21  CA  UNL     1       4.192  -2.672  -0.357  0.00  0.00    +0.200 C 
BRANCH  21  23
ATOM     22  OXT UNL     1       6.042  -2.448   1.167  0.00  0.00    -0.248 OA
ATOM     23  C   UNL     1       5.057  -1.945   0.640  0.00  0.00    +0.334 C 
BRANCH  23  24
ATOM     24  O   UNL     1       4.641  -0.683   0.900  0.00  0.00    -0.479 OA
ATOM     25  H   UNL     1       3.881  -0.343   0.471  0.00  0.00    +0.295 HD
ENDBRANCH  23  24
ENDBRANCH  21  23
ENDBRANCH  18  21
ENDBRANCH   1  19
BRANCH   1  26
ATOM     26  CB  UNL     1       1.383   0.560  -0.972  0.00  0.00    +0.092 C 
BRANCH  26  27
ATOM     27  SG  UNL     1       1.644   1.302   0.672  0.00  0.00    -0.099 S 
BRANCH  27  31
ATOM     28 CL   UNL     1       3.828   3.130  -0.019  0.00  0.00    -0.074 Cl
ATOM     29 CL   UNL     1       1.726   5.510  -0.504  0.00  0.00    -0.068 Cl
ATOM     30 CL   UNL     1      -0.473   3.727   0.230  0.00  0.00    -0.068 Cl
ATOM     31  C   UNL     1       2.110   2.905   0.178  0.00  0.00    +0.104 C 
ATOM     32  C   UNL     1       1.239   3.915  -0.009  0.00  0.00    +0.131 C 
ENDBRANCH  27  31
ENDBRANCH  26  27
ENDBRANCH   1  26
TORSDOF 14
