REMARK  Name = 119350
REMARK  12 active torsions:
REMARK  status: ('A' for Active; 'I' for Inactive)
REMARK    1  A    between atoms: N_2  and  C_16
REMARK    2  A    between atoms: C_3  and  C_5
REMARK    3  A    between atoms: C_5  and  C_6
REMARK    4  A    between atoms: C_6  and  CA_7
REMARK    5  A    between atoms: CA_7  and  N_8
REMARK    6  A    between atoms: CA_7  and  C_13
REMARK    7  A    between atoms: C_13  and  O_14
REMARK    8  A    between atoms: C_16  and  C_18
REMARK    9  A    between atoms: C_16  and  C_22
REMARK   10  A    between atoms: C_18  and  O_19
REMARK   11  A    between atoms: O_19  and  C_20
REMARK   12  A    between atoms: C_22  and  S_23
REMARK                            x       y       z     vdW  Elec       q    Type
REMARK                         _______ _______ _______ _____ _____    ______ ____
ROOT
ATOM      1  O   UNL     1       0.394   1.948   1.292  0.00  0.00    -0.275 OA
ATOM      2  N   UNL     1      -0.920   0.454   0.093  0.00  0.00    -0.296 N 
ATOM      3  C   UNL     1       0.268   0.913   0.642  0.00  0.00    +0.223 C 
ATOM      4  H   UNL     1      -0.910  -0.391  -0.412  0.00  0.00    +0.150 HD
ENDROOT
BRANCH   3   5
ATOM      5  C   UNL     1       1.424  -0.023   0.334  0.00  0.00    +0.083 C 
BRANCH   5   6
ATOM      6  C   UNL     1       2.745   0.466   0.931  0.00  0.00    -0.001 C 
BRANCH   6   7
ATOM      7  CA  UNL     1       3.904  -0.508   0.688  0.00  0.00    +0.036 C 
BRANCH   7   8
ATOM      8  N   UNL     1       5.128   0.030   1.287  0.00  0.00    +0.389 N 
ATOM      9  H1  UNL     1       4.988   0.160   2.289  0.00  0.00    -0.088 HD
ATOM     10  H2  UNL     1       5.352   0.926   0.856  0.00  0.00    -0.088 HD
ATOM     11  H3  UNL     1       5.897  -0.623   1.133  0.00  0.00    -0.088 HD
ENDBRANCH   7   8
BRANCH   7  13
ATOM     12  OXT UNL     1       4.910   0.051  -1.461  0.00  0.00    -0.253 OA
ATOM     13  C   UNL     1       4.182  -0.675  -0.794  0.00  0.00    +0.293 C 
BRANCH  13  14
ATOM     14  O   UNL     1       3.505  -1.725  -1.330  0.00  0.00    -0.482 OA
ATOM     15  H   UNL     1       2.959  -2.256  -0.785  0.00  0.00    +0.295 HD
ENDBRANCH  13  14
ENDBRANCH   7  13
ENDBRANCH   6   7
ENDBRANCH   5   6
ENDBRANCH   3   5
BRANCH   2  16
ATOM     16  C   UNL     1      -2.172   1.162   0.231  0.00  0.00    +0.182 C 
BRANCH  16  18
ATOM     17  O   UNL     1      -4.502   0.613   0.580  0.00  0.00    -0.248 OA
ATOM     18  C   UNL     1      -3.363   0.218   0.353  0.00  0.00    +0.336 C 
BRANCH  18  19
ATOM     19  O   UNL     1      -3.002  -1.086   0.189  0.00  0.00    -0.447 OA
BRANCH  19  20
ATOM     20  C   UNL     1      -4.062  -2.042   0.296  0.00  0.00    +0.209 C 
ATOM     21  C   UNL     1      -3.495  -3.431   0.090  0.00  0.00    +0.051 C 
ENDBRANCH  19  20
ENDBRANCH  18  19
ENDBRANCH  16  18
BRANCH  16  22
ATOM     22  C   UNL     1      -2.372   2.191  -0.885  0.00  0.00    +0.084 C 
BRANCH  22  23
ATOM     23  S   UNL     1      -2.572   1.443  -2.536  0.00  0.00    -0.166 S 
ATOM     24  H   UNL     1      -2.743   2.426  -3.461  0.00  0.00    +0.102 HD
ENDBRANCH  22  23
ENDBRANCH  16  22
ENDBRANCH   2  16
TORSDOF 12
