REMARK  Name = 119330
REMARK  13 active torsions:
REMARK  status: ('A' for Active; 'I' for Inactive)
REMARK    1  A    between atoms: N_2  and  C_29
REMARK    2  A    between atoms: C_9  and  N_18
REMARK    3  A    between atoms: N_18  and  C_20
REMARK    4  A    between atoms: C_20  and  C_21
REMARK    5  A    between atoms: C_21  and  N_22
REMARK    6  A    between atoms: N_22  and  C_25
REMARK    7  A    between atoms: C_25  and  C_26
REMARK    8  A    between atoms: C_26  and  O_27
REMARK    9  A    between atoms: C_29  and  C_30
REMARK   10  A    between atoms: C_30  and  N_31
REMARK   11  A    between atoms: N_31  and  C_34
REMARK   12  A    between atoms: C_34  and  C_35
REMARK   13  A    between atoms: C_35  and  O_36
REMARK                            x       y       z     vdW  Elec       q    Type
REMARK                         _______ _______ _______ _____ _____    ______ ____
ROOT
ATOM      1  O   UNL     1       2.277  -2.435  -0.423  0.00  0.00    -0.287 OA
ATOM      2  N   UNL     1      -2.604   0.204   0.849  0.00  0.00    -0.253 N 
ATOM      3  N   UNL     1      -2.891  -1.107   0.629  0.00  0.00    -0.169 NA
ATOM      4  C   UNL     1      -0.690  -0.674   0.381  0.00  0.00    +0.041 A 
ATOM      5  C   UNL     1      -1.278   0.523   0.711  0.00  0.00    +0.079 A 
ATOM      6  C   UNL     1       0.670  -0.805   0.148  0.00  0.00    +0.055 C 
ATOM      7  C   UNL     1      -1.699  -1.640   0.341  0.00  0.00    +0.103 A 
ATOM      8  C   UNL     1      -1.334  -3.005   0.010  0.00  0.00    +0.022 C 
ATOM      9  C   UNL     1       1.464   0.333   0.255  0.00  0.00    +0.048 C 
ATOM     10  C   UNL     1       0.042  -3.275  -0.254  0.00  0.00    +0.040 C 
ATOM     11  C   UNL     1       1.101  -2.183  -0.195  0.00  0.00    +0.197 C 
ATOM     12  C   UNL     1      -0.522   1.688   0.830  0.00  0.00    +0.020 C 
ATOM     13  C   UNL     1       0.865   1.561   0.593  0.00  0.00    +0.016 C 
ATOM     14  C   UNL     1      -2.276  -4.033  -0.055  0.00  0.00    +0.002 C 
ATOM     15  C   UNL     1       0.439  -4.575  -0.577  0.00  0.00    +0.003 C 
ATOM     16  C   UNL     1      -1.861  -5.325  -0.380  0.00  0.00    +0.000 C 
ATOM     17  C   UNL     1      -0.514  -5.594  -0.639  0.00  0.00    +0.000 C 
ENDROOT
BRANCH   9  18
ATOM     18  N   UNL     1       2.856   0.293   0.036  0.00  0.00    -0.335 N 
ATOM     19  H   UNL     1       3.270  -0.569  -0.200  0.00  0.00    +0.147 HD
BRANCH  18  20
ATOM     20  C   UNL     1       3.693   1.448   0.141  0.00  0.00    +0.064 C 
BRANCH  20  21
ATOM     21  C   UNL     1       5.141   1.056  -0.124  0.00  0.00    -0.060 C 
BRANCH  21  22
ATOM     22  N   UNL     1       6.005   2.227  -0.048  0.00  0.00    +0.387 N 
ATOM     23  H   UNL     1       5.936   2.633   0.885  0.00  0.00    -0.084 HD
ATOM     24  H   UNL     1       5.705   2.900  -0.754  0.00  0.00    -0.084 HD
BRANCH  22  25
ATOM     25  C   UNL     1       7.392   1.867  -0.310  0.00  0.00    -0.049 C 
BRANCH  25  26
ATOM     26  C   UNL     1       8.295   3.085  -0.187  0.00  0.00    +0.114 C 
BRANCH  26  27
ATOM     27  O   UNL     1       9.637   2.685  -0.433  0.00  0.00    -0.384 OA
ATOM     28  H   UNL     1      10.222   3.455  -0.357  0.00  0.00    +0.210 HD
ENDBRANCH  26  27
ENDBRANCH  25  26
ENDBRANCH  22  25
ENDBRANCH  21  22
ENDBRANCH  20  21
ENDBRANCH  18  20
ENDBRANCH   9  18
BRANCH   2  29
ATOM     29  C   UNL     1      -3.674   1.111   1.194  0.00  0.00    +0.104 C 
BRANCH  29  30
ATOM     30  C   UNL     1      -4.306   1.744  -0.042  0.00  0.00    -0.055 C 
BRANCH  30  31
ATOM     31  N   UNL     1      -5.395   2.630   0.348  0.00  0.00    +0.387 N 
ATOM     32  H   UNL     1      -5.027   3.367   0.950  0.00  0.00    -0.084 HD
ATOM     33  H   UNL     1      -6.099   2.082   0.844  0.00  0.00    -0.084 HD
BRANCH  31  34
ATOM     34  C   UNL     1      -6.017   3.236  -0.821  0.00  0.00    -0.049 C 
BRANCH  34  35
ATOM     35  C   UNL     1      -7.124   4.192  -0.405  0.00  0.00    +0.114 C 
BRANCH  35  36
ATOM     36  O   UNL     1      -7.690   4.771  -1.574  0.00  0.00    -0.384 OA
ATOM     37  H   UNL     1      -8.398   5.384  -1.321  0.00  0.00    +0.210 HD
ENDBRANCH  35  36
ENDBRANCH  34  35
ENDBRANCH  31  34
ENDBRANCH  30  31
ENDBRANCH  29  30
ENDBRANCH   2  29
TORSDOF 13
