REMARK  Name = 119392
REMARK  6 active torsions:
REMARK  status: ('A' for Active; 'I' for Inactive)
REMARK    1  A    between atoms: S_1  and  C_6
REMARK    2  A    between atoms: S_1  and  C_11
REMARK    3  A    between atoms: C_11  and  C_12
REMARK    4  A    between atoms: C_12  and  N_13
REMARK    5  A    between atoms: C_12  and  C_18
REMARK    6  A    between atoms: C_18  and  O_19
REMARK                            x       y       z     vdW  Elec       q    Type
REMARK                         _______ _______ _______ _____ _____    ______ ____
ROOT
ATOM      1  S   UNK     1       1.330   1.056  -0.501  0.00  0.00    -0.077 S 
ENDROOT
BRANCH   1   6
ATOM      2  S   UNK     1      -1.542   2.001  -0.261  0.00  0.00    -0.047 S 
ATOM      3  N   UNK     1      -0.836  -0.478  -0.159  0.00  0.00    -0.393 NA
ATOM      4  C   UNK     1      -2.788   0.829  -0.043  0.00  0.00    +0.058 C 
ATOM      5  C   UNK     1      -2.216  -0.446  -0.013  0.00  0.00    +0.121 C 
ATOM      6  C   UNK     1      -0.381   0.746  -0.295  0.00  0.00    +0.187 C 
ATOM      7  C   UNK     1      -4.172   1.025   0.091  0.00  0.00    +0.008 C 
ATOM      8  C   UNK     1      -3.061  -1.564   0.157  0.00  0.00    +0.085 C 
ATOM      9  C   UNK     1      -4.986  -0.098   0.259  0.00  0.00    -0.004 C 
ATOM     10  C   UNK     1      -4.440  -1.377   0.291  0.00  0.00    -0.019 C 
ENDBRANCH   1   6
BRANCH   1  11
ATOM     11  C   UNK     1       2.049  -0.617  -0.458  0.00  0.00    +0.054 C 
BRANCH  11  12
ATOM     12  C   UNK     1       3.570  -0.590  -0.623  0.00  0.00    +0.047 C 
BRANCH  12  13
ATOM     13  N   UNK     1       4.105  -1.952  -0.558  0.00  0.00    +0.389 N 
ATOM     14  H   UNK     1       3.665  -2.525  -1.278  0.00  0.00    -0.088 HD
ATOM     15  H   UNK     1       3.909  -2.350   0.361  0.00  0.00    -0.088 HD
ATOM     16  H   UNK     1       5.113  -1.929  -0.711  0.00  0.00    -0.088 HD
ENDBRANCH  12  13
BRANCH  12  18
ATOM     17  O   UNK     1       4.128  -0.015   1.659  0.00  0.00    -0.253 OA
ATOM     18  C   UNK     1       4.252   0.221   0.463  0.00  0.00    +0.294 C 
BRANCH  18  19
ATOM     19  O   UNK     1       4.987   1.259  -0.010  0.00  0.00    -0.482 OA
ATOM     20  H   UNK     1       5.055   1.403  -0.933  0.00  0.00    +0.295 HD
ENDBRANCH  18  19
ENDBRANCH  12  18
ENDBRANCH  11  12
ENDBRANCH   1  11
TORSDOF 6
