REMARK  Name = 119304
REMARK  13 active torsions:
REMARK  status: ('A' for Active; 'I' for Inactive)
REMARK    1  A    between atoms: N_3  and  C_9
REMARK    2  A    between atoms: C_5  and  C_20
REMARK    3  A    between atoms: C_9  and  C_10
REMARK    4  A    between atoms: C_10  and  C_11
REMARK    5  A    between atoms: C_11  and  C_12
REMARK    6  A    between atoms: C_11  and  O_18
REMARK    7  A    between atoms: C_20  and  C_21
REMARK    8  A    between atoms: C_21  and  C_22
REMARK    9  A    between atoms: C_22  and  C_23
REMARK   10  A    between atoms: C_23  and  C_24
REMARK   11  A    between atoms: C_24  and  C_25
REMARK   12  A    between atoms: C_25  and  C_27
REMARK   13  A    between atoms: C_27  and  O_28
REMARK                            x       y       z     vdW  Elec       q    Type
REMARK                         _______ _______ _______ _____ _____    ______ ____
ROOT
ATOM      1  O   UNL     1       0.902   3.912   1.517  0.00  0.00    -0.273 OA
ATOM      2  O   UNL     1      -0.785   2.316  -2.434  0.00  0.00    -0.252 OA
ATOM      3  N   UNL     1      -0.580   1.347  -0.300  0.00  0.00    -0.257 N 
ATOM      4  N   UNL     1       0.149   3.426  -0.623  0.00  0.00    -0.238 N 
ATOM      5  C   UNL     1      -0.072   1.739   1.004  0.00  0.00    +0.153 C 
ATOM      6  C   UNL     1       0.392   3.156   0.701  0.00  0.00    +0.247 C 
ATOM      7  C   UNL     1      -0.443   2.356  -1.259  0.00  0.00    +0.310 C 
ATOM      8  H   UNL     1       0.369   4.279  -1.064  0.00  0.00    +0.159 HD
ENDROOT
BRANCH   3   9
ATOM      9  C   UNL     1      -1.218   0.065  -0.527  0.00  0.00    +0.098 C 
BRANCH   9  10
ATOM     10  C   UNL     1      -2.716   0.102  -0.232  0.00  0.00    +0.051 C 
BRANCH  10  11
ATOM     11  C   UNL     1      -3.413  -1.248  -0.437  0.00  0.00    +0.112 C 
BRANCH  11  12
ATOM     12  C   UNL     1      -4.741  -1.302   0.316  0.00  0.00    +0.027 C 
ATOM     13  C   UNL     1      -5.415  -2.668   0.130  0.00  0.00    +0.002 C 
ATOM     14  C   UNL     1      -5.670  -0.168  -0.141  0.00  0.00    +0.002 C 
ATOM     15  C   UNL     1      -6.770  -2.728   0.830  0.00  0.00    +0.000 C 
ATOM     16  C   UNL     1      -7.025  -0.233   0.559  0.00  0.00    +0.000 C 
ATOM     17  C   UNL     1      -7.687  -1.595   0.380  0.00  0.00    +0.000 C 
ENDBRANCH  11  12
BRANCH  11  18
ATOM     18  O   UNL     1      -3.665  -1.438  -1.827  0.00  0.00    -0.384 OA
ATOM     19  H   UNL     1      -4.106  -2.291  -1.962  0.00  0.00    +0.210 HD
ENDBRANCH  11  18
ENDBRANCH  10  11
ENDBRANCH   9  10
ENDBRANCH   3   9
BRANCH   5  20
ATOM     20  C   UNL     1       1.083   0.879   1.493  0.00  0.00    +0.029 C 
BRANCH  20  21
ATOM     21  C   UNL     1       2.212   0.819   0.463  0.00  0.00    +0.002 C 
BRANCH  21  22
ATOM     22  C   UNL     1       3.354  -0.078   0.945  0.00  0.00    +0.000 C 
BRANCH  22  23
ATOM     23  C   UNL     1       4.518  -0.169  -0.046  0.00  0.00    +0.001 C 
BRANCH  23  24
ATOM     24  C   UNL     1       5.701  -1.036   0.394  0.00  0.00    +0.012 C 
BRANCH  24  25
ATOM     25  C   UNL     1       6.855  -1.045  -0.609  0.00  0.00    +0.109 C 
BRANCH  25  27
ATOM     26  O   UNL     1       8.031  -2.547   0.904  0.00  0.00    -0.250 OA
ATOM     27  C   UNL     1       7.997  -1.921  -0.145  0.00  0.00    +0.314 C 
BRANCH  27  28
ATOM     28  O   UNL     1       9.007  -1.940  -1.054  0.00  0.00    -0.480 OA
ATOM     29  H   UNL     1       8.935  -1.443  -1.845  0.00  0.00    +0.295 HD
ENDBRANCH  27  28
ENDBRANCH  25  27
ENDBRANCH  24  25
ENDBRANCH  23  24
ENDBRANCH  22  23
ENDBRANCH  21  22
ENDBRANCH  20  21
ENDBRANCH   5  20
TORSDOF 13
