119454
  -OEChem-03292013323D

 65 71  0     1  0  0  0  0  0999 V2000
   -1.0837    0.5233    2.2422 O   0  0  0  0  0  0  0  0  0  0  0  0
    0.8013   -0.8767    0.0493 O   0  0  0  0  0  0  0  0  0  0  0  0
    1.8007    1.1295    0.8157 O   0  0  0  0  0  0  0  0  0  0  0  0
    2.4811    0.2772   -1.1737 O   0  0  0  0  0  0  0  0  0  0  0  0
   -3.0379    0.6380   -1.1842 O   0  0  0  0  0  0  0  0  0  0  0  0
   -4.5484    0.9769    1.0589 O   0  0  0  0  0  0  0  0  0  0  0  0
   -2.9783    3.3599    2.5495 O   0  0  0  0  0  0  0  0  0  0  0  0
   -5.0848   -1.3550   -0.6579 O   0  0  0  0  0  0  0  0  0  0  0  0
   -0.3995    1.2844   -0.0576 C   0  0  1  0  0  0  0  0  0  0  0  0
   -0.3385   -0.2027   -0.5639 C   0  0  2  0  0  0  0  0  0  0  0  0
   -0.9508    1.5921    1.3128 C   0  0  1  0  0  0  0  0  0  0  0  0
   -2.3105    1.1774    1.8438 C   0  0  1  0  0  0  0  0  0  0  0  0
    1.0368    1.8505   -0.1597 C   0  0  2  0  0  0  0  0  0  0  0  0
   -1.5700   -1.0444   -0.1076 C   0  0  1  0  0  0  0  0  0  0  0  0
   -0.1358   -0.1430   -2.1413 C   0  0  1  0  0  0  0  0  0  0  0  0
    1.7366    1.4708   -1.4812 C   0  0  2  0  0  0  0  0  0  0  0  0
   -2.9340   -0.3271   -0.1485 C   0  0  1  0  0  0  0  0  0  0  0  0
   -3.3181    0.2591    1.2111 C   0  0  2  0  0  0  0  0  0  0  0  0
    0.7254    1.0891   -2.5639 C   0  0  0  0  0  0  0  0  0  0  0  0
    2.0158   -0.1038    0.1238 C   0  0  2  0  0  0  0  0  0  0  0  0
   -2.8526    2.0052    2.9709 C   0  0  0  0  0  0  0  0  0  0  0  0
   -1.8366   -2.3604   -0.7849 C   0  0  0  0  0  0  0  0  0  0  0  0
    0.4587   -1.4100   -2.7837 C   0  0  0  0  0  0  0  0  0  0  0  0
   -3.8652   -1.4305   -0.6114 C   0  0  0  0  0  0  0  0  0  0  0  0
    2.7069    2.5134   -1.9360 C   0  0  0  0  0  0  0  0  0  0  0  0
   -3.1169   -2.6152   -1.0638 C   0  0  0  0  0  0  0  0  0  0  0  0
    3.0411   -0.9445    0.8513 C   0  0  0  0  0  0  0  0  0  0  0  0
    4.1637    2.1746   -1.9303 C   0  0  0  0  0  0  0  0  0  0  0  0
   -3.7416   -3.8182   -1.6519 C   0  0  0  0  0  0  0  0  0  0  0  0
    2.2298    3.7033   -2.3272 C   0  0  0  0  0  0  0  0  0  0  0  0
    3.1742   -0.8481    2.2402 C   0  0  0  0  0  0  0  0  0  0  0  0
    3.8637   -1.8240    0.1404 C   0  0  0  0  0  0  0  0  0  0  0  0
    4.1201   -1.6231    2.9111 C   0  0  0  0  0  0  0  0  0  0  0  0
    4.8095   -2.5992    0.8113 C   0  0  0  0  0  0  0  0  0  0  0  0
    4.9378   -2.4987    2.1966 C   0  0  0  0  0  0  0  0  0  0  0  0
   -1.0248    1.8717   -0.7408 H   0  0  0  0  0  0  0  0  0  0  0  0
   -0.5526    2.5285    1.6897 H   0  0  0  0  0  0  0  0  0  0  0  0
    1.0591    2.9188    0.0799 H   0  0  0  0  0  0  0  0  0  0  0  0
   -1.3718   -1.3772    0.9223 H   0  0  0  0  0  0  0  0  0  0  0  0
   -1.1016    0.0080   -2.6304 H   0  0  0  0  0  0  0  0  0  0  0  0
   -3.5267   -0.5566    1.9149 H   0  0  0  0  0  0  0  0  0  0  0  0
    1.2392    0.8786   -3.5109 H   0  0  0  0  0  0  0  0  0  0  0  0
    0.0501    1.9294   -2.7727 H   0  0  0  0  0  0  0  0  0  0  0  0
   -2.1940    1.9862    3.8476 H   0  0  0  0  0  0  0  0  0  0  0  0
   -3.8332    1.6620    3.3157 H   0  0  0  0  0  0  0  0  0  0  0  0
   -1.0535   -3.0920   -0.9388 H   0  0  0  0  0  0  0  0  0  0  0  0
    0.7084   -1.2308   -3.8359 H   0  0  0  0  0  0  0  0  0  0  0  0
    1.3696   -1.7509   -2.2858 H   0  0  0  0  0  0  0  0  0  0  0  0
   -0.2523   -2.2363   -2.7930 H   0  0  0  0  0  0  0  0  0  0  0  0
   -2.9754    0.1922   -2.0446 H   0  0  0  0  0  0  0  0  0  0  0  0
   -4.4007    1.6754    0.3980 H   0  0  0  0  0  0  0  0  0  0  0  0
    4.5009    1.9232   -0.9194 H   0  0  0  0  0  0  0  0  0  0  0  0
    4.3703    1.3305   -2.5964 H   0  0  0  0  0  0  0  0  0  0  0  0
    4.7744    3.0162   -2.2753 H   0  0  0  0  0  0  0  0  0  0  0  0
   -2.0918    3.7578    2.5495 H   0  0  0  0  0  0  0  0  0  0  0  0
   -4.4696   -4.2515   -0.9590 H   0  0  0  0  0  0  0  0  0  0  0  0
   -2.9950   -4.5859   -1.8796 H   0  0  0  0  0  0  0  0  0  0  0  0
   -4.2584   -3.5646   -2.5827 H   0  0  0  0  0  0  0  0  0  0  0  0
    2.9003    4.4873   -2.6648 H   0  0  0  0  0  0  0  0  0  0  0  0
    1.1711    3.9387   -2.3173 H   0  0  0  0  0  0  0  0  0  0  0  0
    2.5412   -0.1822    2.8206 H   0  0  0  0  0  0  0  0  0  0  0  0
    3.7749   -1.9243   -0.9381 H   0  0  0  0  0  0  0  0  0  0  0  0
    4.2182   -1.5472    3.9901 H   0  0  0  0  0  0  0  0  0  0  0  0
    5.4448   -3.2826    0.2555 H   0  0  0  0  0  0  0  0  0  0  0  0
    5.6735   -3.1031    2.7191 H   0  0  0  0  0  0  0  0  0  0  0  0
  1 11  1  0  0  0  0
  1 12  1  0  0  0  0
  2 10  1  0  0  0  0
  2 20  1  0  0  0  0
  3 13  1  0  0  0  0
  3 20  1  0  0  0  0
  4 16  1  0  0  0  0
  4 20  1  0  0  0  0
  5 17  1  0  0  0  0
  5 50  1  0  0  0  0
  6 18  1  0  0  0  0
  6 51  1  0  0  0  0
  7 21  1  0  0  0  0
  7 55  1  0  0  0  0
  8 24  2  0  0  0  0
  9 10  1  0  0  0  0
  9 11  1  0  0  0  0
  9 13  1  0  0  0  0
  9 36  1  0  0  0  0
 10 14  1  0  0  0  0
 10 15  1  0  0  0  0
 11 12  1  0  0  0  0
 11 37  1  0  0  0  0
 12 18  1  0  0  0  0
 12 21  1  0  0  0  0
 13 16  1  0  0  0  0
 13 38  1  0  0  0  0
 14 17  1  0  0  0  0
 14 22  1  0  0  0  0
 14 39  1  0  0  0  0
 15 19  1  0  0  0  0
 15 23  1  0  0  0  0
 15 40  1  0  0  0  0
 16 19  1  0  0  0  0
 16 25  1  0  0  0  0
 17 18  1  0  0  0  0
 17 24  1  0  0  0  0
 18 41  1  0  0  0  0
 19 42  1  0  0  0  0
 19 43  1  0  0  0  0
 20 27  1  0  0  0  0
 21 44  1  0  0  0  0
 21 45  1  0  0  0  0
 22 26  2  0  0  0  0
 22 46  1  0  0  0  0
 23 47  1  0  0  0  0
 23 48  1  0  0  0  0
 23 49  1  0  0  0  0
 24 26  1  0  0  0  0
 25 28  1  0  0  0  0
 25 30  2  0  0  0  0
 26 29  1  0  0  0  0
 27 31  2  0  0  0  0
 27 32  1  0  0  0  0
 28 52  1  0  0  0  0
 28 53  1  0  0  0  0
 28 54  1  0  0  0  0
 29 56  1  0  0  0  0
 29 57  1  0  0  0  0
 29 58  1  0  0  0  0
 30 59  1  0  0  0  0
 30 60  1  0  0  0  0
 31 33  1  0  0  0  0
 31 61  1  0  0  0  0
 32 34  2  0  0  0  0
 32 62  1  0  0  0  0
 33 35  2  0  0  0  0
 33 63  1  0  0  0  0
 34 35  1  0  0  0  0
 34 64  1  0  0  0  0
 35 65  1  0  0  0  0
M  END
> <PUBCHEM_COMPOUND_CID>
119454

> <PUBCHEM_CONFORMER_RMSD>
0.8

> <PUBCHEM_CONFORMER_DIVERSEORDER>
1

> <PUBCHEM_MMFF94_PARTIAL_CHARGES>
44
1 -0.3
10 0.28
11 -0.05
12 -0.04
13 0.28
14 0.14
16 0.42
17 0.34
18 0.38
2 -0.56
20 0.98
21 0.38
22 -0.29
24 0.49
25 -0.28
26 -0.12
27 -0.14
28 0.14
29 0.14
3 -0.56
30 -0.3
31 -0.15
32 -0.15
33 -0.15
34 -0.15
35 -0.15
37 0.1
4 -0.56
46 0.15
5 -0.68
50 0.4
51 0.4
55 0.4
59 0.15
6 -0.68
60 0.15
61 0.15
62 0.15
63 0.15
64 0.15
65 0.15
7 -0.68
8 -0.57
9 0.09

> <PUBCHEM_EFFECTIVE_ROTOR_COUNT>
4.4

> <PUBCHEM_PHARMACOPHORE_FEATURES>
15
1 1 acceptor
1 2 acceptor
1 3 acceptor
1 4 acceptor
1 5 acceptor
1 5 donor
1 6 acceptor
1 6 donor
1 7 acceptor
1 7 donor
1 8 acceptor
10 2 3 4 9 10 13 15 16 19 20 rings
5 14 17 22 24 26 rings
6 27 31 32 33 34 35 rings
7 9 10 11 12 14 17 18 rings

> <PUBCHEM_HEAVY_ATOM_COUNT>
35

> <PUBCHEM_ATOM_DEF_STEREO_COUNT>
11

> <PUBCHEM_ATOM_UDEF_STEREO_COUNT>
0

> <PUBCHEM_BOND_DEF_STEREO_COUNT>
0

> <PUBCHEM_BOND_UDEF_STEREO_COUNT>
0

> <PUBCHEM_ISOTOPIC_ATOM_COUNT>
0

> <PUBCHEM_COMPONENT_COUNT>
1

> <PUBCHEM_CACTVS_TAUTO_COUNT>
3

> <PUBCHEM_CONFORMER_ID>
0001D29E00000001

> <PUBCHEM_MMFF94_ENERGY>
128.4023

> <PUBCHEM_FEATURE_SELFOVERLAP>
76.306

> <PUBCHEM_SHAPE_FINGERPRINT>
10369192 42 13757495842575040290
10764073 3 17052741764612772670
11049842 53 17772217247980704911
11421498 54 17907027518316817494
11578080 2 18120622903483956157
11607047 191 16698073436785538354
11640471 11 18120684497746773413
12128747 34 16843603752588644718
12160290 23 17346333570167930537
12166972 35 18336812161466294735
12422481 6 17614292065005454992
12553582 1 17749665178454141482
12655364 131 18042960055967266824
12788726 201 18057623116869448347
13009979 54 18412823611712146115
131258 38 17547813771014895662
13140716 1 17632014273291096515
133893 2 17895480331622672014
13583140 156 17825134681442389337
13726171 33 17485960671563990425
14068700 675 18267563827800436418
14178342 30 17988928821189269723
14251757 17 14057009278276108406
14844126 61 17174299453879849954
14950920 106 17843092863431104378
15219462 58 18045525233094223313
15328829 1 18338527416653476124
15484559 13 10820686119919970105
15842332 3 18339094755783886168
17349148 13 18131346414940929807
17818456 19 18272087184493184987
17974551 9 17058353787909546042
17980427 23 18201716194047872104
17980427 26 17680183847397092476
1813 80 18115020806336528350
18681886 176 17630905978097121236
18915476 22 17096092514366319348
19315092 285 18118669157283924215
19319366 153 17545312438053808454
20101258 96 17752190709745036572
20505436 4 17905091153902621521
20600515 1 17775278378831427233
21033648 29 17553203207973471256
21814621 53 17313383474916858707
22182313 1 15719401667238746944
23559900 14 17560818592704690878
244849 19 16515409590120214097
25147074 1 18410864286301792328
3380486 77 18409444795764149999
3886686 26 17699852813153752223
404807 78 15947935433877224859
469060 322 18042945611485952162
484985 159 17904734723378376346
513202 73 17467356617295211690
57527573 199 16556501462144208320
5951187 136 14255456605605062817
6823239 73 16915396617067446453
70251023 43 17604413154972783083

> <PUBCHEM_SHAPE_MULTIPOLES>
673.33
8.85
3.85
3.21
0.65
0.55
1.21
-5.82
2.26
2.55
-1.06
-0.78
0.79
-6.1

> <PUBCHEM_SHAPE_SELFOVERLAP>
1513.555

> <PUBCHEM_SHAPE_VOLUME>
347.4

> <PUBCHEM_COORDINATE_TYPE>
2
5
10

$$$$
