REMARK  Name = 119454
REMARK  6 active torsions:
REMARK  status: ('A' for Active; 'I' for Inactive)
REMARK    1  A    between atoms: C_9  and  C_36
REMARK    2  A    between atoms: C_13  and  C_29
REMARK    3  A    between atoms: C_14  and  O_32
REMARK    4  A    between atoms: C_15  and  O_34
REMARK    5  A    between atoms: C_17  and  C_23
REMARK    6  A    between atoms: C_36  and  O_37
REMARK                            x       y       z     vdW  Elec       q    Type
REMARK                         _______ _______ _______ _____ _____    ______ ____
ROOT
ATOM      1  O   UNL     1      -1.084   0.523   2.242  0.00  0.00    -0.351 OA
ATOM      2  O   UNL     1       0.801  -0.877   0.049  0.00  0.00    -0.314 OA
ATOM      3  O   UNL     1       1.801   1.129   0.816  0.00  0.00    -0.309 OA
ATOM      4  O   UNL     1       2.481   0.277  -1.174  0.00  0.00    -0.308 OA
ATOM      5  O   UNL     1      -5.085  -1.355  -0.658  0.00  0.00    -0.289 OA
ATOM      6  C   UNL     1      -0.400   1.284  -0.058  0.00  0.00    +0.085 C 
ATOM      7  C   UNL     1      -0.339  -0.203  -0.564  0.00  0.00    +0.109 C 
ATOM      8  C   UNL     1      -0.951   1.592   1.313  0.00  0.00    +0.149 C 
ATOM      9  C   UNL     1      -2.311   1.177   1.844  0.00  0.00    +0.171 C 
ATOM     10  C   UNL     1       1.037   1.851  -0.160  0.00  0.00    +0.153 C 
ATOM     11  C   UNL     1      -1.570  -1.044  -0.108  0.00  0.00    +0.081 C 
ATOM     12  C   UNL     1      -0.136  -0.143  -2.141  0.00  0.00    +0.028 C 
ATOM     13  C   UNL     1       1.737   1.471  -1.481  0.00  0.00    +0.138 C 
ATOM     14  C   UNL     1      -2.934  -0.327  -0.148  0.00  0.00    +0.175 C 
ATOM     15  C   UNL     1      -3.318   0.259   1.211  0.00  0.00    +0.172 C 
ATOM     16  C   UNL     1       0.725   1.089  -2.564  0.00  0.00    +0.036 C 
ATOM     17  C   UNL     1       2.016  -0.104   0.124  0.00  0.00    +0.318 C 
ATOM     18  C   UNL     1      -1.837  -2.360  -0.785  0.00  0.00    -0.023 C 
ATOM     19  C   UNL     1       0.459  -1.410  -2.784  0.00  0.00    +0.003 C 
ATOM     20  C   UNL     1      -3.865  -1.431  -0.611  0.00  0.00    +0.195 C 
ATOM     21  C   UNL     1      -3.117  -2.615  -1.064  0.00  0.00    +0.011 C 
ATOM     22  C   UNL     1      -3.742  -3.818  -1.652  0.00  0.00    +0.034 C 
ENDROOT
BRANCH  17  23
ATOM     23  C   UNL     1       3.041  -0.945   0.851  0.00  0.00    +0.058 C 
ATOM     24  C   UNL     1       3.174  -0.848   2.240  0.00  0.00    +0.003 C 
ATOM     25  C   UNL     1       3.864  -1.824   0.140  0.00  0.00    +0.003 C 
ATOM     26  C   UNL     1       4.120  -1.623   2.911  0.00  0.00    -0.000 C 
ATOM     27  C   UNL     1       4.809  -2.599   0.811  0.00  0.00    -0.000 C 
ATOM     28  C   UNL     1       4.938  -2.499   2.197  0.00  0.00    -0.000 C 
ENDBRANCH  17  23
BRANCH  13  29
ATOM     29  C   UNL     1       2.707   2.513  -1.936  0.00  0.00    -0.017 C 
ATOM     30  C   UNL     1       4.164   2.175  -1.930  0.00  0.00    +0.029 C 
ATOM     31  C   UNL     1       2.230   3.703  -2.327  0.00  0.00    -0.007 C 
ENDBRANCH  13  29
BRANCH  14  32
ATOM     32  O   UNL     1      -3.038   0.638  -1.184  0.00  0.00    -0.377 OA
ATOM     33  H   UNL     1      -2.469   1.396  -0.978  0.00  0.00    +0.211 HD
ENDBRANCH  14  32
BRANCH  15  34
ATOM     34  O   UNL     1      -4.548   0.977   1.059  0.00  0.00    -0.379 OA
ATOM     35  H   UNL     1      -4.809   1.357   1.913  0.00  0.00    +0.211 HD
ENDBRANCH  15  34
BRANCH   9  36
ATOM     36  C   UNL     1      -2.853   2.005   2.971  0.00  0.00    +0.169 C 
BRANCH  36  37
ATOM     37  O   UNL     1      -2.978   3.360   2.550  0.00  0.00    -0.379 OA
ATOM     38  H   UNL     1      -3.329   3.894   3.279  0.00  0.00    +0.211 HD
ENDBRANCH  36  37
ENDBRANCH   9  36
TORSDOF 6
