REMARK  Name = 119446
REMARK  10 active torsions:
REMARK  status: ('A' for Active; 'I' for Inactive)
REMARK    1  A    between atoms: N_2  and  CA_14
REMARK    2  A    between atoms: C_3  and  CA_5
REMARK    3  A    between atoms: CA_5  and  N_7
REMARK    4  A    between atoms: CA_5  and  CB_10
REMARK    5  A    between atoms: CB_10  and  CG_11
REMARK    6  A    between atoms: CG_11  and  SD_12
REMARK    7  A    between atoms: CA_14  and  C_16
REMARK    8  A    between atoms: CA_14  and  CB_19
REMARK    9  A    between atoms: C_16  and  O_17
REMARK   10  A    between atoms: CB_19  and  CG_20
REMARK                            x       y       z     vdW  Elec       q    Type
REMARK                         _______ _______ _______ _____ _____    ______ ____
ROOT
ATOM      1  O   UNL     1       1.448   0.385   2.316  0.00  0.00    -0.273 OA
ATOM      2  N   UNL     1       0.115  -0.279   0.537  0.00  0.00    -0.295 N 
ATOM      3  C   UNL     1       1.220   0.334   1.109  0.00  0.00    +0.241 C 
ATOM      4  H   UNL     1       0.021  -0.266  -0.443  0.00  0.00    +0.150 HD
ENDROOT
BRANCH   3   5
ATOM      5  CA  UNL     1       2.162   0.920   0.061  0.00  0.00    +0.150 C 
BRANCH   5   7
ATOM      6  O   UNL     1       3.561   3.349  -0.804  0.00  0.00    -0.265 OA
ATOM      7  N   UNL     1       3.226   1.619   0.734  0.00  0.00    -0.291 N 
ATOM      8  C   ACE A   0       3.820   2.761   0.238  0.00  0.00    +0.300 C 
ATOM      9  H   UNL     1       3.547   1.263   1.594  0.00  0.00    +0.150 HD
ENDBRANCH   5   7
BRANCH   5  10
ATOM     10  CB  UNL     1       2.692  -0.135  -0.919  0.00  0.00    +0.041 C 
BRANCH  10  11
ATOM     11  CG  UNL     1       3.445  -1.281  -0.240  0.00  0.00    +0.060 C 
BRANCH  11  12
ATOM     12  SD  UNL     1       4.024  -2.483  -1.474  0.00  0.00    -0.139 S 
ATOM     13  CE  UNL     1       2.484  -3.408  -1.679  0.00  0.00    +0.069 C 
ENDBRANCH  11  12
ENDBRANCH  10  11
ENDBRANCH   5  10
ENDBRANCH   3   5
BRANCH   2  14
ATOM     14  CA  UNL     1      -0.904  -0.935   1.323  0.00  0.00    +0.176 C 
BRANCH  14  16
ATOM     15  OXT UNL     1      -2.288  -2.906   1.093  0.00  0.00    -0.248 OA
ATOM     16  C   UNL     1      -1.468  -2.144   0.590  0.00  0.00    +0.332 C 
BRANCH  16  17
ATOM     17  O   UNL     1      -1.002  -2.314  -0.670  0.00  0.00    -0.479 OA
ATOM     18  H   UNL     1      -0.376  -1.713  -1.023  0.00  0.00    +0.295 HD
ENDBRANCH  16  17
ENDBRANCH  14  16
BRANCH  14  19
ATOM     19  CB  UNL     1      -2.036   0.036   1.683  0.00  0.00    +0.057 C 
BRANCH  19  20
ATOM     20  CG  UNL     1      -2.754   0.579   0.470  0.00  0.00    -0.020 C 
ATOM     21  CD1 UNL     1      -2.308   1.753  -0.136  0.00  0.00    -0.004 C 
ATOM     22  CD2 UNL     1      -3.862  -0.094  -0.043  0.00  0.00    -0.004 C 
ATOM     23  CE1 UNL     1      -2.970   2.254  -1.256  0.00  0.00    -0.000 C 
ATOM     24  CE2 UNL     1      -4.525   0.408  -1.163  0.00  0.00    -0.000 C 
ATOM     25  CZ  UNL     1      -4.079   1.582  -1.770  0.00  0.00    -0.000 C 
ENDBRANCH  19  20
ENDBRANCH  14  19
ENDBRANCH   2  14
TORSDOF 10
