REMARK  Name = 119495
REMARK  4 active torsions:
REMARK  status: ('A' for Active; 'I' for Inactive)
REMARK    1  A    between atoms: N_5  and  O_36
REMARK    2  A    between atoms: C_10  and  N_21
REMARK    3  A    between atoms: C_23  and  C_32
REMARK    4  A    between atoms: C_32  and  C_33
REMARK                            x       y       z     vdW  Elec       q    Type
REMARK                         _______ _______ _______ _____ _____    ______ ____
ROOT
ATOM      1  O   UNL     1      -1.123   0.907   1.882  0.00  0.00    -0.447 OA
ATOM      2  O   UNL     1      -5.769  -0.870  -1.159  0.00  0.00    -0.273 OA
ATOM      3  O   UNL     1       0.833   0.366   2.948  0.00  0.00    -0.248 OA
ATOM      4  N   UNL     1      -3.917   0.033  -0.025  0.00  0.00    -0.241 N 
ATOM      5  N   UNL     1      -2.650  -1.798   0.176  0.00  0.00    -0.141 NA
ATOM      6  C   UNL     1      -1.705   0.636   0.601  0.00  0.00    +0.191 C 
ATOM      7  C   UNL     1      -2.796  -0.460   0.740  0.00  0.00    +0.205 C 
ATOM      8  C   UNL     1      -0.531   0.323  -0.309  0.00  0.00    +0.079 C 
ATOM      9  C   UNL     1      -2.542   1.813   0.131  0.00  0.00    +0.030 C 
ATOM     10  C   UNL     1       0.453  -0.322   0.643  0.00  0.00    +0.185 C 
ATOM     11  C   UNL     1      -3.817   1.389  -0.269  0.00  0.00    +0.055 C 
ATOM     12  C   UNL     1      -4.041  -2.252  -0.090  0.00  0.00    +0.162 C 
ATOM     13  C   UNL     1      -4.739  -0.959  -0.514  0.00  0.00    +0.247 C 
ATOM     14  C   UNL     1       0.124   0.344   1.954  0.00  0.00    +0.336 C 
ATOM     15  C   UNL     1      -2.176   3.141  -0.007  0.00  0.00    +0.000 C 
ATOM     16  C   UNL     1      -4.734   2.242  -0.850  0.00  0.00    +0.015 C 
ATOM     17  C   UNL     1      -4.077  -3.318  -1.168  0.00  0.00    +0.030 C 
ATOM     18  C   UNL     1      -3.102   4.029  -0.564  0.00  0.00    -0.000 C 
ATOM     19  C   UNL     1      -4.366   3.581  -0.987  0.00  0.00    +0.001 C 
ENDROOT
BRANCH  10  21
ATOM     20  O   UNL     1       1.588   2.258   0.214  0.00  0.00    -0.274 OA
ATOM     21  N   UNL     1       1.818  -0.070   0.295  0.00  0.00    -0.222 N 
ATOM     22  N   UNL     1       3.981  -1.040  -0.165  0.00  0.00    -0.387 NA
ATOM     23  C   UNL     1       2.725  -1.133   0.126  0.00  0.00    +0.224 C 
ATOM     24  C   UNL     1       2.287   1.253   0.113  0.00  0.00    +0.242 C 
ATOM     25  C   UNL     1       3.723   1.399  -0.219  0.00  0.00    +0.151 C 
ATOM     26  C   UNL     1       4.510   0.248  -0.341  0.00  0.00    +0.123 C 
ATOM     27  C   UNL     1       4.282   2.669  -0.404  0.00  0.00    -0.010 C 
ATOM     28  C   UNL     1       5.867   0.386  -0.653  0.00  0.00    +0.028 C 
ATOM     29  C   UNL     1       5.636   2.790  -0.714  0.00  0.00    -0.004 C 
ATOM     30  C   UNL     1       6.428   1.650  -0.838  0.00  0.00    +0.002 C 
BRANCH  23  32
ATOM     31  O   UNL     1       2.238  -2.978   1.440  0.00  0.00    -0.287 OA
ATOM     32  C   UNL     1       2.192  -2.505   0.312  0.00  0.00    +0.216 C 
BRANCH  32  33
ATOM     33  C   UNL     1       1.642  -3.203  -0.920  0.00  0.00    +0.066 C 
ATOM     34  C   UNL     1       1.126  -4.589  -0.549  0.00  0.00    +0.008 C 
ATOM     35  C   UNL     1       2.705  -3.299  -2.012  0.00  0.00    +0.008 C 
ENDBRANCH  32  33
ENDBRANCH  23  32
ENDBRANCH  10  21
BRANCH   5  36
ATOM     36  O   UNL     1      -2.069  -2.662   1.183  0.00  0.00    -0.309 OA
ATOM     37  H   UNL     1      -1.160  -2.377   1.367  0.00  0.00    +0.237 HD
ENDBRANCH   5  36
TORSDOF 4
