REMARK  Name = 119411
REMARK  12 active torsions:
REMARK  status: ('A' for Active; 'I' for Inactive)
REMARK    1  A    between atoms: P_1  and  C_2
REMARK    2  A    between atoms: P_1  and  C_8
REMARK    3  A    between atoms: P_1  and  C_14
REMARK    4  A    between atoms: C_2  and  C_3
REMARK    5  A    between atoms: C_3  and  C_5
REMARK    6  A    between atoms: C_5  and  O_6
REMARK    7  A    between atoms: C_8  and  C_9
REMARK    8  A    between atoms: C_9  and  C_11
REMARK    9  A    between atoms: C_11  and  O_12
REMARK   10  A    between atoms: C_14  and  C_15
REMARK   11  A    between atoms: C_15  and  C_17
REMARK   12  A    between atoms: C_17  and  O_18
REMARK                            x       y       z     vdW  Elec       q    Type
REMARK                         _______ _______ _______ _____ _____    ______ ____
ROOT
ATOM      1  P   UNL     1      -0.085  -0.024   0.997  0.00  0.00    -0.078 P 
ENDROOT
BRANCH   1   2
ATOM      2  C   UNL     1       1.092   1.097   0.119  0.00  0.00    +0.033 C 
BRANCH   2   3
ATOM      3  C   UNL     1       0.933   2.547   0.565  0.00  0.00    +0.114 C 
BRANCH   3   5
ATOM      4  O   UNL     1       2.697   3.120  -1.014  0.00  0.00    -0.250 OA
ATOM      5  C   UNL     1       1.878   3.468  -0.174  0.00  0.00    +0.314 C 
BRANCH   5   6
ATOM      6  O   UNL     1       1.710   4.761   0.207  0.00  0.00    -0.480 OA
ATOM      7  H   UNL     1       1.070   4.980   0.855  0.00  0.00    +0.295 HD
ENDBRANCH   5   6
ENDBRANCH   3   5
ENDBRANCH   2   3
ENDBRANCH   1   2
BRANCH   1   8
ATOM      8  C   UNL     1       0.383  -1.620   0.230  0.00  0.00    +0.033 C 
BRANCH   8   9
ATOM      9  C   UNL     1       1.848  -1.963   0.484  0.00  0.00    +0.114 C 
BRANCH   9  11
ATOM     10  O   UNL     1       1.493  -3.993  -0.813  0.00  0.00    -0.250 OA
ATOM     11  C   UNL     1       2.240  -3.268  -0.172  0.00  0.00    +0.314 C 
BRANCH  11  12
ATOM     12  O   UNL     1       3.553  -3.552   0.034  0.00  0.00    -0.480 OA
ATOM     13  H   UNL     1       4.087  -2.965   0.533  0.00  0.00    +0.295 HD
ENDBRANCH  11  12
ENDBRANCH   9  11
ENDBRANCH   8   9
ENDBRANCH   1   8
BRANCH   1  14
ATOM     14  C   UNL     1      -1.616   0.347   0.063  0.00  0.00    +0.033 C 
BRANCH  14  15
ATOM     15  C   UNL     1      -2.804  -0.458   0.580  0.00  0.00    +0.114 C 
BRANCH  15  17
ATOM     16  O   UNL     1      -4.153   0.621  -1.137  0.00  0.00    -0.250 OA
ATOM     17  C   UNL     1      -4.062  -0.171  -0.209  0.00  0.00    +0.314 C 
BRANCH  17  18
ATOM     18  O   UNL     1      -5.109  -0.914   0.238  0.00  0.00    -0.480 OA
ATOM     19  H   UNL     1      -4.990  -1.508   0.952  0.00  0.00    +0.295 HD
ENDBRANCH  17  18
ENDBRANCH  15  17
ENDBRANCH  14  15
ENDBRANCH   1  14
TORSDOF 12
