REMARK  Name = 119474
REMARK  8 active torsions:
REMARK  status: ('A' for Active; 'I' for Inactive)
REMARK    1  A    between atoms: S_1  and  C_2
REMARK    2  A    between atoms: S_1  and  C_12
REMARK    3  A    between atoms: C_3  and  O_8
REMARK    4  A    between atoms: C_5  and  O_10
REMARK    5  A    between atoms: C_12  and  C_13
REMARK    6  A    between atoms: C_13  and  N_15
REMARK    7  A    between atoms: C_13  and  C_20
REMARK    8  A    between atoms: C_20  and  O_21
REMARK                            x       y       z     vdW  Elec       q    Type
REMARK                         _______ _______ _______ _____ _____    ______ ____
ROOT
ATOM      1  S   UNK A   1       0.115  -0.670   0.829  0.00  0.00    -0.108 S 
ENDROOT
BRANCH   1   2
ATOM      2  C   UNK A   1       1.800  -0.249   0.405  0.00  0.00    +0.062 C 
ATOM      3  C   UNK A   1       2.798  -1.222   0.346  0.00  0.00    +0.139 C 
ATOM      4  C   UNK A   1       2.108   1.083   0.130  0.00  0.00    +0.046 C 
ATOM      5  C   UNK A   1       3.414   1.443  -0.203  0.00  0.00    +0.134 C 
ATOM      6  C   UNK A   1       4.104  -0.862   0.013  0.00  0.00    +0.040 C 
ATOM      7  C   UNK A   1       4.412   0.470  -0.262  0.00  0.00    +0.040 C 
BRANCH   3   8
ATOM      8  O   UNK A   1       2.533  -2.534   0.609  0.00  0.00    -0.505 OA
ATOM      9  H   UNK A   1       1.664  -2.800   0.835  0.00  0.00    +0.292 HD
ENDBRANCH   3   8
BRANCH   5  10
ATOM     10  O   UNK A   1       3.715   2.743  -0.471  0.00  0.00    -0.505 OA
ATOM     11  H   UNK A   1       3.045   3.397  -0.432  0.00  0.00    +0.292 HD
ENDBRANCH   5  10
ENDBRANCH   1   2
BRANCH   1  12
ATOM     12  C   UNK A   1      -0.772  -0.131  -0.670  0.00  0.00    +0.093 C 
BRANCH  12  13
ATOM     13  C   UNK A   1      -2.284  -0.367  -0.610  0.00  0.00    +0.182 C 
BRANCH  13  15
ATOM     14  O   UNK A   0      -3.312   2.324  -0.969  0.00  0.00    -0.275 OA
ATOM     15  N   UNK A   1      -2.921   0.466   0.379  0.00  0.00    -0.296 N 
ATOM     16  C   UNK A   0      -3.382   1.746   0.112  0.00  0.00    +0.223 C 
ATOM     17  C   UNK A   0      -4.028   2.384   1.313  0.00  0.00    +0.095 C 
ATOM     18  H   UNK A   1      -3.034   0.108   1.289  0.00  0.00    +0.150 HD
ENDBRANCH  13  15
BRANCH  13  20
ATOM     19  O   UNK A   1      -2.293  -2.717  -1.204  0.00  0.00    -0.248 OA
ATOM     20  C   UNK A   1      -2.633  -1.834  -0.426  0.00  0.00    +0.333 C 
BRANCH  20  21
ATOM     21  O   UNK A   1      -3.375  -2.073   0.681  0.00  0.00    -0.479 OA
ATOM     22  H   UNK A   1      -3.611  -1.366   1.248  0.00  0.00    +0.295 HD
ENDBRANCH  20  21
ENDBRANCH  13  20
ENDBRANCH  12  13
ENDBRANCH   1  12
TORSDOF 8
