119446
  -OEChem-03292013323D

 42 42  0     1  0  0  0  0  0999 V2000
    4.0235   -2.4834   -1.4744 S   0  0  0  0  0  0  0  0  0  0  0  0
    1.4481    0.3849    2.3162 O   0  0  0  0  0  0  0  0  0  0  0  0
   -1.0018   -2.3140   -0.6699 O   0  0  0  0  0  0  0  0  0  0  0  0
   -2.2878   -2.9056    1.0926 O   0  0  0  0  0  0  0  0  0  0  0  0
    3.5608    3.3488   -0.8042 O   0  0  0  0  0  0  0  0  0  0  0  0
    0.1149   -0.2790    0.5373 N   0  0  0  0  0  0  0  0  0  0  0  0
    3.2261    1.6191    0.7343 N   0  0  0  0  0  0  0  0  0  0  0  0
    2.1618    0.9202    0.0615 C   0  0  1  0  0  0  0  0  0  0  0  0
   -0.9037   -0.9353    1.3229 C   0  0  1  0  0  0  0  0  0  0  0  0
    2.6917   -0.1350   -0.9191 C   0  0  0  0  0  0  0  0  0  0  0  0
   -2.0358    0.0356    1.6826 C   0  0  0  0  0  0  0  0  0  0  0  0
    1.2203    0.3343    1.1092 C   0  0  0  0  0  0  0  0  0  0  0  0
   -2.7536    0.5785    0.4704 C   0  0  0  0  0  0  0  0  0  0  0  0
    3.4449   -1.2813   -0.2399 C   0  0  0  0  0  0  0  0  0  0  0  0
   -1.4683   -2.1436    0.5903 C   0  0  0  0  0  0  0  0  0  0  0  0
   -2.3077    1.7527   -0.1364 C   0  0  0  0  0  0  0  0  0  0  0  0
   -3.8625   -0.0941   -0.0431 C   0  0  0  0  0  0  0  0  0  0  0  0
   -2.9705    2.2544   -1.2564 C   0  0  0  0  0  0  0  0  0  0  0  0
   -4.5253    0.4076   -1.1633 C   0  0  0  0  0  0  0  0  0  0  0  0
    3.8200    2.7611    0.2381 C   0  0  0  0  0  0  0  0  0  0  0  0
   -4.0793    1.5819   -1.7699 C   0  0  0  0  0  0  0  0  0  0  0  0
    2.4843   -3.4078   -1.6788 C   0  0  0  0  0  0  0  0  0  0  0  0
    1.5876    1.6614   -0.5099 H   0  0  0  0  0  0  0  0  0  0  0  0
   -0.4349   -1.3107    2.2404 H   0  0  0  0  0  0  0  0  0  0  0  0
    1.8555   -0.5323   -1.5055 H   0  0  0  0  0  0  0  0  0  0  0  0
    3.3604    0.3607   -1.6360 H   0  0  0  0  0  0  0  0  0  0  0  0
   -2.7643   -0.4620    2.3364 H   0  0  0  0  0  0  0  0  0  0  0  0
   -1.6375    0.8740    2.2693 H   0  0  0  0  0  0  0  0  0  0  0  0
   -0.0140   -0.2393   -0.4692 H   0  0  0  0  0  0  0  0  0  0  0  0
    2.8315   -1.7931    0.5077 H   0  0  0  0  0  0  0  0  0  0  0  0
    4.3298   -0.8929    0.2748 H   0  0  0  0  0  0  0  0  0  0  0  0
    3.5719    1.2439    1.6132 H   0  0  0  0  0  0  0  0  0  0  0  0
   -1.4467    2.2885    0.2544 H   0  0  0  0  0  0  0  0  0  0  0  0
   -4.2295   -1.0041    0.4232 H   0  0  0  0  0  0  0  0  0  0  0  0
   -2.6236    3.1689   -1.7284 H   0  0  0  0  0  0  0  0  0  0  0  0
   -5.3901   -0.1148   -1.5620 H   0  0  0  0  0  0  0  0  0  0  0  0
    4.6095    3.1143    0.9218 H   0  0  0  0  0  0  0  0  0  0  0  0
   -4.5957    1.9728   -2.6417 H   0  0  0  0  0  0  0  0  0  0  0  0
   -1.3952   -3.1009   -1.1036 H   0  0  0  0  0  0  0  0  0  0  0  0
    2.6597   -4.2440   -2.3613 H   0  0  0  0  0  0  0  0  0  0  0  0
    1.7029   -2.7768   -2.1084 H   0  0  0  0  0  0  0  0  0  0  0  0
    2.1470   -3.8126   -0.7210 H   0  0  0  0  0  0  0  0  0  0  0  0
  1 14  1  0  0  0  0
  1 22  1  0  0  0  0
  2 12  2  0  0  0  0
  3 15  1  0  0  0  0
  3 39  1  0  0  0  0
  4 15  2  0  0  0  0
  5 20  2  0  0  0  0
  6  9  1  0  0  0  0
  6 12  1  0  0  0  0
  6 29  1  0  0  0  0
  7  8  1  0  0  0  0
  7 20  1  0  0  0  0
  7 32  1  0  0  0  0
  8 10  1  0  0  0  0
  8 12  1  0  0  0  0
  8 23  1  0  0  0  0
  9 11  1  0  0  0  0
  9 15  1  0  0  0  0
  9 24  1  0  0  0  0
 10 14  1  0  0  0  0
 10 25  1  0  0  0  0
 10 26  1  0  0  0  0
 11 13  1  0  0  0  0
 11 27  1  0  0  0  0
 11 28  1  0  0  0  0
 13 16  2  0  0  0  0
 13 17  1  0  0  0  0
 14 30  1  0  0  0  0
 14 31  1  0  0  0  0
 16 18  1  0  0  0  0
 16 33  1  0  0  0  0
 17 19  2  0  0  0  0
 17 34  1  0  0  0  0
 18 21  2  0  0  0  0
 18 35  1  0  0  0  0
 19 21  1  0  0  0  0
 19 36  1  0  0  0  0
 20 37  1  0  0  0  0
 21 38  1  0  0  0  0
 22 40  1  0  0  0  0
 22 41  1  0  0  0  0
 22 42  1  0  0  0  0
M  END
> <PUBCHEM_COMPOUND_CID>
119446

> <PUBCHEM_CONFORMER_RMSD>
1

> <PUBCHEM_CONFORMER_DIVERSEORDER>
1
22
56
38
33
54
45
2
28
40
67
23
7
25
44
20
36
47
6
16
58
32
50
46
13
66
9
60
59
64
37
55
48
53
10
39
15
24
31
3
51
27
61
21
8
12
63
14
43
35
65
26
57
62
5
34
17
49
29
42
52
18
30
4
11
41
19

> <PUBCHEM_MMFF94_PARTIAL_CHARGES>
30
1 -0.46
11 0.14
12 0.57
13 -0.14
14 0.23
15 0.66
16 -0.15
17 -0.15
18 -0.15
19 -0.15
2 -0.57
20 0.57
21 -0.15
22 0.23
29 0.37
3 -0.65
32 0.37
33 0.15
34 0.15
35 0.15
36 0.15
37 0.06
38 0.15
39 0.5
4 -0.57
5 -0.57
6 -0.73
7 -0.73
8 0.36
9 0.36

> <PUBCHEM_EFFECTIVE_ROTOR_COUNT>
11

> <PUBCHEM_PHARMACOPHORE_FEATURES>
9
1 2 acceptor
1 22 hydrophobe
1 3 acceptor
1 4 acceptor
1 5 acceptor
1 6 donor
1 7 donor
3 3 4 15 anion
6 13 16 17 18 19 21 rings

> <PUBCHEM_HEAVY_ATOM_COUNT>
22

> <PUBCHEM_ATOM_DEF_STEREO_COUNT>
2

> <PUBCHEM_ATOM_UDEF_STEREO_COUNT>
0

> <PUBCHEM_BOND_DEF_STEREO_COUNT>
0

> <PUBCHEM_BOND_UDEF_STEREO_COUNT>
0

> <PUBCHEM_ISOTOPIC_ATOM_COUNT>
0

> <PUBCHEM_COMPONENT_COUNT>
1

> <PUBCHEM_CACTVS_TAUTO_COUNT>
4

> <PUBCHEM_CONFORMER_ID>
0001D29600000001

> <PUBCHEM_MMFF94_ENERGY>
44.381

> <PUBCHEM_FEATURE_SELFOVERLAP>
45.732

> <PUBCHEM_SHAPE_FINGERPRINT>
10062212 137 16915945050353381587
10498660 4 18041268916361847989
12553582 1 17912112481145418486
12788726 201 17328313446446099462
14251757 17 18338804386062014602
15210252 30 14294267008012094701
17349148 13 16487256526271811934
18186145 218 18338794507784771169
20626108 58 15266190585035709807
20645477 56 18261118516534207329
20645477 70 18343308058941095562
21069387 34 17631734842302366238
23114952 82 18341338850658344352
23227448 37 18042962275779510741
23557571 272 18042973266273299448
23559900 14 18342457037125547098
238 59 18269547252482290599
46194498 28 18411138013173345364
5161694 15 18335427807264485190
633830 44 18338505340790853637
7399639 24 18050862305395176586
9709674 26 18411421713080550694
9925002 15 16539334173019670356

> <PUBCHEM_SHAPE_MULTIPOLES>
423.16
8.86
3.76
1.8
0.75
0.12
0.16
-1.77
-4.52
-4.16
-1.1
0.41
0.27
2.62

> <PUBCHEM_SHAPE_SELFOVERLAP>
841.003

> <PUBCHEM_SHAPE_VOLUME>
250.9

> <PUBCHEM_COORDINATE_TYPE>
2
5
10

$$$$
