119495
  -OEChem-03292013323D

 60 65  0     1  0  0  0  0  0999 V2000
   -1.1227    0.9070    1.8820 O   0  0  0  0  0  0  0  0  0  0  0  0
   -2.0687   -2.6616    1.1830 O   0  0  0  0  0  0  0  0  0  0  0  0
   -5.7693   -0.8696   -1.1593 O   0  0  0  0  0  0  0  0  0  0  0  0
    0.8325    0.3665    2.9483 O   0  0  0  0  0  0  0  0  0  0  0  0
    1.5881    2.2577    0.2143 O   0  0  0  0  0  0  0  0  0  0  0  0
    2.2379   -2.9776    1.4404 O   0  0  0  0  0  0  0  0  0  0  0  0
   -3.9166    0.0330   -0.0246 N   0  0  0  0  0  0  0  0  0  0  0  0
   -2.6504   -1.7980    0.1757 N   0  0  2  0  0  0  0  0  0  0  0  0
    1.8181   -0.0701    0.2952 N   0  0  0  0  0  0  0  0  0  0  0  0
    3.9811   -1.0399   -0.1654 N   0  0  0  0  0  0  0  0  0  0  0  0
   -1.7050    0.6358    0.6014 C   0  0  2  0  0  0  0  0  0  0  0  0
   -2.7960   -0.4597    0.7398 C   0  0  1  0  0  0  0  0  0  0  0  0
   -0.5308    0.3228   -0.3090 C   0  0  0  0  0  0  0  0  0  0  0  0
   -2.5420    1.8126    0.1306 C   0  0  0  0  0  0  0  0  0  0  0  0
    0.4525   -0.3215    0.6432 C   0  0  2  0  0  0  0  0  0  0  0  0
   -3.8169    1.3891   -0.2689 C   0  0  0  0  0  0  0  0  0  0  0  0
   -4.0408   -2.2520   -0.0896 C   0  0  1  0  0  0  0  0  0  0  0  0
   -4.7395   -0.9585   -0.5136 C   0  0  0  0  0  0  0  0  0  0  0  0
    0.1241    0.3435    1.9535 C   0  0  0  0  0  0  0  0  0  0  0  0
   -2.1759    3.1410   -0.0073 C   0  0  0  0  0  0  0  0  0  0  0  0
   -4.7344    2.2417   -0.8501 C   0  0  0  0  0  0  0  0  0  0  0  0
   -4.0773   -3.3182   -1.1682 C   0  0  0  0  0  0  0  0  0  0  0  0
   -3.1017    4.0285   -0.5642 C   0  0  0  0  0  0  0  0  0  0  0  0
   -4.3664    3.5813   -0.9874 C   0  0  0  0  0  0  0  0  0  0  0  0
    2.7251   -1.1325    0.1264 C   0  0  0  0  0  0  0  0  0  0  0  0
    2.2869    1.2534    0.1126 C   0  0  0  0  0  0  0  0  0  0  0  0
    3.7234    1.3992   -0.2190 C   0  0  0  0  0  0  0  0  0  0  0  0
    2.1915   -2.5048    0.3118 C   0  0  0  0  0  0  0  0  0  0  0  0
    4.5096    0.2476   -0.3414 C   0  0  0  0  0  0  0  0  0  0  0  0
    1.6418   -3.2031   -0.9200 C   0  0  0  0  0  0  0  0  0  0  0  0
    4.2817    2.6688   -0.4043 C   0  0  0  0  0  0  0  0  0  0  0  0
    5.8669    0.3856   -0.6530 C   0  0  0  0  0  0  0  0  0  0  0  0
    1.1256   -4.5891   -0.5487 C   0  0  0  0  0  0  0  0  0  0  0  0
    2.7046   -3.2993   -2.0118 C   0  0  0  0  0  0  0  0  0  0  0  0
    5.6356    2.7900   -0.7141 C   0  0  0  0  0  0  0  0  0  0  0  0
    6.4275    1.6504   -0.8384 C   0  0  0  0  0  0  0  0  0  0  0  0
   -3.1362   -0.5235    1.7854 H   0  0  0  0  0  0  0  0  0  0  0  0
   -0.1587    1.2277   -0.7948 H   0  0  0  0  0  0  0  0  0  0  0  0
   -0.7929   -0.3461   -1.1368 H   0  0  0  0  0  0  0  0  0  0  0  0
    0.2167   -1.3775    0.7681 H   0  0  0  0  0  0  0  0  0  0  0  0
   -4.5280   -2.6071    0.8278 H   0  0  0  0  0  0  0  0  0  0  0  0
   -1.1923    3.4880    0.2901 H   0  0  0  0  0  0  0  0  0  0  0  0
   -5.7104    1.9023   -1.1766 H   0  0  0  0  0  0  0  0  0  0  0  0
   -3.6506   -2.9516   -2.1088 H   0  0  0  0  0  0  0  0  0  0  0  0
   -3.5192   -4.2094   -0.8628 H   0  0  0  0  0  0  0  0  0  0  0  0
   -5.1095   -3.6196   -1.3768 H   0  0  0  0  0  0  0  0  0  0  0  0
   -1.3375   -3.0390    0.6664 H   0  0  0  0  0  0  0  0  0  0  0  0
   -2.8368    5.0756   -0.6855 H   0  0  0  0  0  0  0  0  0  0  0  0
   -5.0637    4.2890   -1.4281 H   0  0  0  0  0  0  0  0  0  0  0  0
    0.7957   -2.6131   -1.2910 H   0  0  0  0  0  0  0  0  0  0  0  0
    3.6818    3.5698   -0.3115 H   0  0  0  0  0  0  0  0  0  0  0  0
    6.4975   -0.4945   -0.7541 H   0  0  0  0  0  0  0  0  0  0  0  0
    0.3673   -4.5309    0.2391 H   0  0  0  0  0  0  0  0  0  0  0  0
    1.9343   -5.2306   -0.1810 H   0  0  0  0  0  0  0  0  0  0  0  0
    0.6706   -5.0802   -1.4153 H   0  0  0  0  0  0  0  0  0  0  0  0
    3.6214   -3.7666   -1.6359 H   0  0  0  0  0  0  0  0  0  0  0  0
    2.3415   -3.8920   -2.8583 H   0  0  0  0  0  0  0  0  0  0  0  0
    2.9678   -2.3095   -2.3987 H   0  0  0  0  0  0  0  0  0  0  0  0
    6.0734    3.7735   -0.8587 H   0  0  0  0  0  0  0  0  0  0  0  0
    7.4821    1.7458   -1.0801 H   0  0  0  0  0  0  0  0  0  0  0  0
  1 11  1  0  0  0  0
  1 19  1  0  0  0  0
  2  8  1  0  0  0  0
  2 47  1  0  0  0  0
  3 18  2  0  0  0  0
  4 19  2  0  0  0  0
  5 26  2  0  0  0  0
  6 28  2  0  0  0  0
  7 12  1  0  0  0  0
  7 16  1  0  0  0  0
  7 18  1  0  0  0  0
  8 12  1  0  0  0  0
  8 17  1  0  0  0  0
  9 15  1  0  0  0  0
  9 25  1  0  0  0  0
  9 26  1  0  0  0  0
 10 25  2  0  0  0  0
 10 29  1  0  0  0  0
 11 12  1  0  0  0  0
 11 13  1  0  0  0  0
 11 14  1  0  0  0  0
 12 37  1  0  0  0  0
 13 15  1  0  0  0  0
 13 38  1  0  0  0  0
 13 39  1  0  0  0  0
 14 16  1  0  0  0  0
 14 20  2  0  0  0  0
 15 19  1  0  0  0  0
 15 40  1  0  0  0  0
 16 21  2  0  0  0  0
 17 18  1  0  0  0  0
 17 22  1  0  0  0  0
 17 41  1  0  0  0  0
 20 23  1  0  0  0  0
 20 42  1  0  0  0  0
 21 24  1  0  0  0  0
 21 43  1  0  0  0  0
 22 44  1  0  0  0  0
 22 45  1  0  0  0  0
 22 46  1  0  0  0  0
 23 24  2  0  0  0  0
 23 48  1  0  0  0  0
 24 49  1  0  0  0  0
 25 28  1  0  0  0  0
 26 27  1  0  0  0  0
 27 29  1  0  0  0  0
 27 31  2  0  0  0  0
 28 30  1  0  0  0  0
 29 32  2  0  0  0  0
 30 33  1  0  0  0  0
 30 34  1  0  0  0  0
 30 50  1  0  0  0  0
 31 35  1  0  0  0  0
 31 51  1  0  0  0  0
 32 36  1  0  0  0  0
 32 52  1  0  0  0  0
 33 53  1  0  0  0  0
 33 54  1  0  0  0  0
 33 55  1  0  0  0  0
 34 56  1  0  0  0  0
 34 57  1  0  0  0  0
 34 58  1  0  0  0  0
 35 36  2  0  0  0  0
 35 59  1  0  0  0  0
 36 60  1  0  0  0  0
M  END
> <PUBCHEM_COMPOUND_CID>
119495

> <PUBCHEM_CONFORMER_RMSD>
0.8

> <PUBCHEM_CONFORMER_DIVERSEORDER>
8
14
21
26
10
24
17
3
22
20
25
11
19
16
7
15
13
12
18
5
9
23
6
2
4
1

> <PUBCHEM_MMFF94_PARTIAL_CHARGES>
41
1 -0.43
10 -0.63
11 0.42
12 0.57
14 -0.14
15 0.36
16 0.12
17 0.33
18 0.57
19 0.66
2 -0.3
20 -0.15
21 -0.15
23 -0.15
24 -0.15
25 0.51
26 0.54
27 0.09
28 0.51
29 0.18
3 -0.57
30 0.06
31 -0.15
32 -0.15
35 -0.15
36 -0.15
4 -0.57
42 0.15
43 0.15
47 0.4
48 0.15
49 0.15
5 -0.57
51 0.15
52 0.15
59 0.15
6 -0.57
60 0.15
7 -0.48
8 -0.64
9 -0.42

> <PUBCHEM_EFFECTIVE_ROTOR_COUNT>
4

> <PUBCHEM_PHARMACOPHORE_FEATURES>
12
1 2 anion
1 3 acceptor
1 4 acceptor
1 5 acceptor
1 6 acceptor
3 30 33 34 hydrophobe
5 1 11 13 15 19 rings
5 7 11 12 14 16 rings
5 7 8 12 17 18 rings
6 14 16 20 21 23 24 rings
6 27 29 31 32 35 36 rings
6 9 10 25 26 27 29 rings

> <PUBCHEM_HEAVY_ATOM_COUNT>
36

> <PUBCHEM_ATOM_DEF_STEREO_COUNT>
0

> <PUBCHEM_ATOM_UDEF_STEREO_COUNT>
4

> <PUBCHEM_BOND_DEF_STEREO_COUNT>
0

> <PUBCHEM_BOND_UDEF_STEREO_COUNT>
0

> <PUBCHEM_ISOTOPIC_ATOM_COUNT>
0

> <PUBCHEM_COMPONENT_COUNT>
1

> <PUBCHEM_CACTVS_TAUTO_COUNT>
4

> <PUBCHEM_CONFORMER_ID>
0001D2C700000008

> <PUBCHEM_MMFF94_ENERGY>
110.803

> <PUBCHEM_FEATURE_SELFOVERLAP>
61.306

> <PUBCHEM_SHAPE_FINGERPRINT>
10032420 55 18129083675624398151
10675989 125 17904200321718857713
11007060 377 18193852646596217696
11513181 2 18120932811254839509
11621639 148 17473542928778051825
11621639 254 17980202208217468244
12422481 6 12035987132875967858
12788726 201 18334002909526274745
13383661 66 17486797399854855278
13617811 41 18193261117481561269
13631057 29 18200875192216932167
14068700 686 18340205292519286757
14747282 540 15661404237419682644
14790565 3 18337112367022048276
15082195 135 18340189796488065061
15219462 58 16879365411299954017
15276724 80 18408322160517807549
15324884 4 17619897796834425339
15439362 3 18050288072568463180
17980427 23 17313677043772421860
18681886 176 18266455597963796152
20197701 30 18341051913015872710
21857420 4 14509853784888297853
22393880 68 18411986836667004716
23559900 14 18127400155733827842
23576562 1 17899996103921083532
27425 322 17677896730246335737
312425 83 18192148196565356669
376196 1 18187085049084109704
497634 4 17917444154287593769
563151 97 18187085057536426110
6036956 94 18044102464879179821
9709674 26 18339646633575771623

> <PUBCHEM_SHAPE_MULTIPOLES>
685.72
12.52
5.32
1.45
5.28
2.15
-0.69
-6.21
5.32
-1.38
1.97
0.06
0.43
0.15

> <PUBCHEM_SHAPE_SELFOVERLAP>
1535.166

> <PUBCHEM_SHAPE_VOLUME>
363.9

> <PUBCHEM_COORDINATE_TYPE>
2
5
10

$$$$
