REMARK  Name = 11950170
REMARK  6 active torsions:
REMARK  status: ('A' for Active; 'I' for Inactive)
REMARK    1  A    between atoms: N_1  and  C_15
REMARK    2  A    between atoms: C_7  and  C_23
REMARK    3  A    between atoms: C_25  and  O_29
REMARK    4  A    between atoms: O_29  and  C_30
REMARK    5  A    between atoms: C_30  and  C_33
REMARK    6  A    between atoms: N_32  and  C_35
REMARK                            x       y       z     vdW  Elec       q    Type
REMARK                         _______ _______ _______ _____ _____    ______ ____
ROOT
ATOM      1  N   UNL     1      -2.185  -2.143   0.654  0.00  0.00    -0.290 N 
ATOM      2  N   UNL     1      -1.838   0.178   0.479  0.00  0.00    -0.328 NA
ATOM      3  N   UNL     1      -3.588   1.625  -0.328  0.00  0.00    -0.343 NA
ATOM      4  C   UNL     1      -3.982  -0.735  -0.165  0.00  0.00    +0.143 C 
ATOM      5  C   UNL     1      -2.680  -0.860   0.314  0.00  0.00    +0.183 C 
ATOM      6  C   UNL     1      -4.403   0.566  -0.481  0.00  0.00    +0.133 C 
ATOM      7  C   UNL     1      -2.350   1.373   0.144  0.00  0.00    +0.139 C 
ATOM      8  C   UNL     1      -4.842  -1.835  -0.329  0.00  0.00    -0.011 C 
ATOM      9  C   UNL     1      -5.699   0.731  -0.963  0.00  0.00    +0.029 C 
ATOM     10  C   UNL     1      -6.133  -1.642  -0.812  0.00  0.00    -0.004 C 
ATOM     11  C   UNL     1      -6.561  -0.358  -1.129  0.00  0.00    +0.002 C 
ATOM     12  H   UNL     1      -2.879  -2.766   0.968  0.00  0.00    +0.154 HD
ENDROOT
BRANCH   1  15
ATOM     13  N   UNL     1       2.938  -4.142   0.344  0.00  0.00    -0.236 N 
ATOM     14  N   UNL     1       3.494  -3.458  -0.670  0.00  0.00    -0.180 NA
ATOM     15  C   UNL     1      -0.895  -2.697   0.631  0.00  0.00    +0.050 C 
ATOM     16  C   UNL     1       1.326  -2.813  -0.321  0.00  0.00    +0.037 C 
ATOM     17  C   UNL     1       1.638  -3.802   0.605  0.00  0.00    +0.067 C 
ATOM     18  C   UNL     1       0.041  -2.245  -0.315  0.00  0.00    +0.018 C 
ATOM     19  C   UNL     1      -0.547  -3.696   1.549  0.00  0.00    +0.016 C 
ATOM     20  C   UNL     1       0.729  -4.271   1.555  0.00  0.00    +0.017 C 
ATOM     21  C   UNL     1       2.510  -2.650  -1.072  0.00  0.00    +0.119 C 
ATOM     22  H   UNL     1       3.424  -4.829   0.855  0.00  0.00    +0.174 HD
ENDBRANCH   1  15
BRANCH   7  23
ATOM     23  C   UNL     1      -1.484   2.511   0.306  0.00  0.00    +0.089 C 
ATOM     24  C   UNL     1      -0.099   2.367   0.172  0.00  0.00    +0.049 C 
ATOM     25  C   UNL     1       0.740   3.470   0.331  0.00  0.00    +0.140 C 
ATOM     26  C   UNL     1      -2.020   3.769   0.600  0.00  0.00    +0.012 C 
ATOM     27  C   UNL     1       0.200   4.722   0.624  0.00  0.00    +0.037 C 
ATOM     28  C   UNL     1      -1.181   4.871   0.758  0.00  0.00    +0.004 C 
BRANCH  25  29
ATOM     29  O   UNL     1       2.087   3.325   0.198  0.00  0.00    -0.466 OA
BRANCH  29  30
ATOM     30  C   UNL     1       2.573   2.018  -0.102  0.00  0.00    +0.289 C 
BRANCH  30  33
ATOM     31  O   UNL     1       4.758   3.035  -0.061  0.00  0.00    -0.271 OA
ATOM     32  N   UNL     1       4.576   0.763  -0.525  0.00  0.00    -0.303 N 
ATOM     33  C   UNL     1       4.082   2.022  -0.221  0.00  0.00    +0.267 C 
ATOM     34  H   UNL     1       3.937   0.022  -0.630  0.00  0.00    +0.149 HD
BRANCH  32  35
ATOM     35  C   UNL     1       5.984   0.488  -0.696  0.00  0.00    +0.072 C 
ATOM     36  C   UNL     1       6.626   0.136   0.641  0.00  0.00    +0.021 C 
ATOM     37  C   UNL     1       6.186  -0.625  -1.716  0.00  0.00    +0.021 C 
ENDBRANCH  32  35
ENDBRANCH  30  33
ENDBRANCH  29  30
ENDBRANCH  25  29
ENDBRANCH   7  23
TORSDOF 6
