REMARK  Name = 11957463
REMARK  7 active torsions:
REMARK  status: ('A' for Active; 'I' for Inactive)
REMARK    1  A    between atoms: N_1  and  C_12
REMARK    2  A    between atoms: C_11  and  O_20
REMARK    3  A    between atoms: C_13  and  O_22
REMARK    4  A    between atoms: C_14  and  C_17
REMARK    5  A    between atoms: N_24  and  C_26
REMARK    6  A    between atoms: C_26  and  C_27
REMARK    7  A    between atoms: C_32  and  N_33
REMARK                            x       y       z     vdW  Elec       q    Type
REMARK                         _______ _______ _______ _____ _____    ______ ____
ROOT
ATOM      1  N   UNL     1       1.729  -0.622   0.639  0.00  0.00    -0.247 N 
ATOM      2  N   UNL     1      -0.131   0.609   0.688  0.00  0.00    -0.242 NA
ATOM      3  N   UNL     1       0.787  -2.771   0.010  0.00  0.00    -0.228 NA
ATOM      4  N   UNL     1      -1.633  -2.632  -0.271  0.00  0.00    -0.228 NA
ATOM      5  C   UNL     1       0.706  -1.465   0.307  0.00  0.00    +0.152 C 
ATOM      6  C   UNL     1       1.174   0.613   0.859  0.00  0.00    +0.223 C 
ATOM      7  C   UNL     1      -0.438  -0.683   0.343  0.00  0.00    +0.140 C 
ATOM      8  C   UNL     1      -1.640  -1.313   0.039  0.00  0.00    +0.146 C 
ATOM      9  C   UNL     1      -0.438  -3.270  -0.266  0.00  0.00    +0.253 C 
ATOM     10  N   UNL     1      -2.849  -0.596   0.049  0.00  0.00    -0.313 N 
ATOM     11  H   UNL     1      -2.824   0.362   0.277  0.00  0.00    +0.149 HD
ENDROOT
BRANCH   1  14
ATOM     12  O   UNL     1       3.893   0.183   1.206  0.00  0.00    -0.326 OA
ATOM     13  C   UNL     1       3.772  -1.414  -0.581  0.00  0.00    +0.187 C 
ATOM     14  C   UNL     1       3.150  -0.960   0.743  0.00  0.00    +0.225 C 
ATOM     15  C   UNL     1       4.645  -0.244  -0.992  0.00  0.00    +0.178 C 
ATOM     16  C   UNL     1       5.027   0.353   0.353  0.00  0.00    +0.222 C 
BRANCH  16  19
ATOM     17  O   UNL     1       4.670   2.645   0.892  0.00  0.00    -0.272 OA
ATOM     18  N   UNL     1       6.481   2.070  -0.452  0.00  0.00    -0.301 N 
ATOM     19  C   UNL     1       5.357   1.808   0.313  0.00  0.00    +0.252 C 
ATOM     20  C   UNL     1       6.997   3.402  -0.669  0.00  0.00    +0.111 C 
ATOM     21  H   UNL     1       6.951   1.311  -0.869  0.00  0.00    +0.150 HD
ENDBRANCH  16  19
BRANCH  13  22
ATOM     22  O   UNL     1       4.589  -2.553  -0.321  0.00  0.00    -0.378 OA
ATOM     23  H   UNL     1       4.028  -3.300  -0.058  0.00  0.00    +0.211 HD
ENDBRANCH  13  22
BRANCH  15  24
ATOM     24  O   UNL     1       3.853   0.650  -1.763  0.00  0.00    -0.379 OA
ATOM     25  H   UNL     1       3.629   0.235  -2.611  0.00  0.00    +0.211 HD
ENDBRANCH  15  24
ENDBRANCH   1  14
BRANCH  10  26
ATOM     26  C   UNL     1      -4.115  -1.193  -0.256  0.00  0.00    +0.115 C 
BRANCH  26  27
ATOM     27  C   UNL     1      -5.211  -0.165  -0.196  0.00  0.00    -0.003 C 
ATOM     28  C   UNL     1      -5.544   0.549  -1.339  0.00  0.00    -0.001 C 
ATOM     29  C   UNL     1      -5.877   0.057   1.003  0.00  0.00    -0.001 C 
ATOM     30  C   UNL     1      -6.561   1.502  -1.283  0.00  0.00    +0.014 C 
ATOM     31  C   UNL     1      -6.893   1.011   1.058  0.00  0.00    +0.014 C 
ATOM     32  C   UNL     1      -7.235   1.733  -0.085  0.00  0.00    +0.042 C 
BRANCH  32  33
ATOM     33  N   UNL     1      -8.264   2.697  -0.028  0.00  0.00    -0.357 N 
ATOM     34  H   UNL     1      -8.505   3.207  -0.835  0.00  0.00    +0.142 HD
ATOM     35  H   UNL     1      -8.740   2.859   0.818  0.00  0.00    +0.142 HD
ENDBRANCH  32  33
ENDBRANCH  26  27
ENDBRANCH  10  26
TORSDOF 7
