REMARK  Name = 119558
REMARK  8 active torsions:
REMARK  status: ('A' for Active; 'I' for Inactive)
REMARK    1  A    between atoms: C_1  and  C_2
REMARK    2  A    between atoms: C_1  and  CA_12
REMARK    3  A    between atoms: C_2  and  C_5
REMARK    4  A    between atoms: N_4  and  C_7
REMARK    5  A    between atoms: C_7  and  S_8
REMARK    6  A    between atoms: CA_12  and  N_13
REMARK    7  A    between atoms: CA_12  and  C_18
REMARK    8  A    between atoms: C_18  and  O_19
REMARK                            x       y       z     vdW  Elec       q    Type
REMARK                         _______ _______ _______ _____ _____    ______ ____
ROOT
ATOM      1  C   UNL     1       1.918   0.910  -0.064  0.00  0.00    -0.001 C 
ENDROOT
BRANCH   1   2
ATOM      2  C   UNL     1       0.860  -0.194  -0.105  0.00  0.00    +0.083 C 
BRANCH   2   5
ATOM      3  O   UNL     1      -0.664   1.385   0.917  0.00  0.00    -0.275 OA
ATOM      4  N   UNL     1      -1.416  -0.757   0.424  0.00  0.00    -0.284 N 
ATOM      5  C   UNL     1      -0.471   0.258   0.470  0.00  0.00    +0.224 C 
ATOM      6  H   UNL     1      -1.154  -1.625   0.043  0.00  0.00    +0.151 HD
BRANCH   4   7
ATOM      7  C   UNL     1      -2.771  -0.598   0.910  0.00  0.00    +0.251 C 
BRANCH   7   8
ATOM      8  S   UNL     1      -3.930  -0.051  -0.330  0.00  0.00    +0.042 S 
ATOM      9  O   UNL     1      -5.289  -0.208   0.556  0.00  0.00    -0.068 OA
ATOM     10  O   UNL     1      -3.952  -1.034  -1.394  0.00  0.00    -0.068 OA
ATOM     11  O   UNL     1      -3.700   1.355  -0.596  0.00  0.00    -0.068 OA
ENDBRANCH   7   8
ENDBRANCH   4   7
ENDBRANCH   2   5
ENDBRANCH   1   2
BRANCH   1  12
ATOM     12  CA  UNL     1       3.244   0.488  -0.707  0.00  0.00    +0.036 C 
BRANCH  12  13
ATOM     13  N   UNL     1       4.201   1.594  -0.628  0.00  0.00    +0.389 N 
ATOM     14  H1  UNL     1       3.822   2.407  -1.114  0.00  0.00    -0.088 HD
ATOM     15  H2  UNL     1       5.080   1.315  -1.064  0.00  0.00    -0.088 HD
ATOM     16  H3  UNL     1       4.367   1.830   0.351  0.00  0.00    -0.088 HD
ENDBRANCH  12  13
BRANCH  12  18
ATOM     17  OXT UNL     1       4.598  -0.586   1.011  0.00  0.00    -0.253 OA
ATOM     18  C   UNL     1       3.868  -0.682   0.032  0.00  0.00    +0.293 C 
BRANCH  18  19
ATOM     19  O   UNL     1       3.505  -1.879  -0.498  0.00  0.00    -0.482 OA
ATOM     20  H   UNL     1       2.944  -1.908  -1.248  0.00  0.00    +0.295 HD
ENDBRANCH  18  19
ENDBRANCH  12  18
ENDBRANCH   1  12
TORSDOF 8
