REMARK  Name = 11957488
REMARK  5 active torsions:
REMARK  status: ('A' for Active; 'I' for Inactive)
REMARK    1  A    between atoms: C_2  and  C_20
REMARK    2  A    between atoms: C_3  and  O_25
REMARK    3  A    between atoms: C_4  and  O_27
REMARK    4  A    between atoms: C_5  and  N_6
REMARK    5  A    between atoms: N_19  and  C_22
REMARK                            x       y       z     vdW  Elec       q    Type
REMARK                         _______ _______ _______ _____ _____    ______ ____
ROOT
ATOM      1  O   UNL     1       0.940  -0.246   1.496  0.00  0.00    -0.326 OA
ATOM      2  C   UNL     1       2.107  -0.867   0.936  0.00  0.00    +0.222 C 
ATOM      3  C   UNL     1       1.633  -2.103   0.192  0.00  0.00    +0.178 C 
ATOM      4  C   UNL     1       0.233  -1.717  -0.235  0.00  0.00    +0.187 C 
ATOM      5  C   UNL     1      -0.227  -0.904   0.967  0.00  0.00    +0.225 C 
ENDROOT
BRANCH   5   6
ATOM      6  N   UNL     1      -1.251   0.090   0.655  0.00  0.00    -0.247 N 
ATOM      7  N   UNL     1      -2.214   2.088   0.415  0.00  0.00    -0.242 NA
ATOM      8  N   UNL     1      -3.081  -1.340  -0.058  0.00  0.00    -0.228 NA
ATOM      9  N   UNL     1      -5.041  -0.028  -0.684  0.00  0.00    -0.229 NA
ATOM     10  C   UNL     1      -2.517  -0.150   0.198  0.00  0.00    +0.152 C 
ATOM     11  C   UNL     1      -1.118   1.449   0.769  0.00  0.00    +0.223 C 
ATOM     12  C   UNL     1      -3.096   1.101   0.055  0.00  0.00    +0.140 C 
ATOM     13  C   UNL     1      -4.408   1.137  -0.405  0.00  0.00    +0.143 C 
ATOM     14  C   UNL     1      -4.349  -1.177  -0.496  0.00  0.00    +0.253 C 
ATOM     15  N   UNL     1      -5.073   2.363  -0.581  0.00  0.00    -0.342 N 
ATOM     16  H   UNL     1      -6.002   2.377  -0.907  0.00  0.00    +0.144 HD
ATOM     17  H   UNL     1      -4.610   3.208  -0.378  0.00  0.00    +0.144 HD
ENDBRANCH   5   6
BRANCH   2  20
ATOM     18  O   UNL     1       2.070   1.013  -0.534  0.00  0.00    -0.272 OA
ATOM     19  N   UNL     1       4.118   0.061   0.017  0.00  0.00    -0.304 N 
ATOM     20  C   UNL     1       2.739   0.177   0.069  0.00  0.00    +0.252 C 
ATOM     21  H   UNL     1       4.553  -0.649   0.543  0.00  0.00    +0.149 HD
BRANCH  19  22
ATOM     22  C   UNL     1       4.936   0.934  -0.774  0.00  0.00    +0.072 C 
ATOM     23  C   UNL     1       6.372   1.161  -0.427  0.00  0.00    +0.021 C 
ATOM     24  C   UNL     1       5.370   2.263  -0.243  0.00  0.00    +0.021 C 
ENDBRANCH  19  22
ENDBRANCH   2  20
BRANCH   3  25
ATOM     25  O   UNL     1       2.445  -2.449  -0.911  0.00  0.00    -0.379 OA
ATOM     26  H   UNL     1       3.331  -2.689  -0.598  0.00  0.00    +0.211 HD
ENDBRANCH   3  25
BRANCH   4  27
ATOM     27  O   UNL     1      -0.588  -2.856  -0.420  0.00  0.00    -0.378 OA
ATOM     28  H   UNL     1      -0.277  -3.358  -1.189  0.00  0.00    +0.211 HD
ENDBRANCH   4  27
TORSDOF 5
