REMARK  Name = 119560
REMARK  7 active torsions:
REMARK  status: ('A' for Active; 'I' for Inactive)
REMARK    1  A    between atoms: S_1  and  C_5
REMARK    2  A    between atoms: S_1  and  C_16
REMARK    3  A    between atoms: C_10  and  O_14
REMARK    4  A    between atoms: C_16  and  C_18
REMARK    5  A    between atoms: C_20  and  O_24
REMARK    6  A    between atoms: C_21  and  C_26
REMARK    7  A    between atoms: C_26  and  O_27
REMARK                            x       y       z     vdW  Elec       q    Type
REMARK                         _______ _______ _______ _____ _____    ______ ____
ROOT
ATOM      1  S   UNL     1       0.065   0.560  -0.779  0.00  0.00    +0.085 S 
ATOM      2  O   UNL     1       0.254   2.063  -0.743  0.00  0.00    -0.252 OA
ENDROOT
BRANCH   1   5
ATOM      3  N   UNL     1      -2.704   0.932  -0.842  0.00  0.00    -0.307 N 
ATOM      4  N   UNL     1      -2.030  -0.842   0.315  0.00  0.00    -0.307 N 
ATOM      5  C   UNL     1      -1.644   0.186  -0.408  0.00  0.00    +0.226 C 
ATOM      6  C   UNL     1      -3.850   0.347  -0.367  0.00  0.00    +0.063 C 
ATOM      7  C   UNL     1      -3.403  -0.758   0.351  0.00  0.00    +0.060 C 
ATOM      8  C   UNL     1      -5.199   0.679  -0.501  0.00  0.00    +0.052 C 
ATOM      9  C   UNL     1      -4.342  -1.593   0.980  0.00  0.00    +0.019 C 
ATOM     10  C   UNL     1      -6.120  -0.162   0.132  0.00  0.00    +0.140 C 
ATOM     11  C   UNL     1      -5.702  -1.278   0.859  0.00  0.00    +0.038 C 
ATOM     12  H   UNL     1      -2.654   1.745  -1.395  0.00  0.00    +0.149 HD
ATOM     13  H   UNL     1      -1.460  -1.524   0.738  0.00  0.00    +0.149 HD
BRANCH  10  14
ATOM     14  O   UNL     1      -7.452   0.114   0.035  0.00  0.00    -0.471 OA
ATOM     15  C   UNL     1      -7.821   1.266  -0.720  0.00  0.00    +0.252 C 
ENDBRANCH  10  14
ENDBRANCH   1   5
BRANCH   1  16
ATOM     16  C   UNL     1       0.872  -0.114   0.702  0.00  0.00    +0.140 C 
BRANCH  16  18
ATOM     17  N   UNL     1       2.818   1.220   1.190  0.00  0.00    -0.248 NA
ATOM     18  C   UNL     1       2.361   0.070   0.654  0.00  0.00    +0.072 C 
ATOM     19  C   UNL     1       3.161  -0.904   0.088  0.00  0.00    +0.026 C 
ATOM     20  C   UNL     1       4.534  -0.682   0.071  0.00  0.00    +0.136 C 
ATOM     21  C   UNL     1       5.050   0.490   0.612  0.00  0.00    +0.060 C 
ATOM     22  C   UNL     1       2.584  -2.153  -0.487  0.00  0.00    +0.035 C 
ATOM     23  C   UNL     1       4.158   1.401   1.155  0.00  0.00    +0.100 C 
BRANCH  20  24
ATOM     24  O   UNL     1       5.372  -1.608  -0.475  0.00  0.00    -0.472 OA
ATOM     25  C   UNL     1       5.662  -1.479  -1.865  0.00  0.00    +0.252 C 
ENDBRANCH  20  24
BRANCH  21  26
ATOM     26  C   UNL     1       6.511   0.775   0.618  0.00  0.00    +0.168 C 
BRANCH  26  27
ATOM     27  O   UNL     1       6.864   1.467  -0.575  0.00  0.00    -0.377 OA
ATOM     28  H   UNL     1       7.817   1.653  -0.571  0.00  0.00    +0.211 HD
ENDBRANCH  26  27
ENDBRANCH  21  26
ENDBRANCH  16  18
ENDBRANCH   1  16
TORSDOF 7
