11950170
  -OEChem-03292013303D

 58 62  0     0  0  0  0  0  0999 V2000
    2.0871    3.3251    0.1979 O   0  0  0  0  0  0  0  0  0  0  0  0
    4.7576    3.0354   -0.0614 O   0  0  0  0  0  0  0  0  0  0  0  0
   -2.1847   -2.1428    0.6544 N   0  0  0  0  0  0  0  0  0  0  0  0
   -1.8383    0.1779    0.4795 N   0  0  0  0  0  0  0  0  0  0  0  0
   -3.5882    1.6247   -0.3277 N   0  0  0  0  0  0  0  0  0  0  0  0
    4.5758    0.7634   -0.5253 N   0  0  0  0  0  0  0  0  0  0  0  0
    2.9385   -4.1422    0.3440 N   0  0  0  0  0  0  0  0  0  0  0  0
    3.4941   -3.4576   -0.6696 N   0  0  0  0  0  0  0  0  0  0  0  0
   -3.9815   -0.7354   -0.1645 C   0  0  0  0  0  0  0  0  0  0  0  0
   -2.6801   -0.8596    0.3137 C   0  0  0  0  0  0  0  0  0  0  0  0
   -0.8952   -2.6973    0.6307 C   0  0  0  0  0  0  0  0  0  0  0  0
   -4.4030    0.5663   -0.4813 C   0  0  0  0  0  0  0  0  0  0  0  0
    1.3262   -2.8126   -0.3207 C   0  0  0  0  0  0  0  0  0  0  0  0
   -2.3502    1.3730    0.1442 C   0  0  0  0  0  0  0  0  0  0  0  0
    1.6383   -3.8023    0.6046 C   0  0  0  0  0  0  0  0  0  0  0  0
    0.0409   -2.2455   -0.3146 C   0  0  0  0  0  0  0  0  0  0  0  0
    5.9840    0.4883   -0.6957 C   0  0  0  0  0  0  0  0  0  0  0  0
   -1.4837    2.5112    0.3060 C   0  0  0  0  0  0  0  0  0  0  0  0
   -0.5468   -3.6963    1.5487 C   0  0  0  0  0  0  0  0  0  0  0  0
    0.7285   -4.2705    1.5551 C   0  0  0  0  0  0  0  0  0  0  0  0
   -4.8422   -1.8345   -0.3292 C   0  0  0  0  0  0  0  0  0  0  0  0
   -5.6995    0.7305   -0.9628 C   0  0  0  0  0  0  0  0  0  0  0  0
   -0.0993    2.3674    0.1722 C   0  0  0  0  0  0  0  0  0  0  0  0
    0.7403    3.4700    0.3307 C   0  0  0  0  0  0  0  0  0  0  0  0
    2.5102   -2.6498   -1.0716 C   0  0  0  0  0  0  0  0  0  0  0  0
   -2.0203    3.7686    0.6000 C   0  0  0  0  0  0  0  0  0  0  0  0
    6.6256    0.1361    0.6407 C   0  0  0  0  0  0  0  0  0  0  0  0
    6.1863   -0.6250   -1.7155 C   0  0  0  0  0  0  0  0  0  0  0  0
   -6.1326   -1.6417   -0.8123 C   0  0  0  0  0  0  0  0  0  0  0  0
   -6.5614   -0.3576   -1.1295 C   0  0  0  0  0  0  0  0  0  0  0  0
    2.5730    2.0176   -0.1022 C   0  0  0  0  0  0  0  0  0  0  0  0
    4.0822    2.0223   -0.2208 C   0  0  0  0  0  0  0  0  0  0  0  0
    0.1995    4.7219    0.6238 C   0  0  0  0  0  0  0  0  0  0  0  0
   -1.1810    4.8712    0.7585 C   0  0  0  0  0  0  0  0  0  0  0  0
   -2.8464   -2.6888    1.1993 H   0  0  0  0  0  0  0  0  0  0  0  0
    6.4632    1.3980   -1.0772 H   0  0  0  0  0  0  0  0  0  0  0  0
   -0.2116   -1.4808   -1.0432 H   0  0  0  0  0  0  0  0  0  0  0  0
   -1.2751   -4.0423    2.2799 H   0  0  0  0  0  0  0  0  0  0  0  0
    0.9946   -5.0434    2.2675 H   0  0  0  0  0  0  0  0  0  0  0  0
   -4.5357   -2.8509   -0.0987 H   0  0  0  0  0  0  0  0  0  0  0  0
   -6.0594    1.7253   -1.2184 H   0  0  0  0  0  0  0  0  0  0  0  0
    0.2832    1.3811   -0.0687 H   0  0  0  0  0  0  0  0  0  0  0  0
    3.9283   -0.0182   -0.5743 H   0  0  0  0  0  0  0  0  0  0  0  0
    2.6959   -1.9742   -1.8948 H   0  0  0  0  0  0  0  0  0  0  0  0
   -3.0908    3.9169    0.7214 H   0  0  0  0  0  0  0  0  0  0  0  0
    6.5058    0.9532    1.3604 H   0  0  0  0  0  0  0  0  0  0  0  0
    7.6971   -0.0550    0.5223 H   0  0  0  0  0  0  0  0  0  0  0  0
    6.1653   -0.7570    1.0781 H   0  0  0  0  0  0  0  0  0  0  0  0
    7.2519   -0.8059   -1.8903 H   0  0  0  0  0  0  0  0  0  0  0  0
    5.7339   -1.5630   -1.3770 H   0  0  0  0  0  0  0  0  0  0  0  0
    5.7251   -0.3630   -2.6740 H   0  0  0  0  0  0  0  0  0  0  0  0
    3.5045   -4.8326    0.8212 H   0  0  0  0  0  0  0  0  0  0  0  0
   -6.7999   -2.4881   -0.9428 H   0  0  0  0  0  0  0  0  0  0  0  0
   -7.5671   -0.1982   -1.5078 H   0  0  0  0  0  0  0  0  0  0  0  0
    2.3203    1.3191    0.7057 H   0  0  0  0  0  0  0  0  0  0  0  0
    2.1816    1.6750   -1.0687 H   0  0  0  0  0  0  0  0  0  0  0  0
    0.8484    5.5844    0.7486 H   0  0  0  0  0  0  0  0  0  0  0  0
   -1.6014    5.8457    0.9890 H   0  0  0  0  0  0  0  0  0  0  0  0
  1 24  1  0  0  0  0
  1 31  1  0  0  0  0
  2 32  2  0  0  0  0
  3 10  1  0  0  0  0
  3 11  1  0  0  0  0
  3 35  1  0  0  0  0
  4 10  2  0  0  0  0
  4 14  1  0  0  0  0
  5 12  1  0  0  0  0
  5 14  2  0  0  0  0
  6 17  1  0  0  0  0
  6 32  1  0  0  0  0
  6 43  1  0  0  0  0
  7  8  1  0  0  0  0
  7 15  1  0  0  0  0
  7 52  1  0  0  0  0
  8 25  2  0  0  0  0
  9 10  1  0  0  0  0
  9 12  1  0  0  0  0
  9 21  2  0  0  0  0
 11 16  2  0  0  0  0
 11 19  1  0  0  0  0
 12 22  2  0  0  0  0
 13 15  2  0  0  0  0
 13 16  1  0  0  0  0
 13 25  1  0  0  0  0
 14 18  1  0  0  0  0
 15 20  1  0  0  0  0
 16 37  1  0  0  0  0
 17 27  1  0  0  0  0
 17 28  1  0  0  0  0
 17 36  1  0  0  0  0
 18 23  2  0  0  0  0
 18 26  1  0  0  0  0
 19 20  2  0  0  0  0
 19 38  1  0  0  0  0
 20 39  1  0  0  0  0
 21 29  1  0  0  0  0
 21 40  1  0  0  0  0
 22 30  1  0  0  0  0
 22 41  1  0  0  0  0
 23 24  1  0  0  0  0
 23 42  1  0  0  0  0
 24 33  2  0  0  0  0
 25 44  1  0  0  0  0
 26 34  2  0  0  0  0
 26 45  1  0  0  0  0
 27 46  1  0  0  0  0
 27 47  1  0  0  0  0
 27 48  1  0  0  0  0
 28 49  1  0  0  0  0
 28 50  1  0  0  0  0
 28 51  1  0  0  0  0
 29 30  2  0  0  0  0
 29 53  1  0  0  0  0
 30 54  1  0  0  0  0
 31 32  1  0  0  0  0
 31 55  1  0  0  0  0
 31 56  1  0  0  0  0
 33 34  1  0  0  0  0
 33 57  1  0  0  0  0
 34 58  1  0  0  0  0
M  END
> <PUBCHEM_COMPOUND_CID>
11950170

> <PUBCHEM_CONFORMER_RMSD>
1

> <PUBCHEM_CONFORMER_DIVERSEORDER>
1
80
86
62
125
97
69
157
113
203
52
40
8
168
197
2
89
194
66
105
3
187
35
127
20
27
48
17
150
58
117
26
87
160
165
75
176
55
23
153
46
4
83
143
61
76
101
10
81
170
39
148
114
120
29
167
11
108
181
12
73
14
152
123
146
32
182
38
41
57
130
24
208
138
7
31
50
88
141
54
118
6
142
158
28
5
109
186
79
163
178
200
16
140
13
74
84
34
36
162
100
185
175
30
43
166
56
42
111
124
145
110
49
94
190
64
202
132
95
172
91
22
155
33
161
71
90
188
53
77
44
149
15
37
192
204
174
128
144
21
63
134
191
47
9
19
169
45
147
72
103
102
122
154
195
67
189
173
68
210
93
82
164
106
129
99
205
60
209
139
65
51
206
126
171
183
78
201
115
133
98
179
121
119
151
59
198
112
177
136
70
18
180
96
25
131
137
159
107
116
184
92
207
199
104
196
85
135
193
156

> <PUBCHEM_MMFF94_PARTIAL_CHARGES>
44
1 -0.36
10 0.41
11 0.1
12 0.31
14 0.62
15 -0.15
16 -0.15
17 0.3
19 -0.15
2 -0.57
20 -0.15
21 -0.15
22 -0.15
23 -0.15
24 0.08
25 0.14
26 -0.15
29 -0.15
3 -0.6
30 -0.15
31 0.34
32 0.57
33 -0.15
34 -0.15
35 0.4
37 0.15
38 0.15
39 0.15
4 -0.62
40 0.15
41 0.15
42 0.15
43 0.37
44 0.15
45 0.15
5 -0.62
52 0.27
53 0.15
54 0.15
57 0.15
58 0.15
6 -0.73
7 0.3
8 -0.71

> <PUBCHEM_EFFECTIVE_ROTOR_COUNT>
8

> <PUBCHEM_PHARMACOPHORE_FEATURES>
14
1 1 acceptor
1 2 acceptor
1 3 donor
1 6 donor
1 7 donor
1 8 acceptor
3 17 27 28 hydrophobe
3 3 4 10 cation
3 4 5 14 cation
5 7 8 13 15 25 rings
6 11 13 15 16 19 20 rings
6 18 23 24 26 33 34 rings
6 4 5 9 10 12 14 rings
6 9 12 21 22 29 30 rings

> <PUBCHEM_HEAVY_ATOM_COUNT>
34

> <PUBCHEM_ATOM_DEF_STEREO_COUNT>
0

> <PUBCHEM_ATOM_UDEF_STEREO_COUNT>
0

> <PUBCHEM_BOND_DEF_STEREO_COUNT>
0

> <PUBCHEM_BOND_UDEF_STEREO_COUNT>
0

> <PUBCHEM_ISOTOPIC_ATOM_COUNT>
0

> <PUBCHEM_COMPONENT_COUNT>
1

> <PUBCHEM_CACTVS_TAUTO_COUNT>
12

> <PUBCHEM_CONFORMER_ID>
00B6585A00000001

> <PUBCHEM_MMFF94_ENERGY>
104.5271

> <PUBCHEM_FEATURE_SELFOVERLAP>
71.316

> <PUBCHEM_SHAPE_FINGERPRINT>
10050765 1 18339069481452399495
10190206 1 18338535070923547012
10653451 467 17827935232512294475
11513181 2 17984989198039041334
11578080 2 17533194416178238765
12202916 173 18272085050105169654
12440605 4 18269002982012124961
13402501 40 18339080496597971572
14681490 219 18413108329478472341
14725015 67 18412536618403872272
15160629 131 17988934318773874335
15320467 1 18411139138903175736
15351339 4 18336259038002219569
15890870 6 18334575780622093022
15927050 60 18124884447581920017
15968369 153 18201707441326321150
16719943 64 18192706971847333736
17627616 140 18190181183337948042
20028762 73 18343301479325323116
20642791 35 18123194507026036521
20764821 26 17976546009878953576
21133410 127 14371715495477869006
21133410 230 17608397922862618587
21344244 246 18340196501522955391
23559900 14 18197208377195380449
3027735 51 18340210700051937224
325973 47 18194410111438318100
3298306 158 18337667645947497087
3383291 50 18337951302430335146
373842 8 18336821988657605154
437795 96 17620470650919536600
4403749 210 16615594070234890464
463206 1 18340486793481514063
5085150 59 18266727160028984608
5265222 85 17974291220536825005
532947 4 18410009970705757275
59755656 215 18409729564722184110
6138700 20 18411698815928201677
6371009 1 18408882924116304762

> <PUBCHEM_SHAPE_MULTIPOLES>
658.08
13.52
7.45
1.13
3.35
1.82
-0.02
-1.11
-6.42
3.29
2.92
0.3
-0.71
-0.18

> <PUBCHEM_SHAPE_SELFOVERLAP>
1455.505

> <PUBCHEM_SHAPE_VOLUME>
351.7

> <PUBCHEM_COORDINATE_TYPE>
2
5
10

$$$$
