REMARK  Name = 11957545
REMARK  6 active torsions:
REMARK  status: ('A' for Active; 'I' for Inactive)
REMARK    1  A    between atoms: N_1  and  C1*_11
REMARK    2  A    between atoms: C2*_12  and  O2*_15
REMARK    3  A    between atoms: C3*_13  and  O3*_17
REMARK    4  A    between atoms: C4*_14  and  C5*_19
REMARK    5  A    between atoms: C5*_19  and  O5*_20
REMARK    6  A    between atoms: N_22  and  C_27
REMARK                            x       y       z     vdW  Elec       q    Type
REMARK                         _______ _______ _______ _____ _____    ______ ____
ROOT
ATOM      1  N   UNL     1       1.789   0.061   0.160  0.00  0.00    -0.247 N 
ATOM      2  N   UNL     1      -1.789  -1.768   0.278  0.00  0.00    -0.228 NA
ATOM      3  N   UNL     1       0.056   1.383  -0.309  0.00  0.00    -0.242 NA
ATOM      4  N   UNL     1       0.621  -2.032   0.555  0.00  0.00    -0.228 NA
ATOM      5  C   UNL     1      -1.674  -0.443  -0.028  0.00  0.00    +0.146 C 
ATOM      6  C   UNL     1      -0.387   0.111  -0.045  0.00  0.00    +0.140 C 
ATOM      7  C   UNL     1       0.677  -0.727   0.249  0.00  0.00    +0.152 C 
ATOM      8  C   UNL     1       1.365   1.319  -0.177  0.00  0.00    +0.223 C 
ATOM      9  C   UNL     1      -0.658  -2.466   0.545  0.00  0.00    +0.253 C 
ATOM     10  N   UNL     1      -2.793   0.322  -0.312  0.00  0.00    -0.319 N 
ATOM     11  H   UNL     1      -2.663   1.274  -0.528  0.00  0.00    +0.148 HD
ENDROOT
BRANCH  10  15
ATOM     12  C   UNL     1      -5.109   0.762  -1.040  0.00  0.00    +0.018 C 
ATOM     13  C   UNL     1      -5.963   0.684   1.014  0.00  0.00    +0.002 C 
ATOM     14  C   UNL     1      -5.482   1.769   0.051  0.00  0.00    +0.002 C 
ATOM     15  C   UNL     1      -4.141  -0.198  -0.308  0.00  0.00    +0.070 C 
ATOM     16  C   UNL     1      -4.720  -0.219   1.125  0.00  0.00    +0.020 C 
ATOM     17  C   UNL     1      -6.450   0.032  -1.247  0.00  0.00    +0.002 C 
ATOM     18  C   UNL     1      -7.030  -0.036   0.173  0.00  0.00    +0.000 C 
ENDBRANCH  10  15
BRANCH   1  20
ATOM     19  O4* UNL     1       3.921   0.745   0.946  0.00  0.00    -0.333 OA
ATOM     20  C1* UNL     1       3.174  -0.349   0.380  0.00  0.00    +0.225 C 
ATOM     21  C2* UNL     1       3.910  -0.753  -0.889  0.00  0.00    +0.187 C 
ATOM     22  C3* UNL     1       5.351  -0.498  -0.495  0.00  0.00    +0.171 C 
ATOM     23  C4* UNL     1       5.239   0.767   0.350  0.00  0.00    +0.175 C 
BRANCH  21  24
ATOM     24  O2* UNL     1       3.662  -2.100  -1.236  0.00  0.00    -0.378 OA
ATOM     25  H2* UNL     1       2.728  -2.205  -1.478  0.00  0.00    +0.211 HD
ENDBRANCH  21  24
BRANCH  22  26
ATOM     26  O3* UNL     1       5.815  -1.565   0.333  0.00  0.00    -0.379 OA
ATOM     27  H3* UNL     1       5.890  -2.375  -0.196  0.00  0.00    +0.211 HD
ENDBRANCH  22  26
BRANCH  23  28
ATOM     28  C5* UNL     1       5.373   2.043  -0.470  0.00  0.00    +0.169 C 
BRANCH  28  29
ATOM     29  O5* UNL     1       5.245   3.155   0.398  0.00  0.00    -0.379 OA
ATOM     30  H5* UNL     1       5.329   3.975  -0.113  0.00  0.00    +0.211 HD
ENDBRANCH  28  29
ENDBRANCH  23  28
ENDBRANCH   1  20
TORSDOF 6
