REMARK  Name = 119575
REMARK  10 active torsions:
REMARK  status: ('A' for Active; 'I' for Inactive)
REMARK    1  A    between atoms: N_1  and  C_31
REMARK    2  A    between atoms: C_2  and  C_8
REMARK    3  A    between atoms: C_4  and  N_18
REMARK    4  A    between atoms: N_7  and  C_10
REMARK    5  A    between atoms: C_10  and  C_11
REMARK    6  A    between atoms: C_11  and  C_12
REMARK    7  A    between atoms: C_12  and  N_13
REMARK    8  A    between atoms: C_19  and  C_22
REMARK    9  A    between atoms: C_24  and  N_27
REMARK   10  A    between atoms: C_31  and  C_32
REMARK                            x       y       z     vdW  Elec       q    Type
REMARK                         _______ _______ _______ _____ _____    ______ ____
ROOT
ATOM      1  N   UNL     1       1.011   2.442  -0.356  0.00  0.00    -0.281 N 
ATOM      2  C   UNL     1       1.759   1.302  -0.216  0.00  0.00    +0.107 C 
ATOM      3  C   UNL     1      -0.322   2.122  -0.338  0.00  0.00    +0.080 C 
ATOM      4  C   UNL     1      -0.425   0.757  -0.184  0.00  0.00    +0.067 C 
ATOM      5  C   UNL     1       0.891   0.239  -0.106  0.00  0.00    +0.035 C 
ENDROOT
BRANCH   2   8
ATOM      6  O   UNL     1       3.902   2.216   0.213  0.00  0.00    -0.269 OA
ATOM      7  N   UNL     1       3.821   0.100  -0.678  0.00  0.00    -0.300 N 
ATOM      8  C   UNL     1       3.228   1.266  -0.189  0.00  0.00    +0.260 C 
ATOM      9  H   UNL     1       3.241  -0.633  -0.989  0.00  0.00    +0.150 HD
BRANCH   7  10
ATOM     10  C   UNL     1       5.247  -0.070  -0.745  0.00  0.00    +0.088 C 
BRANCH  10  11
ATOM     11  C   UNL     1       5.823  -0.686   0.528  0.00  0.00    -0.002 C 
BRANCH  11  12
ATOM     12  C   UNL     1       5.244  -2.058   0.885  0.00  0.00    -0.076 C 
BRANCH  12  13
ATOM     13  N   UNL     1       5.492  -3.044  -0.160  0.00  0.00    +0.384 N 
ATOM     14  C   UNL     1       6.879  -3.510  -0.111  0.00  0.00    -0.101 C 
ATOM     15  C   UNL     1       4.572  -4.175  -0.031  0.00  0.00    -0.101 C 
ATOM     16  H   UNL     1       5.332  -2.597  -1.063  0.00  0.00    -0.080 HD
ENDBRANCH  12  13
ENDBRANCH  11  12
ENDBRANCH  10  11
ENDBRANCH   7  10
ENDBRANCH   2   8
BRANCH   4  18
ATOM     17  O   UNL     1      -0.858  -2.141   0.138  0.00  0.00    -0.266 OA
ATOM     18  N   UNL     1      -1.605   0.053  -0.121  0.00  0.00    -0.277 N 
ATOM     19  C   UNL     1      -1.784  -1.339   0.034  0.00  0.00    +0.284 C 
ATOM     20  H   UNL     1      -2.429   0.587  -0.193  0.00  0.00    +0.155 HD
BRANCH  19  22
ATOM     21  O   UNL     1      -4.161  -0.845   0.025  0.00  0.00    -0.435 OA
ATOM     22  C   UNL     1      -3.185  -1.787   0.109  0.00  0.00    +0.200 C 
ATOM     23  C   UNL     1      -3.735  -3.039   0.255  0.00  0.00    +0.047 C 
ATOM     24  C   UNL     1      -5.346  -1.502   0.120  0.00  0.00    +0.202 C 
ATOM     25  C   UNL     1      -5.138  -2.855   0.263  0.00  0.00    +0.057 C 
BRANCH  24  27
ATOM     26  O   UNL     1      -5.683   1.442  -0.195  0.00  0.00    -0.275 OA
ATOM     27  N   UNL     1      -6.495  -0.764   0.061  0.00  0.00    -0.255 N 
ATOM     28  C   UNL     1      -6.597   0.631  -0.089  0.00  0.00    +0.229 C 
ATOM     29  C   UNL     1      -8.034   1.089  -0.112  0.00  0.00    +0.095 C 
ATOM     30  H   UNL     1      -7.342  -1.262   0.130  0.00  0.00    +0.158 HD
ENDBRANCH  24  27
ENDBRANCH  19  22
ENDBRANCH   4  18
BRANCH   1  31
ATOM     31  C   UNL     1       1.531   3.784  -0.505  0.00  0.00    +0.096 C 
BRANCH  31  32
ATOM     32  C   UNL     1       1.717   4.481   0.841  0.00  0.00    +0.022 C 
ATOM     33  C   UNL     1       2.253   5.892   0.664  0.00  0.00    +0.002 C 
ENDBRANCH  31  32
ENDBRANCH   1  31
TORSDOF 10
