REMARK  Name = 119579
REMARK  13 active torsions:
REMARK  status: ('A' for Active; 'I' for Inactive)
REMARK    1  A    between atoms: C_1  and  C_3
REMARK    2  A    between atoms: C_1  and  O_6
REMARK    3  A    between atoms: C_1  and  C_17
REMARK    4  A    between atoms: C_3  and  O_4
REMARK    5  A    between atoms: O_6  and  C_7
REMARK    6  A    between atoms: C_7  and  C_9
REMARK    7  A    between atoms: C_7  and  C_12
REMARK    8  A    between atoms: C_9  and  O_10
REMARK    9  A    between atoms: C_12  and  C_14
REMARK   10  A    between atoms: C_14  and  O_15
REMARK   11  A    between atoms: C_17  and  O_18
REMARK   12  A    between atoms: C_17  and  C_21
REMARK   13  A    between atoms: C_21  and  O_22
REMARK                            x       y       z     vdW  Elec       q    Type
REMARK                         _______ _______ _______ _____ _____    ______ ____
ROOT
ATOM      1  C   UNL     1       1.324  -0.359  -0.474  0.00  0.00    +0.252 C 
ENDROOT
BRANCH   1   3
ATOM      2  O   UNL     1       1.554  -2.661   0.285  0.00  0.00    -0.247 OA
ATOM      3  C   UNL     1       1.981  -1.725  -0.379  0.00  0.00    +0.344 C 
BRANCH   3   4
ATOM      4  O   UNL     1       3.129  -1.795  -1.101  0.00  0.00    -0.478 OA
ATOM      5  H   UNL     1       3.418  -1.053  -1.595  0.00  0.00    +0.295 HD
ENDBRANCH   3   4
ENDBRANCH   1   3
BRANCH   1   6
ATOM      6  O   UNL     1       0.108  -0.409   0.261  0.00  0.00    -0.334 OA
BRANCH   6   7
ATOM      7  C   UNL     1      -0.964  -0.889  -0.539  0.00  0.00    +0.225 C 
BRANCH   7   9
ATOM      8  O   UNL     1      -1.788  -1.775   1.571  0.00  0.00    -0.248 OA
ATOM      9  C   UNL     1      -1.913  -1.658   0.359  0.00  0.00    +0.342 C 
BRANCH   9  10
ATOM     10  O   UNL     1      -2.928  -2.232  -0.338  0.00  0.00    -0.479 OA
ATOM     11  H   UNL     1      -2.983  -2.115  -1.266  0.00  0.00    +0.295 HD
ENDBRANCH   9  10
ENDBRANCH   7   9
BRANCH   7  12
ATOM     12  C   UNL     1      -1.663   0.310  -1.177  0.00  0.00    +0.150 C 
BRANCH  12  14
ATOM     13  O   UNL     1      -1.812   1.425   0.991  0.00  0.00    -0.250 OA
ATOM     14  C   UNL     1      -2.236   1.250  -0.142  0.00  0.00    +0.317 C 
BRANCH  14  15
ATOM     15  O   UNL     1      -3.325   1.887  -0.644  0.00  0.00    -0.480 OA
ATOM     16  H   UNL     1      -3.606   1.713  -1.521  0.00  0.00    +0.295 HD
ENDBRANCH  14  15
ENDBRANCH  12  14
ENDBRANCH   7  12
ENDBRANCH   6   7
ENDBRANCH   1   6
BRANCH   1  17
ATOM     17  C   UNL     1       2.179   0.777   0.091  0.00  0.00    +0.248 C 
BRANCH  17  18
ATOM     18  O   UNL     1       2.559   0.451   1.416  0.00  0.00    -0.372 OA
ATOM     19  H   UNL     1       3.009  -0.408   1.422  0.00  0.00    +0.211 HD
ENDBRANCH  17  18
BRANCH  17  21
ATOM     20  O   UNL     1       1.205   2.791   1.020  0.00  0.00    -0.247 OA
ATOM     21  C   UNL     1       1.468   2.120   0.029  0.00  0.00    +0.344 C 
BRANCH  21  22
ATOM     22  O   UNL     1       1.121   2.493  -1.227  0.00  0.00    -0.478 OA
ATOM     23  H   UNL     1       1.343   1.948  -1.956  0.00  0.00    +0.295 HD
ENDBRANCH  21  22
ENDBRANCH  17  21
ENDBRANCH   1  17
TORSDOF 13
