REMARK  Name = 11953815
REMARK  12 active torsions:
REMARK  status: ('A' for Active; 'I' for Inactive)
REMARK    1  A    between atoms: C_1  and  C_3
REMARK    2  A    between atoms: C_2  and  C_16
REMARK    3  A    between atoms: C_6  and  O_9
REMARK    4  A    between atoms: C_7  and  O_11
REMARK    5  A    between atoms: C_8  and  O_13
REMARK    6  A    between atoms: C_16  and  O_17
REMARK    7  A    between atoms: O_17  and  C_18
REMARK    8  A    between atoms: C_18  and  C_20
REMARK    9  A    between atoms: C_18  and  C_23
REMARK   10  A    between atoms: C_20  and  O_21
REMARK   11  A    between atoms: C_23  and  C_25
REMARK   12  A    between atoms: C_25  and  O_26
REMARK                            x       y       z     vdW  Elec       q    Type
REMARK                         _______ _______ _______ _____ _____    ______ ____
ROOT
ATOM      1  C   UNL     1       0.573   0.942  -0.593  0.00  0.00    +0.007 C 
ATOM      2  C   UNL     1      -0.524   0.259  -0.238  0.00  0.00    +0.082 C 
ENDROOT
BRANCH   1   3
ATOM      3  C   UNL     1       1.953   0.453  -0.427  0.00  0.00    +0.006 C 
ATOM      4  C   UNL     1       2.999   1.361  -0.429  0.00  0.00    +0.040 C 
ATOM      5  C   UNL     1       2.178  -0.906  -0.274  0.00  0.00    +0.040 C 
ATOM      6  C   UNL     1       3.484  -1.369  -0.117  0.00  0.00    +0.175 C 
ATOM      7  C   UNL     1       4.306   0.898  -0.272  0.00  0.00    +0.175 C 
ATOM      8  C   UNL     1       4.548  -0.467  -0.116  0.00  0.00    +0.202 C 
BRANCH   6   9
ATOM      9  O   UNL     1       3.707  -2.704   0.034  0.00  0.00    -0.468 OA
ATOM     10  C   UNL     1       3.706  -3.215   1.365  0.00  0.00    +0.253 C 
ENDBRANCH   6   9
BRANCH   7  11
ATOM     11  O   UNL     1       5.337   1.789  -0.273  0.00  0.00    -0.468 OA
ATOM     12  C   UNL     1       5.720   2.337   0.987  0.00  0.00    +0.253 C 
ENDBRANCH   7  11
BRANCH   8  13
ATOM     13  O   UNL     1       5.825  -0.920   0.036  0.00  0.00    -0.501 OA
ATOM     14  H   UNL     1       5.988  -1.837   0.141  0.00  0.00    +0.292 HD
ENDBRANCH   8  13
ENDBRANCH   1   3
BRANCH   2  16
ATOM     15  O   UNL     1      -2.071   1.962  -0.936  0.00  0.00    -0.245 OA
ATOM     16  C   UNL     1      -1.859   0.864  -0.445  0.00  0.00    +0.342 C 
BRANCH  16  17
ATOM     17  O   UNL     1      -2.797  -0.019   0.006  0.00  0.00    -0.437 OA
BRANCH  17  18
ATOM     18  C   UNL     1      -4.150   0.399  -0.117  0.00  0.00    +0.277 C 
BRANCH  18  20
ATOM     19  O   UNL     1      -3.694   2.012   1.644  0.00  0.00    -0.246 OA
ATOM     20  C   UNL     1      -4.309   1.708   0.630  0.00  0.00    +0.355 C 
BRANCH  20  21
ATOM     21  O   UNL     1      -5.237   2.517   0.057  0.00  0.00    -0.478 OA
ATOM     22  H   UNL     1      -5.682   2.242  -0.720  0.00  0.00    +0.295 HD
ENDBRANCH  20  21
ENDBRANCH  18  20
BRANCH  18  23
ATOM     23  C   UNL     1      -5.045  -0.686   0.482  0.00  0.00    +0.165 C 
BRANCH  23  25
ATOM     24  O   UNL     1      -4.126  -2.245  -1.158  0.00  0.00    -0.250 OA
ATOM     25  C   UNL     1      -4.863  -2.017  -0.211  0.00  0.00    +0.318 C 
BRANCH  25  26
ATOM     26  O   UNL     1      -5.661  -2.953   0.365  0.00  0.00    -0.480 OA
ATOM     27  H   UNL     1      -6.207  -2.721   1.091  0.00  0.00    +0.295 HD
ENDBRANCH  25  26
ENDBRANCH  23  25
ENDBRANCH  18  23
ENDBRANCH  17  18
ENDBRANCH  16  17
ENDBRANCH   2  16
TORSDOF 12
