11957545
  -OEChem-03292013303D

 49 53  0     1  0  0  0  0  0999 V2000
    3.9206    0.7449    0.9456 O   0  0  0  0  0  0  0  0  0  0  0  0
    3.6615   -2.1001   -1.2361 O   0  0  0  0  0  0  0  0  0  0  0  0
    5.8150   -1.5646    0.3328 O   0  0  0  0  0  0  0  0  0  0  0  0
    5.2446    3.1554    0.3980 O   0  0  0  0  0  0  0  0  0  0  0  0
   -2.7935    0.3222   -0.3116 N   0  0  0  0  0  0  0  0  0  0  0  0
    1.7889    0.0608    0.1596 N   0  0  0  0  0  0  0  0  0  0  0  0
   -1.7892   -1.7684    0.2781 N   0  0  0  0  0  0  0  0  0  0  0  0
    0.0562    1.3829   -0.3088 N   0  0  0  0  0  0  0  0  0  0  0  0
    0.6212   -2.0322    0.5551 N   0  0  0  0  0  0  0  0  0  0  0  0
   -5.1094    0.7618   -1.0402 C   0  0  1  0  0  0  0  0  0  0  0  0
   -5.9629    0.6845    1.0143 C   0  0  2  0  0  0  0  0  0  0  0  0
   -5.4817    1.7691    0.0509 C   0  0  0  0  0  0  0  0  0  0  0  0
   -4.1414   -0.1979   -0.3076 C   0  0  2  0  0  0  0  0  0  0  0  0
   -4.7199   -0.2187    1.1246 C   0  0  0  0  0  0  0  0  0  0  0  0
   -6.4505    0.0322   -1.2474 C   0  0  0  0  0  0  0  0  0  0  0  0
   -7.0298   -0.0356    0.1729 C   0  0  0  0  0  0  0  0  0  0  0  0
   -1.6742   -0.4430   -0.0282 C   0  0  0  0  0  0  0  0  0  0  0  0
    3.1739   -0.3494    0.3798 C   0  0  1  0  0  0  0  0  0  0  0  0
    3.9101   -0.7531   -0.8886 C   0  0  1  0  0  0  0  0  0  0  0  0
    5.3515   -0.4977   -0.4950 C   0  0  1  0  0  0  0  0  0  0  0  0
    5.2386    0.7672    0.3502 C   0  0  1  0  0  0  0  0  0  0  0  0
   -0.3865    0.1109   -0.0455 C   0  0  0  0  0  0  0  0  0  0  0  0
    0.6769   -0.7273    0.2488 C   0  0  0  0  0  0  0  0  0  0  0  0
    5.3735    2.0427   -0.4696 C   0  0  0  0  0  0  0  0  0  0  0  0
    1.3647    1.3189   -0.1770 C   0  0  0  0  0  0  0  0  0  0  0  0
   -0.6582   -2.4655    0.5450 C   0  0  0  0  0  0  0  0  0  0  0  0
   -4.7050    1.1990   -1.9562 H   0  0  0  0  0  0  0  0  0  0  0  0
   -6.3321    1.0391    1.9785 H   0  0  0  0  0  0  0  0  0  0  0  0
   -6.2755    2.4601   -0.2523 H   0  0  0  0  0  0  0  0  0  0  0  0
   -4.6284    2.3382    0.4331 H   0  0  0  0  0  0  0  0  0  0  0  0
   -4.1691   -1.1916   -0.7708 H   0  0  0  0  0  0  0  0  0  0  0  0
   -4.0161    0.1911    1.8588 H   0  0  0  0  0  0  0  0  0  0  0  0
   -4.9809   -1.2351    1.4381 H   0  0  0  0  0  0  0  0  0  0  0  0
   -6.3281   -0.9608   -1.6912 H   0  0  0  0  0  0  0  0  0  0  0  0
   -7.1133    0.6156   -1.8967 H   0  0  0  0  0  0  0  0  0  0  0  0
   -7.9860    0.4979    0.2150 H   0  0  0  0  0  0  0  0  0  0  0  0
   -7.1989   -1.0663    0.5002 H   0  0  0  0  0  0  0  0  0  0  0  0
   -2.6496    1.3084   -0.4997 H   0  0  0  0  0  0  0  0  0  0  0  0
    3.1512   -1.1563    1.1226 H   0  0  0  0  0  0  0  0  0  0  0  0
    3.6269   -0.1149   -1.7336 H   0  0  0  0  0  0  0  0  0  0  0  0
    6.0283   -0.4192   -1.3505 H   0  0  0  0  0  0  0  0  0  0  0  0
    5.9559    0.7797    1.1788 H   0  0  0  0  0  0  0  0  0  0  0  0
    4.5947    2.1254   -1.2340 H   0  0  0  0  0  0  0  0  0  0  0  0
    6.3516    2.0966   -0.9563 H   0  0  0  0  0  0  0  0  0  0  0  0
    2.0455    2.1472   -0.3185 H   0  0  0  0  0  0  0  0  0  0  0  0
    3.9641   -2.6609   -0.5017 H   0  0  0  0  0  0  0  0  0  0  0  0
    6.7231   -1.3470    0.6046 H   0  0  0  0  0  0  0  0  0  0  0  0
   -0.8011   -3.5142    0.7825 H   0  0  0  0  0  0  0  0  0  0  0  0
    4.3735    3.0939    0.8262 H   0  0  0  0  0  0  0  0  0  0  0  0
  1 18  1  0  0  0  0
  1 21  1  0  0  0  0
  2 19  1  0  0  0  0
  2 46  1  0  0  0  0
  3 20  1  0  0  0  0
  3 47  1  0  0  0  0
  4 24  1  0  0  0  0
  4 49  1  0  0  0  0
  5 13  1  0  0  0  0
  5 17  1  0  0  0  0
  5 38  1  0  0  0  0
  6 18  1  0  0  0  0
  6 23  1  0  0  0  0
  6 25  1  0  0  0  0
  7 17  1  0  0  0  0
  7 26  2  0  0  0  0
  8 22  1  0  0  0  0
  8 25  2  0  0  0  0
  9 23  2  0  0  0  0
  9 26  1  0  0  0  0
 10 12  1  0  0  0  0
 10 13  1  0  0  0  0
 10 15  1  0  0  0  0
 10 27  1  0  0  0  0
 11 12  1  0  0  0  0
 11 14  1  0  0  0  0
 11 16  1  0  0  0  0
 11 28  1  0  0  0  0
 12 29  1  0  0  0  0
 12 30  1  0  0  0  0
 13 14  1  0  0  0  0
 13 31  1  0  0  0  0
 14 32  1  0  0  0  0
 14 33  1  0  0  0  0
 15 16  1  0  0  0  0
 15 34  1  0  0  0  0
 15 35  1  0  0  0  0
 16 36  1  0  0  0  0
 16 37  1  0  0  0  0
 17 22  2  0  0  0  0
 18 19  1  0  0  0  0
 18 39  1  0  0  0  0
 19 20  1  0  0  0  0
 19 40  1  0  0  0  0
 20 21  1  0  0  0  0
 20 41  1  0  0  0  0
 21 24  1  0  0  0  0
 21 42  1  0  0  0  0
 22 23  1  0  0  0  0
 24 43  1  0  0  0  0
 24 44  1  0  0  0  0
 25 45  1  0  0  0  0
 26 48  1  0  0  0  0
M  END
> <PUBCHEM_COMPOUND_CID>
11957545

> <PUBCHEM_CONFORMER_RMSD>
0.8

> <PUBCHEM_CONFORMER_DIVERSEORDER>
1
131
128
122
101
76
124
16
139
30
125
20
99
94
51
57
81
135
140
2
60
37
92
137
105
14
111
126
62
75
87
25
107
119
103
117
88
5
136
98
84
77
56
64
127
73
53
110
3
118
95
69
32
80
141
27
112
116
41
109
29
72
133
63
89
91
34
11
93
54
115
61
96
50
102
114
134
108
86
47
13
66
121
52
26
39
6
120
79
138
42
38
28
97
10
7
90
18
70
44
132
71
24
36
31
35
46
65
59
106
67
8
129
82
68
49
43
130
45
83
33
17
19
15
55
104
78
48
100
21
85
22
12
123
74
40
23
9
58
113
4

> <PUBCHEM_MMFF94_PARTIAL_CHARGES>
26
1 -0.56
13 0.37
17 0.41
18 0.54
19 0.28
2 -0.68
20 0.28
21 0.28
22 0.23
23 0.11
24 0.28
25 0.04
26 0.47
3 -0.68
38 0.4
4 -0.68
45 0.15
46 0.4
47 0.4
48 0.15
49 0.4
5 -0.87
6 0.05
7 -0.62
8 -0.57
9 -0.57

> <PUBCHEM_EFFECTIVE_ROTOR_COUNT>
6

> <PUBCHEM_PHARMACOPHORE_FEATURES>
16
1 1 acceptor
1 2 acceptor
1 2 donor
1 3 acceptor
1 3 donor
1 4 acceptor
1 4 donor
1 5 cation
1 5 donor
3 6 8 25 cation
3 6 9 23 cation
3 7 9 26 cation
5 1 18 19 20 21 rings
5 6 8 22 23 25 rings
6 7 9 17 22 23 26 rings
7 10 11 12 13 14 15 16 rings

> <PUBCHEM_HEAVY_ATOM_COUNT>
26

> <PUBCHEM_ATOM_DEF_STEREO_COUNT>
5

> <PUBCHEM_ATOM_UDEF_STEREO_COUNT>
2

> <PUBCHEM_BOND_DEF_STEREO_COUNT>
0

> <PUBCHEM_BOND_UDEF_STEREO_COUNT>
0

> <PUBCHEM_ISOTOPIC_ATOM_COUNT>
0

> <PUBCHEM_COMPONENT_COUNT>
1

> <PUBCHEM_CACTVS_TAUTO_COUNT>
3

> <PUBCHEM_CONFORMER_ID>
00B6752900000001

> <PUBCHEM_MMFF94_ENERGY>
72.6751

> <PUBCHEM_FEATURE_SELFOVERLAP>
81.819

> <PUBCHEM_SHAPE_FINGERPRINT>
10 15 17822009856173621041
10411042 1 17906453230505121354
10638233 991 17917433159066002889
10835480 77 18339921636210678168
10906281 52 18200329795552204500
11315181 36 13190346764817523541
11646440 116 18341902887502359641
12166972 35 17846777438554199633
12236239 1 17917993854725277297
12403259 415 18187357714539440845
12516196 113 17847058874401262081
12916748 109 18408042888110148749
13533116 47 17917433090604514354
14790565 3 18409170982687614637
14849402 71 18270123547274394169
14933364 13 18413673508915721225
15081414 286 18411423890534206197
15183329 4 16415482644893563969
1601671 61 18113900437951586359
17349148 13 12535350120796402067
17844677 252 18411704244630051517
18608769 82 18335987579786496715
19489759 90 14405186153802857115
20281389 69 18259701194648885905
21033648 29 18335123298763716537
21033650 10 14835308530866989795
21150785 3 17703788162963762485
21236236 1 18337109085720327115
21279426 13 18193839241206305871
21521721 280 18411704309106873553
21792934 111 18334843996940042768
220451 1 17060339630568102543
22224240 67 18113056048119840251
23081809 10 17704072893499367897
23402539 116 16415478229899350857
23522609 53 17417271908286836889
23536379 177 16845573089324223607
23559900 14 18411702106616805862
23569914 152 16900441756350614519
23569943 247 17984430624510373959
249057 3 18408888447760817246
255183 451 17629496190191196798
2838139 119 18410570661179132055
2916195 48 18408321107570129913
293599 30 18334576858178693203
29717793 49 17346887732570538036
3004659 81 18408042893043263638
3009799 131 12031783656609673995
335352 9 18409168805919651326
34797466 226 17917719006292442989
3545911 37 18407760327234628123
38695281 34 18201438052155966919
397830 11 17169003346575934417
4073 2 18262521506193250634
4340502 62 15936406736831490352
495365 180 17703779367266268826
5104073 3 18188204424840320842
59682541 35 18113909295186799899
59755656 215 18335140838966794999
59755656 520 18412258446378669287
6328613 192 18410577330947422697
7495541 125 15213028171346177741

> <PUBCHEM_SHAPE_MULTIPOLES>
486.69
18.04
2.19
0.98
8.83
0.22
0.09
5.95
0.91
-2.91
-0.15
0.57
-0.06
0.61

> <PUBCHEM_SHAPE_SELFOVERLAP>
1072.073

> <PUBCHEM_SHAPE_VOLUME>
263.8

> <PUBCHEM_COORDINATE_TYPE>
2
5
10

$$$$
