REMARK  Name = 119545
REMARK  6 active torsions:
REMARK  status: ('A' for Active; 'I' for Inactive)
REMARK    1  A    between atoms: N_2  and  C_8
REMARK    2  A    between atoms: N_3  and  N_7
REMARK    3  A    between atoms: N_3  and  C_14
REMARK    4  A    between atoms: C_8  and  C_9
REMARK    5  A    between atoms: C_9  and  S_10
REMARK    6  A    between atoms: C_14  and  C_16
REMARK                            x       y       z     vdW  Elec       q    Type
REMARK                         _______ _______ _______ _____ _____    ______ ____
ROOT
ATOM      1  O   UNL     1      -0.819   1.774   1.000  0.00  0.00    -0.251 OA
ATOM      2  N   UNL     1       0.570  -0.052   1.152  0.00  0.00    -0.286 N 
ATOM      3  N   UNL     1      -1.699  -0.322   0.546  0.00  0.00    -0.163 N 
ATOM      4  C   UNL     1      -0.661   0.552   0.906  0.00  0.00    +0.320 C 
ATOM      5  H   UNL     1       0.648  -1.030   1.064  0.00  0.00    +0.151 HD
ENDROOT
BRANCH   3   7
ATOM      6  O   UNL     1      -2.439  -2.442   0.120  0.00  0.00    -0.078 OA
ATOM      7  N   UNL     1      -1.443  -1.788   0.445  0.00  0.00    +0.054 NA
ENDBRANCH   3   7
BRANCH   2   8
ATOM      8  C   UNL     1       1.736   0.713   1.530  0.00  0.00    +0.116 C 
BRANCH   8   9
ATOM      9  C   UNL     1       2.541   1.164   0.326  0.00  0.00    +0.172 C 
BRANCH   9  10
ATOM     10  S   UNL     1       3.161  -0.195  -0.614  0.00  0.00    -0.007 S 
ATOM     11  O   UNL     1       4.146  -0.895   0.194  0.00  0.00    -0.173 OA
ATOM     12  O   UNL     1       2.030  -0.908  -1.184  0.00  0.00    -0.173 OA
ATOM     13  C   UNL     1       4.028   0.593  -1.952  0.00  0.00    +0.176 C 
ENDBRANCH   9  10
ENDBRANCH   8   9
ENDBRANCH   2   8
BRANCH   3  14
ATOM     14  C   UNL     1      -3.040   0.171   0.259  0.00  0.00    +0.134 C 
BRANCH  14  16
ATOM     15 CL   UNL     1      -4.879   1.119  -1.521  0.00  0.00    -0.112 Cl
ATOM     16  C   UNL     1      -3.233   0.516  -1.208  0.00  0.00    +0.118 C 
ENDBRANCH  14  16
ENDBRANCH   3  14
TORSDOF 6
