119575
  -OEChem-03292013323D

 58 59  0     0  0  0  0  0  0999 V2000
    3.9024    2.2163    0.2128 O   0  0  0  0  0  0  0  0  0  0  0  0
   -4.1611   -0.8445    0.0253 O   0  0  0  0  0  0  0  0  0  0  0  0
   -0.8582   -2.1410    0.1381 O   0  0  0  0  0  0  0  0  0  0  0  0
   -5.6829    1.4417   -0.1951 O   0  0  0  0  0  0  0  0  0  0  0  0
    1.0109    2.4422   -0.3559 N   0  0  0  0  0  0  0  0  0  0  0  0
    3.8211    0.0999   -0.6782 N   0  0  0  0  0  0  0  0  0  0  0  0
    5.4920   -3.0436   -0.1600 N   0  0  0  0  0  0  0  0  0  0  0  0
   -1.6054    0.0530   -0.1209 N   0  0  0  0  0  0  0  0  0  0  0  0
   -6.4950   -0.7638    0.0606 N   0  0  0  0  0  0  0  0  0  0  0  0
    1.5310    3.7835   -0.5051 C   0  0  0  0  0  0  0  0  0  0  0  0
    1.7589    1.3024   -0.2156 C   0  0  0  0  0  0  0  0  0  0  0  0
    5.8231   -0.6865    0.5285 C   0  0  0  0  0  0  0  0  0  0  0  0
    5.2467   -0.0700   -0.7447 C   0  0  0  0  0  0  0  0  0  0  0  0
   -0.3216    2.1219   -0.3380 C   0  0  0  0  0  0  0  0  0  0  0  0
   -0.4255    0.7570   -0.1837 C   0  0  0  0  0  0  0  0  0  0  0  0
    1.7171    4.4805    0.8408 C   0  0  0  0  0  0  0  0  0  0  0  0
    5.2435   -2.0584    0.8855 C   0  0  0  0  0  0  0  0  0  0  0  0
    0.8906    0.2386   -0.1063 C   0  0  0  0  0  0  0  0  0  0  0  0
    3.2278    1.2665   -0.1893 C   0  0  0  0  0  0  0  0  0  0  0  0
    2.2531    5.8917    0.6640 C   0  0  0  0  0  0  0  0  0  0  0  0
    6.8791   -3.5095   -0.1107 C   0  0  0  0  0  0  0  0  0  0  0  0
    4.5719   -4.1751   -0.0314 C   0  0  0  0  0  0  0  0  0  0  0  0
   -1.7838   -1.3390    0.0341 C   0  0  0  0  0  0  0  0  0  0  0  0
   -3.1854   -1.7868    0.1086 C   0  0  0  0  0  0  0  0  0  0  0  0
   -3.7347   -3.0393    0.2552 C   0  0  0  0  0  0  0  0  0  0  0  0
   -5.3461   -1.5024    0.1198 C   0  0  0  0  0  0  0  0  0  0  0  0
   -5.1379   -2.8546    0.2626 C   0  0  0  0  0  0  0  0  0  0  0  0
   -6.5970    0.6309   -0.0887 C   0  0  0  0  0  0  0  0  0  0  0  0
   -8.0344    1.0885   -0.1123 C   0  0  0  0  0  0  0  0  0  0  0  0
    2.4607    3.7442   -1.0816 H   0  0  0  0  0  0  0  0  0  0  0  0
    0.8131    4.3413   -1.1196 H   0  0  0  0  0  0  0  0  0  0  0  0
    5.6198   -0.0102    1.3694 H   0  0  0  0  0  0  0  0  0  0  0  0
    6.9141   -0.7347    0.4417 H   0  0  0  0  0  0  0  0  0  0  0  0
    5.7182    0.9027   -0.9235 H   0  0  0  0  0  0  0  0  0  0  0  0
    5.4606   -0.6993   -1.6148 H   0  0  0  0  0  0  0  0  0  0  0  0
   -1.0813    2.8867   -0.4347 H   0  0  0  0  0  0  0  0  0  0  0  0
    5.6459   -2.3901    1.8519 H   0  0  0  0  0  0  0  0  0  0  0  0
    4.1637   -1.9331    1.0397 H   0  0  0  0  0  0  0  0  0  0  0  0
    2.3995    3.9124    1.4824 H   0  0  0  0  0  0  0  0  0  0  0  0
    0.7585    4.5261    1.3722 H   0  0  0  0  0  0  0  0  0  0  0  0
    1.1892   -0.7921    0.0225 H   0  0  0  0  0  0  0  0  0  0  0  0
    3.2390   -0.6582   -1.0211 H   0  0  0  0  0  0  0  0  0  0  0  0
    1.5687    6.4994    0.0635 H   0  0  0  0  0  0  0  0  0  0  0  0
    3.2289    5.8803    0.1681 H   0  0  0  0  0  0  0  0  0  0  0  0
    2.3725    6.3768    1.6378 H   0  0  0  0  0  0  0  0  0  0  0  0
   -2.4461    0.6223   -0.1912 H   0  0  0  0  0  0  0  0  0  0  0  0
    7.1296   -3.9694    0.8522 H   0  0  0  0  0  0  0  0  0  0  0  0
    7.0579   -4.2525   -0.8967 H   0  0  0  0  0  0  0  0  0  0  0  0
    7.5854   -2.6959   -0.3017 H   0  0  0  0  0  0  0  0  0  0  0  0
    4.7422   -4.9032   -0.8323 H   0  0  0  0  0  0  0  0  0  0  0  0
    4.6802   -4.6880    0.9312 H   0  0  0  0  0  0  0  0  0  0  0  0
    3.5331   -3.8409   -0.1313 H   0  0  0  0  0  0  0  0  0  0  0  0
   -3.1957   -3.9716    0.3461 H   0  0  0  0  0  0  0  0  0  0  0  0
   -5.8993   -3.6154    0.3597 H   0  0  0  0  0  0  0  0  0  0  0  0
   -7.3590   -1.2957    0.1343 H   0  0  0  0  0  0  0  0  0  0  0  0
   -8.5500    0.6406   -0.9663 H   0  0  0  0  0  0  0  0  0  0  0  0
   -8.5337    0.7899    0.8138 H   0  0  0  0  0  0  0  0  0  0  0  0
   -8.0761    2.1775   -0.2023 H   0  0  0  0  0  0  0  0  0  0  0  0
  1 19  2  0  0  0  0
  2 24  1  0  0  0  0
  2 26  1  0  0  0  0
  3 23  2  0  0  0  0
  4 28  2  0  0  0  0
  5 10  1  0  0  0  0
  5 11  1  0  0  0  0
  5 14  1  0  0  0  0
  6 13  1  0  0  0  0
  6 19  1  0  0  0  0
  6 42  1  0  0  0  0
  7 17  1  0  0  0  0
  7 21  1  0  0  0  0
  7 22  1  0  0  0  0
  8 15  1  0  0  0  0
  8 23  1  0  0  0  0
  8 46  1  0  0  0  0
  9 26  1  0  0  0  0
  9 28  1  0  0  0  0
  9 55  1  0  0  0  0
 10 16  1  0  0  0  0
 10 30  1  0  0  0  0
 10 31  1  0  0  0  0
 11 18  2  0  0  0  0
 11 19  1  0  0  0  0
 12 13  1  0  0  0  0
 12 17  1  0  0  0  0
 12 32  1  0  0  0  0
 12 33  1  0  0  0  0
 13 34  1  0  0  0  0
 13 35  1  0  0  0  0
 14 15  2  0  0  0  0
 14 36  1  0  0  0  0
 15 18  1  0  0  0  0
 16 20  1  0  0  0  0
 16 39  1  0  0  0  0
 16 40  1  0  0  0  0
 17 37  1  0  0  0  0
 17 38  1  0  0  0  0
 18 41  1  0  0  0  0
 20 43  1  0  0  0  0
 20 44  1  0  0  0  0
 20 45  1  0  0  0  0
 21 47  1  0  0  0  0
 21 48  1  0  0  0  0
 21 49  1  0  0  0  0
 22 50  1  0  0  0  0
 22 51  1  0  0  0  0
 22 52  1  0  0  0  0
 23 24  1  0  0  0  0
 24 25  2  0  0  0  0
 25 27  1  0  0  0  0
 25 53  1  0  0  0  0
 26 27  2  0  0  0  0
 27 54  1  0  0  0  0
 28 29  1  0  0  0  0
 29 56  1  0  0  0  0
 29 57  1  0  0  0  0
 29 58  1  0  0  0  0
M  END
> <PUBCHEM_COMPOUND_CID>
119575

> <PUBCHEM_CONFORMER_RMSD>
1.2

> <PUBCHEM_CONFORMER_DIVERSEORDER>
1
47
77
49
69
38
74
57
43
58
70
29
46
78
61
53
89
60
18
86
44
62
66
59
27
19
55
35
90
63
71
79
52
65
25
80
72
51
67
73
20
93
50
83
91
16
22
87
82
30
81
88
39
48
40
45
56
28
9
68
14
85
13
33
24
64
42
84
17
26
34
37
76
5
32
36
15
41
92
31
21
11
7
54
6
23
75
4
2
8
12
3
10

> <PUBCHEM_MMFF94_PARTIAL_CHARGES>
33
1 -0.57
10 0.26
11 -0.24
13 0.3
14 -0.3
15 0.06
17 0.27
18 -0.15
19 0.71
2 -0.28
21 0.27
22 0.27
23 0.71
24 0.05
25 -0.15
26 0.2
27 -0.15
28 0.57
29 0.06
3 -0.57
36 0.15
4 -0.57
41 0.15
42 0.37
46 0.37
5 0.05
53 0.15
54 0.15
55 0.37
6 -0.73
7 -0.81
8 -0.49
9 -0.49

> <PUBCHEM_EFFECTIVE_ROTOR_COUNT>
13

> <PUBCHEM_PHARMACOPHORE_FEATURES>
12
1 1 acceptor
1 2 acceptor
1 20 hydrophobe
1 3 acceptor
1 4 acceptor
1 5 cation
1 6 donor
1 7 cation
1 8 donor
1 9 donor
5 2 24 25 26 27 rings
5 5 11 14 15 18 rings

> <PUBCHEM_HEAVY_ATOM_COUNT>
29

> <PUBCHEM_ATOM_DEF_STEREO_COUNT>
0

> <PUBCHEM_ATOM_UDEF_STEREO_COUNT>
0

> <PUBCHEM_BOND_DEF_STEREO_COUNT>
0

> <PUBCHEM_BOND_UDEF_STEREO_COUNT>
0

> <PUBCHEM_ISOTOPIC_ATOM_COUNT>
0

> <PUBCHEM_COMPONENT_COUNT>
1

> <PUBCHEM_CACTVS_TAUTO_COUNT>
18

> <PUBCHEM_CONFORMER_ID>
0001D31700000001

> <PUBCHEM_MMFF94_ENERGY>
36.2815

> <PUBCHEM_FEATURE_SELFOVERLAP>
60.901

> <PUBCHEM_SHAPE_FINGERPRINT>
11756154 67 18266463105613705998
12107183 9 18341059544946002321
13785724 45 18341620283007174582
13955234 65 18052823838640045640
14117953 113 18271528580999864254
14725015 67 18266454314064486978
15042514 8 18266741277634231748
15183329 4 18409733962969219831
15400415 2 17618504719322701312
16992752 21 18339655439160432318
17844677 252 18194410115844003213
17868525 174 18341894142384903529
20238998 120 18340205185434631008
20832881 197 18334295383175472642
21279426 13 18261105253754513431
21478907 32 18337392635023076278
23559900 14 18411976996833639057
3004659 81 18040436577728247238
3103668 31 17970342616609928189
335352 9 18409167723329046789
3421961 26 18338515378065919208
4073 2 17970632019662756105
4144715 1 18043536212533432739
5104073 3 18119530088374281361
563151 97 17404574966688328580
6299153 45 18341339903326135649
6697151 62 18272355482278253285

> <PUBCHEM_SHAPE_MULTIPOLES>
548.42
18.9
6.55
0.74
17.92
6.21
-0.04
-14.86
-0.25
-9.41
-1.27
-0.46
0.19
0.65

> <PUBCHEM_SHAPE_SELFOVERLAP>
1128.2

> <PUBCHEM_SHAPE_VOLUME>
315.5

> <PUBCHEM_COORDINATE_TYPE>
2
5
10

$$$$
