REMARK  Name = 11953962
REMARK  8 active torsions:
REMARK  status: ('A' for Active; 'I' for Inactive)
REMARK    1  A    between atoms: C_4  and  C_13
REMARK    2  A    between atoms: C_7  and  C_10
REMARK    3  A    between atoms: C_8  and  S_20
REMARK    4  A    between atoms: C_10  and  O_11
REMARK    5  A    between atoms: C_13  and  O_15
REMARK    6  A    between atoms: O_15  and  S_16
REMARK    7  A    between atoms: S_20  and  C_21
REMARK    8  A    between atoms: C_22  and  N_24
REMARK                            x       y       z     vdW  Elec       q    Type
REMARK                         _______ _______ _______ _____ _____    ______ ____
ROOT
ATOM      1  O   UNL     1      -1.994  -2.196   2.014  0.00  0.00    -0.274 OA
ATOM      2  N   UNL     1      -1.418  -2.361  -0.269  0.00  0.00    -0.254 N 
ATOM      3  C   UNL     1      -1.986  -1.366  -1.204  0.00  0.00    +0.096 C 
ATOM      4  C   UNL     1      -2.776  -0.812   0.013  0.00  0.00    +0.125 C 
ATOM      5  C   UNL     1      -0.760  -0.680  -1.818  0.00  0.00    +0.055 C 
ATOM      6  C   UNL     1      -2.066  -1.905   0.842  0.00  0.00    +0.233 C 
ATOM      7  C   UNL     1      -0.062  -2.426  -0.422  0.00  0.00    +0.132 C 
ATOM      8  C   UNL     1       0.381  -1.519  -1.302  0.00  0.00    +0.029 C 
ENDROOT
BRANCH   7  10
ATOM      9  O   UNL     1       1.863  -3.162   0.762  0.00  0.00    -0.244 OA
ATOM     10  C   UNL     1       0.724  -3.364   0.371  0.00  0.00    +0.352 C 
BRANCH  10  11
ATOM     11  O   UNL     1       0.003  -4.483   0.605  0.00  0.00    -0.476 OA
ATOM     12  H   UNL     1      -0.868  -4.558   0.268  0.00  0.00    +0.295 HD
ENDBRANCH  10  11
ENDBRANCH   7  10
BRANCH   4  13
ATOM     13  C   UNL     1      -2.479   0.601   0.454  0.00  0.00    +0.158 C 
ATOM     14  C   UNL     1      -2.944   0.841   1.887  0.00  0.00    +0.035 C 
BRANCH  13  15
ATOM     15  O   UNL     1      -3.147   1.519  -0.412  0.00  0.00    -0.202 OA
BRANCH  15  16
ATOM     16  S   UNL     1      -2.994   3.123  -0.157  0.00  0.00    +0.239 S 
ATOM     17  O   UNL     1      -4.030   3.783  -1.231  0.00  0.00    -0.116 OA
ATOM     18  O   UNL     1      -3.507   3.401   1.172  0.00  0.00    -0.022 OA
ATOM     19  O   UNL     1      -1.651   3.536  -0.521  0.00  0.00    -0.116 OA
ENDBRANCH  15  16
ENDBRANCH  13  15
ENDBRANCH   4  13
BRANCH   8  20
ATOM     20  S   UNL     1       2.005  -1.234  -1.775  0.00  0.00    -0.088 S 
BRANCH  20  21
ATOM     21  C   UNL     1       2.426  -0.052  -0.594  0.00  0.00    +0.051 C 
ATOM     22  C   UNL     1       3.642   0.501  -0.548  0.00  0.00    +0.071 C 
BRANCH  22  24
ATOM     23  O   UNL     1       6.190   1.796  -0.293  0.00  0.00    -0.275 OA
ATOM     24  N   UNL     1       3.986   1.435   0.381  0.00  0.00    -0.283 N 
ATOM     25  C   UNL     1       5.239   2.026   0.451  0.00  0.00    +0.227 C 
ATOM     26  C   UNL     1       5.354   2.998   1.597  0.00  0.00    +0.095 C 
ATOM     27  H   UNL     1       3.307   1.707   1.040  0.00  0.00    +0.155 HD
ENDBRANCH  22  24
ENDBRANCH  20  21
ENDBRANCH   8  20
TORSDOF 8
