REMARK  Name = 119515
REMARK  13 active torsions:
REMARK  status: ('A' for Active; 'I' for Inactive)
REMARK    1  A    between atoms: C_1  and  O_2
REMARK    2  A    between atoms: C_1  and  C_19
REMARK    3  A    between atoms: C_1  and  C_26
REMARK    4  A    between atoms: O_2  and  C_7
REMARK    5  A    between atoms: C_4  and  O_9
REMARK    6  A    between atoms: C_5  and  O_11
REMARK    7  A    between atoms: C_6  and  O_13
REMARK    8  A    between atoms: C_8  and  C_16
REMARK    9  A    between atoms: C_16  and  O_17
REMARK   10  A    between atoms: C_19  and  N_20
REMARK   11  A    between atoms: N_20  and  C_23
REMARK   12  A    between atoms: C_26  and  O_27
REMARK   13  A    between atoms: O_27  and  C_28
REMARK                            x       y       z     vdW  Elec       q    Type
REMARK                         _______ _______ _______ _____ _____    ______ ____
ROOT
ATOM      1  C   UNL     1       0.279   1.805  -0.300  0.00  0.00    +0.140 C 
ENDROOT
BRANCH   1   2
ATOM      2  O   UNL     1       0.618   0.759   0.597  0.00  0.00    -0.330 OA
BRANCH   2   7
ATOM      3  O   UNL     1       1.699  -0.894  -0.645  0.00  0.00    -0.317 OA
ATOM      4  C   UNL     1       3.819  -1.075   1.285  0.00  0.00    +0.172 C 
ATOM      5  C   UNL     1       2.519  -0.321   1.565  0.00  0.00    +0.196 C 
ATOM      6  C   UNL     1       3.635  -2.112   0.176  0.00  0.00    +0.178 C 
ATOM      7  C   UNL     1       1.882   0.183   0.270  0.00  0.00    +0.266 C 
ATOM      8  C   UNL     1       2.930  -1.496  -1.027  0.00  0.00    +0.245 C 
BRANCH   4   9
ATOM      9  O   UNL     1       4.236  -1.762   2.466  0.00  0.00    -0.379 OA
ATOM     10  H   UNL     1       4.360  -1.123   3.185  0.00  0.00    +0.211 HD
ENDBRANCH   4   9
BRANCH   5  11
ATOM     11  O   UNL     1       2.796   0.805   2.397  0.00  0.00    -0.378 OA
ATOM     12  H   UNL     1       3.201   0.504   3.225  0.00  0.00    +0.211 HD
ENDBRANCH   5  11
BRANCH   6  13
ATOM     13  O   UNL     1       4.916  -2.585  -0.237  0.00  0.00    -0.379 OA
ATOM     14  H   UNL     1       5.375  -2.980   0.521  0.00  0.00    +0.211 HD
ENDBRANCH   6  13
BRANCH   8  16
ATOM     15  O   UNL     1       1.354  -2.811  -2.296  0.00  0.00    -0.247 OA
ATOM     16  C   UNL     1       2.510  -2.551  -1.999  0.00  0.00    +0.344 C 
BRANCH  16  17
ATOM     17  O   UNL     1       3.592  -3.188  -2.510  0.00  0.00    -0.478 OA
ATOM     18  H   UNL     1       4.454  -2.939  -2.240  0.00  0.00    +0.295 HD
ENDBRANCH  16  17
ENDBRANCH   8  16
ENDBRANCH   2   7
ENDBRANCH   1   2
BRANCH   1  19
ATOM     19  C   UNL     1       0.859   3.111   0.248  0.00  0.00    -0.047 C 
BRANCH  19  20
ATOM     20  N   UNL     1       0.527   4.253  -0.593  0.00  0.00    +0.387 N 
ATOM     21  H   UNL     1      -0.487   4.322  -0.678  0.00  0.00    -0.084 HD
ATOM     22  H   UNL     1       0.953   4.117  -1.510  0.00  0.00    -0.084 HD
BRANCH  20  23
ATOM     23  C   UNL     1       1.043   5.489  -0.020  0.00  0.00    -0.062 C 
ATOM     24  C   UNL     1       1.177   6.540  -1.117  0.00  0.00    -0.023 C 
ATOM     25  C   UNL     1       0.124   5.977   1.097  0.00  0.00    -0.023 C 
ENDBRANCH  20  23
ENDBRANCH  19  20
ENDBRANCH   1  19
BRANCH   1  26
ATOM     26  C   UNL     1      -1.239   1.837  -0.459  0.00  0.00    +0.232 C 
BRANCH  26  27
ATOM     27  O   UNL     1      -1.671   0.594  -1.002  0.00  0.00    -0.473 OA
BRANCH  27  28
ATOM     28  C   UNL     1      -2.920   0.164  -0.638  0.00  0.00    +0.139 C 
ATOM     29  C   UNL     1      -3.106  -1.055   0.033  0.00  0.00    +0.034 C 
ATOM     30  C   UNL     1      -4.009   0.976  -0.956  0.00  0.00    +0.037 C 
ATOM     31  C   UNL     1      -4.415  -1.457   0.388  0.00  0.00    +0.003 C 
ATOM     32  C   UNL     1      -2.021  -1.885   0.361  0.00  0.00    +0.003 C 
ATOM     33  C   UNL     1      -5.297   0.581  -0.607  0.00  0.00    +0.003 C 
ATOM     34  C   UNL     1      -5.501  -0.627   0.061  0.00  0.00    +0.000 C 
ATOM     35  C   UNL     1      -4.602  -2.676   1.059  0.00  0.00    +0.000 C 
ATOM     36  C   UNL     1      -2.224  -3.093   1.028  0.00  0.00    +0.000 C 
ATOM     37  C   UNL     1      -3.512  -3.488   1.377  0.00  0.00    +0.000 C 
ENDBRANCH  27  28
ENDBRANCH  26  27
ENDBRANCH   1  26
TORSDOF 13
