REMARK  Name = 11957378
REMARK  10 active torsions:
REMARK  status: ('A' for Active; 'I' for Inactive)
REMARK    1  A    between atoms: N_3  and  C_39
REMARK    2  A    between atoms: C_5  and  C_10
REMARK    3  A    between atoms: C_11  and  N_16
REMARK    4  A    between atoms: N_20  and  C_22
REMARK    5  A    between atoms: C_23  and  P_28
REMARK    6  A    between atoms: P_28  and  O_30
REMARK    7  A    between atoms: P_28  and  C_32
REMARK    8  A    between atoms: C_32  and  P_33
REMARK    9  A    between atoms: P_33  and  O_35
REMARK   10  A    between atoms: P_33  and  O_37
REMARK                            x       y       z     vdW  Elec       q    Type
REMARK                         _______ _______ _______ _____ _____    ______ ____
ROOT
ATOM      1  N   UNL     1      -4.005   0.360  -0.274  0.00  0.00    -0.327 NA
ATOM      2  N   UNL     1      -1.621  -0.035   0.064  0.00  0.00    -0.327 NA
ATOM      3  N   UNL     1      -5.212  -1.728  -0.567  0.00  0.00    -0.261 N 
ATOM      4  N   UNL     1      -3.524  -3.174  -0.389  0.00  0.00    -0.240 NA
ATOM      5  C   UNL     1      -2.727   0.737  -0.061  0.00  0.00    +0.115 C 
ATOM      6  C   UNL     1      -4.091  -0.977  -0.358  0.00  0.00    +0.218 C 
ATOM      7  C   UNL     1      -1.782  -1.377  -0.032  0.00  0.00    +0.217 C 
ATOM      8  C   UNL     1      -3.055  -1.891  -0.251  0.00  0.00    +0.167 C 
ATOM      9  C   UNL     1      -4.821  -3.041  -0.577  0.00  0.00    +0.222 C 
ATOM     10  N   UNL     1      -0.673  -2.232   0.089  0.00  0.00    -0.286 N 
ATOM     11  H   UNL     1      -0.899  -3.186   0.004  0.00  0.00    +0.155 HD
ENDROOT
BRANCH   5  12
ATOM     12  C   UNL     1      -2.495   2.232   0.054  0.00  0.00    +0.109 C 
ATOM     13  C   UNL     1      -0.820   4.648   0.436  0.00  0.00    -0.066 C 
ATOM     14  C   UNL     1      -1.955   2.623   1.440  0.00  0.00    +0.015 C 
ATOM     15  C   UNL     1      -1.578   2.757  -1.064  0.00  0.00    +0.015 C 
ATOM     16  C   UNL     1      -1.738   4.133   1.550  0.00  0.00    -0.021 C 
ATOM     17  C   UNL     1      -1.361   4.267  -0.946  0.00  0.00    -0.021 C 
BRANCH  13  18
ATOM     18  N   UNL     1      -0.689   6.100   0.534  0.00  0.00    +0.382 N 
ATOM     19  H   UNL     1      -0.329   6.348   1.456  0.00  0.00    -0.089 HD
ATOM     20  H   UNL     1      -1.602   6.534   0.397  0.00  0.00    -0.089 HD
ATOM     21  H   UNL     1      -0.044   6.432  -0.183  0.00  0.00    -0.089 HD
ENDBRANCH  13  18
ENDBRANCH   5  12
BRANCH  10  22
ATOM     22  C   UNL     1       0.701  -1.994   0.310  0.00  0.00    +0.050 C 
ATOM     23  C   UNL     1       3.415  -1.526   0.745  0.00  0.00    +0.055 C 
ATOM     24  C   UNL     1       1.651  -2.876  -0.205  0.00  0.00    +0.015 C 
ATOM     25  C   UNL     1       1.106  -0.879   1.042  0.00  0.00    +0.015 C 
ATOM     26  C   UNL     1       3.009  -2.641   0.013  0.00  0.00    +0.006 C 
ATOM     27  C   UNL     1       2.464  -0.645   1.260  0.00  0.00    +0.006 C 
BRANCH  23  28
ATOM     28  P   UNL     1       5.134  -1.229   1.021  0.00  0.00    +0.253 P 
ATOM     29  O   UNL     1       6.099  -2.289   0.571  0.00  0.00    -0.285 OA
BRANCH  28  30
ATOM     30  O   UNL     1       5.280  -0.912   2.605  0.00  0.00    -0.340 OA
ATOM     31  H   UNL     1       5.068  -1.709   3.116  0.00  0.00    +0.218 HD
ENDBRANCH  28  30
BRANCH  28  32
ATOM     32  C   UNL     1       5.574   0.388   0.298  0.00  0.00    +0.206 C 
BRANCH  32  33
ATOM     33  P   UNL     1       5.322   0.791  -1.446  0.00  0.00    +0.347 P 
ATOM     34  O   UNL     1       3.901   0.666  -1.908  0.00  0.00    -0.258 OA
BRANCH  33  35
ATOM     35  O   UNL     1       5.966   2.266  -1.581  0.00  0.00    -0.323 OA
ATOM     36  H   UNL     1       5.879   2.575  -2.497  0.00  0.00    +0.220 HD
ENDBRANCH  33  35
BRANCH  33  37
ATOM     37  O   UNL     1       6.386  -0.159  -2.204  0.00  0.00    -0.323 OA
ATOM     38  H   UNL     1       6.326  -0.013  -3.161  0.00  0.00    +0.220 HD
ENDBRANCH  33  37
ENDBRANCH  32  33
ENDBRANCH  28  32
ENDBRANCH  23  28
ENDBRANCH  10  22
BRANCH   3  39
ATOM     39  C   UNL     1      -6.559  -1.242  -0.744  0.00  0.00    +0.095 C 
ATOM     40  C   UNL     1      -7.304  -1.121   0.574  0.00  0.00    +0.023 C 
ENDBRANCH   3  39
TORSDOF 10
