REMARK  Name = 11957542
REMARK  13 active torsions:
REMARK  status: ('A' for Active; 'I' for Inactive)
REMARK    1  A    between atoms: C_1  and  N_3
REMARK    2  A    between atoms: C_1  and  C_15
REMARK    3  A    between atoms: C_1  and  C_29
REMARK    4  A    between atoms: C_4  and  C_7
REMARK    5  A    between atoms: C_8  and  C_10
REMARK    6  A    between atoms: C_10  and  O_11
REMARK    7  A    between atoms: N_14  and  C_17
REMARK    8  A    between atoms: C_17  and  C_18
REMARK    9  A    between atoms: C_18  and  C_19
REMARK   10  A    between atoms: C_19  and  C_20
REMARK   11  A    between atoms: C_20  and  N_21
REMARK   12  A    between atoms: N_21  and  C_24
REMARK   13  A    between atoms: C_29  and  C_30
REMARK                            x       y       z     vdW  Elec       q    Type
REMARK                         _______ _______ _______ _____ _____    ______ ____
ROOT
ATOM      1  C   UNL     1      -1.381  -1.662   0.038  0.00  0.00    +0.149 C 
ENDROOT
BRANCH   1   3
ATOM      2  O   UNL     1      -0.203   0.519   1.559  0.00  0.00    -0.272 OA
ATOM      3  N   UNL     1      -1.843  -0.301   0.122  0.00  0.00    -0.296 N 
ATOM      4  C   UNL     1      -1.210   0.672   0.877  0.00  0.00    +0.253 C 
ATOM      5  H   UNL     1      -2.649  -0.049  -0.384  0.00  0.00    +0.150 HD
BRANCH   4   7
ATOM      6  O   UNL     1      -0.942   3.073   0.517  0.00  0.00    -0.333 OA
ATOM      7  C   UNL     1      -1.861   2.014   0.816  0.00  0.00    +0.229 C 
ATOM      8  C   UNL     1      -1.918   2.761  -0.485  0.00  0.00    +0.250 C 
BRANCH   8  10
ATOM      9  O   UNL     1      -2.596   4.995  -0.848  0.00  0.00    -0.247 OA
ATOM     10  C   UNL     1      -2.909   3.826  -0.676  0.00  0.00    +0.344 C 
BRANCH  10  11
ATOM     11  O   UNL     1      -4.181   3.360  -0.639  0.00  0.00    -0.478 OA
ATOM     12  H   UNL     1      -4.341   2.447  -0.503  0.00  0.00    +0.295 HD
ENDBRANCH  10  11
ENDBRANCH   8  10
ENDBRANCH   4   7
ENDBRANCH   1   3
BRANCH   1  15
ATOM     13  O   UNL     1      -0.415  -1.030  -2.095  0.00  0.00    -0.273 OA
ATOM     14  N   UNL     1       0.701  -2.582  -0.776  0.00  0.00    -0.303 N 
ATOM     15  C   UNL     1      -0.342  -1.716  -1.077  0.00  0.00    +0.240 C 
ATOM     16  H   UNL     1       0.661  -3.086   0.069  0.00  0.00    +0.149 HD
BRANCH  14  17
ATOM     17  C   UNL     1       1.841  -2.781  -1.641  0.00  0.00    +0.090 C 
BRANCH  17  18
ATOM     18  C   UNL     1       2.980  -1.814  -1.332  0.00  0.00    +0.023 C 
BRANCH  18  19
ATOM     19  C   UNL     1       3.514  -1.972   0.097  0.00  0.00    +0.028 C 
BRANCH  19  20
ATOM     20  C   UNL     1       4.645  -0.997   0.405  0.00  0.00    +0.129 C 
BRANCH  20  21
ATOM     21  N   UNL     1       4.167   0.380   0.267  0.00  0.00    -0.240 NA
BRANCH  21  24
ATOM     22  N   UNL     1       6.348   1.190   0.864  0.00  0.00    -0.370 N 
ATOM     23  N   UNL     1       4.656   2.642   0.391  0.00  0.00    -0.370 N 
ATOM     24  C   UNL     1       5.027   1.323   0.499  0.00  0.00    +0.189 C 
ATOM     25  H   UNL     1       6.741   0.295   0.976  0.00  0.00    +0.159 HD
ATOM     26  H   UNL     1       6.900   1.992   1.012  0.00  0.00    +0.159 HD
ATOM     27  H   UNL     1       3.734   2.875   0.136  0.00  0.00    +0.159 HD
ATOM     28  H   UNL     1       5.312   3.354   0.568  0.00  0.00    +0.159 HD
ENDBRANCH  21  24
ENDBRANCH  20  21
ENDBRANCH  19  20
ENDBRANCH  18  19
ENDBRANCH  17  18
ENDBRANCH  14  17
ENDBRANCH   1  15
BRANCH   1  29
ATOM     29  C   UNL     1      -2.522  -2.645  -0.253  0.00  0.00    +0.029 C 
BRANCH  29  30
ATOM     30  C   UNL     1      -3.660  -2.642   0.789  0.00  0.00    +0.002 C 
ATOM     31  C   UNL     1      -4.793  -3.599   0.417  0.00  0.00    +0.000 C 
ATOM     32  C   UNL     1      -3.101  -3.014   2.165  0.00  0.00    +0.000 C 
ENDBRANCH  29  30
ENDBRANCH   1  29
TORSDOF 13
