119579
  -OEChem-03292013323D

 28 27  0     1  0  0  0  0  0999 V2000
    0.1076   -0.4093    0.2612 O   0  0  0  0  0  0  0  0  0  0  0  0
    2.5586    0.4509    1.4163 O   0  0  0  0  0  0  0  0  0  0  0  0
    3.1289   -1.7951   -1.1012 O   0  0  0  0  0  0  0  0  0  0  0  0
   -2.9275   -2.2320   -0.3384 O   0  0  0  0  0  0  0  0  0  0  0  0
    1.1214    2.4931   -1.2272 O   0  0  0  0  0  0  0  0  0  0  0  0
    1.5543   -2.6607    0.2847 O   0  0  0  0  0  0  0  0  0  0  0  0
   -1.7875   -1.7751    1.5706 O   0  0  0  0  0  0  0  0  0  0  0  0
   -3.3252    1.8865   -0.6443 O   0  0  0  0  0  0  0  0  0  0  0  0
    1.2052    2.7909    1.0199 O   0  0  0  0  0  0  0  0  0  0  0  0
   -1.8119    1.4245    0.9908 O   0  0  0  0  0  0  0  0  0  0  0  0
    1.3243   -0.3586   -0.4740 C   0  0  1  0  0  0  0  0  0  0  0  0
   -0.9641   -0.8892   -0.5386 C   0  0  2  0  0  0  0  0  0  0  0  0
    2.1791    0.7772    0.0906 C   0  0  1  0  0  0  0  0  0  0  0  0
   -1.6631    0.3101   -1.1769 C   0  0  0  0  0  0  0  0  0  0  0  0
    1.9811   -1.7251   -0.3794 C   0  0  0  0  0  0  0  0  0  0  0  0
   -1.9131   -1.6579    0.3587 C   0  0  0  0  0  0  0  0  0  0  0  0
    1.4676    2.1198    0.0290 C   0  0  0  0  0  0  0  0  0  0  0  0
   -2.2358    1.2500   -0.1416 C   0  0  0  0  0  0  0  0  0  0  0  0
    1.1214   -0.1589   -1.5344 H   0  0  0  0  0  0  0  0  0  0  0  0
   -0.6092   -1.5936   -1.3020 H   0  0  0  0  0  0  0  0  0  0  0  0
    3.1092    0.8772   -0.4797 H   0  0  0  0  0  0  0  0  0  0  0  0
   -2.4798   -0.0468   -1.8154 H   0  0  0  0  0  0  0  0  0  0  0  0
   -0.9741    0.8897   -1.7980 H   0  0  0  0  0  0  0  0  0  0  0  0
    1.7460    0.3008    1.9294 H   0  0  0  0  0  0  0  0  0  0  0  0
    3.5548   -2.6757   -1.0264 H   0  0  0  0  0  0  0  0  0  0  0  0
   -3.5340   -2.7349    0.2461 H   0  0  0  0  0  0  0  0  0  0  0  0
    0.6486    3.3526   -1.2369 H   0  0  0  0  0  0  0  0  0  0  0  0
   -3.7233    2.5008    0.0089 H   0  0  0  0  0  0  0  0  0  0  0  0
  1 11  1  0  0  0  0
  1 12  1  0  0  0  0
  2 13  1  0  0  0  0
  2 24  1  0  0  0  0
  3 15  1  0  0  0  0
  3 25  1  0  0  0  0
  4 16  1  0  0  0  0
  4 26  1  0  0  0  0
  5 17  1  0  0  0  0
  5 27  1  0  0  0  0
  6 15  2  0  0  0  0
  7 16  2  0  0  0  0
  8 18  1  0  0  0  0
  8 28  1  0  0  0  0
  9 17  2  0  0  0  0
 10 18  2  0  0  0  0
 11 13  1  0  0  0  0
 11 15  1  0  0  0  0
 11 19  1  0  0  0  0
 12 14  1  0  0  0  0
 12 16  1  0  0  0  0
 12 20  1  0  0  0  0
 13 17  1  0  0  0  0
 13 21  1  0  0  0  0
 14 18  1  0  0  0  0
 14 22  1  0  0  0  0
 14 23  1  0  0  0  0
M  END
> <PUBCHEM_COMPOUND_CID>
119579

> <PUBCHEM_CONFORMER_RMSD>
0.8

> <PUBCHEM_CONFORMER_DIVERSEORDER>
2
183
122
197
143
118
75
92
94
163
56
212
43
105
145
148
51
82
65
180
174
35
206
160
222
46
195
134
213
32
194
130
95
55
67
133
37
19
167
221
77
161
217
10
98
149
53
176
153
139
146
199
3
104
224
24
182
201
22
132
185
100
137
166
191
154
169
209
18
123
73
124
20
41
193
215
220
1
172
14
49
42
177
225
112
181
223
164
186
83
171
68
128
36
179
204
86
214
187
216
99
61
85
63
103
81
155
156
147
165
141
125
175
192
131
9
114
211
129
40
59
184
207
90
29
102
117
173
84
189
70
17
80
208
219
27
34
196
151
38
198
109
200
113
162
144
108
39
44
210
11
78
96
97
205
64
107
138
74
170
135
62
15
76
152
168
7
110
203
13
79
30
121
178
87
23
150
57
119
140
115
127
142
158
33
157
111
5
71
202
58
50
89
12
26
93
126
88
54
48
136
91
8
31
45
66
218
16
21
4
28
120
25
116
101
106
69
72
188
159
60
6
52
190
47

> <PUBCHEM_MMFF94_PARTIAL_CHARGES>
23
1 -0.56
10 -0.57
11 0.34
12 0.34
13 0.34
14 0.06
15 0.66
16 0.66
17 0.66
18 0.66
2 -0.68
24 0.4
25 0.5
26 0.5
27 0.5
28 0.5
3 -0.65
4 -0.65
5 -0.65
6 -0.57
7 -0.57
8 -0.65
9 -0.57

> <PUBCHEM_EFFECTIVE_ROTOR_COUNT>
8

> <PUBCHEM_PHARMACOPHORE_FEATURES>
15
1 1 acceptor
1 10 acceptor
1 2 acceptor
1 2 donor
1 3 acceptor
1 4 acceptor
1 5 acceptor
1 6 acceptor
1 7 acceptor
1 8 acceptor
1 9 acceptor
3 3 6 15 anion
3 4 7 16 anion
3 5 9 17 anion
3 8 10 18 anion

> <PUBCHEM_HEAVY_ATOM_COUNT>
18

> <PUBCHEM_ATOM_DEF_STEREO_COUNT>
0

> <PUBCHEM_ATOM_UDEF_STEREO_COUNT>
3

> <PUBCHEM_BOND_DEF_STEREO_COUNT>
0

> <PUBCHEM_BOND_UDEF_STEREO_COUNT>
0

> <PUBCHEM_ISOTOPIC_ATOM_COUNT>
0

> <PUBCHEM_COMPONENT_COUNT>
1

> <PUBCHEM_CACTVS_TAUTO_COUNT>
1

> <PUBCHEM_CONFORMER_ID>
0001D31B00000002

> <PUBCHEM_MMFF94_ENERGY>
21.49

> <PUBCHEM_FEATURE_SELFOVERLAP>
76.397

> <PUBCHEM_SHAPE_FINGERPRINT>
11680986 33 18413386523089547573
13140716 1 18338796698286917242
14648413 74 18409730672718231596
16945 1 18198901611731365822
17990270 104 18409445925113578430
18186145 218 18267573608010162077
19973954 147 18411699915212748759
20511035 2 18273213075535539853
21130352 189 18196091040893507164
21501502 16 18335984254579177119
2334 1 18411421717554931022
23419403 2 16256362369788100705
23558518 356 18261386793461369985
2748010 2 18413390917094591438
3060560 45 17976519638785394949
3084891 72 17835237848570692167
3250762 1 18410293644331073231
44154327 71 17541946832828816789
5845 1 8110696605332076636
589210 1 18410576201591978783
7364860 26 18343023336720936038
74978 22 18339924809779858495
81228 2 18041281075551062075

> <PUBCHEM_SHAPE_MULTIPOLES>
311.74
4.45
3.25
1.17
0.99
0.36
-0.15
-0.48
0.26
-0.42
-0.1
-0.05
0.1
0.76

> <PUBCHEM_SHAPE_SELFOVERLAP>
626.953

> <PUBCHEM_SHAPE_VOLUME>
180.4

> <PUBCHEM_COORDINATE_TYPE>
2
5
10

$$$$
