REMARK  Name = 119593
REMARK  15 active torsions:
REMARK  status: ('A' for Active; 'I' for Inactive)
REMARK    1  A    between atoms: NZ_1  and  CE_12
REMARK    2  A    between atoms: N_2  and  C_25
REMARK    3  A    between atoms: CE_12  and  CD_13
REMARK    4  A    between atoms: CD_13  and  CG_14
REMARK    5  A    between atoms: CG_14  and  CB_15
REMARK    6  A    between atoms: CB_15  and  CA_16
REMARK    7  A    between atoms: CA_16  and  N_17
REMARK    8  A    between atoms: CA_16  and  C_22
REMARK    9  A    between atoms: C_22  and  O_23
REMARK   10  A    between atoms: C_25  and  C_26
REMARK   11  A    between atoms: C_26  and  C_27
REMARK   12  A    between atoms: C_27  and  CA_28
REMARK   13  A    between atoms: CA_28  and  N_29
REMARK   14  A    between atoms: CA_28  and  C_34
REMARK   15  A    between atoms: C_34  and  O_35
REMARK                            x       y       z     vdW  Elec       q    Type
REMARK                         _______ _______ _______ _____ _____    ______ ____
ROOT
ATOM      1  NZ  UNL     1      -3.452  -0.915  -0.102  0.00  0.00    -0.277 N 
ATOM      2  N   UNL     1       0.942  -1.942  -1.731  0.00  0.00    -0.259 N 
ATOM      3  N   UNL     1      -1.274  -1.137  -1.237  0.00  0.00    -0.310 NA
ATOM      4  N   UNL     1      -0.363  -2.798   0.049  0.00  0.00    -0.324 NA
ATOM      5  C   UNL     1      -2.175  -1.429  -0.339  0.00  0.00    +0.228 C 
ATOM      6  C   UNL     1      -1.611  -2.503   0.503  0.00  0.00    +0.189 C 
ATOM      7  C   UNL     1      -4.172  -1.490   0.955  0.00  0.00    +0.120 C 
ATOM      8  C   UNL     1      -0.194  -1.985  -0.968  0.00  0.00    +0.201 C 
ATOM      9  C   UNL     1      -2.350  -2.994   1.503  0.00  0.00    +0.034 C 
ATOM     10  C   UNL     1      -3.688  -2.471   1.739  0.00  0.00    -0.002 C 
ATOM     11  H   UNL     1       0.988  -1.302  -2.478  0.00  0.00    +0.160 HD
ENDROOT
BRANCH   1  12
ATOM     12  CE  UNL     1      -4.015   0.106  -0.952  0.00  0.00    +0.094 C 
BRANCH  12  13
ATOM     13  CD  UNL     1      -3.739   1.502  -0.397  0.00  0.00    +0.021 C 
BRANCH  13  14
ATOM     14  CG  UNL     1      -2.253   1.844  -0.227  0.00  0.00    +0.000 C 
BRANCH  14  15
ATOM     15  CB  UNL     1      -1.993   3.194   0.450  0.00  0.00    -0.011 C 
BRANCH  15  16
ATOM     16  CA  UNL     1      -0.499   3.481   0.645  0.00  0.00    +0.036 C 
BRANCH  16  17
ATOM     17  N   UNL     1      -0.337   4.780   1.303  0.00  0.00    +0.389 N 
ATOM     18  H1  UNL     1      -0.816   4.767   2.203  0.00  0.00    -0.088 HD
ATOM     19  H2  UNL     1      -0.737   5.511   0.715  0.00  0.00    -0.088 HD
ATOM     20  H3  UNL     1       0.656   4.966   1.448  0.00  0.00    -0.088 HD
ENDBRANCH  16  17
BRANCH  16  22
ATOM     21  OXT UNL     1       0.329   4.559  -1.377  0.00  0.00    -0.253 OA
ATOM     22  C   UNL     1       0.231   3.554  -0.685  0.00  0.00    +0.293 C 
BRANCH  22  23
ATOM     23  O   UNL     1       0.755   2.356  -1.052  0.00  0.00    -0.482 OA
ATOM     24  H   UNL     1       0.658   1.611  -0.492  0.00  0.00    +0.295 HD
ENDBRANCH  22  23
ENDBRANCH  16  22
ENDBRANCH  15  16
ENDBRANCH  14  15
ENDBRANCH  13  14
ENDBRANCH  12  13
ENDBRANCH   1  12
BRANCH   2  25
ATOM     25  C   UNL     1       2.064  -2.794  -1.482  0.00  0.00    +0.099 C 
BRANCH  25  26
ATOM     26  C   UNL     1       3.039  -2.142  -0.503  0.00  0.00    +0.020 C 
BRANCH  26  27
ATOM     27  C   UNL     1       3.589  -0.805  -1.027  0.00  0.00    -0.009 C 
BRANCH  27  28
ATOM     28  CA  UNL     1       4.532  -0.079  -0.055  0.00  0.00    +0.036 C 
BRANCH  28  29
ATOM     29  N   UNL     1       5.748  -0.853   0.192  0.00  0.00    +0.389 N 
ATOM     30  H1  UNL     1       6.211  -1.051  -0.695  0.00  0.00    -0.088 HD
ATOM     31  H2  UNL     1       5.505  -1.731   0.652  0.00  0.00    -0.088 HD
ATOM     32  H3  UNL     1       6.376  -0.318   0.792  0.00  0.00    -0.088 HD
ENDBRANCH  28  29
BRANCH  28  34
ATOM     33  OXT UNL     1       4.248  -0.225   2.366  0.00  0.00    -0.253 OA
ATOM     34  C   UNL     1       3.867   0.198   1.282  0.00  0.00    +0.293 C 
BRANCH  34  35
ATOM     35  O   UNL     1       2.772   0.991   1.149  0.00  0.00    -0.482 OA
ATOM     36  H   UNL     1       2.513   1.295   0.301  0.00  0.00    +0.295 HD
ENDBRANCH  34  35
ENDBRANCH  28  34
ENDBRANCH  27  28
ENDBRANCH  26  27
ENDBRANCH  25  26
ENDBRANCH   2  25
TORSDOF 15
