REMARK  Name = 11957642
REMARK  9 active torsions:
REMARK  status: ('A' for Active; 'I' for Inactive)
REMARK    1  A    between atoms: N_1  and  C1*_12
REMARK    2  A    between atoms: C_8  and  S_22
REMARK    3  A    between atoms: C2*_11  and  O2*_15
REMARK    4  A    between atoms: C3*_13  and  O3*_17
REMARK    5  A    between atoms: C4*_14  and  C5*_19
REMARK    6  A    between atoms: C5*_19  and  O5*_20
REMARK    7  A    between atoms: S_22  and  C_23
REMARK    8  A    between atoms: C_23  and  C_24
REMARK    9  A    between atoms: C_29  and  N_32
REMARK                            x       y       z     vdW  Elec       q    Type
REMARK                         _______ _______ _______ _____ _____    ______ ____
ROOT
ATOM      1  N   UNL     1      -3.123   0.130   0.210  0.00  0.00    -0.247 N 
ATOM      2  N   UNL     1      -1.306  -1.136  -0.048  0.00  0.00    -0.243 NA
ATOM      3  N   UNL     1      -2.075   2.293   0.564  0.00  0.00    -0.228 NA
ATOM      4  N   UNL     1       0.358   2.124   0.482  0.00  0.00    -0.236 NA
ATOM      5  C   UNL     1      -2.054   0.972   0.334  0.00  0.00    +0.151 C 
ATOM      6  C   UNL     1      -2.623  -1.124  -0.017  0.00  0.00    +0.223 C 
ATOM      7  C   UNL     1      -0.938   0.168   0.170  0.00  0.00    +0.132 C 
ATOM      8  C   UNL     1       0.304   0.790   0.251  0.00  0.00    +0.124 C 
ATOM      9  C   UNL     1      -0.818   2.783   0.622  0.00  0.00    +0.252 C 
ENDROOT
BRANCH   1  12
ATOM     10  O4* UNL     1      -5.273  -0.598   0.895  0.00  0.00    -0.333 OA
ATOM     11  C2* UNL     1      -5.179   0.802  -1.054  0.00  0.00    +0.187 C 
ATOM     12  C1* UNL     1      -4.539   0.489   0.302  0.00  0.00    +0.225 C 
ATOM     13  C3* UNL     1      -6.133  -0.354  -1.289  0.00  0.00    +0.171 C 
ATOM     14  C4* UNL     1      -6.472  -0.799   0.129  0.00  0.00    +0.175 C 
BRANCH  11  15
ATOM     15  O2* UNL     1      -5.907   2.025  -0.963  0.00  0.00    -0.378 OA
ATOM     16  H2* UNL     1      -5.291   2.758  -0.813  0.00  0.00    +0.211 HD
ENDBRANCH  11  15
BRANCH  13  17
ATOM     17  O3* UNL     1      -5.459  -1.391  -1.991  0.00  0.00    -0.379 OA
ATOM     18  H3* UNL     1      -5.251  -1.091  -2.889  0.00  0.00    +0.211 HD
ENDBRANCH  13  17
BRANCH  14  19
ATOM     19  C5* UNL     1      -6.921  -2.242   0.270  0.00  0.00    +0.169 C 
BRANCH  19  20
ATOM     20  O5* UNL     1      -7.188  -2.507   1.638  0.00  0.00    -0.379 OA
ATOM     21  H5* UNL     1      -7.476  -3.428   1.738  0.00  0.00    +0.211 HD
ENDBRANCH  19  20
ENDBRANCH  14  19
ENDBRANCH   1  12
BRANCH   8  22
ATOM     22  S   UNL     1       1.785  -0.141   0.058  0.00  0.00    -0.089 S 
BRANCH  22  23
ATOM     23  C   UNL     1       3.074   1.129   0.250  0.00  0.00    +0.090 C 
BRANCH  23  24
ATOM     24  C   UNL     1       4.458   0.556   0.121  0.00  0.00    -0.011 C 
ATOM     25  C   UNL     1       5.063   0.501  -1.128  0.00  0.00    -0.002 C 
ATOM     26  C   UNL     1       5.115   0.089   1.252  0.00  0.00    -0.002 C 
ATOM     27  C   UNL     1       6.347  -0.030  -1.248  0.00  0.00    +0.024 C 
ATOM     28  C   UNL     1       6.399  -0.441   1.132  0.00  0.00    +0.024 C 
ATOM     29  C   UNL     1       7.015  -0.501  -0.118  0.00  0.00    +0.143 C 
BRANCH  29  32
ATOM     30  O   UNL     1       8.859  -1.086  -1.374  0.00  0.00    -0.126 OA
ATOM     31  O   UNL     1       8.907  -1.460   0.789  0.00  0.00    -0.126 OA
ATOM     32  N   UNL     1       8.322  -1.041  -0.240  0.00  0.00    +0.058 N 
ENDBRANCH  29  32
ENDBRANCH  23  24
ENDBRANCH  22  23
ENDBRANCH   8  22
TORSDOF 9
