11957463
  -OEChem-03292013303D

 50 53  0     1  0  0  0  0  0999 V2000
    3.8930    0.1827    1.2057 O   0  0  0  0  0  0  0  0  0  0  0  0
    4.5888   -2.5534   -0.3207 O   0  0  0  0  0  0  0  0  0  0  0  0
    3.8525    0.6501   -1.7634 O   0  0  0  0  0  0  0  0  0  0  0  0
    4.6697    2.6454    0.8920 O   0  0  0  0  0  0  0  0  0  0  0  0
    1.7287   -0.6217    0.6387 N   0  0  0  0  0  0  0  0  0  0  0  0
   -0.1313    0.6091    0.6884 N   0  0  0  0  0  0  0  0  0  0  0  0
    6.4809    2.0696   -0.4523 N   0  0  0  0  0  0  0  0  0  0  0  0
    0.7869   -2.7710    0.0101 N   0  0  0  0  0  0  0  0  0  0  0  0
   -2.8489   -0.5956    0.0493 N   0  0  0  0  0  0  0  0  0  0  0  0
   -1.6333   -2.6319   -0.2711 N   0  0  0  0  0  0  0  0  0  0  0  0
   -8.2638    2.6969   -0.0280 N   0  0  0  0  0  0  0  0  0  0  0  0
    3.7722   -1.4143   -0.5805 C   0  0  1  0  0  0  0  0  0  0  0  0
    3.1501   -0.9604    0.7427 C   0  0  1  0  0  0  0  0  0  0  0  0
    4.6447   -0.2445   -0.9916 C   0  0  2  0  0  0  0  0  0  0  0  0
    5.0265    0.3531    0.3532 C   0  0  1  0  0  0  0  0  0  0  0  0
    5.3572    1.8084    0.3129 C   0  0  0  0  0  0  0  0  0  0  0  0
    0.7057   -1.4654    0.3072 C   0  0  0  0  0  0  0  0  0  0  0  0
    1.1743    0.6125    0.8588 C   0  0  0  0  0  0  0  0  0  0  0  0
   -0.4376   -0.6833    0.3433 C   0  0  0  0  0  0  0  0  0  0  0  0
   -1.6403   -1.3130    0.0386 C   0  0  0  0  0  0  0  0  0  0  0  0
    6.9975    3.4016   -0.6692 C   0  0  0  0  0  0  0  0  0  0  0  0
   -0.4378   -3.2696   -0.2662 C   0  0  0  0  0  0  0  0  0  0  0  0
   -4.1150   -1.1929   -0.2560 C   0  0  0  0  0  0  0  0  0  0  0  0
   -5.2110   -0.1653   -0.1957 C   0  0  0  0  0  0  0  0  0  0  0  0
   -5.5439    0.5490   -1.3392 C   0  0  0  0  0  0  0  0  0  0  0  0
   -5.8767    0.0573    1.0027 C   0  0  0  0  0  0  0  0  0  0  0  0
   -6.5605    1.5025   -1.2833 C   0  0  0  0  0  0  0  0  0  0  0  0
   -6.8933    1.0107    1.0584 C   0  0  0  0  0  0  0  0  0  0  0  0
   -7.2352    1.7334   -0.0845 C   0  0  0  0  0  0  0  0  0  0  0  0
    3.0415   -1.6956   -1.3443 H   0  0  0  0  0  0  0  0  0  0  0  0
    3.2120   -1.7323    1.5196 H   0  0  0  0  0  0  0  0  0  0  0  0
    5.5195   -0.5324   -1.5821 H   0  0  0  0  0  0  0  0  0  0  0  0
    5.8621   -0.1928    0.8078 H   0  0  0  0  0  0  0  0  0  0  0  0
    5.2297   -2.3268    0.3739 H   0  0  0  0  0  0  0  0  0  0  0  0
    3.1256    0.9785   -1.2086 H   0  0  0  0  0  0  0  0  0  0  0  0
    1.7563    1.4804    1.1373 H   0  0  0  0  0  0  0  0  0  0  0  0
    6.9909    1.2961   -0.8685 H   0  0  0  0  0  0  0  0  0  0  0  0
    7.2017    3.5198   -1.7360 H   0  0  0  0  0  0  0  0  0  0  0  0
    6.2849    4.1613   -0.3397 H   0  0  0  0  0  0  0  0  0  0  0  0
    7.9299    3.5009   -0.1080 H   0  0  0  0  0  0  0  0  0  0  0  0
   -2.7979    0.3885    0.2911 H   0  0  0  0  0  0  0  0  0  0  0  0
   -0.4698   -4.3240   -0.5189 H   0  0  0  0  0  0  0  0  0  0  0  0
   -4.3355   -2.0059    0.4476 H   0  0  0  0  0  0  0  0  0  0  0  0
   -4.0960   -1.6466   -1.2553 H   0  0  0  0  0  0  0  0  0  0  0  0
   -5.0235    0.3784   -2.2775 H   0  0  0  0  0  0  0  0  0  0  0  0
   -5.6169   -0.4987    1.8992 H   0  0  0  0  0  0  0  0  0  0  0  0
   -6.8175    2.0594   -2.1808 H   0  0  0  0  0  0  0  0  0  0  0  0
   -7.4113    1.1817    1.9987 H   0  0  0  0  0  0  0  0  0  0  0  0
   -8.5112    3.2222   -0.8560 H   0  0  0  0  0  0  0  0  0  0  0  0
   -8.7522    2.8656    0.8414 H   0  0  0  0  0  0  0  0  0  0  0  0
  1 13  1  0  0  0  0
  1 15  1  0  0  0  0
  2 12  1  0  0  0  0
  2 34  1  0  0  0  0
  3 14  1  0  0  0  0
  3 35  1  0  0  0  0
  4 16  2  0  0  0  0
  5 13  1  0  0  0  0
  5 17  1  0  0  0  0
  5 18  1  0  0  0  0
  6 18  2  0  0  0  0
  6 19  1  0  0  0  0
  7 16  1  0  0  0  0
  7 21  1  0  0  0  0
  7 37  1  0  0  0  0
  8 17  2  0  0  0  0
  8 22  1  0  0  0  0
  9 20  1  0  0  0  0
  9 23  1  0  0  0  0
  9 41  1  0  0  0  0
 10 20  1  0  0  0  0
 10 22  2  0  0  0  0
 11 29  1  0  0  0  0
 11 49  1  0  0  0  0
 11 50  1  0  0  0  0
 12 13  1  0  0  0  0
 12 14  1  0  0  0  0
 12 30  1  0  0  0  0
 13 31  1  0  0  0  0
 14 15  1  0  0  0  0
 14 32  1  0  0  0  0
 15 16  1  0  0  0  0
 15 33  1  0  0  0  0
 17 19  1  0  0  0  0
 18 36  1  0  0  0  0
 19 20  2  0  0  0  0
 21 38  1  0  0  0  0
 21 39  1  0  0  0  0
 21 40  1  0  0  0  0
 22 42  1  0  0  0  0
 23 24  1  0  0  0  0
 23 43  1  0  0  0  0
 23 44  1  0  0  0  0
 24 25  2  0  0  0  0
 24 26  1  0  0  0  0
 25 27  1  0  0  0  0
 25 45  1  0  0  0  0
 26 28  2  0  0  0  0
 26 46  1  0  0  0  0
 27 29  2  0  0  0  0
 27 47  1  0  0  0  0
 28 29  1  0  0  0  0
 28 48  1  0  0  0  0
M  END
> <PUBCHEM_COMPOUND_CID>
11957463

> <PUBCHEM_CONFORMER_RMSD>
0.8

> <PUBCHEM_CONFORMER_DIVERSEORDER>
1
71
19
130
28
318
258
181
311
363
350
120
127
60
293
321
131
262
324
184
335
219
94
43
88
113
153
275
214
242
287
65
213
170
114
239
333
174
300
266
340
297
336
327
248
67
243
260
84
304
277
347
195
147
249
162
128
278
341
198
309
172
161
223
163
197
175
346
30
173
7
255
251
141
315
166
63
3
294
296
14
310
259
23
220
178
169
126
334
121
194
156
21
138
364
349
191
203
228
235
247
52
199
35
207
356
75
105
112
353
337
41
101
272
208
38
86
118
348
93
305
265
151
292
329
95
99
366
253
13
361
103
108
319
140
326
252
89
53
186
189
250
229
97
61
205
142
233
29
325
264
357
238
284
134
222
354
338
230
109
200
58
246
119
231
37
355
164
10
274
273
269
313
317
116
244
117
285
234
26
328
102
193
216
185
280
299
286
68
190
124
343
152
345
330
76
159
209
301
188
212
39
227
46
42
295
111
232
179
204
352
44
80
365
176
202
322
215
192
92
201
254
196
5
74
146
332
33
16
36
132
167
87
154
77
145
55
282
69
217
98
323
302
245
50
226
291
237
27
47
339
221
8
125
303
143
24
40
306
70
133
236
314
158
149
135
358
62
281
12
344
267
57
15
187
32
257
211
171
90
54
137
96
359
270
218
155
2
59
51
210
206
66
22
289
48
308
56
17
91
11
168
182
144
240
110
31
123
160
106
129
241
157
263
4
261
180
85
256
360
82
100
25
83
73
276
183
18
64
279
298
45
316
139
150
115
177
107
290
312
271
362
268
72
34
104
320
283
307
20
148
288
224
342
165
79
122
49
9
331
81
351
78
225
136
6

> <PUBCHEM_MMFF94_PARTIAL_CHARGES>
41
1 -0.56
10 -0.62
11 -0.9
12 0.28
13 0.54
14 0.28
15 0.34
16 0.57
17 0.11
18 0.04
19 0.23
2 -0.68
20 0.41
21 0.3
22 0.47
23 0.51
24 -0.14
25 -0.15
26 -0.15
27 -0.15
28 -0.15
29 0.1
3 -0.68
34 0.4
35 0.4
36 0.15
37 0.37
4 -0.57
41 0.4
42 0.15
45 0.15
46 0.15
47 0.15
48 0.15
49 0.4
5 0.05
50 0.4
6 -0.57
7 -0.73
8 -0.57
9 -0.87

> <PUBCHEM_EFFECTIVE_ROTOR_COUNT>
7

> <PUBCHEM_PHARMACOPHORE_FEATURES>
18
1 1 acceptor
1 11 cation
1 11 donor
1 2 acceptor
1 2 donor
1 3 acceptor
1 3 donor
1 4 acceptor
1 7 donor
1 9 cation
1 9 donor
3 5 6 18 cation
3 5 8 17 cation
3 8 10 22 cation
5 1 12 13 14 15 rings
5 5 6 17 18 19 rings
6 24 25 26 27 28 29 rings
6 8 10 17 19 20 22 rings

> <PUBCHEM_HEAVY_ATOM_COUNT>
29

> <PUBCHEM_ATOM_DEF_STEREO_COUNT>
3

> <PUBCHEM_ATOM_UDEF_STEREO_COUNT>
1

> <PUBCHEM_BOND_DEF_STEREO_COUNT>
0

> <PUBCHEM_BOND_UDEF_STEREO_COUNT>
0

> <PUBCHEM_ISOTOPIC_ATOM_COUNT>
0

> <PUBCHEM_COMPONENT_COUNT>
1

> <PUBCHEM_CACTVS_TAUTO_COUNT>
6

> <PUBCHEM_CONFORMER_ID>
00B674D700000001

> <PUBCHEM_MMFF94_ENERGY>
78.2931

> <PUBCHEM_FEATURE_SELFOVERLAP>
91.968

> <PUBCHEM_SHAPE_FINGERPRINT>
10 15 18040435503901442849
10066227 112 18413106165268901905
10280341 67 18054782052197539456
10411042 1 17691969259148769238
10554248 39 18340754954044380831
10675989 125 18413103940491498178
10906281 52 18131081436822995523
11135609 187 18342458174933249544
11578821 258 17832703844876618036
117089 54 8933630399911451176
11796584 16 13758060901367888343
12788726 201 17417823833090292642
13668630 136 11959731564588388901
13944108 23 18126847101744018921
14117953 113 18131072607056024510
14211702 104 8790619133808423105
14251757 52 18334857208101105121
14790565 3 18342461396258863755
14931854 50 17918002697905152240
15183329 4 16271925991813761405
15840311 113 18261396611783034949
16994733 274 18115303513921634088
18222031 100 13183024037991957826
2026 5 10087638192194795653
20281389 69 18334011667006542075
20715895 44 18411135861938035494
21033648 29 17894354388497377835
21033650 10 15051745162324499995
21298829 104 18335985362844939236
21424621 283 18333731346669256539
21521721 280 18409731742434107217
23559900 14 17844808290448359464
23569914 152 17629501708938802902
24771293 8 18041841834723373836
25269216 80 17203038708276889343
2748736 6 18410847768305997365
3383291 50 10303808783458404309
3472631 163 18338800130155164694
3633792 109 18272375235449837202
4073 2 18334014991570497939
4169191 19 18410292515187639229
4340502 62 16298384651997990202
465052 167 8646775504014458482
50009960 94 10734787603140583076
5718773 13 9655586201000939996
59682541 52 16272208574290719349
6328613 192 18342740715399693393
6898599 12 18129658750281039527

> <PUBCHEM_SHAPE_MULTIPOLES>
538.46
21.67
3.34
1.12
20.46
0.08
0.16
22.62
2.42
-3
0.44
0.17
0.31
0.06

> <PUBCHEM_SHAPE_SELFOVERLAP>
1173.517

> <PUBCHEM_SHAPE_VOLUME>
288.3

> <PUBCHEM_COORDINATE_TYPE>
2
5
10

$$$$
