REMARK  Name = 11965767
REMARK  8 active torsions:
REMARK  status: ('A' for Active; 'I' for Inactive)
REMARK    1  A    between atoms: N_2  and  CA_24
REMARK    2  A    between atoms: C_10  and  S_15
REMARK    3  A    between atoms: S_15  and  C_16
REMARK    4  A    between atoms: C_16  and  C_18
REMARK    5  A    between atoms: CA_24  and  CB_25
REMARK    6  A    between atoms: CA_24  and  C_29
REMARK    7  A    between atoms: CB_25  and  CG_26
REMARK    8  A    between atoms: C_29  and  O_30
REMARK                            x       y       z     vdW  Elec       q    Type
REMARK                         _______ _______ _______ _____ _____    ______ ____
ROOT
ATOM      1  S   UNK A   0      -4.500  -1.126   0.309  0.00  0.00    -0.042 S 
ATOM      2  N   LEU A   1      -2.527   1.378  -0.302  0.00  0.00    -0.309 N 
ATOM      3  N   UNK A   0      -0.727  -0.142  -0.665  0.00  0.00    -0.322 NA
ATOM      4  N   UNK A   0      -0.998  -2.544  -0.473  0.00  0.00    -0.272 NA
ATOM      5  N   UNK A   0      -3.188  -3.342   0.104  0.00  0.00    -0.320 NA
ATOM      6  N   UNK A   0      -5.469  -3.574   0.674  0.00  0.00    -0.327 N 
ATOM      7  C   UNK A   0      -2.033   0.088  -0.358  0.00  0.00    +0.197 C 
ATOM      8  C   UNK A   0      -2.838  -1.028  -0.102  0.00  0.00    +0.231 C 
ATOM      9  C   UNK A   0      -2.301  -2.316  -0.166  0.00  0.00    +0.146 C 
ATOM     10  C   UNK A   0      -0.298  -1.419  -0.703  0.00  0.00    +0.180 C 
ATOM     11  C   UNK A   0      -4.370  -2.834   0.367  0.00  0.00    +0.218 C 
ATOM     12  H   LEU A   1      -3.477   1.504  -0.076  0.00  0.00    +0.149 HD
ATOM     13  H   UNK A   0      -6.327  -3.128   0.861  0.00  0.00    +0.145 HD
ATOM     14  H   UNK A   0      -5.407  -4.556   0.711  0.00  0.00    +0.145 HD
ENDROOT
BRANCH  10  15
ATOM     15  S   UNK A   0       1.425  -1.645  -1.110  0.00  0.00    -0.014 S 
BRANCH  15  16
ATOM     16  C   UNK A   0       2.241  -0.732   0.229  0.00  0.00    +0.086 C 
ATOM     17  C   UNK A   0       1.734  -1.248   1.576  0.00  0.00    +0.018 C 
BRANCH  16  18
ATOM     18  C   UNK A   0       3.747  -0.787   0.087  0.00  0.00    -0.011 C 
ATOM     19  C   UNK A   0       4.385   0.148  -0.709  0.00  0.00    -0.003 C 
ATOM     20  C   UNK A   0       4.452  -1.771   0.758  0.00  0.00    -0.003 C 
ATOM     21  C   UNK A   0       5.773   0.097  -0.839  0.00  0.00    -0.000 C 
ATOM     22  C   UNK A   0       5.840  -1.822   0.627  0.00  0.00    -0.000 C 
ATOM     23  C   UNK A   0       6.500  -0.888  -0.171  0.00  0.00    -0.000 C 
ENDBRANCH  16  18
ENDBRANCH  15  16
ENDBRANCH  10  15
BRANCH   2  24
ATOM     24  CA  LEU A   1      -1.722   2.555  -0.561  0.00  0.00    +0.100 C 
BRANCH  24  25
ATOM     25  CB  LEU A   1      -0.901   2.909   0.691  0.00  0.00    +0.022 C 
BRANCH  25  26
ATOM     26  CG  LEU A   1       0.071   4.097   0.518  0.00  0.00    +0.002 C 
ATOM     27  CD1 LEU A   1       1.042   3.805  -0.630  0.00  0.00    +0.000 C 
ATOM     28  CD2 LEU A   1       0.860   4.399   1.793  0.00  0.00    +0.000 C 
ENDBRANCH  25  26
ENDBRANCH  24  25
BRANCH  24  29
ATOM     29  C   LEU A   1      -2.642   3.703  -0.990  0.00  0.00    +0.157 C 
BRANCH  29  30
ATOM     30  O   LEU A   1      -3.556   4.037   0.046  0.00  0.00    -0.380 OA
ATOM     31  H   LEU A   1      -4.126   4.765  -0.248  0.00  0.00    +0.211 HD
ENDBRANCH  29  30
ENDBRANCH  24  29
ENDBRANCH   2  24
TORSDOF 8
