REMARK  Name = 11968841
REMARK  8 active torsions:
REMARK  status: ('A' for Active; 'I' for Inactive)
REMARK    1  A    between atoms: C_2  and  O_13
REMARK    2  A    between atoms: C_3  and  O_7
REMARK    3  A    between atoms: C_4  and  O_9
REMARK    4  A    between atoms: C_5  and  O_11
REMARK    5  A    between atoms: C_6  and  C_25
REMARK    6  A    between atoms: O_13  and  C_15
REMARK    7  A    between atoms: C_18  and  C_24
REMARK    8  A    between atoms: C_25  and  O_26
REMARK                            x       y       z     vdW  Elec       q    Type
REMARK                         _______ _______ _______ _____ _____    ______ ____
ROOT
ATOM      1  O   UNL     1       2.010  -0.983   0.354  0.00  0.00    -0.326 OA
ATOM      2  C   UNL     1       1.420   0.314   0.291  0.00  0.00    +0.266 C 
ATOM      3  C   UNL     1       2.429   1.382   0.713  0.00  0.00    +0.196 C 
ATOM      4  C   UNL     1       3.719   1.280  -0.100  0.00  0.00    +0.172 C 
ATOM      5  C   UNL     1       4.235  -0.159  -0.142  0.00  0.00    +0.169 C 
ATOM      6  C   UNL     1       3.116  -1.125  -0.538  0.00  0.00    +0.176 C 
ENDROOT
BRANCH   3   7
ATOM      7  O   UNL     1       1.836   2.664   0.502  0.00  0.00    -0.378 OA
ATOM      8  H   UNL     1       1.017   2.730   1.018  0.00  0.00    +0.211 HD
ENDBRANCH   3   7
BRANCH   4   9
ATOM      9  O   UNL     1       4.727   2.093   0.503  0.00  0.00    -0.379 OA
ATOM     10  H   UNL     1       4.421   3.013   0.540  0.00  0.00    +0.211 HD
ENDBRANCH   4   9
BRANCH   5  11
ATOM     11  O   UNL     1       5.296  -0.252  -1.088  0.00  0.00    -0.379 OA
ATOM     12  H   UNL     1       6.006   0.359  -0.839  0.00  0.00    +0.211 HD
ENDBRANCH   5  11
BRANCH   2  13
ATOM     13  O   UNL     1       0.309   0.381   1.185  0.00  0.00    -0.331 OA
BRANCH  13  15
ATOM     14  C   UNL     1      -2.910   0.816  -0.780  0.00  0.00    +0.024 C 
ATOM     15  C   UNL     1      -0.898  -0.025   0.546  0.00  0.00    +0.122 C 
ATOM     16  C   UNL     1      -1.574   1.184  -0.085  0.00  0.00    +0.034 C 
ATOM     17  C   UNL     1      -1.812  -0.653   1.592  0.00  0.00    +0.051 C 
ATOM     18  C   UNL     1      -3.745  -0.136   0.087  0.00  0.00    +0.012 C 
ATOM     19  C   UNL     1      -3.260  -0.796   1.164  0.00  0.00    -0.042 C 
ATOM     20  C   UNL     1      -2.612   0.140  -2.135  0.00  0.00    +0.005 C 
ATOM     21  C   UNL     1      -3.647   2.149  -1.044  0.00  0.00    +0.005 C 
ATOM     22  C   UNL     1      -4.023  -1.741   2.060  0.00  0.00    +0.026 C 
BRANCH  18  24
ATOM     23  O   UNL     1      -5.523  -0.225  -1.465  0.00  0.00    -0.284 OA
ATOM     24  C   UNL     1      -5.157  -0.316  -0.307  0.00  0.00    +0.229 C 
ENDBRANCH  18  24
ENDBRANCH  13  15
ENDBRANCH   2  13
BRANCH   6  25
ATOM     25  C   UNL     1       3.576  -2.578  -0.473  0.00  0.00    +0.169 C 
BRANCH  25  26
ATOM     26  O   UNL     1       2.491  -3.411  -0.840  0.00  0.00    -0.379 OA
ATOM     27  H   UNL     1       2.770  -4.340  -0.803  0.00  0.00    +0.211 HD
ENDBRANCH  25  26
ENDBRANCH   6  25
TORSDOF 8
