REMARK  Name = 11962143
REMARK  9 active torsions:
REMARK  status: ('A' for Active; 'I' for Inactive)
REMARK    1  A    between atoms: C_2  and  O_7
REMARK    2  A    between atoms: C_3  and  O_9
REMARK    3  A    between atoms: C_4  and  O_11
REMARK    4  A    between atoms: C_5  and  C_24
REMARK    5  A    between atoms: C_6  and  O_13
REMARK    6  A    between atoms: O_13  and  C_14
REMARK    7  A    between atoms: C_17  and  O_20
REMARK    8  A    between atoms: C_19  and  O_22
REMARK    9  A    between atoms: C_24  and  O_25
REMARK                            x       y       z     vdW  Elec       q    Type
REMARK                         _______ _______ _______ _____ _____    ______ ____
ROOT
ATOM      1  O   UNL     1       1.533   0.783  -0.488  0.00  0.00    -0.316 OA
ATOM      2  C   UNL     1       3.187  -1.307   0.584  0.00  0.00    +0.173 C 
ATOM      3  C   UNL     1       3.757   0.034   0.120  0.00  0.00    +0.169 C 
ATOM      4  C   UNL     1       1.836  -1.591  -0.074  0.00  0.00    +0.210 C 
ATOM      5  C   UNL     1       2.708   1.141   0.243  0.00  0.00    +0.177 C 
ATOM      6  C   UNL     1       0.902  -0.385   0.031  0.00  0.00    +0.318 C 
ENDROOT
BRANCH   2   7
ATOM      7  O   UNL     1       4.116  -2.331   0.223  0.00  0.00    -0.379 OA
ATOM      8  H   UNL     1       4.973  -2.151   0.640  0.00  0.00    +0.211 HD
ENDBRANCH   2   7
BRANCH   3   9
ATOM      9  O   UNL     1       4.888   0.366   0.921  0.00  0.00    -0.379 OA
ATOM     10  H   UNL     1       5.555  -0.335   0.845  0.00  0.00    +0.211 HD
ENDBRANCH   3   9
BRANCH   4  11
ATOM     11  O   UNL     1       1.214  -2.697   0.580  0.00  0.00    -0.377 OA
ATOM     12  H   UNL     1       1.793  -3.473   0.523  0.00  0.00    +0.211 HD
ENDBRANCH   4  11
BRANCH   6  13
ATOM     13  O   UNL     1      -0.274  -0.673  -0.724  0.00  0.00    -0.450 OA
BRANCH  13  14
ATOM     14  C   UNL     1      -1.435  -0.089  -0.296  0.00  0.00    +0.145 C 
ATOM     15  C   UNL     1      -2.651  -0.731  -0.509  0.00  0.00    +0.077 C 
ATOM     16  C   UNL     1      -1.391   1.143   0.349  0.00  0.00    +0.040 C 
ATOM     17  C   UNL     1      -3.834  -0.135  -0.073  0.00  0.00    +0.175 C 
ATOM     18  C   UNL     1      -2.574   1.739   0.785  0.00  0.00    +0.043 C 
ATOM     19  C   UNL     1      -3.796   1.100   0.574  0.00  0.00    +0.168 C 
BRANCH  17  20
ATOM     20  O   UNL     1      -5.021  -0.770  -0.285  0.00  0.00    -0.468 OA
ATOM     21  C   UNL     1      -4.973  -2.029  -0.954  0.00  0.00    +0.253 C 
ENDBRANCH  17  20
BRANCH  19  22
ATOM     22  O   UNL     1      -4.944   1.692   1.005  0.00  0.00    -0.503 OA
ATOM     23  H   UNL     1      -5.769   1.269   0.867  0.00  0.00    +0.292 HD
ENDBRANCH  19  22
ENDBRANCH  13  14
ENDBRANCH   6  13
BRANCH   5  24
ATOM     24  C   UNL     1       3.215   2.464  -0.323  0.00  0.00    +0.169 C 
BRANCH  24  25
ATOM     25  O   UNL     1       3.537   2.277  -1.689  0.00  0.00    -0.379 OA
ATOM     26  H   UNL     1       3.862   3.111  -2.062  0.00  0.00    +0.211 HD
ENDBRANCH  24  25
ENDBRANCH   5  24
TORSDOF 9
