REMARK  Name = 11968952
REMARK  10 active torsions:
REMARK  status: ('A' for Active; 'I' for Inactive)
REMARK    1  A    between atoms: C_1  and  C_4
REMARK    2  A    between atoms: C_1  and  O_18
REMARK    3  A    between atoms: C_3  and  C_8
REMARK    4  A    between atoms: C_8  and  O_16
REMARK    5  A    between atoms: O_18  and  C_20
REMARK    6  A    between atoms: C_21  and  O_25
REMARK    7  A    between atoms: C_22  and  O_27
REMARK    8  A    between atoms: C_23  and  O_29
REMARK    9  A    between atoms: C_24  and  C_31
REMARK   10  A    between atoms: C_31  and  O_32
REMARK                            x       y       z     vdW  Elec       q    Type
REMARK                         _______ _______ _______ _____ _____    ______ ____
ROOT
ATOM      1  C   UNL     1       0.803  -2.150   0.844  0.00  0.00    +0.140 C 
ATOM      2  C   UNL     1       0.776  -3.546   1.452  0.00  0.00    +0.037 C 
ENDROOT
BRANCH   1   4
ATOM      3  C   UNL     1      -1.255  -0.958   0.054  0.00  0.00    +0.000 C 
ATOM      4  C   UNL     1      -0.502  -1.440   1.054  0.00  0.00    +0.001 C 
BRANCH   3   8
ATOM      5  O   UNL     1      -2.876   0.733  -1.880  0.00  0.00    -0.355 OA
ATOM      6  O   UNL     1      -6.215   1.784  -0.195  0.00  0.00    -0.296 OA
ATOM      7  C   UNL     1      -3.764  -0.940  -0.424  0.00  0.00    +0.063 C 
ATOM      8  C   UNL     1      -2.569  -0.245   0.261  0.00  0.00    +0.132 C 
ATOM      9  C   UNL     1      -2.633   1.099  -0.498  0.00  0.00    +0.126 C 
ATOM     10  C   UNL     1      -3.513  -0.564  -1.894  0.00  0.00    +0.145 C 
ATOM     11  C   UNL     1      -5.097  -0.315   0.057  0.00  0.00    +0.070 C 
ATOM     12  C   UNL     1      -3.834   1.953  -0.042  0.00  0.00    +0.094 C 
ATOM     13  C   UNL     1      -3.845  -2.455  -0.216  0.00  0.00    +0.006 C 
ATOM     14  C   UNL     1      -5.139   1.190  -0.108  0.00  0.00    +0.153 C 
ATOM     15  C   UNL     1      -1.367   1.953  -0.428  0.00  0.00    +0.033 C 
BRANCH   8  16
ATOM     16  O   UNL     1      -2.709  -0.119   1.669  0.00  0.00    -0.380 OA
ATOM     17  H   UNL     1      -3.541   0.335   1.872  0.00  0.00    +0.211 HD
ENDBRANCH   8  16
ENDBRANCH   3   8
ENDBRANCH   1   4
BRANCH   1  18
ATOM     18  O   UNL     1       1.826  -1.385   1.477  0.00  0.00    -0.327 OA
BRANCH  18  20
ATOM     19  O   UNL     1       3.481  -1.009  -0.125  0.00  0.00    -0.326 OA
ATOM     20  C   UNL     1       2.388  -0.426   0.582  0.00  0.00    +0.266 C 
ATOM     21  C   UNL     1       2.861   0.770   1.408  0.00  0.00    +0.196 C 
ATOM     22  C   UNL     1       3.613   1.782   0.544  0.00  0.00    +0.172 C 
ATOM     23  C   UNL     1       4.671   1.094  -0.319  0.00  0.00    +0.169 C 
ATOM     24  C   UNL     1       4.074  -0.105  -1.059  0.00  0.00    +0.176 C 
BRANCH  21  25
ATOM     25  O   UNL     1       1.715   1.397   1.983  0.00  0.00    -0.378 OA
ATOM     26  H   UNL     1       1.237   0.756   2.532  0.00  0.00    +0.211 HD
ENDBRANCH  21  25
BRANCH  22  27
ATOM     27  O   UNL     1       4.275   2.727   1.385  0.00  0.00    -0.379 OA
ATOM     28  H   UNL     1       3.621   3.177   1.943  0.00  0.00    +0.211 HD
ENDBRANCH  22  27
BRANCH  23  29
ATOM     29  O   UNL     1       5.184   2.025  -1.268  0.00  0.00    -0.379 OA
ATOM     30  H   UNL     1       5.564   2.786  -0.801  0.00  0.00    +0.211 HD
ENDBRANCH  23  29
BRANCH  24  31
ATOM     31  C   UNL     1       5.137  -0.877  -1.834  0.00  0.00    +0.169 C 
BRANCH  31  32
ATOM     32  O   UNL     1       4.516  -1.973  -2.482  0.00  0.00    -0.379 OA
ATOM     33  H   UNL     1       5.181  -2.474  -2.979  0.00  0.00    +0.211 HD
ENDBRANCH  31  32
ENDBRANCH  24  31
ENDBRANCH  18  20
ENDBRANCH   1  18
TORSDOF 10
