REMARK  Name = 11964499
REMARK  9 active torsions:
REMARK  status: ('A' for Active; 'I' for Inactive)
REMARK    1  A    between atoms: C_1  and  C_4
REMARK    2  A    between atoms: C_1  and  N_8
REMARK    3  A    between atoms: C_1  and  C_17
REMARK    4  A    between atoms: C_9  and  C_11
REMARK    5  A    between atoms: C_17  and  C_18
REMARK    6  A    between atoms: C_18  and  C_19
REMARK    7  A    between atoms: C_19  and  N_20
REMARK    8  A    between atoms: N_20  and  C_22
REMARK    9  A    between atoms: C_22  and  C_26
REMARK                            x       y       z     vdW  Elec       q    Type
REMARK                         _______ _______ _______ _____ _____    ______ ____
ROOT
ATOM      1  C   UNL     1       0.259  -1.851  -0.288  0.00  0.00    +0.149 C 
ENDROOT
BRANCH   1   4
ATOM      2  O   UNL     1       1.395  -3.093   1.464  0.00  0.00    -0.274 OA
ATOM      3  N   UNL     1       0.583  -4.246  -0.349  0.00  0.00    -0.327 N 
ATOM      4  C   UNL     1       0.824  -3.098   0.376  0.00  0.00    +0.237 C 
ATOM      5  H   UNL     1       0.903  -5.115  -0.016  0.00  0.00    +0.145 HD
ATOM      6  H   UNL     1       0.091  -4.196  -1.200  0.00  0.00    +0.145 HD
ENDBRANCH   1   4
BRANCH   1   8
ATOM      7  O   UNL     1       2.626  -1.057  -1.707  0.00  0.00    -0.270 OA
ATOM      8  N   UNL     1       1.136  -0.757   0.045  0.00  0.00    -0.295 N 
ATOM      9  C   UNL     1       2.263  -0.448  -0.704  0.00  0.00    +0.246 C 
ATOM     10  H   UNL     1       0.927  -0.208   0.835  0.00  0.00    +0.150 HD
BRANCH   9  11
ATOM     11  C   UNL     1       3.078   0.693  -0.214  0.00  0.00    +0.053 C 
ATOM     12  C   UNL     1       3.847   1.437  -1.109  0.00  0.00    +0.005 C 
ATOM     13  C   UNL     1       3.075   1.022   1.142  0.00  0.00    +0.005 C 
ATOM     14  C   UNL     1       4.612   2.509  -0.649  0.00  0.00    +0.000 C 
ATOM     15  C   UNL     1       3.840   2.093   1.602  0.00  0.00    +0.000 C 
ATOM     16  C   UNL     1       4.609   2.837   0.706  0.00  0.00    +0.000 C 
ENDBRANCH   9  11
ENDBRANCH   1   8
BRANCH   1  17
ATOM     17  C   UNL     1      -1.180  -1.602   0.175  0.00  0.00    +0.031 C 
BRANCH  17  18
ATOM     18  C   UNL     1      -1.811  -0.386  -0.515  0.00  0.00    +0.026 C 
BRANCH  18  19
ATOM     19  C   UNL     1      -3.262  -0.168  -0.100  0.00  0.00    +0.114 C 
BRANCH  19  20
ATOM     20  N   UNL     1      -3.810   0.995  -0.799  0.00  0.00    -0.225 NA
BRANCH  20  22
ATOM     21  N   UNL     1      -5.800   2.321  -1.059  0.00  0.00    -0.388 N 
ATOM     22  C   UNL     1      -5.038   1.298  -0.541  0.00  0.00    +0.111 C 
ATOM     23  H   UNL     1      -5.409   2.944  -1.713  0.00  0.00    +0.157 HD
ATOM     24  H   UNL     1      -6.736   2.430  -0.775  0.00  0.00    +0.157 HD
BRANCH  22  26
ATOM     25 CL   UNL     1      -5.506   1.099   2.069  0.00  0.00    -0.105 Cl
ATOM     26  C   UNL     1      -5.740   0.401   0.457  0.00  0.00    +0.154 C 
ENDBRANCH  22  26
ENDBRANCH  20  22
ENDBRANCH  19  20
ENDBRANCH  18  19
ENDBRANCH  17  18
ENDBRANCH   1  17
TORSDOF 9
