11962143
  -OEChem-03292013303D

 39 40  0     1  0  0  0  0  0999 V2000
    1.5333    0.7829   -0.4876 O   0  0  0  0  0  0  0  0  0  0  0  0
    4.1156   -2.3306    0.2233 O   0  0  0  0  0  0  0  0  0  0  0  0
    4.8885    0.3661    0.9207 O   0  0  0  0  0  0  0  0  0  0  0  0
   -0.2742   -0.6734   -0.7240 O   0  0  0  0  0  0  0  0  0  0  0  0
    1.2140   -2.6969    0.5795 O   0  0  0  0  0  0  0  0  0  0  0  0
    3.5372    2.2768   -1.6887 O   0  0  0  0  0  0  0  0  0  0  0  0
   -5.0210   -0.7696   -0.2848 O   0  0  0  0  0  0  0  0  0  0  0  0
   -4.9445    1.6917    1.0050 O   0  0  0  0  0  0  0  0  0  0  0  0
    3.1866   -1.3071    0.5837 C   0  0  1  0  0  0  0  0  0  0  0  0
    3.7569    0.0336    0.1205 C   0  0  1  0  0  0  0  0  0  0  0  0
    1.8361   -1.5909   -0.0739 C   0  0  2  0  0  0  0  0  0  0  0  0
    2.7079    1.1413    0.2426 C   0  0  1  0  0  0  0  0  0  0  0  0
    0.9021   -0.3854    0.0314 C   0  0  1  0  0  0  0  0  0  0  0  0
    3.2150    2.4642   -0.3227 C   0  0  0  0  0  0  0  0  0  0  0  0
   -1.4348   -0.0891   -0.2964 C   0  0  0  0  0  0  0  0  0  0  0  0
   -2.6508   -0.7311   -0.5095 C   0  0  0  0  0  0  0  0  0  0  0  0
   -1.3909    1.1431    0.3487 C   0  0  0  0  0  0  0  0  0  0  0  0
   -3.8342   -0.1354   -0.0731 C   0  0  0  0  0  0  0  0  0  0  0  0
   -2.5743    1.7389    0.7849 C   0  0  0  0  0  0  0  0  0  0  0  0
   -3.7959    1.0996    0.5740 C   0  0  0  0  0  0  0  0  0  0  0  0
   -4.9729   -2.0286   -0.9535 C   0  0  0  0  0  0  0  0  0  0  0  0
    3.0984   -1.3403    1.6766 H   0  0  0  0  0  0  0  0  0  0  0  0
    4.1067   -0.0795   -0.9119 H   0  0  0  0  0  0  0  0  0  0  0  0
    1.9774   -1.8804   -1.1220 H   0  0  0  0  0  0  0  0  0  0  0  0
    2.4419    1.3098    1.2945 H   0  0  0  0  0  0  0  0  0  0  0  0
    0.6486   -0.2411    1.0926 H   0  0  0  0  0  0  0  0  0  0  0  0
    4.0917    2.8417    0.2126 H   0  0  0  0  0  0  0  0  0  0  0  0
    2.4265    3.2220   -0.2765 H   0  0  0  0  0  0  0  0  0  0  0  0
    4.9649   -2.1146    0.6454 H   0  0  0  0  0  0  0  0  0  0  0  0
    4.5890    0.4577    1.8414 H   0  0  0  0  0  0  0  0  0  0  0  0
    1.0841   -2.4619    1.5142 H   0  0  0  0  0  0  0  0  0  0  0  0
    4.4321    1.9000   -1.7343 H   0  0  0  0  0  0  0  0  0  0  0  0
   -2.6095   -1.6884   -1.0180 H   0  0  0  0  0  0  0  0  0  0  0  0
   -0.4740    1.6953    0.5200 H   0  0  0  0  0  0  0  0  0  0  0  0
   -2.5311    2.7036    1.2837 H   0  0  0  0  0  0  0  0  0  0  0  0
   -4.7244    2.5389    1.4291 H   0  0  0  0  0  0  0  0  0  0  0  0
   -4.4223   -2.7747   -0.3705 H   0  0  0  0  0  0  0  0  0  0  0  0
   -4.5880   -1.9292   -1.9742 H   0  0  0  0  0  0  0  0  0  0  0  0
   -6.0037   -2.3886   -1.0368 H   0  0  0  0  0  0  0  0  0  0  0  0
  1 12  1  0  0  0  0
  1 13  1  0  0  0  0
  2  9  1  0  0  0  0
  2 29  1  0  0  0  0
  3 10  1  0  0  0  0
  3 30  1  0  0  0  0
  4 13  1  0  0  0  0
  4 15  1  0  0  0  0
  5 11  1  0  0  0  0
  5 31  1  0  0  0  0
  6 14  1  0  0  0  0
  6 32  1  0  0  0  0
  7 18  1  0  0  0  0
  7 21  1  0  0  0  0
  8 20  1  0  0  0  0
  8 36  1  0  0  0  0
  9 10  1  0  0  0  0
  9 11  1  0  0  0  0
  9 22  1  0  0  0  0
 10 12  1  0  0  0  0
 10 23  1  0  0  0  0
 11 13  1  0  0  0  0
 11 24  1  0  0  0  0
 12 14  1  0  0  0  0
 12 25  1  0  0  0  0
 13 26  1  0  0  0  0
 14 27  1  0  0  0  0
 14 28  1  0  0  0  0
 15 16  2  0  0  0  0
 15 17  1  0  0  0  0
 16 18  1  0  0  0  0
 16 33  1  0  0  0  0
 17 19  2  0  0  0  0
 17 34  1  0  0  0  0
 18 20  2  0  0  0  0
 19 20  1  0  0  0  0
 19 35  1  0  0  0  0
 21 37  1  0  0  0  0
 21 38  1  0  0  0  0
 21 39  1  0  0  0  0
M  END
> <PUBCHEM_COMPOUND_CID>
11962143

> <PUBCHEM_CONFORMER_RMSD>
0.8

> <PUBCHEM_CONFORMER_DIVERSEORDER>
102
103
55
56
57
12
44
86
100
89
114
112
52
47
23
87
94
109
79
77
5
98
104
68
42
13
37
63
113
54
78
10
60
72
62
96
71
35
101
70
14
9
43
24
99
50
36
41
51
3
88
66
32
65
6
92
8
73
49
110
53
75
7
16
29
108
26
90
38
97
93
34
33
95
106
21
61
45
76
67
39
82
48
81
111
4
18
59
64
105
27
1
69
91
85
107
17
84
83
2
15
11
58
25
19
80
46
74
22
115
40
30
28
20
31

> <PUBCHEM_MMFF94_PARTIAL_CHARGES>
29
1 -0.56
10 0.28
11 0.28
12 0.28
13 0.56
14 0.28
15 0.08
16 -0.15
17 -0.15
18 0.08
19 -0.15
2 -0.68
20 0.08
21 0.28
29 0.4
3 -0.68
30 0.4
31 0.4
32 0.4
33 0.15
34 0.15
35 0.15
36 0.45
4 -0.36
5 -0.68
6 -0.68
7 -0.36
8 -0.53
9 0.28

> <PUBCHEM_EFFECTIVE_ROTOR_COUNT>
5.2

> <PUBCHEM_PHARMACOPHORE_FEATURES>
14
1 1 acceptor
1 2 acceptor
1 2 donor
1 3 acceptor
1 3 donor
1 4 acceptor
1 5 acceptor
1 5 donor
1 6 acceptor
1 6 donor
1 7 acceptor
1 8 donor
6 1 9 10 11 12 13 rings
6 15 16 17 18 19 20 rings

> <PUBCHEM_HEAVY_ATOM_COUNT>
21

> <PUBCHEM_ATOM_DEF_STEREO_COUNT>
5

> <PUBCHEM_ATOM_UDEF_STEREO_COUNT>
0

> <PUBCHEM_BOND_DEF_STEREO_COUNT>
0

> <PUBCHEM_BOND_UDEF_STEREO_COUNT>
0

> <PUBCHEM_ISOTOPIC_ATOM_COUNT>
0

> <PUBCHEM_COMPONENT_COUNT>
1

> <PUBCHEM_CACTVS_TAUTO_COUNT>
3

> <PUBCHEM_CONFORMER_ID>
00B6871F00000066

> <PUBCHEM_MMFF94_ENERGY>
75.5611

> <PUBCHEM_FEATURE_SELFOVERLAP>
71.111

> <PUBCHEM_SHAPE_FINGERPRINT>
10090160 65 18261666081962383263
10366900 7 17530971254584120122
10616163 171 18272369776446547671
10937287 8 17248663088821366188
12107183 9 17908706129206942403
12236239 1 18272651246969450584
12251169 10 18268712710340244313
12616971 3 18409736136343997633
12916754 54 18408600349332502485
13167823 11 18412823586374800311
13533116 47 18409729590798059595
13583140 156 17751649749892536153
14289901 80 18411982442820405107
14341114 176 18341618053312428146
14341114 328 18343305868507456395
14787075 74 18266173027712305095
15196674 1 18343017766016503763
15536298 74 18271525308371057002
17492 89 18342738481700721047
17834072 33 18410291441097279007
18681886 176 18272646870714391242
19050596 39 18341332210702059009
19377110 9 18341339980603956867
19422 9 18341894086908426875
200 152 18411972573154584591
20645477 70 18113611309205978238
20715895 44 17909549455058930873
21065198 48 18342174453572539683
21267235 1 18341618126369323335
21709351 56 18335697213256266460
2255824 54 18334018263807536590
22854114 111 18410294692218723400
23402539 116 18343011203733691487
23557571 272 17203610406002661472
23559900 14 17630618816504303663
2838139 119 16055446536387954608
312423 11 18341619208816905735
4214541 1 18342455903095905667
4409770 3 16460798690183500830
474 4 18260830427429121384
5104073 3 18343299241172816579
5312544 6 18336546143638753156
633830 44 18411707603346672836
67856867 119 18411412942736337288
7097593 13 18051411769167268539
77779 3 18343019969514107083
9709674 26 18411143506716773331
9981440 41 17762609986604015120

> <PUBCHEM_SHAPE_MULTIPOLES>
385.22
10.94
2.61
0.96
5.06
0.26
-0.16
0.12
0.28
-1.13
-0.07
-0.15
-0.27
-2.17

> <PUBCHEM_SHAPE_SELFOVERLAP>
807.707

> <PUBCHEM_SHAPE_VOLUME>
215.5

> <PUBCHEM_COORDINATE_TYPE>
2
5
10

$$$$
