REMARK  Name = 11969549
REMARK  10 active torsions:
REMARK  status: ('A' for Active; 'I' for Inactive)
REMARK    1  A    between atoms: C_5  and  C_30
REMARK    2  A    between atoms: C_7  and  O_19
REMARK    3  A    between atoms: C_9  and  O_17
REMARK    4  A    between atoms: C_13  and  O_23
REMARK    5  A    between atoms: O_19  and  C_21
REMARK    6  A    between atoms: O_23  and  C_25
REMARK    7  A    between atoms: C_25  and  C_26
REMARK    8  A    between atoms: C_26  and  C_27
REMARK    9  A    between atoms: C_30  and  O_31
REMARK   10  A    between atoms: O_31  and  C_33
REMARK                            x       y       z     vdW  Elec       q    Type
REMARK                         _______ _______ _______ _____ _____    ______ ____
ROOT
ATOM      1  O   UNL     1       2.013   2.018   2.335  0.00  0.00    -0.351 OA
ATOM      2  O   UNL     1       1.768   2.468  -0.664  0.00  0.00    -0.349 OA
ATOM      3  C   UNL     1       1.930   0.003   0.760  0.00  0.00    +0.073 C 
ATOM      4  C   UNL     1       2.557   1.295   1.242  0.00  0.00    +0.151 C 
ATOM      5  C   UNL     1       0.557   0.373   0.013  0.00  0.00    +0.079 C 
ATOM      6  C   UNL     1       2.950   2.030   0.013  0.00  0.00    +0.173 C 
ATOM      7  C   UNL     1       3.033  -0.399  -0.314  0.00  0.00    +0.200 C 
ATOM      8  C   UNL     1       3.327   1.469   2.533  0.00  0.00    +0.172 C 
ATOM      9  C   UNL     1       3.729   0.929  -0.726  0.00  0.00    +0.180 C 
ATOM     10  C   UNL     1       0.848   1.448  -1.089  0.00  0.00    +0.140 C 
ATOM     11  C   UNL     1       1.749  -1.058   1.849  0.00  0.00    +0.006 C 
ATOM     12  C   UNL     1      -0.515   0.955   0.993  0.00  0.00    +0.054 C 
ATOM     13  C   UNL     1      -1.808   1.448   0.317  0.00  0.00    +0.187 C 
ATOM     14  C   UNL     1      -0.372   2.174  -1.590  0.00  0.00    -0.002 C 
ATOM     15  C   UNL     1      -1.574   2.164  -0.989  0.00  0.00    -0.007 C 
ATOM     16  C   UNL     1      -2.744   2.904  -1.573  0.00  0.00    +0.030 C 
ENDROOT
BRANCH   9  17
ATOM     17  O   UNL     1       3.743   1.107  -2.128  0.00  0.00    -0.379 OA
ATOM     18  H   UNL     1       4.184   1.943  -2.344  0.00  0.00    +0.211 HD
ENDBRANCH   9  17
BRANCH   7  19
ATOM     19  O   UNL     1       4.017  -1.255   0.268  0.00  0.00    -0.450 OA
BRANCH  19  21
ATOM     20  O   UNL     1       4.472  -2.162  -1.808  0.00  0.00    -0.250 OA
ATOM     21  C   UNL     1       4.661  -2.088  -0.601  0.00  0.00    +0.318 C 
ATOM     22  C   UNL     1       5.659  -2.921   0.145  0.00  0.00    +0.121 C 
ENDBRANCH  19  21
ENDBRANCH   7  19
BRANCH  13  23
ATOM     23  O   UNL     1      -2.689   0.343   0.125  0.00  0.00    -0.448 OA
BRANCH  23  25
ATOM     24  O   UNL     1      -4.214   1.300   1.566  0.00  0.00    -0.250 OA
ATOM     25  C   UNL     1      -3.869   0.398   0.816  0.00  0.00    +0.317 C 
BRANCH  25  26
ATOM     26  C   UNL     1      -4.668  -0.857   0.537  0.00  0.00    +0.110 C 
BRANCH  26  27
ATOM     27  C   UNL     1      -6.071  -0.568  -0.021  0.00  0.00    +0.011 C 
ATOM     28  C   UNL     1      -6.832  -1.879  -0.230  0.00  0.00    +0.001 C 
ATOM     29  C   UNL     1      -6.000   0.205  -1.340  0.00  0.00    +0.001 C 
ENDBRANCH  26  27
ENDBRANCH  25  26
ENDBRANCH  23  25
ENDBRANCH  13  23
BRANCH   5  30
ATOM     30  C   UNL     1      -0.055  -0.893  -0.654  0.00  0.00    +0.211 C 
BRANCH  30  31
ATOM     31  O   UNL     1      -0.761  -1.592   0.342  0.00  0.00    -0.448 OA
BRANCH  31  33
ATOM     32  O   UNL     1      -1.367  -3.218  -1.183  0.00  0.00    -0.250 OA
ATOM     33  C   UNL     1      -1.382  -2.753  -0.052  0.00  0.00    +0.318 C 
ATOM     34  C   UNL     1      -2.090  -3.387   1.107  0.00  0.00    +0.121 C 
ENDBRANCH  31  33
ENDBRANCH  30  31
ENDBRANCH   5  30
TORSDOF 10
