REMARK  Name = 11969931
REMARK  5 active torsions:
REMARK  status: ('A' for Active; 'I' for Inactive)
REMARK    1  A    between atoms: C_7  and  C_25
REMARK    2  A    between atoms: C_8  and  O_22
REMARK    3  A    between atoms: C_11  and  C_26
REMARK    4  A    between atoms: C_26  and  O_27
REMARK    5  A    between atoms: O_27  and  C_29
REMARK                            x       y       z     vdW  Elec       q    Type
REMARK                         _______ _______ _______ _____ _____    ______ ____
ROOT
ATOM      1  O   UNL     1       0.719  -2.410   0.042  0.00  0.00    -0.448 OA
ATOM      2  O   UNL     1       3.001  -1.179   2.258  0.00  0.00    -0.291 OA
ATOM      3  O   UNL     1       2.726  -3.036  -0.738  0.00  0.00    -0.250 OA
ATOM      4  C   UNL     1      -0.057  -0.104  -0.406  0.00  0.00    +0.051 C 
ATOM      5  C   UNL     1       1.403   0.421  -0.091  0.00  0.00    +0.048 C 
ATOM      6  C   UNL     1       2.482  -0.720  -0.098  0.00  0.00    +0.147 C 
ATOM      7  C   UNL     1      -1.134   0.990  -0.053  0.00  0.00    +0.072 C 
ATOM      8  C   UNL     1       1.886   1.720  -0.810  0.00  0.00    +0.112 C 
ATOM      9  C   UNL     1       3.649  -0.376  -1.059  0.00  0.00    +0.023 C 
ATOM     10  C   UNL     1      -0.254  -0.490  -1.901  0.00  0.00    +0.004 C 
ATOM     11  C   UNL     1      -2.619   0.729  -0.493  0.00  0.00    +0.048 C 
ATOM     12  C   UNL     1       4.286   0.850  -0.397  0.00  0.00    +0.029 C 
ATOM     13  C   UNL     1      -0.170  -1.366   0.479  0.00  0.00    +0.209 C 
ATOM     14  C   UNL     1       3.354   2.075  -0.485  0.00  0.00    +0.034 C 
ATOM     15  C   UNL     1       3.260  -0.604   1.214  0.00  0.00    +0.178 C 
ATOM     16  C   UNL     1      -1.682  -0.924  -2.225  0.00  0.00    +0.000 C 
ATOM     17  C   UNL     1      -2.661   0.212  -1.951  0.00  0.00    +0.004 C 
ATOM     18  C   UNL     1       1.995  -2.143  -0.317  0.00  0.00    +0.323 C 
ATOM     19  C   UNL     1       4.379   0.363   1.026  0.00  0.00    +0.013 C 
ATOM     20  C   UNL     1      -3.394   2.073  -0.457  0.00  0.00    +0.004 C 
ATOM     21  C   UNL     1       5.290   0.644   1.958  0.00  0.00    -0.002 C 
ENDROOT
BRANCH   8  22
ATOM     22  O   UNL     1       1.766   1.623  -2.224  0.00  0.00    -0.384 OA
ATOM     23  H   UNL     1       0.851   1.401  -2.456  0.00  0.00    +0.210 HD
ENDBRANCH   8  22
BRANCH   7  25
ATOM     24  O   UNL     1      -0.746   2.529   1.763  0.00  0.00    -0.288 OA
ATOM     25  C   UNL     1      -1.071   1.405   1.395  0.00  0.00    +0.207 C 
ENDBRANCH   7  25
BRANCH  11  26
ATOM     26  C   UNL     1      -3.405  -0.245   0.412  0.00  0.00    +0.209 C 
BRANCH  26  27
ATOM     27  O   UNL     1      -4.733  -0.277  -0.055  0.00  0.00    -0.448 OA
BRANCH  27  29
ATOM     28  O   UNL     1      -5.506  -0.712   2.079  0.00  0.00    -0.250 OA
ATOM     29  C   UNL     1      -5.704  -0.522   0.886  0.00  0.00    +0.318 C 
ATOM     30  C   UNL     1      -7.060  -0.527   0.249  0.00  0.00    +0.121 C 
ENDBRANCH  27  29
ENDBRANCH  26  27
ENDBRANCH  11  26
TORSDOF 5
