REMARK  Name = 11968045
REMARK  0 active torsions:
REMARK  status: ('A' for Active; 'I' for Inactive)
REMARK                            x       y       z     vdW  Elec       q    Type
REMARK                         _______ _______ _______ _____ _____    ______ ____
ROOT
ATOM      1  O   UNL     1       4.969  -1.040  -0.042  0.00  0.00    -0.351 OA
ATOM      2  O   UNL     1       2.589  -0.598  -1.914  0.00  0.00    -0.352 OA
ATOM      3  O   UNL     1       1.135   2.026   0.555  0.00  0.00    -0.449 OA
ATOM      4  O   UNL     1      -0.624  -1.449   0.901  0.00  0.00    -0.445 OA
ATOM      5  O   UNL     1       1.577   4.299   0.610  0.00  0.00    -0.245 OA
ATOM      6  O   UNL     1      -1.998  -0.313   2.365  0.00  0.00    -0.245 OA
ATOM      7  O   UNL     1      -3.792   0.978  -0.271  0.00  0.00    -0.445 OA
ATOM      8  O   UNL     1      -4.687   1.690  -2.279  0.00  0.00    -0.245 OA
ATOM      9  C   UNL     1       2.898   0.209   0.800  0.00  0.00    +0.070 C 
ATOM     10  C   UNL     1       4.055   0.038  -0.157  0.00  0.00    +0.148 C 
ATOM     11  C   UNL     1       1.791  -0.911   0.450  0.00  0.00    +0.075 C 
ATOM     12  C   UNL     1       3.518   0.405  -1.490  0.00  0.00    +0.146 C 
ATOM     13  C   UNL     1       2.500   1.679   0.328  0.00  0.00    +0.174 C 
ATOM     14  C   UNL     1       5.512   0.273   0.183  0.00  0.00    +0.172 C 
ATOM     15  C   UNL     1       2.817   1.736  -1.192  0.00  0.00    +0.076 C 
ATOM     16  C   UNL     1       1.432  -0.805  -1.076  0.00  0.00    +0.140 C 
ATOM     17  C   UNL     1       3.283   0.222   2.281  0.00  0.00    +0.006 C 
ATOM     18  C   UNL     1       2.345  -2.361   0.684  0.00  0.00    +0.011 C 
ATOM     19  C   UNL     1       0.536  -0.751   1.385  0.00  0.00    +0.211 C 
ATOM     20  C   UNL     1       0.752  -2.018  -1.656  0.00  0.00    -0.006 C 
ATOM     21  C   UNL     1       1.396  -3.487   0.250  0.00  0.00    +0.022 C 
ATOM     22  C   UNL     1       0.719  -3.226  -1.068  0.00  0.00    -0.046 C 
ATOM     23  C   UNL     1       0.820   3.342   0.660  0.00  0.00    +0.341 C 
ATOM     24  C   UNL     1      -0.008  -4.386  -1.680  0.00  0.00    +0.026 C 
ATOM     25  C   UNL     1      -1.811  -1.143   1.492  0.00  0.00    +0.341 C 
ATOM     26  C   UNL     1      -0.623   3.465   0.947  0.00  0.00    +0.082 C 
ATOM     27  C   UNL     1      -2.839  -2.025   0.890  0.00  0.00    +0.074 C 
ATOM     28  C   UNL     1      -1.594   2.997   0.148  0.00  0.00    +0.007 C 
ATOM     29  C   UNL     1      -4.157  -1.760   0.811  0.00  0.00    -0.034 C 
ATOM     30  C   UNL     1      -1.418   2.386  -1.153  0.00  0.00    +0.007 C 
ATOM     31  C   UNL     1      -4.850  -0.506   1.306  0.00  0.00    +0.070 C 
ATOM     32  C   UNL     1      -5.074  -2.770   0.165  0.00  0.00    +0.027 C 
ATOM     33  C   UNL     1      -5.073   0.510   0.186  0.00  0.00    +0.213 C 
ATOM     34  C   UNL     1      -2.348   1.777  -1.902  0.00  0.00    +0.082 C 
ATOM     35  C   UNL     1      -3.749   1.517  -1.515  0.00  0.00    +0.341 C 
ENDROOT
TORSDOF 0
