REMARK  Name = 11962160
REMARK  5 active torsions:
REMARK  status: ('A' for Active; 'I' for Inactive)
REMARK    1  A    between atoms: C_11  and  O_28
REMARK    2  A    between atoms: C_14  and  O_26
REMARK    3  A    between atoms: C_17  and  O_30
REMARK    4  A    between atoms: C_22  and  O_32
REMARK    5  A    between atoms: C_23  and  O_34
REMARK                            x       y       z     vdW  Elec       q    Type
REMARK                         _______ _______ _______ _____ _____    ______ ____
ROOT
ATOM      1 CL   UNL     1      -4.354   2.349  -0.472  0.00  0.00    -0.079 Cl
ATOM      2  O   UNL     1      -0.228  -2.013   0.484  0.00  0.00    -0.449 OA
ATOM      3  O   UNL     1      -0.050  -1.240  -1.697  0.00  0.00    -0.245 OA
ATOM      4  O   UNL     1      -0.466   4.561   0.440  0.00  0.00    -0.275 OA
ATOM      5  N   UNL     1       1.214   3.082   0.147  0.00  0.00    -0.281 N 
ATOM      6  C   UNL     1       1.999  -1.724   1.414  0.00  0.00    +0.076 C 
ATOM      7  C   UNL     1       1.104  -2.574   0.499  0.00  0.00    +0.174 C 
ATOM      8  C   UNL     1       2.436  -0.436   0.755  0.00  0.00    +0.053 C 
ATOM      9  C   UNL     1      -1.413   1.518  -0.694  0.00  0.00    +0.037 C 
ATOM     10  C   UNL     1      -2.401   0.393  -0.486  0.00  0.00    +0.001 C 
ATOM     11  C   UNL     1       1.609   0.701   0.804  0.00  0.00    +0.146 C 
ATOM     12  C   UNL     1      -1.151   2.301   0.595  0.00  0.00    +0.090 C 
ATOM     13  C   UNL     1       1.977   1.891   0.174  0.00  0.00    +0.087 C 
ATOM     14  C   UNL     1       3.658  -0.368   0.079  0.00  0.00    +0.171 C 
ATOM     15  C   UNL     1      -2.038  -0.964  -0.429  0.00  0.00    +0.106 C 
ATOM     16  C   UNL     1       0.969  -3.991   1.046  0.00  0.00    +0.048 C 
ATOM     17  C   UNL     1       4.057   0.823  -0.518  0.00  0.00    +0.169 C 
ATOM     18  C   UNL     1      -0.655  -1.411  -0.653  0.00  0.00    +0.344 C 
ATOM     19  C   UNL     1       3.227   1.944  -0.463  0.00  0.00    +0.057 C 
ATOM     20  C   UNL     1      -0.102   3.377   0.408  0.00  0.00    +0.227 C 
ATOM     21  C   UNL     1      -3.757   0.720  -0.305  0.00  0.00    +0.088 C 
ATOM     22  C   UNL     1      -2.999  -1.958  -0.198  0.00  0.00    +0.143 C 
ATOM     23  C   UNL     1      -4.714  -0.270  -0.073  0.00  0.00    +0.147 C 
ATOM     24  C   UNL     1      -4.335  -1.608  -0.018  0.00  0.00    +0.074 C 
ATOM     25  H   UNL     1       1.741   3.871  -0.116  0.00  0.00    +0.155 HD
ENDROOT
BRANCH  14  26
ATOM     26  O   UNL     1       4.472  -1.459  -0.006  0.00  0.00    -0.469 OA
ATOM     27  C   UNL     1       4.778  -1.937  -1.313  0.00  0.00    +0.253 C 
ENDBRANCH  14  26
BRANCH  11  28
ATOM     28  O   UNL     1       0.619   0.634   1.732  0.00  0.00    -0.504 OA
ATOM     29  H   UNL     1       0.405  -0.187   2.129  0.00  0.00    +0.292 HD
ENDBRANCH  11  28
BRANCH  17  30
ATOM     30  O   UNL     1       5.251   0.908  -1.169  0.00  0.00    -0.503 OA
ATOM     31  H   UNL     1       5.815   0.162  -1.212  0.00  0.00    +0.292 HD
ENDBRANCH  17  30
BRANCH  22  32
ATOM     32  O   UNL     1      -2.671  -3.282  -0.171  0.00  0.00    -0.505 OA
ATOM     33  H   UNL     1      -1.779  -3.546  -0.290  0.00  0.00    +0.292 HD
ENDBRANCH  22  32
BRANCH  23  34
ATOM     34  O   UNL     1      -6.035   0.031   0.090  0.00  0.00    -0.505 OA
ATOM     35  H   UNL     1      -6.320   0.923   0.058  0.00  0.00    +0.292 HD
ENDBRANCH  23  34
TORSDOF 5
