11969931
  -OEChem-03292013303D

 57 60  0     1  0  0  0  0  0999 V2000
    0.7191   -2.4102    0.0416 O   0  0  0  0  0  0  0  0  0  0  0  0
    1.7658    1.6230   -2.2240 O   0  0  0  0  0  0  0  0  0  0  0  0
    3.0005   -1.1795    2.2584 O   0  0  0  0  0  0  0  0  0  0  0  0
    2.7264   -3.0356   -0.7382 O   0  0  0  0  0  0  0  0  0  0  0  0
   -4.7328   -0.2769   -0.0546 O   0  0  0  0  0  0  0  0  0  0  0  0
   -0.7455    2.5290    1.7629 O   0  0  0  0  0  0  0  0  0  0  0  0
   -5.5059   -0.7115    2.0788 O   0  0  0  0  0  0  0  0  0  0  0  0
   -0.0573   -0.1043   -0.4064 C   0  0  1  0  0  0  0  0  0  0  0  0
    1.4029    0.4209   -0.0913 C   0  0  1  0  0  0  0  0  0  0  0  0
    2.4821   -0.7199   -0.0979 C   0  0  1  0  0  0  0  0  0  0  0  0
   -1.1340    0.9904   -0.0529 C   0  0  1  0  0  0  0  0  0  0  0  0
    1.8863    1.7200   -0.8097 C   0  0  1  0  0  0  0  0  0  0  0  0
    3.6488   -0.3763   -1.0589 C   0  0  0  0  0  0  0  0  0  0  0  0
   -0.2544   -0.4898   -1.9007 C   0  0  0  0  0  0  0  0  0  0  0  0
   -2.6193    0.7285   -0.4931 C   0  0  1  0  0  0  0  0  0  0  0  0
    4.2856    0.8502   -0.3973 C   0  0  1  0  0  0  0  0  0  0  0  0
   -0.1703   -1.3659    0.4793 C   0  0  0  0  0  0  0  0  0  0  0  0
    3.3540    2.0745   -0.4851 C   0  0  0  0  0  0  0  0  0  0  0  0
    3.2598   -0.6039    1.2144 C   0  0  0  0  0  0  0  0  0  0  0  0
   -1.6821   -0.9240   -2.2254 C   0  0  0  0  0  0  0  0  0  0  0  0
   -2.6610    0.2125   -1.9512 C   0  0  0  0  0  0  0  0  0  0  0  0
    1.9951   -2.1425   -0.3170 C   0  0  0  0  0  0  0  0  0  0  0  0
    4.3793    0.3629    1.0256 C   0  0  0  0  0  0  0  0  0  0  0  0
   -3.4053   -0.2446    0.4117 C   0  0  0  0  0  0  0  0  0  0  0  0
   -3.3941    2.0732   -0.4568 C   0  0  0  0  0  0  0  0  0  0  0  0
   -1.0707    1.4049    1.3951 C   0  0  0  0  0  0  0  0  0  0  0  0
    5.2903    0.6439    1.9575 C   0  0  0  0  0  0  0  0  0  0  0  0
   -5.7035   -0.5222    0.8862 C   0  0  0  0  0  0  0  0  0  0  0  0
   -7.0600   -0.5268    0.2492 C   0  0  0  0  0  0  0  0  0  0  0  0
    1.3495    0.7453    0.9605 H   0  0  0  0  0  0  0  0  0  0  0  0
   -0.8304    1.8835   -0.6182 H   0  0  0  0  0  0  0  0  0  0  0  0
    1.2582    2.5635   -0.5032 H   0  0  0  0  0  0  0  0  0  0  0  0
    3.3228   -0.2039   -2.0887 H   0  0  0  0  0  0  0  0  0  0  0  0
    4.3850   -1.1921   -1.1095 H   0  0  0  0  0  0  0  0  0  0  0  0
    0.4377   -1.2753   -2.2184 H   0  0  0  0  0  0  0  0  0  0  0  0
   -0.0495    0.3668   -2.5465 H   0  0  0  0  0  0  0  0  0  0  0  0
    5.2737    1.0729   -0.8129 H   0  0  0  0  0  0  0  0  0  0  0  0
    0.0462   -1.1643    1.5345 H   0  0  0  0  0  0  0  0  0  0  0  0
   -1.1590   -1.8125    0.4468 H   0  0  0  0  0  0  0  0  0  0  0  0
    3.3889    2.6430    0.4532 H   0  0  0  0  0  0  0  0  0  0  0  0
    3.7431    2.7427   -1.2642 H   0  0  0  0  0  0  0  0  0  0  0  0
   -1.7388   -1.1894   -3.2880 H   0  0  0  0  0  0  0  0  0  0  0  0
   -1.9596   -1.8246   -1.6697 H   0  0  0  0  0  0  0  0  0  0  0  0
   -2.4109    1.0405   -2.6296 H   0  0  0  0  0  0  0  0  0  0  0  0
   -3.6694   -0.1051   -2.2417 H   0  0  0  0  0  0  0  0  0  0  0  0
   -3.3629    0.0848    1.4547 H   0  0  0  0  0  0  0  0  0  0  0  0
   -3.0297   -1.2644    0.3577 H   0  0  0  0  0  0  0  0  0  0  0  0
   -4.3872    1.9931   -0.9133 H   0  0  0  0  0  0  0  0  0  0  0  0
   -3.5273    2.4342    0.5690 H   0  0  0  0  0  0  0  0  0  0  0  0
   -2.8584    2.8513   -1.0132 H   0  0  0  0  0  0  0  0  0  0  0  0
   -1.3223    0.6339    2.1414 H   0  0  0  0  0  0  0  0  0  0  0  0
    1.9837    2.4918   -2.6021 H   0  0  0  0  0  0  0  0  0  0  0  0
    6.0987    1.3363    1.7485 H   0  0  0  0  0  0  0  0  0  0  0  0
    5.2529    0.1959    2.9444 H   0  0  0  0  0  0  0  0  0  0  0  0
   -7.1121   -1.3176   -0.5033 H   0  0  0  0  0  0  0  0  0  0  0  0
   -7.2591    0.4483   -0.2025 H   0  0  0  0  0  0  0  0  0  0  0  0
   -7.8193   -0.7198    1.0123 H   0  0  0  0  0  0  0  0  0  0  0  0
  1 17  1  0  0  0  0
  1 22  1  0  0  0  0
  2 12  1  0  0  0  0
  2 52  1  0  0  0  0
  3 19  2  0  0  0  0
  4 22  2  0  0  0  0
  5 24  1  0  0  0  0
  5 28  1  0  0  0  0
  6 26  2  0  0  0  0
  7 28  2  0  0  0  0
  8  9  1  0  0  0  0
  8 11  1  0  0  0  0
  8 14  1  0  0  0  0
  8 17  1  0  0  0  0
  9 10  1  0  0  0  0
  9 12  1  0  0  0  0
  9 30  1  0  0  0  0
 10 13  1  0  0  0  0
 10 19  1  0  0  0  0
 10 22  1  0  0  0  0
 11 15  1  0  0  0  0
 11 26  1  0  0  0  0
 11 31  1  0  0  0  0
 12 18  1  0  0  0  0
 12 32  1  0  0  0  0
 13 16  1  0  0  0  0
 13 33  1  0  0  0  0
 13 34  1  0  0  0  0
 14 20  1  0  0  0  0
 14 35  1  0  0  0  0
 14 36  1  0  0  0  0
 15 21  1  0  0  0  0
 15 24  1  0  0  0  0
 15 25  1  0  0  0  0
 16 18  1  0  0  0  0
 16 23  1  0  0  0  0
 16 37  1  0  0  0  0
 17 38  1  0  0  0  0
 17 39  1  0  0  0  0
 18 40  1  0  0  0  0
 18 41  1  0  0  0  0
 19 23  1  0  0  0  0
 20 21  1  0  0  0  0
 20 42  1  0  0  0  0
 20 43  1  0  0  0  0
 21 44  1  0  0  0  0
 21 45  1  0  0  0  0
 23 27  2  0  0  0  0
 24 46  1  0  0  0  0
 24 47  1  0  0  0  0
 25 48  1  0  0  0  0
 25 49  1  0  0  0  0
 25 50  1  0  0  0  0
 26 51  1  0  0  0  0
 27 53  1  0  0  0  0
 27 54  1  0  0  0  0
 28 29  1  0  0  0  0
 29 55  1  0  0  0  0
 29 56  1  0  0  0  0
 29 57  1  0  0  0  0
M  END
> <PUBCHEM_COMPOUND_CID>
11969931

> <PUBCHEM_CONFORMER_RMSD>
0.8

> <PUBCHEM_CONFORMER_DIVERSEORDER>
11
8
91
49
18
95
62
46
32
65
96
100
90
80
93
13
40
43
1
52
53
83
27
10
108
33
42
48
23
64
89
87
99
63
39
19
103
101
25
84
22
35
94
51
69
105
92
30
44
59
97
70
12
85
54
2
4
78
75
20
66
7
107
47
38
57
102
31
79
86
74
71
60
106
34
73
3
76
15
17
5
98
72
21
45
68
77
16
56
81
6
104
82
61
26
9
88
55
24
67
58
37
36
28
14
41
29
50
110
109

> <PUBCHEM_MMFF94_PARTIAL_CHARGES>
24
1 -0.43
10 0.12
11 0.06
12 0.28
16 0.14
17 0.28
19 0.49
2 -0.68
22 0.66
23 -0.12
24 0.28
26 0.45
27 -0.3
28 0.66
29 0.06
3 -0.57
4 -0.57
5 -0.43
51 0.06
52 0.4
53 0.15
54 0.15
6 -0.57
7 -0.57

> <PUBCHEM_EFFECTIVE_ROTOR_COUNT>
6

> <PUBCHEM_PHARMACOPHORE_FEATURES>
9
1 2 acceptor
1 2 donor
1 3 acceptor
1 4 acceptor
1 6 acceptor
1 7 acceptor
6 1 8 9 10 17 22 rings
6 8 11 14 15 20 21 rings
8 9 10 12 13 16 18 19 23 rings

> <PUBCHEM_HEAVY_ATOM_COUNT>
29

> <PUBCHEM_ATOM_DEF_STEREO_COUNT>
4

> <PUBCHEM_ATOM_UDEF_STEREO_COUNT>
3

> <PUBCHEM_BOND_DEF_STEREO_COUNT>
0

> <PUBCHEM_BOND_UDEF_STEREO_COUNT>
0

> <PUBCHEM_ISOTOPIC_ATOM_COUNT>
0

> <PUBCHEM_COMPONENT_COUNT>
1

> <PUBCHEM_CACTVS_TAUTO_COUNT>
2

> <PUBCHEM_CONFORMER_ID>
00B6A58B0000000B

> <PUBCHEM_MMFF94_ENERGY>
116.05

> <PUBCHEM_FEATURE_SELFOVERLAP>
45.692

> <PUBCHEM_SHAPE_FINGERPRINT>
10090160 65 18409162225417914775
10366900 7 15936418814479992544
11595378 159 17346044372560362633
11796584 16 17968100833149937619
12236239 1 17632863023200651407
12553582 1 17989197153450016589
12592029 89 17894628158397406384
12633257 1 18114181981568919091
13009979 54 17842562842928240866
13140716 1 17843389924289853680
13224815 77 18201149971070414576
13583140 156 18339631274941396533
13782708 43 17458625575309371282
14341114 328 18343027722262372703
14787075 74 18411135879017905355
14863182 85 18342185457490073838
14955137 171 18410015451094498572
15183329 4 9511469922625759707
15210252 30 14189569762937790906
1601671 61 16916799469978191065
16945 1 18340751685768843046
17349148 13 18409157806065080026
17492 89 18268432326254085047
17980427 23 17914313913904062300
19319366 153 18343860039200143295
20691752 17 18056733611308690185
22149856 69 18271544043699131819
23559900 14 18191872214783310887
3286 77 17168140135237004709
392239 28 17844787326602140024
4340502 62 18335704970336656099
465052 167 17458347463391682224
474 4 18410566280565801716
484985 159 15295447266928567882
5104073 3 18267302028368810057
7495541 125 17168142364219523188

> <PUBCHEM_SHAPE_MULTIPOLES>
555.72
11.47
2.23
1.99
13.83
0.3
-0.03
0.32
5.17
-1.26
-0.08
-0.14
-0.11
0

> <PUBCHEM_SHAPE_SELFOVERLAP>
1196.58

> <PUBCHEM_SHAPE_VOLUME>
299.5

> <PUBCHEM_COORDINATE_TYPE>
2
5
10

$$$$
