REMARK  Name = 11970121
REMARK  5 active torsions:
REMARK  status: ('A' for Active; 'I' for Inactive)
REMARK    1  A    between atoms: N_1  and  C_11
REMARK    2  A    between atoms: C_10  and  C_14
REMARK    3  A    between atoms: C_12  and  C_17
REMARK    4  A    between atoms: C_14  and  O_15
REMARK    5  A    between atoms: C_17  and  O_18
REMARK                            x       y       z     vdW  Elec       q    Type
REMARK                         _______ _______ _______ _____ _____    ______ ____
ROOT
ATOM      1  N   UNL     1       0.133  -0.492   0.165  0.00  0.00    -0.273 N 
ATOM      2  N   UNL     1       1.804  -1.773  -0.568  0.00  0.00    -0.242 NA
ATOM      3  N   UNL     1       1.382   1.484   0.827  0.00  0.00    -0.228 NA
ATOM      4  N   UNL     1       3.771   1.200   0.419  0.00  0.00    -0.229 NA
ATOM      5  C   UNL     1       1.273   0.243   0.329  0.00  0.00    +0.150 C 
ATOM      6  C   UNL     1       0.504  -1.694  -0.378  0.00  0.00    +0.221 C 
ATOM      7  C   UNL     1       2.297  -0.569  -0.131  0.00  0.00    +0.140 C 
ATOM      8  C   UNL     1       3.586  -0.049  -0.073  0.00  0.00    +0.143 C 
ATOM      9  C   UNL     1       2.674   1.878   0.833  0.00  0.00    +0.253 C 
ATOM     10  N   UNL     1       4.686  -0.803  -0.518  0.00  0.00    -0.342 N 
ATOM     11  H   UNL     1       5.593  -0.424  -0.473  0.00  0.00    +0.144 HD
ATOM     12  H   UNL     1       4.548  -1.710  -0.876  0.00  0.00    +0.144 HD
ENDROOT
BRANCH   1  14
ATOM     13  C   UNL     1      -2.223  -0.332  -0.641  0.00  0.00    +0.050 C 
ATOM     14  C   UNL     1      -1.210  -0.096   0.497  0.00  0.00    +0.078 C 
ATOM     15  C   UNL     1      -3.216  -0.802   0.442  0.00  0.00    +0.035 C 
ATOM     16  C   UNL     1      -1.987  -1.156   1.305  0.00  0.00    +0.023 C 
BRANCH  13  17
ATOM     17  C   UNL     1      -2.596   0.925  -1.410  0.00  0.00    +0.139 C 
BRANCH  17  18
ATOM     18  O   UNL     1      -1.572   1.211  -2.349  0.00  0.00    -0.382 OA
ATOM     19  H   UNL     1      -1.802   2.013  -2.844  0.00  0.00    +0.210 HD
ENDBRANCH  17  18
ENDBRANCH  13  17
BRANCH  15  20
ATOM     20  C   UNL     1      -4.101   0.292   1.055  0.00  0.00    +0.137 C 
BRANCH  20  21
ATOM     21  O   UNL     1      -5.206   0.532   0.195  0.00  0.00    -0.382 OA
ATOM     22  H   UNL     1      -5.770   1.223   0.578  0.00  0.00    +0.210 HD
ENDBRANCH  20  21
ENDBRANCH  15  20
ENDBRANCH   1  14
TORSDOF 5
