REMARK  Name = 11972575
REMARK  9 active torsions:
REMARK  status: ('A' for Active; 'I' for Inactive)
REMARK    1  A    between atoms: C_3  and  C_13
REMARK    2  A    between atoms: C_4  and  N_25
REMARK    3  A    between atoms: C_16  and  C_17
REMARK    4  A    between atoms: C_17  and  O_18
REMARK    5  A    between atoms: C_17  and  C_20
REMARK    6  A    between atoms: C_20  and  O_21
REMARK    7  A    between atoms: C_26  and  C_29
REMARK    8  A    between atoms: C_29  and  O_30
REMARK    9  A    between atoms: O_30  and  C_33
REMARK                            x       y       z     vdW  Elec       q    Type
REMARK                         _______ _______ _______ _____ _____    ______ ____
ROOT
ATOM      1  F   UNL     1      -1.162  -1.057  -2.446  0.00  0.00    -0.204 F 
ATOM      2  F   UNL     1      -1.636   1.200   1.713  0.00  0.00    -0.204 F 
ATOM      3  C   UNL     1      -1.439   0.060  -0.364  0.00  0.00    +0.051 C 
ATOM      4  C   UNL     1       1.254   0.784  -0.451  0.00  0.00    +0.062 C 
ATOM      5  C   UNL     1      -0.645  -0.332  -1.442  0.00  0.00    +0.143 C 
ATOM      6  C   UNL     1      -0.886   0.814   0.671  0.00  0.00    +0.143 C 
ATOM      7  C   UNL     1       0.701   0.030  -1.486  0.00  0.00    +0.045 C 
ATOM      8  C   UNL     1       0.460   1.176   0.628  0.00  0.00    +0.045 C 
ENDROOT
BRANCH   3  13
ATOM      9  O   UNL     1      -7.285  -1.515   1.481  0.00  0.00    -0.272 OA
ATOM     10  N   UNL     1      -5.625  -0.970  -0.056  0.00  0.00    -0.273 N 
ATOM     11  C   UNL     1      -3.347  -1.147   0.854  0.00  0.00    +0.048 C 
ATOM     12  C   UNL     1      -4.646  -1.881   0.535  0.00  0.00    +0.098 C 
ATOM     13  C   UNL     1      -2.869  -0.325  -0.318  0.00  0.00    -0.019 C 
ATOM     14  C   UNL     1      -5.202  -0.270  -1.276  0.00  0.00    +0.120 C 
ATOM     15  C   UNL     1      -3.735   0.054  -1.277  0.00  0.00    -0.009 C 
ATOM     16  C   UNL     1      -6.924  -0.929   0.458  0.00  0.00    +0.255 C 
BRANCH  16  17
ATOM     17  C   UNL     1      -7.922  -0.097  -0.310  0.00  0.00    +0.217 C 
BRANCH  17  18
ATOM     18  O   UNL     1      -9.169  -0.734  -0.122  0.00  0.00    -0.374 OA
ATOM     19  H   UNL     1      -9.130  -1.635  -0.479  0.00  0.00    +0.211 HD
ENDBRANCH  17  18
BRANCH  17  20
ATOM     20  C   UNL     1      -7.985   1.308   0.247  0.00  0.00    +0.176 C 
BRANCH  20  21
ATOM     21  O   UNL     1      -8.400   1.266   1.605  0.00  0.00    -0.379 OA
ATOM     22  H   UNL     1      -8.439   2.168   1.959  0.00  0.00    +0.211 HD
ENDBRANCH  20  21
ENDBRANCH  17  20
ENDBRANCH  16  17
ENDBRANCH   3  13
BRANCH   4  25
ATOM     23  O   UNL     1       4.639   2.040   0.022  0.00  0.00    -0.432 OA
ATOM     24  O   UNL     1       2.945   2.412   1.484  0.00  0.00    -0.226 OA
ATOM     25  N   UNL     1       2.628   1.155  -0.496  0.00  0.00    -0.221 N 
ATOM     26  C   UNL     1       4.861   1.179  -1.104  0.00  0.00    +0.234 C 
ATOM     27  C   UNL     1       3.473   0.881  -1.627  0.00  0.00    +0.149 C 
ATOM     28  C   UNL     1       3.335   1.901   0.444  0.00  0.00    +0.409 C 
BRANCH  26  29
ATOM     29  C   UNL     1       5.604  -0.063  -0.633  0.00  0.00    +0.252 C 
BRANCH  29  30
ATOM     30  O   UNL     1       6.889   0.323  -0.175  0.00  0.00    -0.454 OA
BRANCH  30  33
ATOM     31  O   UNL     1       9.473  -1.581   1.128  0.00  0.00    -0.347 OA
ATOM     32  N   UNL     1       8.917  -0.370   0.733  0.00  0.00    -0.039 NA
ATOM     33  C   UNL     1       7.696  -0.679   0.289  0.00  0.00    +0.264 C 
ATOM     34  C   UNL     1       7.427  -2.056   0.379  0.00  0.00    +0.104 C 
ATOM     35  C   UNL     1       8.576  -2.578   0.912  0.00  0.00    +0.217 C 
ENDBRANCH  30  33
ENDBRANCH  29  30
ENDBRANCH  26  29
ENDBRANCH   4  25
TORSDOF 9
