REMARK  Name = 11970621
REMARK  5 active torsions:
REMARK  status: ('A' for Active; 'I' for Inactive)
REMARK    1  A    between atoms: C_6  and  S_10
REMARK    2  A    between atoms: C_8  and  C_17
REMARK    3  A    between atoms: S_10  and  N_13
REMARK    4  A    between atoms: C_17  and  O_18
REMARK    5  A    between atoms: O_18  and  C_19
REMARK                            x       y       z     vdW  Elec       q    Type
REMARK                         _______ _______ _______ _____ _____    ______ ____
ROOT
ATOM      1  S   UNL     1      -1.375   0.924   0.529  0.00  0.00    -0.011 S 
ATOM      2  O   UNL     1       2.004  -2.114  -0.599  0.00  0.00    -0.263 OA
ATOM      3  N   UNL     1       1.018  -0.141   0.278  0.00  0.00    -0.254 N 
ATOM      4  N   UNL     1      -2.275  -1.174  -0.634  0.00  0.00    -0.119 NA
ATOM      5  N   UNL     1      -0.904  -1.348  -0.557  0.00  0.00    -0.124 NA
ATOM      6  C   UNL     1      -2.652  -0.030  -0.104  0.00  0.00    +0.256 A 
ATOM      7  C   UNL     1      -0.342  -0.330   0.022  0.00  0.00    +0.190 A 
ATOM      8  C   UNL     1       2.022  -1.026  -0.048  0.00  0.00    +0.327 C 
ATOM      9  H   UNL     1       1.280   0.694   0.729  0.00  0.00    +0.157 HD
ENDROOT
BRANCH   6  10
ATOM     10  S   UNL     1      -4.277   0.568   0.003  0.00  0.00    +0.081 S 
ATOM     11  O   UNL     1      -4.187   2.028   0.068  0.00  0.00    -0.151 OA
ATOM     12  O   UNL     1      -5.011  -0.066  -1.093  0.00  0.00    -0.151 OA
BRANCH  10  13
ATOM     13  N   UNL     1      -4.985   0.038   1.484  0.00  0.00    -0.202 NA
ATOM     14  H   UNL     1      -5.941   0.389   1.549  0.00  0.00    +0.144 HD
ATOM     15  H   UNL     1      -4.439   0.394   2.269  0.00  0.00    +0.144 HD
ENDBRANCH  10  13
ENDBRANCH   6  10
BRANCH   8  17
ATOM     16  O   UNL     1       4.038  -1.147   1.194  0.00  0.00    -0.240 OA
ATOM     17  C   UNL     1       3.364  -0.525   0.396  0.00  0.00    +0.396 C 
BRANCH  17  18
ATOM     18  O   UNL     1       3.625   0.628  -0.249  0.00  0.00    -0.442 OA
BRANCH  18  19
ATOM     19  C   UNL     1       4.893   1.217   0.051  0.00  0.00    +0.209 C 
ATOM     20  C   UNL     1       5.042   2.497  -0.742  0.00  0.00    +0.051 C 
ENDBRANCH  18  19
ENDBRANCH  17  18
ENDBRANCH   8  17
TORSDOF 5
