REMARK  Name = 11972398
REMARK  9 active torsions:
REMARK  status: ('A' for Active; 'I' for Inactive)
REMARK    1  A    between atoms: C_1  and  O_20
REMARK    2  A    between atoms: C_2  and  C_9
REMARK    3  A    between atoms: C_16  and  O_18
REMARK    4  A    between atoms: O_20  and  C_26
REMARK    5  A    between atoms: C_22  and  O_27
REMARK    6  A    between atoms: C_23  and  O_29
REMARK    7  A    between atoms: C_24  and  O_31
REMARK    8  A    between atoms: C_25  and  C_33
REMARK    9  A    between atoms: C_33  and  O_34
REMARK                            x       y       z     vdW  Elec       q    Type
REMARK                         _______ _______ _______ _____ _____    ______ ____
ROOT
ATOM      1  C   UNL     1      -1.650   1.533  -0.400  0.00  0.00    +0.141 C 
ATOM      2  C   UNL     1       1.108   1.166  -0.453  0.00  0.00    +0.018 C 
ATOM      3  C   UNL     1      -0.981   1.500  -1.620  0.00  0.00    +0.037 C 
ATOM      4  C   UNL     1      -0.951   1.384   0.793  0.00  0.00    +0.037 C 
ATOM      5  C   UNL     1       0.401   1.316  -1.646  0.00  0.00    +0.002 C 
ATOM      6  C   UNL     1       0.432   1.200   0.767  0.00  0.00    +0.002 C 
ENDROOT
BRANCH   2   9
ATOM      7  O   UNL     1       2.905  -0.328   0.066  0.00  0.00    -0.474 OA
ATOM      8  O   UNL     1       5.633   2.726   0.314  0.00  0.00    -0.291 OA
ATOM      9  C   UNL     1       2.608   0.966  -0.482  0.00  0.00    +0.196 C 
ATOM     10  C   UNL     1       3.326   2.068   0.295  0.00  0.00    +0.117 C 
ATOM     11  C   UNL     1       4.811   1.819   0.243  0.00  0.00    +0.180 C 
ATOM     12  C   UNL     1       5.228   0.404   0.175  0.00  0.00    +0.069 C 
ATOM     13  C   UNL     1       4.249  -0.592   0.113  0.00  0.00    +0.145 C 
ATOM     14  C   UNL     1       6.582   0.061   0.216  0.00  0.00    +0.009 C 
ATOM     15  C   UNL     1       4.625  -1.936   0.128  0.00  0.00    +0.074 C 
ATOM     16  C   UNL     1       5.976  -2.280   0.172  0.00  0.00    +0.137 C 
ATOM     17  C   UNL     1       6.952  -1.284   0.210  0.00  0.00    +0.037 C 
BRANCH  16  18
ATOM     18  O   UNL     1       6.343  -3.592   0.174  0.00  0.00    -0.505 OA
ATOM     19  H   UNL     1       5.688  -4.261   0.148  0.00  0.00    +0.292 HD
ENDBRANCH  16  18
ENDBRANCH   2   9
BRANCH   1  20
ATOM     20  O   UNL     1      -3.006   1.715  -0.374  0.00  0.00    -0.451 OA
BRANCH  20  26
ATOM     21  O   UNL     1      -3.553  -0.552  -0.468  0.00  0.00    -0.316 OA
ATOM     22  C   UNL     1      -6.162  -0.054   0.624  0.00  0.00    +0.173 C 
ATOM     23  C   UNL     1      -5.784  -1.387  -0.023  0.00  0.00    +0.169 C 
ATOM     24  C   UNL     1      -5.252   1.074   0.140  0.00  0.00    +0.210 C 
ATOM     25  C   UNL     1      -4.280  -1.643   0.099  0.00  0.00    +0.177 C 
ATOM     26  C   UNL     1      -3.778   0.674   0.224  0.00  0.00    +0.318 C 
BRANCH  22  27
ATOM     27  O   UNL     1      -7.514   0.241   0.270  0.00  0.00    -0.379 OA
ATOM     28  H   UNL     1      -8.093  -0.475   0.577  0.00  0.00    +0.211 HD
ENDBRANCH  22  27
BRANCH  23  29
ATOM     29  O   UNL     1      -6.495  -2.442   0.620  0.00  0.00    -0.379 OA
ATOM     30  H   UNL     1      -7.449  -2.282   0.544  0.00  0.00    +0.211 HD
ENDBRANCH  23  29
BRANCH  24  31
ATOM     31  O   UNL     1      -5.449   2.227   0.958  0.00  0.00    -0.377 OA
ATOM     32  H   UNL     1      -6.381   2.496   0.918  0.00  0.00    +0.211 HD
ENDBRANCH  24  31
BRANCH  25  33
ATOM     33  C   UNL     1      -3.861  -2.909  -0.641  0.00  0.00    +0.169 C 
BRANCH  33  34
ATOM     34  O   UNL     1      -2.462  -3.075  -0.494  0.00  0.00    -0.379 OA
ATOM     35  H   UNL     1      -2.181  -3.878  -0.961  0.00  0.00    +0.211 HD
ENDBRANCH  33  34
ENDBRANCH  25  33
ENDBRANCH  20  26
ENDBRANCH   1  20
TORSDOF 9
