REMARK  Name = 11973122
REMARK  4 active torsions:
REMARK  status: ('A' for Active; 'I' for Inactive)
REMARK    1  A    between atoms: C_12  and  C_24
REMARK    2  A    between atoms: C_13  and  O_28
REMARK    3  A    between atoms: C_14  and  O_30
REMARK    4  A    between atoms: C_18  and  O_32
REMARK                            x       y       z     vdW  Elec       q    Type
REMARK                         _______ _______ _______ _____ _____    ______ ____
ROOT
ATOM      1  O   UNL     1      -0.331   0.485  -1.679  0.00  0.00    -0.312 OA
ATOM      2  O   UNL     1       0.391   2.725   0.776  0.00  0.00    -0.450 OA
ATOM      3  O   UNL     1       0.288  -1.803  -1.654  0.00  0.00    -0.423 OA
ATOM      4  O   UNL     1      -3.375  -0.377   1.554  0.00  0.00    -0.447 OA
ATOM      5  O   UNL     1      -0.494   3.295  -1.250  0.00  0.00    -0.247 OA
ATOM      6  O   UNL     1       0.578  -3.774  -0.522  0.00  0.00    -0.247 OA
ATOM      7  O   UNL     1      -4.890  -1.425   0.192  0.00  0.00    -0.250 OA
ATOM      8  C   UNL     1       0.129   0.337   0.682  0.00  0.00    +0.109 C 
ATOM      9  C   UNL     1       1.294  -0.326  -0.101  0.00  0.00    +0.108 C 
ATOM     10  C   UNL     1      -0.700   1.017  -0.417  0.00  0.00    +0.216 C 
ATOM     11  C   UNL     1       0.731   1.515   1.466  0.00  0.00    +0.174 C 
ATOM     12  C   UNL     1       2.442   0.724   0.002  0.00  0.00    +0.013 C 
ATOM     13  C   UNL     1      -2.191   0.837  -0.076  0.00  0.00    +0.170 C 
ATOM     14  C   UNL     1      -0.898  -0.431   1.546  0.00  0.00    +0.159 C 
ATOM     15  C   UNL     1       0.744  -0.449  -1.515  0.00  0.00    +0.294 C 
ATOM     16  C   UNL     1      -2.184   0.391   1.376  0.00  0.00    +0.223 C 
ATOM     17  C   UNL     1       2.239   1.321   1.394  0.00  0.00    +0.044 C 
ATOM     18  C   UNL     1       1.721  -1.755   0.204  0.00  0.00    +0.216 C 
ATOM     19  C   UNL     1      -0.271   2.463  -0.383  0.00  0.00    +0.344 C 
ATOM     20  C   UNL     1      -2.960  -0.285  -0.774  0.00  0.00    +0.130 C 
ATOM     21  C   UNL     1       0.813  -2.584  -0.665  0.00  0.00    +0.346 C 
ATOM     22  C   UNL     1      -3.875  -0.761   0.336  0.00  0.00    +0.319 C 
ATOM     23  C   UNL     1      -3.739   0.128  -2.012  0.00  0.00    +0.014 C 
ENDROOT
BRANCH  12  24
ATOM     24  C   UNL     1       3.874   0.246  -0.200  0.00  0.00    +0.000 C 
ATOM     25  C   UNL     1       4.839   1.423   0.017  0.00  0.00    +0.000 C 
ATOM     26  C   UNL     1       4.185  -0.868   0.811  0.00  0.00    +0.000 C 
ATOM     27  C   UNL     1       4.034  -0.295  -1.629  0.00  0.00    +0.000 C 
ENDBRANCH  12  24
BRANCH  13  28
ATOM     28  O   UNL     1      -2.924   2.056  -0.163  0.00  0.00    -0.380 OA
ATOM     29  H   UNL     1      -2.431   2.763   0.281  0.00  0.00    +0.211 HD
ENDBRANCH  13  28
BRANCH  14  30
ATOM     30  O   UNL     1      -1.135  -1.759   1.116  0.00  0.00    -0.380 OA
ATOM     31  H   UNL     1      -0.325  -2.282   1.221  0.00  0.00    +0.210 HD
ENDBRANCH  14  30
BRANCH  18  32
ATOM     32  O   UNL     1       1.666  -2.070   1.568  0.00  0.00    -0.374 OA
ATOM     33  H   UNL     1       2.275  -1.496   2.058  0.00  0.00    +0.211 HD
ENDBRANCH  18  32
TORSDOF 4
