119714
  -OEChem-03292013323D

 35 36  0     0  0  0  0  0  0999 V2000
   -1.3266   -2.4842   -0.0270 O   0  0  0  0  0  0  0  0  0  0  0  0
   -4.2205    2.2097    0.0668 O   0  0  0  0  0  0  0  0  0  0  0  0
    6.6684    1.4168   -0.3197 O   0  5  0  0  0  0  0  0  0  0  0  0
    6.7811   -0.7711   -0.1789 O   0  0  0  0  0  0  0  0  0  0  0  0
   -0.0114   -0.0352   -0.4023 N   0  0  0  0  0  0  0  0  0  0  0  0
    0.5860    0.0663    0.6948 N   0  0  0  0  0  0  0  0  0  0  0  0
   -5.5148   -0.2356    0.4377 N   0  3  0  0  0  0  0  0  0  0  0  0
    6.1243    0.2978   -0.1568 N   0  3  0  0  0  0  0  0  0  0  0  0
   -6.5925   -0.2800    0.6019 N   0  0  0  0  0  0  0  0  0  0  0  0
   -1.3994   -0.0935   -0.1899 C   0  0  0  0  0  0  0  0  0  0  0  0
   -2.0334   -1.3191   -0.0060 C   0  0  0  0  0  0  0  0  0  0  0  0
   -3.5112    1.0464    0.0452 C   0  0  0  0  0  0  0  0  0  0  0  0
   -2.1331    1.0897   -0.1650 C   0  0  0  0  0  0  0  0  0  0  0  0
   -4.1505   -0.1795    0.2300 C   0  0  0  0  0  0  0  0  0  0  0  0
   -3.4116   -1.3623    0.2043 C   0  0  0  0  0  0  0  0  0  0  0  0
    1.9673    0.1241    0.4839 C   0  0  0  0  0  0  0  0  0  0  0  0
    4.7222    0.2395    0.0600 C   0  0  0  0  0  0  0  0  0  0  0  0
    2.5936    1.3569    0.3012 C   0  0  0  0  0  0  0  0  0  0  0  0
    2.7183   -1.0510    0.4545 C   0  0  0  0  0  0  0  0  0  0  0  0
    3.9712    1.4145    0.0892 C   0  0  0  0  0  0  0  0  0  0  0  0
    4.0958   -0.9932    0.2426 C   0  0  0  0  0  0  0  0  0  0  0  0
   -1.1781   -3.1288   -1.2903 C   0  0  0  0  0  0  0  0  0  0  0  0
   -4.7451    2.6717   -1.1763 C   0  0  0  0  0  0  0  0  0  0  0  0
   -1.6367    2.0464   -0.3090 H   0  0  0  0  0  0  0  0  0  0  0  0
   -3.9089   -2.3184    0.3490 H   0  0  0  0  0  0  0  0  0  0  0  0
    2.0166    2.2779    0.3228 H   0  0  0  0  0  0  0  0  0  0  0  0
    2.2387   -2.0162    0.5957 H   0  0  0  0  0  0  0  0  0  0  0  0
    4.4252    2.3925   -0.0493 H   0  0  0  0  0  0  0  0  0  0  0  0
    4.6487   -1.9290    0.2259 H   0  0  0  0  0  0  0  0  0  0  0  0
   -0.6555   -2.4776   -1.9979 H   0  0  0  0  0  0  0  0  0  0  0  0
   -2.1556   -3.4132   -1.6927 H   0  0  0  0  0  0  0  0  0  0  0  0
   -0.5831   -4.0345   -1.1445 H   0  0  0  0  0  0  0  0  0  0  0  0
   -3.9327    2.8885   -1.8771 H   0  0  0  0  0  0  0  0  0  0  0  0
   -5.3024    3.5940   -0.9913 H   0  0  0  0  0  0  0  0  0  0  0  0
   -5.4263    1.9321   -1.6086 H   0  0  0  0  0  0  0  0  0  0  0  0
  1 11  1  0  0  0  0
  1 22  1  0  0  0  0
  2 12  1  0  0  0  0
  2 23  1  0  0  0  0
  3  8  1  0  0  0  0
  4  8  2  0  0  0  0
  5  6  2  0  0  0  0
  5 10  1  0  0  0  0
  6 16  1  0  0  0  0
  7  9  3  0  0  0  0
  7 14  1  0  0  0  0
  8 17  1  0  0  0  0
 10 11  1  0  0  0  0
 10 13  2  0  0  0  0
 11 15  2  0  0  0  0
 12 13  1  0  0  0  0
 12 14  2  0  0  0  0
 13 24  1  0  0  0  0
 14 15  1  0  0  0  0
 15 25  1  0  0  0  0
 16 18  2  0  0  0  0
 16 19  1  0  0  0  0
 17 20  2  0  0  0  0
 17 21  1  0  0  0  0
 18 20  1  0  0  0  0
 18 26  1  0  0  0  0
 19 21  2  0  0  0  0
 19 27  1  0  0  0  0
 20 28  1  0  0  0  0
 21 29  1  0  0  0  0
 22 30  1  0  0  0  0
 22 31  1  0  0  0  0
 22 32  1  0  0  0  0
 23 33  1  0  0  0  0
 23 34  1  0  0  0  0
 23 35  1  0  0  0  0
M  CHG  3   3  -1   7   1   8   1
M  END
> <PUBCHEM_COMPOUND_CID>
119714

> <PUBCHEM_CONFORMER_RMSD>
0.8

> <PUBCHEM_CONFORMER_DIVERSEORDER>
2
4
3
1

> <PUBCHEM_MMFF94_PARTIAL_CHARGES>
29
1 -0.36
10 0.18
11 0.08
12 0.08
13 -0.15
14 0.14
15 -0.15
16 0.18
17 0.13
18 -0.15
19 -0.15
2 -0.36
20 -0.15
21 -0.15
22 0.28
23 0.28
24 0.15
25 0.15
26 0.15
27 0.15
28 0.15
29 0.15
3 -0.52
4 -0.52
5 -0.18
6 -0.18
7 1.35
8 0.91
9 -0.49

> <PUBCHEM_EFFECTIVE_ROTOR_COUNT>
5

> <PUBCHEM_PHARMACOPHORE_FEATURES>
7
1 1 acceptor
1 2 acceptor
1 3 acceptor
1 3 anion
1 4 acceptor
6 10 11 12 13 14 15 rings
6 16 17 18 19 20 21 rings

> <PUBCHEM_HEAVY_ATOM_COUNT>
23

> <PUBCHEM_ATOM_DEF_STEREO_COUNT>
0

> <PUBCHEM_ATOM_UDEF_STEREO_COUNT>
0

> <PUBCHEM_BOND_DEF_STEREO_COUNT>
0

> <PUBCHEM_BOND_UDEF_STEREO_COUNT>
0

> <PUBCHEM_ISOTOPIC_ATOM_COUNT>
0

> <PUBCHEM_COMPONENT_COUNT>
1

> <PUBCHEM_CACTVS_TAUTO_COUNT>
1

> <PUBCHEM_CONFORMER_ID>
0001D3A200000002

> <PUBCHEM_MMFF94_ENERGY>
84.2323

> <PUBCHEM_FEATURE_SELFOVERLAP>
35.604

> <PUBCHEM_SHAPE_FINGERPRINT>
10411042 1 17976541934377957123
11524674 6 17060341850655310103
11578080 2 16734653175673318327
12107183 9 17758107099307745264
12236239 1 17894629236202205848
12390115 104 18270692961195248041
12403259 415 18272922826373556489
12788726 201 17702665437085172944
13073987 5 18187363190458862137
13533116 47 17131557141777675422
14341114 176 18409452513598899680
14617045 38 18411142437359301586
14933364 13 18408044000506899336
15042514 8 18193841664175210531
15183329 4 18411702063313672634
15196674 1 18336262345042530779
17844677 252 18335990825974702568
17980427 23 17894918400046232765
19489759 90 10735880568862386566
20281389 69 18408321094944015856
20645477 56 18342175596107673987
20681677 155 18408601474772365122
21033648 29 18270384054004176145
21267235 1 18335990830163583849
21279426 13 18196938777370226622
23402539 116 18202277009249254749
23402655 69 18408319999974826808
23559900 14 18130498755758148744
3004659 81 18336549322985794346
34797466 226 18130798888542388868
350125 39 18410856568778551865
3545911 37 18412545418369712528
4073 2 17895199952237370042
4214541 1 18410292514591286984
5104073 3 18261669285802226152
542803 24 17603586335651427168
54446538 1 18187085069852070621
559249 180 18410570661464273946
59755656 520 17561363989617585087
6327066 14 18043803192138509565
633830 44 17677048053493577608
77779 3 18408885148455703064

> <PUBCHEM_SHAPE_MULTIPOLES>
424.95
15.68
2.46
0.81
12.04
0.61
0.14
-4.96
-0.09
-2.33
0.92
-0.45
0.08
0.45

> <PUBCHEM_SHAPE_SELFOVERLAP>
911.158

> <PUBCHEM_SHAPE_VOLUME>
235.3

> <PUBCHEM_COORDINATE_TYPE>
2
5
10

$$$$
