REMARK  Name = 11973722
REMARK  3 active torsions:
REMARK  status: ('A' for Active; 'I' for Inactive)
REMARK    1  A    between atoms: C_10  and  C_14
REMARK    2  A    between atoms: C_12  and  C_26
REMARK    3  A    between atoms: C_15  and  C_23
REMARK                            x       y       z     vdW  Elec       q    Type
REMARK                         _______ _______ _______ _____ _____    ______ ____
ROOT
ATOM      1  S   UNL     1       3.847  -0.888  -0.521  0.00  0.00    -0.047 S 
ATOM      2  O   UNL     1      -2.818   2.026   1.238  0.00  0.00    -0.270 OA
ATOM      3  N   UNL     1      -1.016   0.897   0.268  0.00  0.00    -0.273 N 
ATOM      4  N   UNL     1       1.780   0.564   0.392  0.00  0.00    -0.285 N 
ATOM      5  N   UNL     1       4.011   1.309   0.830  0.00  0.00    -0.222 NA
ATOM      6  C   UNL     1      -0.409  -0.315  -0.291  0.00  0.00    +0.115 C 
ATOM      7  C   UNL     1      -0.152   2.074   0.218  0.00  0.00    +0.115 C 
ATOM      8  C   UNL     1       0.915  -0.624   0.406  0.00  0.00    +0.114 C 
ATOM      9  C   UNL     1       1.171   1.791   0.927  0.00  0.00    +0.114 C 
ATOM     10  C   UNL     1      -2.314   1.006   0.770  0.00  0.00    +0.249 C 
ATOM     11  C   UNL     1       3.150   0.451   0.310  0.00  0.00    +0.163 C 
ATOM     12  C   UNL     1       5.411  -0.281  -0.163  0.00  0.00    +0.104 C 
ATOM     13  C   UNL     1       5.298   0.889   0.559  0.00  0.00    +0.112 C 
ENDROOT
BRANCH  10  14
ATOM     14  C   UNL     1      -3.163  -0.192   0.758  0.00  0.00    +0.057 C 
ATOM     15  C   UNL     1      -3.974  -0.485  -0.336  0.00  0.00    +0.076 C 
ATOM     16  C   UNL     1      -3.145  -1.037   1.865  0.00  0.00    +0.004 C 
ATOM     17  C   UNL     1      -4.771  -1.630  -0.322  0.00  0.00    +0.004 C 
ATOM     18  C   UNL     1      -3.942  -2.181   1.879  0.00  0.00    +0.000 C 
ATOM     19  C   UNL     1      -4.756  -2.478   0.785  0.00  0.00    -0.000 C 
BRANCH  15  23
ATOM     20  F   UNL     1      -4.860  -0.029  -2.511  0.00  0.00    -0.166 F 
ATOM     21  F   UNL     1      -4.414   1.680  -1.253  0.00  0.00    -0.166 F 
ATOM     22  F   UNL     1      -2.792   0.528  -2.133  0.00  0.00    -0.166 F 
ATOM     23  C   UNL     1      -4.012   0.406  -1.535  0.00  0.00    +0.419 C 
ENDBRANCH  15  23
ENDBRANCH  10  14
BRANCH  12  26
ATOM     24  O   UNL     1       6.556  -2.059  -1.247  0.00  0.00    -0.270 OA
ATOM     25  N   UNL     1       7.829  -0.445  -0.287  0.00  0.00    -0.325 N 
ATOM     26  C   UNL     1       6.571  -0.979  -0.604  0.00  0.00    +0.250 C 
ATOM     27  H   UNL     1       8.648  -0.906  -0.580  0.00  0.00    +0.145 HD
ATOM     28  H   UNL     1       7.893   0.392   0.228  0.00  0.00    +0.145 HD
ENDBRANCH  12  26
TORSDOF 3
