REMARK  Name = 11974
REMARK  8 active torsions:
REMARK  status: ('A' for Active; 'I' for Inactive)
REMARK    1  A    between atoms: C_1  and  C_2
REMARK    2  A    between atoms: C_1  and  C_17
REMARK    3  A    between atoms: C_2  and  O_3
REMARK    4  A    between atoms: O_3  and  C_5
REMARK    5  A    between atoms: C_8  and  C_13
REMARK    6  A    between atoms: C_17  and  O_18
REMARK    7  A    between atoms: O_18  and  C_20
REMARK    8  A    between atoms: C_23  and  C_28
REMARK                            x       y       z     vdW  Elec       q    Type
REMARK                         _______ _______ _______ _____ _____    ______ ____
ROOT
ATOM      1  C   UNL     1      -0.043  -4.144   0.010  0.00  0.00    +0.095 C 
ENDROOT
BRANCH   1   2
ATOM      2  C   UNL     1      -1.269  -3.296   0.304  0.00  0.00    +0.209 C 
BRANCH   2   3
ATOM      3  O   UNL     1      -1.547  -2.482  -0.827  0.00  0.00    -0.475 OA
BRANCH   3   5
ATOM      4 BR   UNL     1      -0.772  -0.324  -2.944  0.00  0.00    -0.046 Br
ATOM      5  C   UNL     1      -2.125  -1.263  -0.585  0.00  0.00    +0.145 C 
ATOM      6  C   UNL     1      -1.895  -0.177  -1.424  0.00  0.00    +0.069 C 
ATOM      7  C   UNL     1      -2.953  -1.135   0.526  0.00  0.00    +0.037 C 
ATOM      8  C   UNL     1      -3.329   1.185  -0.036  0.00  0.00    +0.031 C 
ATOM      9  C   UNL     1      -2.499   1.050  -1.149  0.00  0.00    +0.012 C 
ATOM     10  C   UNL     1      -3.556   0.092   0.801  0.00  0.00    +0.006 C 
BRANCH   8  13
ATOM     11  N   UNL     1      -4.794   2.629   1.355  0.00  0.00    -0.343 N 
ATOM     12  N   UNL     1      -3.747   3.496  -0.546  0.00  0.00    -0.285 NA
ATOM     13  C   UNL     1      -3.959   2.463   0.251  0.00  0.00    +0.117 C 
ATOM     14  H   UNL     1      -5.210   3.503   1.531  0.00  0.00    +0.144 HD
ATOM     15  H   UNL     1      -4.967   1.871   1.959  0.00  0.00    +0.144 HD
ATOM     16  H   UNL     1      -4.172   4.362  -0.353  0.00  0.00    +0.188 HD
ENDBRANCH   8  13
ENDBRANCH   3   5
ENDBRANCH   2   3
ENDBRANCH   1   2
BRANCH   1  17
ATOM     17  C   UNL     1       1.185  -3.293  -0.269  0.00  0.00    +0.209 C 
BRANCH  17  18
ATOM     18  O   UNL     1       1.464  -2.466   0.853  0.00  0.00    -0.475 OA
BRANCH  18  20
ATOM     19 BR   UNL     1       0.711  -0.246   2.913  0.00  0.00    -0.046 Br
ATOM     20  C   UNL     1       2.082  -1.269   0.600  0.00  0.00    +0.145 C 
ATOM     21  C   UNL     1       1.867  -0.161   1.413  0.00  0.00    +0.069 C 
ATOM     22  C   UNL     1       2.935  -1.186  -0.497  0.00  0.00    +0.037 C 
ATOM     23  C   UNL     1       3.368   1.132   0.030  0.00  0.00    +0.031 C 
ATOM     24  C   UNL     1       2.512   1.043   1.127  0.00  0.00    +0.012 C 
ATOM     25  C   UNL     1       3.579   0.018  -0.782  0.00  0.00    +0.006 C 
BRANCH  23  28
ATOM     26  N   UNL     1       4.901   2.506  -1.359  0.00  0.00    -0.343 N 
ATOM     27  N   UNL     1       3.842   3.440   0.504  0.00  0.00    -0.285 NA
ATOM     28  C   UNL     1       4.040   2.387  -0.269  0.00  0.00    +0.117 C 
ATOM     29  H   UNL     1       5.346   3.365  -1.543  0.00  0.00    +0.144 HD
ATOM     30  H   UNL     1       5.064   1.732  -1.945  0.00  0.00    +0.144 HD
ATOM     31  H   UNL     1       4.296   4.290   0.303  0.00  0.00    +0.188 HD
ENDBRANCH  23  28
ENDBRANCH  18  20
ENDBRANCH  17  18
ENDBRANCH   1  17
TORSDOF 8
