11973122
  -OEChem-03292013303D

 54 59  0     1  0  0  0  0  0999 V2000
   -0.3309    0.4850   -1.6787 O   0  0  0  0  0  0  0  0  0  0  0  0
    0.3907    2.7253    0.7762 O   0  0  0  0  0  0  0  0  0  0  0  0
    0.2878   -1.8031   -1.6536 O   0  0  0  0  0  0  0  0  0  0  0  0
   -3.3748   -0.3767    1.5537 O   0  0  0  0  0  0  0  0  0  0  0  0
   -2.9244    2.0563   -0.1632 O   0  0  0  0  0  0  0  0  0  0  0  0
   -1.1345   -1.7591    1.1157 O   0  0  0  0  0  0  0  0  0  0  0  0
    1.6660   -2.0703    1.5684 O   0  0  0  0  0  0  0  0  0  0  0  0
   -0.4939    3.2945   -1.2502 O   0  0  0  0  0  0  0  0  0  0  0  0
    0.5784   -3.7743   -0.5224 O   0  0  0  0  0  0  0  0  0  0  0  0
   -4.8898   -1.4255    0.1917 O   0  0  0  0  0  0  0  0  0  0  0  0
    0.1285    0.3365    0.6824 C   0  0  2  0  0  0  0  0  0  0  0  0
    1.2941   -0.3258   -0.1006 C   0  0  2  0  0  0  0  0  0  0  0  0
   -0.7000    1.0172   -0.4168 C   0  0  2  0  0  0  0  0  0  0  0  0
    0.7311    1.5153    1.4657 C   0  0  1  0  0  0  0  0  0  0  0  0
    2.4419    0.7243    0.0021 C   0  0  1  0  0  0  0  0  0  0  0  0
   -2.1907    0.8372   -0.0764 C   0  0  1  0  0  0  0  0  0  0  0  0
   -0.8979   -0.4315    1.5459 C   0  0  1  0  0  0  0  0  0  0  0  0
    0.7438   -0.4492   -1.5153 C   0  0  2  0  0  0  0  0  0  0  0  0
   -2.1841    0.3912    1.3757 C   0  0  2  0  0  0  0  0  0  0  0  0
    2.2387    1.3212    1.3942 C   0  0  0  0  0  0  0  0  0  0  0  0
    1.7207   -1.7550    0.2042 C   0  0  2  0  0  0  0  0  0  0  0  0
   -0.2708    2.4635   -0.3825 C   0  0  0  0  0  0  0  0  0  0  0  0
    3.8741    0.2462   -0.1995 C   0  0  0  0  0  0  0  0  0  0  0  0
   -2.9602   -0.2855   -0.7737 C   0  0  1  0  0  0  0  0  0  0  0  0
    0.8129   -2.5845   -0.6653 C   0  0  0  0  0  0  0  0  0  0  0  0
   -3.8749   -0.7609    0.3356 C   0  0  0  0  0  0  0  0  0  0  0  0
    4.8386    1.4229    0.0168 C   0  0  0  0  0  0  0  0  0  0  0  0
    4.1854   -0.8684    0.8115 C   0  0  0  0  0  0  0  0  0  0  0  0
    4.0337   -0.2949   -1.6290 C   0  0  0  0  0  0  0  0  0  0  0  0
   -3.7394    0.1280   -2.0124 C   0  0  0  0  0  0  0  0  0  0  0  0
    0.3881    1.6045    2.5010 H   0  0  0  0  0  0  0  0  0  0  0  0
    2.2555    1.5188   -0.7361 H   0  0  0  0  0  0  0  0  0  0  0  0
   -0.6089   -0.4808    2.6009 H   0  0  0  0  0  0  0  0  0  0  0  0
    1.4631   -0.2620   -2.3147 H   0  0  0  0  0  0  0  0  0  0  0  0
   -2.2059    1.2443    2.0641 H   0  0  0  0  0  0  0  0  0  0  0  0
    2.5453    0.6723    2.2161 H   0  0  0  0  0  0  0  0  0  0  0  0
    2.7508    2.2826    1.5045 H   0  0  0  0  0  0  0  0  0  0  0  0
    2.6497   -2.0977   -0.2246 H   0  0  0  0  0  0  0  0  0  0  0  0
   -2.3070   -1.1275   -1.0246 H   0  0  0  0  0  0  0  0  0  0  0  0
   -3.7967    1.9223    0.2448 H   0  0  0  0  0  0  0  0  0  0  0  0
   -1.8118   -2.1408    1.6997 H   0  0  0  0  0  0  0  0  0  0  0  0
    4.5627    2.2838   -0.6027 H   0  0  0  0  0  0  0  0  0  0  0  0
    5.8625    1.1420   -0.2580 H   0  0  0  0  0  0  0  0  0  0  0  0
    4.8739    1.7511    1.0609 H   0  0  0  0  0  0  0  0  0  0  0  0
    4.3585   -1.8581    0.3770 H   0  0  0  0  0  0  0  0  0  0  0  0
    3.5951   -0.9169    1.7208 H   0  0  0  0  0  0  0  0  0  0  0  0
    5.1894   -0.6653    1.2193 H   0  0  0  0  0  0  0  0  0  0  0  0
    3.4468   -1.1850   -1.8568 H   0  0  0  0  0  0  0  0  0  0  0  0
    5.0803   -0.5689   -1.8120 H   0  0  0  0  0  0  0  0  0  0  0  0
    3.7764    0.4733   -2.3677 H   0  0  0  0  0  0  0  0  0  0  0  0
   -4.5484    0.8274   -1.7760 H   0  0  0  0  0  0  0  0  0  0  0  0
   -3.0802    0.5944   -2.7511 H   0  0  0  0  0  0  0  0  0  0  0  0
   -4.2037   -0.7475   -2.4797 H   0  0  0  0  0  0  0  0  0  0  0  0
    1.2697   -1.3477    2.0748 H   0  0  0  0  0  0  0  0  0  0  0  0
  1 13  1  0  0  0  0
  1 18  1  0  0  0  0
  2 14  1  0  0  0  0
  2 22  1  0  0  0  0
  3 18  1  0  0  0  0
  3 25  1  0  0  0  0
  4 19  1  0  0  0  0
  4 26  1  0  0  0  0
  5 16  1  0  0  0  0
  5 40  1  0  0  0  0
  6 17  1  0  0  0  0
  6 41  1  0  0  0  0
  7 21  1  0  0  0  0
  7 54  1  0  0  0  0
  8 22  2  0  0  0  0
  9 25  2  0  0  0  0
 10 26  2  0  0  0  0
 11 12  1  0  0  0  0
 11 13  1  0  0  0  0
 11 14  1  0  0  0  0
 11 17  1  0  0  0  0
 12 15  1  0  0  0  0
 12 18  1  0  0  0  0
 12 21  1  0  0  0  0
 13 16  1  0  0  0  0
 13 22  1  0  0  0  0
 14 20  1  0  0  0  0
 14 31  1  0  0  0  0
 15 20  1  0  0  0  0
 15 23  1  0  0  0  0
 15 32  1  0  0  0  0
 16 19  1  0  0  0  0
 16 24  1  0  0  0  0
 17 19  1  0  0  0  0
 17 33  1  0  0  0  0
 18 34  1  0  0  0  0
 19 35  1  0  0  0  0
 20 36  1  0  0  0  0
 20 37  1  0  0  0  0
 21 25  1  0  0  0  0
 21 38  1  0  0  0  0
 23 27  1  0  0  0  0
 23 28  1  0  0  0  0
 23 29  1  0  0  0  0
 24 26  1  0  0  0  0
 24 30  1  0  0  0  0
 24 39  1  0  0  0  0
 27 42  1  0  0  0  0
 27 43  1  0  0  0  0
 27 44  1  0  0  0  0
 28 45  1  0  0  0  0
 28 46  1  0  0  0  0
 28 47  1  0  0  0  0
 29 48  1  0  0  0  0
 29 49  1  0  0  0  0
 29 50  1  0  0  0  0
 30 51  1  0  0  0  0
 30 52  1  0  0  0  0
 30 53  1  0  0  0  0
M  END
> <PUBCHEM_COMPOUND_CID>
11973122

> <PUBCHEM_CONFORMER_RMSD>
0.8

> <PUBCHEM_CONFORMER_DIVERSEORDER>
2
1

> <PUBCHEM_MMFF94_PARTIAL_CHARGES>
24
1 -0.56
10 -0.57
13 0.34
14 0.28
16 0.28
17 0.28
18 0.56
19 0.28
2 -0.43
21 0.34
22 0.66
24 0.06
25 0.66
26 0.66
3 -0.43
4 -0.43
40 0.4
41 0.4
5 -0.68
54 0.4
6 -0.68
7 -0.68
8 -0.57
9 -0.57

> <PUBCHEM_EFFECTIVE_ROTOR_COUNT>
2.8

> <PUBCHEM_PHARMACOPHORE_FEATURES>
17
1 1 acceptor
1 10 acceptor
1 5 acceptor
1 5 donor
1 6 acceptor
1 6 donor
1 7 acceptor
1 7 donor
1 8 acceptor
1 9 acceptor
4 23 27 28 29 hydrophobe
5 1 11 12 13 18 rings
5 11 12 14 15 20 rings
5 11 13 16 17 19 rings
5 2 11 13 14 22 rings
5 3 12 18 21 25 rings
5 4 16 19 24 26 rings

> <PUBCHEM_HEAVY_ATOM_COUNT>
30

> <PUBCHEM_ATOM_DEF_STEREO_COUNT>
11

> <PUBCHEM_ATOM_UDEF_STEREO_COUNT>
0

> <PUBCHEM_BOND_DEF_STEREO_COUNT>
0

> <PUBCHEM_BOND_UDEF_STEREO_COUNT>
0

> <PUBCHEM_ISOTOPIC_ATOM_COUNT>
0

> <PUBCHEM_COMPONENT_COUNT>
1

> <PUBCHEM_CACTVS_TAUTO_COUNT>
6

> <PUBCHEM_CONFORMER_ID>
00B6B20200000002

> <PUBCHEM_MMFF94_ENERGY>
149.8365

> <PUBCHEM_FEATURE_SELFOVERLAP>
89.627

> <PUBCHEM_SHAPE_FINGERPRINT>
10863032 1 18114458946708318057
10906281 52 18188794806607754337
10948715 1 18409448081239759144
1100329 8 18125720346700359970
11370993 70 17240196634148131466
11578080 2 17099183005296999348
12011746 2 18410294756447930559
12035758 1 18268710695968928200
12236239 1 16988570125397876761
12788726 201 16770701707592416553
12969540 114 18337666524908285508
13140716 1 17976555115051456811
13224815 77 18412266103750956668
13583140 156 17458625674557394248
13911987 19 18336551624223024580
13965767 371 16266633969160791833
14223421 5 18194122910879688404
14787075 74 17917430994502172880
14790565 3 18342185495976500400
14955137 171 17631189613236107313
15209289 33 17846785134470454890
15848702 151 16988296287047020452
16945 1 18113622287337766992
17349148 13 17458351814230599686
17492 54 18341040925903941668
17980427 23 17603597338877969204
1813 80 18270977811473103412
18981168 100 12677746626147946890
19591789 44 18343017796413824534
20028762 73 17702380848142037703
20691752 17 18125975356267979926
20905425 154 18265331711968996474
21330990 113 18411142419941724428
21421861 104 17974861570475550875
22393880 68 18059559279156846557
23227448 37 18051418658827782276
23419403 2 16090028194866708379
23559900 14 18049437046473634930
238 59 18266150929651477661
2748010 2 18265617778355424080
296302 2 17385727980230913812
3493558 16 16950280706628939484
57527306 92 15985107422276789112
70251023 43 17912933781396772191
9709674 26 18049438136894038262

> <PUBCHEM_SHAPE_MULTIPOLES>
558.69
6.95
2.87
1.69
0.24
0.46
0.18
0.39
0.44
0.39
0.29
-0.35
0.06
0.41

> <PUBCHEM_SHAPE_SELFOVERLAP>
1282.033

> <PUBCHEM_SHAPE_VOLUME>
288.9

> <PUBCHEM_COORDINATE_TYPE>
2
5
10

$$$$
