REMARK  Name = 11972501
REMARK  7 active torsions:
REMARK  status: ('A' for Active; 'I' for Inactive)
REMARK    1  A    between atoms: C_10  and  O_19
REMARK    2  A    between atoms: O_19  and  C_21
REMARK    3  A    between atoms: C_21  and  C_22
REMARK    4  A    between atoms: C_22  and  C_24
REMARK    5  A    between atoms: C_23  and  C_27
REMARK    6  A    between atoms: C_24  and  O_25
REMARK    7  A    between atoms: C_27  and  O_28
REMARK                            x       y       z     vdW  Elec       q    Type
REMARK                         _______ _______ _______ _____ _____    ______ ____
ROOT
ATOM      1  O   UNL     1      -4.320   0.355  -0.495  0.00  0.00    -0.352 OA
ATOM      2  O   UNL     1      -2.710   2.179   0.766  0.00  0.00    -0.446 OA
ATOM      3  O   UNL     1      -2.240   4.258  -0.100  0.00  0.00    -0.245 OA
ATOM      4  C   UNL     1      -3.858  -0.992  -0.427  0.00  0.00    +0.122 C 
ATOM      5  C   UNL     1      -2.888   0.184  -0.552  0.00  0.00    +0.180 C 
ATOM      6  C   UNL     1      -2.166   0.844   0.598  0.00  0.00    +0.206 C 
ATOM      7  C   UNL     1      -0.660   1.087   0.414  0.00  0.00    +0.112 C 
ATOM      8  C   UNL     1      -4.203  -1.697   0.853  0.00  0.00    +0.034 C 
ATOM      9  C   UNL     1      -4.174  -1.749  -1.676  0.00  0.00    +0.032 C 
ATOM     10  C   UNL     1       0.248  -0.025  -0.159  0.00  0.00    +0.181 C 
ATOM     11  C   UNL     1      -3.255  -2.869   1.145  0.00  0.00    +0.028 C 
ATOM     12  C   UNL     1      -0.730   2.382  -0.345  0.00  0.00    +0.060 C 
ATOM     13  C   UNL     1       0.276  -1.345   0.644  0.00  0.00    +0.066 C 
ATOM     14  C   UNL     1      -1.955   3.090   0.087  0.00  0.00    +0.337 C 
ATOM     15  C   UNL     1      -1.865  -2.341   1.340  0.00  0.00    -0.034 C 
ATOM     16  C   UNL     1      -0.914  -2.235   0.393  0.00  0.00    -0.045 C 
ATOM     17  C   UNL     1       0.046   2.902  -1.300  0.00  0.00    +0.002 C 
ATOM     18  C   UNL     1      -0.972  -2.876  -0.967  0.00  0.00    +0.026 C 
ENDROOT
BRANCH  10  19
ATOM     19  O   UNL     1       1.597   0.473  -0.124  0.00  0.00    -0.449 OA
BRANCH  19  21
ATOM     20  O   UNL     1       2.377  -1.193  -1.506  0.00  0.00    -0.245 OA
ATOM     21  C   UNL     1       2.542  -0.365  -0.621  0.00  0.00    +0.339 C 
BRANCH  21  22
ATOM     22  C   UNL     1       3.839  -0.120   0.081  0.00  0.00    +0.081 C 
ATOM     23  C   UNL     1       4.949  -0.354  -0.646  0.00  0.00    +0.010 C 
BRANCH  22  24
ATOM     24  C   UNL     1       3.815   0.298   1.523  0.00  0.00    +0.170 C 
BRANCH  24  25
ATOM     25  O   UNL     1       3.817   1.717   1.601  0.00  0.00    -0.377 OA
ATOM     26  H   UNL     1       3.802   1.989   2.531  0.00  0.00    +0.211 HD
ENDBRANCH  24  25
ENDBRANCH  22  24
BRANCH  23  27
ATOM     27  C   UNL     1       6.369  -0.180  -0.205  0.00  0.00    +0.163 C 
BRANCH  27  28
ATOM     28  O   UNL     1       7.037  -1.429  -0.321  0.00  0.00    -0.377 OA
ATOM     29  H   UNL     1       7.959  -1.329  -0.038  0.00  0.00    +0.211 HD
ENDBRANCH  27  28
ENDBRANCH  23  27
ENDBRANCH  21  22
ENDBRANCH  19  21
ENDBRANCH  10  19
TORSDOF 7
