11972501
  -OEChem-03292013303D

 53 55  0     1  0  0  0  0  0999 V2000
   -4.3203    0.3547   -0.4955 O   0  0  0  0  0  0  0  0  0  0  0  0
   -2.7096    2.1787    0.7658 O   0  0  0  0  0  0  0  0  0  0  0  0
    1.5968    0.4734   -0.1238 O   0  0  0  0  0  0  0  0  0  0  0  0
   -2.2401    4.2585   -0.1000 O   0  0  0  0  0  0  0  0  0  0  0  0
    2.3772   -1.1933   -1.5060 O   0  0  0  0  0  0  0  0  0  0  0  0
    3.8169    1.7167    1.6007 O   0  0  0  0  0  0  0  0  0  0  0  0
    7.0367   -1.4285   -0.3211 O   0  0  0  0  0  0  0  0  0  0  0  0
   -3.8577   -0.9923   -0.4273 C   0  0  1  0  0  0  0  0  0  0  0  0
   -2.8881    0.1842   -0.5516 C   0  0  2  0  0  0  0  0  0  0  0  0
   -2.1661    0.8439    0.5975 C   0  0  1  0  0  0  0  0  0  0  0  0
   -0.6603    1.0866    0.4143 C   0  0  1  0  0  0  0  0  0  0  0  0
   -4.2034   -1.6968    0.8532 C   0  0  0  0  0  0  0  0  0  0  0  0
   -4.1740   -1.7486   -1.6758 C   0  0  0  0  0  0  0  0  0  0  0  0
    0.2482   -0.0249   -0.1589 C   0  0  2  0  0  0  0  0  0  0  0  0
   -3.2550   -2.8692    1.1446 C   0  0  0  0  0  0  0  0  0  0  0  0
   -0.7298    2.3824   -0.3450 C   0  0  0  0  0  0  0  0  0  0  0  0
    0.2761   -1.3447    0.6441 C   0  0  0  0  0  0  0  0  0  0  0  0
   -1.9549    3.0902    0.0871 C   0  0  0  0  0  0  0  0  0  0  0  0
   -1.8655   -2.3414    1.3396 C   0  0  0  0  0  0  0  0  0  0  0  0
   -0.9143   -2.2352    0.3934 C   0  0  0  0  0  0  0  0  0  0  0  0
    0.0457    2.9020   -1.3001 C   0  0  0  0  0  0  0  0  0  0  0  0
   -0.9723   -2.8757   -0.9669 C   0  0  0  0  0  0  0  0  0  0  0  0
    2.5422   -0.3654   -0.6211 C   0  0  0  0  0  0  0  0  0  0  0  0
    3.8391   -0.1201    0.0808 C   0  0  0  0  0  0  0  0  0  0  0  0
    3.8154    0.2979    1.5228 C   0  0  0  0  0  0  0  0  0  0  0  0
    4.9487   -0.3537   -0.6456 C   0  0  0  0  0  0  0  0  0  0  0  0
    6.3686   -0.1797   -0.2052 C   0  0  0  0  0  0  0  0  0  0  0  0
   -2.4271    0.3799   -1.5120 H   0  0  0  0  0  0  0  0  0  0  0  0
   -2.3461    0.3234    1.5402 H   0  0  0  0  0  0  0  0  0  0  0  0
   -0.2476    1.3627    1.3979 H   0  0  0  0  0  0  0  0  0  0  0  0
   -5.2286   -2.0824    0.7866 H   0  0  0  0  0  0  0  0  0  0  0  0
   -4.2031   -0.9962    1.6976 H   0  0  0  0  0  0  0  0  0  0  0  0
   -5.2564   -1.8957   -1.7633 H   0  0  0  0  0  0  0  0  0  0  0  0
   -3.8445   -1.2157   -2.5746 H   0  0  0  0  0  0  0  0  0  0  0  0
   -3.7075   -2.7353   -1.6935 H   0  0  0  0  0  0  0  0  0  0  0  0
   -0.0145   -0.2031   -1.2089 H   0  0  0  0  0  0  0  0  0  0  0  0
   -3.3099   -3.6275    0.3601 H   0  0  0  0  0  0  0  0  0  0  0  0
   -3.5699   -3.3692    2.0683 H   0  0  0  0  0  0  0  0  0  0  0  0
    0.3552   -1.0891    1.7105 H   0  0  0  0  0  0  0  0  0  0  0  0
    1.1642   -1.9598    0.4678 H   0  0  0  0  0  0  0  0  0  0  0  0
   -1.7046   -1.8473    2.2969 H   0  0  0  0  0  0  0  0  0  0  0  0
    0.9294    2.3894   -1.6602 H   0  0  0  0  0  0  0  0  0  0  0  0
   -0.1822    3.8583   -1.7599 H   0  0  0  0  0  0  0  0  0  0  0  0
   -1.6959   -3.6914   -1.0243 H   0  0  0  0  0  0  0  0  0  0  0  0
    0.0006   -3.3181   -1.2096 H   0  0  0  0  0  0  0  0  0  0  0  0
   -1.2095   -2.1405   -1.7404 H   0  0  0  0  0  0  0  0  0  0  0  0
    4.6725   -0.0873    2.0835 H   0  0  0  0  0  0  0  0  0  0  0  0
    2.9212   -0.0768    2.0312 H   0  0  0  0  0  0  0  0  0  0  0  0
    4.8460   -0.6711   -1.6827 H   0  0  0  0  0  0  0  0  0  0  0  0
    6.4753    0.1808    0.8205 H   0  0  0  0  0  0  0  0  0  0  0  0
    6.8710    0.5352   -0.8641 H   0  0  0  0  0  0  0  0  0  0  0  0
    4.6492    2.0346    1.2107 H   0  0  0  0  0  0  0  0  0  0  0  0
    6.6212   -2.0440    0.3071 H   0  0  0  0  0  0  0  0  0  0  0  0
  1  8  1  0  0  0  0
  1  9  1  0  0  0  0
  2 10  1  0  0  0  0
  2 18  1  0  0  0  0
  3 14  1  0  0  0  0
  3 23  1  0  0  0  0
  4 18  2  0  0  0  0
  5 23  2  0  0  0  0
  6 25  1  0  0  0  0
  6 52  1  0  0  0  0
  7 27  1  0  0  0  0
  7 53  1  0  0  0  0
  8  9  1  0  0  0  0
  8 12  1  0  0  0  0
  8 13  1  0  0  0  0
  9 10  1  0  0  0  0
  9 28  1  0  0  0  0
 10 11  1  0  0  0  0
 10 29  1  0  0  0  0
 11 14  1  0  0  0  0
 11 16  1  0  0  0  0
 11 30  1  0  0  0  0
 12 15  1  0  0  0  0
 12 31  1  0  0  0  0
 12 32  1  0  0  0  0
 13 33  1  0  0  0  0
 13 34  1  0  0  0  0
 13 35  1  0  0  0  0
 14 17  1  0  0  0  0
 14 36  1  0  0  0  0
 15 19  1  0  0  0  0
 15 37  1  0  0  0  0
 15 38  1  0  0  0  0
 16 18  1  0  0  0  0
 16 21  2  0  0  0  0
 17 20  1  0  0  0  0
 17 39  1  0  0  0  0
 17 40  1  0  0  0  0
 19 20  2  0  0  0  0
 19 41  1  0  0  0  0
 20 22  1  0  0  0  0
 21 42  1  0  0  0  0
 21 43  1  0  0  0  0
 22 44  1  0  0  0  0
 22 45  1  0  0  0  0
 22 46  1  0  0  0  0
 23 24  1  0  0  0  0
 24 25  1  0  0  0  0
 24 26  2  0  0  0  0
 25 47  1  0  0  0  0
 25 48  1  0  0  0  0
 26 27  1  0  0  0  0
 26 49  1  0  0  0  0
 27 50  1  0  0  0  0
 27 51  1  0  0  0  0
M  END
> <PUBCHEM_COMPOUND_CID>
11972501

> <PUBCHEM_CONFORMER_RMSD>
0.8

> <PUBCHEM_CONFORMER_DIVERSEORDER>
1
135
70
88
62
108
126
134
130
85
123
140
122
103
54
120
40
57
111
109
31
34
51
50
106
129
36
124
87
21
121
128
113
59
98
79
117
86
115
89
112
84
73
53
19
141
52
95
71
91
49
132
45
44
118
133
43
48
60
127
47
82
15
10
81
64
38
72
114
137
105
104
61
110
100
76
65
39
83
94
33
68
101
90
136
41
96
77
30
125
138
56
11
102
97
116
13
78
27
131
18
32
28
80
55
107
75
12
24
119
69
22
7
93
46
58
37
99
4
35
3
139
66
74
25
14
9
16
8
92
2
20
42
6
63
26
67
23
5
29
17

> <PUBCHEM_MMFF94_PARTIAL_CHARGES>
34
1 -0.3
10 0.38
11 0.14
12 0.09
13 0.09
14 0.28
15 0.14
16 -0.12
17 0.14
18 0.71
19 -0.29
2 -0.43
20 -0.28
21 -0.3
22 0.14
23 0.71
24 -0.12
25 0.42
26 -0.29
27 0.42
28 0.1
3 -0.43
4 -0.57
41 0.15
42 0.15
43 0.15
49 0.15
5 -0.57
52 0.4
53 0.4
6 -0.68
7 -0.68
8 -0.04
9 -0.05

> <PUBCHEM_EFFECTIVE_ROTOR_COUNT>
6.2

> <PUBCHEM_PHARMACOPHORE_FEATURES>
8
1 1 acceptor
1 4 acceptor
1 5 acceptor
1 6 acceptor
1 6 donor
1 7 acceptor
1 7 donor
5 2 10 11 16 18 rings

> <PUBCHEM_HEAVY_ATOM_COUNT>
27

> <PUBCHEM_ATOM_DEF_STEREO_COUNT>
4

> <PUBCHEM_ATOM_UDEF_STEREO_COUNT>
1

> <PUBCHEM_BOND_DEF_STEREO_COUNT>
2

> <PUBCHEM_BOND_UDEF_STEREO_COUNT>
0

> <PUBCHEM_ISOTOPIC_ATOM_COUNT>
0

> <PUBCHEM_COMPONENT_COUNT>
1

> <PUBCHEM_CACTVS_TAUTO_COUNT>
1

> <PUBCHEM_CONFORMER_ID>
00B6AF9500000001

> <PUBCHEM_MMFF94_ENERGY>
67.695

> <PUBCHEM_FEATURE_SELFOVERLAP>
40.599

> <PUBCHEM_SHAPE_FINGERPRINT>
10319926 262 18339629063602568586
10366900 7 18412542115866987586
10411042 1 18192720157629508787
1100329 8 18335147522595238601
11115154 58 17916566732199678837
12107183 9 17684362859587879090
12166972 35 17531814669949219366
12236239 1 17313104168365772010
12553582 1 18196103350533424365
12788726 201 18334851706121216898
13140716 1 18264782115480342401
13782708 43 18131073715136656758
14955137 171 18193284211394670219
15230672 131 17902800653062174934
15880784 105 17274537745047776447
17349148 13 18261109699019076526
17357779 13 18342735264716708491
18927931 339 18413114952323629358
20775438 99 16831463340321750039
21033648 29 18060412547408752026
21236236 1 18340491080027647662
23402539 116 18411416219680164406
23557571 272 18342179921298399460
23559900 14 18337106869263585544
283562 15 18411699842662476451
3380486 145 17914334838208976403
484989 97 17971187269917130959
508706 21 18339653230835156846
59755656 215 18339359647870703206
7226269 152 18333448755038140667
81228 2 18408895026706488569
9709674 26 18342184319381840462

> <PUBCHEM_SHAPE_MULTIPOLES>
514.56
10.93
3.89
1.32
19.01
3
0
-5.04
-0.66
-4.14
0.03
-0.11
-0.35
0.7

> <PUBCHEM_SHAPE_SELFOVERLAP>
1073.709

> <PUBCHEM_SHAPE_VOLUME>
290.8

> <PUBCHEM_COORDINATE_TYPE>
2
5
10

$$$$
