REMARK  Name = 119714
REMARK  7 active torsions:
REMARK  status: ('A' for Active; 'I' for Inactive)
REMARK    1  A    between atoms: C_1  and  N_11
REMARK    2  A    between atoms: C_2  and  O_7
REMARK    3  A    between atoms: C_3  and  O_9
REMARK    4  A    between atoms: C_5  and  N_22
REMARK    5  A    between atoms: N_11  and  N_12
REMARK    6  A    between atoms: N_12  and  C_13
REMARK    7  A    between atoms: C_14  and  N_21
REMARK                            x       y       z     vdW  Elec       q    Type
REMARK                         _______ _______ _______ _____ _____    ______ ____
ROOT
ATOM      1  C   UNL     1      -1.399  -0.093  -0.190  0.00  0.00    +0.126 C 
ATOM      2  C   UNL     1      -2.033  -1.319  -0.006  0.00  0.00    +0.157 C 
ATOM      3  C   UNL     1      -3.511   1.046   0.045  0.00  0.00    +0.157 C 
ATOM      4  C   UNL     1      -2.133   1.090  -0.165  0.00  0.00    +0.059 C 
ATOM      5  C   UNL     1      -4.151  -0.179   0.230  0.00  0.00    +0.124 C 
ATOM      6  C   UNL     1      -3.412  -1.362   0.204  0.00  0.00    +0.059 C 
ENDROOT
BRANCH   2   7
ATOM      7  O   UNL     1      -1.327  -2.484  -0.027  0.00  0.00    -0.470 OA
ATOM      8  C   UNL     1      -1.178  -3.129  -1.290  0.00  0.00    +0.253 C 
ENDBRANCH   2   7
BRANCH   3   9
ATOM      9  O   UNL     1      -4.221   2.210   0.067  0.00  0.00    -0.470 OA
ATOM     10  C   UNL     1      -4.745   2.672  -1.176  0.00  0.00    +0.253 C 
ENDBRANCH   3   9
BRANCH   5  11
ATOM     11  N   UNL     1      -5.515  -0.236   0.438  0.00  0.00    -0.126 NA
ATOM     12  N   UNL     1      -6.593  -0.280   0.602  0.00  0.00    +0.004 NA
ENDBRANCH   5  11
BRANCH   1  13
ATOM     13  N   UNL     1      -0.011  -0.035  -0.402  0.00  0.00    -0.125 NA
BRANCH  13  14
ATOM     14  N   UNL     1       0.586   0.066   0.695  0.00  0.00    -0.128 NA
BRANCH  14  15
ATOM     15  C   UNL     1       1.967   0.124   0.484  0.00  0.00    +0.089 C 
ATOM     16  C   UNL     1       4.722   0.239   0.060  0.00  0.00    +0.143 C 
ATOM     17  C   UNL     1       2.594   1.357   0.301  0.00  0.00    +0.020 C 
ATOM     18  C   UNL     1       2.718  -1.051   0.455  0.00  0.00    +0.020 C 
ATOM     19  C   UNL     1       3.971   1.415   0.089  0.00  0.00    +0.025 C 
ATOM     20  C   UNL     1       4.096  -0.993   0.243  0.00  0.00    +0.025 C 
BRANCH  16  23
ATOM     21  O   UNL     1       6.668   1.417  -0.320  0.00  0.00    -0.126 OA
ATOM     22  O   UNL     1       6.781  -0.771  -0.179  0.00  0.00    -0.126 OA
ATOM     23  N   UNL     1       6.124   0.298  -0.157  0.00  0.00    +0.058 N 
ENDBRANCH  16  23
ENDBRANCH  14  15
ENDBRANCH  13  14
ENDBRANCH   1  13
TORSDOF 7
