11984561
  -OEChem-03292013303D

 37 37  0     0  0  0  0  0  0999 V2000
   -3.2113    5.3144    0.1253 Br  0  0  0  0  0  0  0  0  0  0  0  0
   -1.9682   -5.5818    0.0379 Br  0  0  0  0  0  0  0  0  0  0  0  0
   -2.4763   -0.1193   -0.5926 P   0  0  0  0  0  0  0  0  0  0  0  0
   -0.8514    0.0135   -0.5088 O   0  0  0  0  0  0  0  0  0  0  0  0
   -2.9019   -0.1304   -2.0425 O   0  0  0  0  0  0  0  0  0  0  0  0
    5.4704   -0.2039   -0.8834 O   0  5  0  0  0  0  0  0  0  0  0  0
    4.8618    1.6811    0.0727 O   0  0  0  0  0  0  0  0  0  0  0  0
   -3.0925    1.1508    0.2925 N   0  0  0  0  0  0  0  0  0  0  0  0
   -2.8553   -1.5133    0.2374 N   0  0  0  0  0  0  0  0  0  0  0  0
    2.2127    0.6188    0.1944 N   0  0  0  0  0  0  0  0  0  0  0  0
    3.2074   -1.3633    0.3120 N   0  0  0  0  0  0  0  0  0  0  0  0
    4.6161    0.4857   -0.2568 N   0  3  0  0  0  0  0  0  0  0  0  0
   -0.1977    0.1130    0.7459 C   0  0  0  0  0  0  0  0  0  0  0  0
    1.2321   -0.2727    0.5271 C   0  0  0  0  0  0  0  0  0  0  0  0
   -2.9064    2.5067   -0.2035 C   0  0  0  0  0  0  0  0  0  0  0  0
   -2.4386   -2.7987   -0.3047 C   0  0  0  0  0  0  0  0  0  0  0  0
    1.8700   -1.4890    0.5934 C   0  0  0  0  0  0  0  0  0  0  0  0
    3.3807   -0.0817    0.0759 C   0  0  0  0  0  0  0  0  0  0  0  0
    2.0412    2.0416    0.0039 C   0  0  0  0  0  0  0  0  0  0  0  0
   -3.4086    3.5058    0.8218 C   0  0  0  0  0  0  0  0  0  0  0  0
   -2.5843   -3.8774    0.7522 C   0  0  0  0  0  0  0  0  0  0  0  0
   -0.3030    1.1245    1.1470 H   0  0  0  0  0  0  0  0  0  0  0  0
   -0.6514   -0.5784    1.4636 H   0  0  0  0  0  0  0  0  0  0  0  0
   -2.8795    1.1245    1.2895 H   0  0  0  0  0  0  0  0  0  0  0  0
   -3.8201   -1.5887    0.5590 H   0  0  0  0  0  0  0  0  0  0  0  0
   -3.4437    2.6233   -1.1513 H   0  0  0  0  0  0  0  0  0  0  0  0
   -1.8438    2.6847   -0.4054 H   0  0  0  0  0  0  0  0  0  0  0  0
   -3.0389   -3.0365   -1.1902 H   0  0  0  0  0  0  0  0  0  0  0  0
   -1.3932   -2.7373   -0.6288 H   0  0  0  0  0  0  0  0  0  0  0  0
    1.4352   -2.4500    0.8283 H   0  0  0  0  0  0  0  0  0  0  0  0
    2.3765    2.5539    0.9088 H   0  0  0  0  0  0  0  0  0  0  0  0
    2.6154    2.3621   -0.8691 H   0  0  0  0  0  0  0  0  0  0  0  0
    0.9934    2.2763   -0.1923 H   0  0  0  0  0  0  0  0  0  0  0  0
   -2.8368    3.4683    1.7536 H   0  0  0  0  0  0  0  0  0  0  0  0
   -4.4724    3.3747    1.0408 H   0  0  0  0  0  0  0  0  0  0  0  0
   -3.6252   -4.0242    1.0547 H   0  0  0  0  0  0  0  0  0  0  0  0
   -1.9724   -3.6747    1.6363 H   0  0  0  0  0  0  0  0  0  0  0  0
  1 20  1  0  0  0  0
  2 21  1  0  0  0  0
  3  4  1  0  0  0  0
  3  5  2  0  0  0  0
  3  8  1  0  0  0  0
  3  9  1  0  0  0  0
  4 13  1  0  0  0  0
  6 12  1  0  0  0  0
  7 12  2  0  0  0  0
  8 15  1  0  0  0  0
  8 24  1  0  0  0  0
  9 16  1  0  0  0  0
  9 25  1  0  0  0  0
 10 14  1  0  0  0  0
 10 18  1  0  0  0  0
 10 19  1  0  0  0  0
 11 17  1  0  0  0  0
 11 18  2  0  0  0  0
 12 18  1  0  0  0  0
 13 14  1  0  0  0  0
 13 22  1  0  0  0  0
 13 23  1  0  0  0  0
 14 17  2  0  0  0  0
 15 20  1  0  0  0  0
 15 26  1  0  0  0  0
 15 27  1  0  0  0  0
 16 21  1  0  0  0  0
 16 28  1  0  0  0  0
 16 29  1  0  0  0  0
 17 30  1  0  0  0  0
 19 31  1  0  0  0  0
 19 32  1  0  0  0  0
 19 33  1  0  0  0  0
 20 34  1  0  0  0  0
 20 35  1  0  0  0  0
 21 36  1  0  0  0  0
 21 37  1  0  0  0  0
M  CHG  2   6  -1  12   1
M  END
> <PUBCHEM_COMPOUND_CID>
11984561

> <PUBCHEM_CONFORMER_RMSD>
1

> <PUBCHEM_CONFORMER_DIVERSEORDER>
1
30
8
35
23
19
21
14
18
32
34
36
17
25
12
41
31
10
24
28
39
7
37
11
27
38
22
3
5
29
13
33
20
15
40
16
9
26
2
6
4

> <PUBCHEM_MMFF94_PARTIAL_CHARGES>
24
1 -0.23
10 0.05
11 -0.57
12 0.96
13 0.46
14 -0.33
15 0.27
16 0.27
17 0.08
18 0.27
19 0.26
2 -0.23
20 0.23
21 0.23
24 0.36
25 0.36
3 1.51
30 0.15
4 -0.55
5 -0.7
6 -0.52
7 -0.52
8 -0.9
9 -0.9

> <PUBCHEM_EFFECTIVE_ROTOR_COUNT>
10

> <PUBCHEM_PHARMACOPHORE_FEATURES>
6
1 1 hydrophobe
1 2 hydrophobe
1 6 acceptor
1 7 acceptor
4 10 11 12 18 cation
5 10 11 14 17 18 rings

> <PUBCHEM_HEAVY_ATOM_COUNT>
21

> <PUBCHEM_ATOM_DEF_STEREO_COUNT>
0

> <PUBCHEM_ATOM_UDEF_STEREO_COUNT>
0

> <PUBCHEM_BOND_DEF_STEREO_COUNT>
0

> <PUBCHEM_BOND_UDEF_STEREO_COUNT>
0

> <PUBCHEM_ISOTOPIC_ATOM_COUNT>
0

> <PUBCHEM_COMPONENT_COUNT>
1

> <PUBCHEM_CACTVS_TAUTO_COUNT>
2

> <PUBCHEM_CONFORMER_ID>
00B6DEB100000001

> <PUBCHEM_MMFF94_ENERGY>
14.1103

> <PUBCHEM_FEATURE_SELFOVERLAP>
30.526

> <PUBCHEM_SHAPE_FINGERPRINT>
10756046 70 16760536615719890029
107951 10 18198634241617400111
11014199 57 18265057027183002836
11036077 51 18338513037203228587
11056379 131 18338806700959748934
12173636 292 18338230471378456757
12788726 201 18339626907175862595
138480 1 16825307711334587251
14178342 30 18337091432987405578
14790565 3 18121504557243155912
18785283 64 17471856901307354635
19930381 70 17617658104170141169
21524375 3 17913762830945221205
221490 88 18122627412434670290
23402655 69 18267304236204110700
23557571 272 18338233898451382719

> <PUBCHEM_SHAPE_MULTIPOLES>
399.52
9.05
7.33
0.96
10.74
6.54
0.27
-8.82
0.97
-11.45
-1.02
-0.51
0.12
-0.64

> <PUBCHEM_SHAPE_SELFOVERLAP>
748.338

> <PUBCHEM_SHAPE_VOLUME>
254.7

> <PUBCHEM_COORDINATE_TYPE>
2
5
10

$$$$
