REMARK  Name = 11984561
REMARK  9 active torsions:
REMARK  status: ('A' for Active; 'I' for Inactive)
REMARK    1  A    between atoms: P_1  and  N_3
REMARK    2  A    between atoms: P_1  and  N_8
REMARK    3  A    between atoms: P_1  and  O_13
REMARK    4  A    between atoms: N_3  and  C_5
REMARK    5  A    between atoms: C_5  and  C_7
REMARK    6  A    between atoms: N_8  and  C_10
REMARK    7  A    between atoms: C_10  and  C_12
REMARK    8  A    between atoms: O_13  and  C_14
REMARK    9  A    between atoms: C_14  and  C_20
REMARK                            x       y       z     vdW  Elec       q    Type
REMARK                         _______ _______ _______ _____ _____    ______ ____
ROOT
ATOM      1  P   UNL     1      -2.476  -0.119  -0.593  0.00  0.00    +0.345 P 
ATOM      2  O   UNL     1      -2.902  -0.130  -2.042  0.00  0.00    -0.254 OA
ENDROOT
BRANCH   1   3
ATOM      3  N   UNL     1      -3.092   1.151   0.292  0.00  0.00    -0.222 NA
ATOM      4  H   UNL     1      -2.663   1.108   1.217  0.00  0.00    +0.133 HD
BRANCH   3   5
ATOM      5  C   UNL     1      -2.906   2.507  -0.203  0.00  0.00    +0.090 C 
BRANCH   5   7
ATOM      6 BR   UNL     1      -3.211   5.314   0.125  0.00  0.00    -0.079 Br
ATOM      7  C   UNL     1      -3.409   3.506   0.822  0.00  0.00    +0.085 C 
ENDBRANCH   5   7
ENDBRANCH   3   5
ENDBRANCH   1   3
BRANCH   1   8
ATOM      8  N   UNL     1      -2.855  -1.513   0.237  0.00  0.00    -0.222 NA
ATOM      9  H   UNL     1      -3.871  -1.542   0.324  0.00  0.00    +0.133 HD
BRANCH   8  10
ATOM     10  C   UNL     1      -2.439  -2.799  -0.305  0.00  0.00    +0.090 C 
BRANCH  10  12
ATOM     11 BR   UNL     1      -1.968  -5.582   0.038  0.00  0.00    -0.079 Br
ATOM     12  C   UNL     1      -2.584  -3.877   0.752  0.00  0.00    +0.085 C 
ENDBRANCH  10  12
ENDBRANCH   8  10
ENDBRANCH   1   8
BRANCH   1  13
ATOM     13  O   UNL     1      -0.851   0.013  -0.509  0.00  0.00    -0.286 OA
BRANCH  13  14
ATOM     14  C   UNL     1      -0.198   0.113   0.746  0.00  0.00    +0.194 C 
BRANCH  14  20
ATOM     15  O   UNL     1       5.470  -0.204  -0.883  0.00  0.00    -0.123 OA
ATOM     16  O   UNL     1       4.862   1.681   0.073  0.00  0.00    -0.123 OA
ATOM     17  N   UNL     1       2.213   0.619   0.194  0.00  0.00    -0.252 N 
ATOM     18  N   UNL     1       3.207  -1.363   0.312  0.00  0.00    -0.207 NA
ATOM     19  N   UNL     1       4.616   0.486  -0.257  0.00  0.00    +0.091 N 
ATOM     20  C   UNL     1       1.232  -0.273   0.527  0.00  0.00    +0.081 C 
ATOM     21  C   UNL     1       1.870  -1.489   0.593  0.00  0.00    +0.115 C 
ATOM     22  C   UNL     1       3.381  -0.082   0.076  0.00  0.00    +0.284 C 
ATOM     23  C   UNL     1       2.041   2.042   0.004  0.00  0.00    +0.120 C 
ENDBRANCH  14  20
ENDBRANCH  13  14
ENDBRANCH   1  13
TORSDOF 9
