REMARK  Name = 11982428
REMARK  6 active torsions:
REMARK  status: ('A' for Active; 'I' for Inactive)
REMARK    1  A    between atoms: C_5  and  C_16
REMARK    2  A    between atoms: C_6  and  C_28
REMARK    3  A    between atoms: C_10  and  O_26
REMARK    4  A    between atoms: C_19  and  O_22
REMARK    5  A    between atoms: C_21  and  O_24
REMARK    6  A    between atoms: C_28  and  O_29
REMARK                            x       y       z     vdW  Elec       q    Type
REMARK                         _______ _______ _______ _____ _____    ______ ____
ROOT
ATOM      1  O   UNL     1       0.041   0.371   0.391  0.00  0.00    -0.465 OA
ATOM      2  O   UNL     1       0.867  -2.377   0.203  0.00  0.00    -0.466 OA
ATOM      3  O   UNL     1       1.883   2.349   0.191  0.00  0.00    -0.418 OA
ATOM      4  O   UNL     1       2.411   4.578   0.156  0.00  0.00    -0.244 OA
ATOM      5  C   UNL     1      -0.801  -0.718   0.808  0.00  0.00    +0.231 C 
ATOM      6  C   UNL     1      -0.492  -1.968  -0.031  0.00  0.00    +0.239 C 
ATOM      7  C   UNL     1       1.346   0.000   0.226  0.00  0.00    +0.210 C 
ATOM      8  C   UNL     1       1.747  -1.332   0.145  0.00  0.00    +0.209 C 
ATOM      9  C   UNL     1       2.309   1.005   0.126  0.00  0.00    +0.186 C 
ATOM     10  C   UNL     1       3.101  -1.650   0.010  0.00  0.00    +0.176 C 
ATOM     11  C   UNL     1       3.661   0.705  -0.024  0.00  0.00    +0.041 C 
ATOM     12  C   UNL     1       4.056  -0.634  -0.076  0.00  0.00    +0.043 C 
ATOM     13  C   UNL     1       4.618   1.795  -0.115  0.00  0.00    +0.010 C 
ATOM     14  C   UNL     1       4.203   3.063  -0.055  0.00  0.00    +0.082 C 
ATOM     15  C   UNL     1       2.779   3.410   0.104  0.00  0.00    +0.346 C 
ENDROOT
BRANCH   5  16
ATOM     16  C   UNL     1      -2.231  -0.238   0.684  0.00  0.00    +0.024 C 
ATOM     17  C   UNL     1      -2.754   0.079  -0.570  0.00  0.00    +0.039 C 
ATOM     18  C   UNL     1      -3.025  -0.111   1.824  0.00  0.00    +0.003 C 
ATOM     19  C   UNL     1      -4.071   0.522  -0.684  0.00  0.00    +0.172 C 
ATOM     20  C   UNL     1      -4.342   0.333   1.710  0.00  0.00    +0.040 C 
ATOM     21  C   UNL     1      -4.865   0.649   0.456  0.00  0.00    +0.168 C 
BRANCH  19  22
ATOM     22  O   UNL     1      -4.572   0.827  -1.913  0.00  0.00    -0.468 OA
ATOM     23  C   UNL     1      -4.418   2.173  -2.360  0.00  0.00    +0.253 C 
ENDBRANCH  19  22
BRANCH  21  24
ATOM     24  O   UNL     1      -6.154   1.080   0.357  0.00  0.00    -0.503 OA
ATOM     25  H   UNL     1      -6.513   1.294  -0.481  0.00  0.00    +0.292 HD
ENDBRANCH  21  24
ENDBRANCH   5  16
BRANCH  10  26
ATOM     26  O   UNL     1       3.507  -2.950  -0.052  0.00  0.00    -0.468 OA
ATOM     27  C   UNL     1       3.580  -3.544  -1.346  0.00  0.00    +0.253 C 
ENDBRANCH  10  26
BRANCH   6  28
ATOM     28  C   UNL     1      -1.369  -3.163   0.334  0.00  0.00    +0.185 C 
BRANCH  28  29
ATOM     29  O   UNL     1      -1.015  -4.252  -0.498  0.00  0.00    -0.378 OA
ATOM     30  H   UNL     1      -1.565  -5.020  -0.278  0.00  0.00    +0.211 HD
ENDBRANCH  28  29
ENDBRANCH   6  28
TORSDOF 6
