REMARK  Name = 11982272
REMARK  8 active torsions:
REMARK  status: ('A' for Active; 'I' for Inactive)
REMARK    1  A    between atoms: C_5  and  C_29
REMARK    2  A    between atoms: C_6  and  O_39
REMARK    3  A    between atoms: C_8  and  C_14
REMARK    4  A    between atoms: C_15  and  O_23
REMARK    5  A    between atoms: C_20  and  O_25
REMARK    6  A    between atoms: C_21  and  O_27
REMARK    7  A    between atoms: C_32  and  O_35
REMARK    8  A    between atoms: C_34  and  O_37
REMARK                            x       y       z     vdW  Elec       q    Type
REMARK                         _______ _______ _______ _____ _____    ______ ____
ROOT
ATOM      1  O   UNL     1      -2.116   3.308  -1.867  0.00  0.00    -0.329 OA
ATOM      2  O   UNL     1      -2.713   4.022   1.061  0.00  0.00    -0.291 OA
ATOM      3  C   UNL     1      -1.852   0.991  -1.458  0.00  0.00    +0.043 C 
ATOM      4  C   UNL     1      -0.636   1.732  -0.867  0.00  0.00    +0.083 C 
ATOM      5  C   UNL     1      -2.969   0.828  -0.351  0.00  0.00    +0.036 C 
ATOM      6  C   UNL     1      -1.290   3.127  -0.708  0.00  0.00    +0.241 C 
ATOM      7  C   UNL     1      -2.542   1.602   0.931  0.00  0.00    +0.088 C 
ATOM      8  C   UNL     1      -0.216   1.164   0.470  0.00  0.00    -0.001 C 
ATOM      9  C   UNL     1      -2.283   2.027  -2.496  0.00  0.00    +0.146 C 
ATOM     10  C   UNL     1      -2.251   3.038   0.493  0.00  0.00    +0.205 C 
ATOM     11  C   UNL     1      -1.189   1.126   1.397  0.00  0.00    -0.023 C 
ENDROOT
BRANCH   8  14
ATOM     12  O   UNL     1       1.425  -0.383  -0.211  0.00  0.00    -0.472 OA
ATOM     13  O   UNL     1       4.506   2.030   1.016  0.00  0.00    -0.288 OA
ATOM     14  C   UNL     1       1.197   0.717   0.680  0.00  0.00    +0.218 C 
ATOM     15  C   UNL     1       2.176   1.856   0.409  0.00  0.00    +0.217 C 
ATOM     16  C   UNL     1       3.587   1.339   0.592  0.00  0.00    +0.209 C 
ATOM     17  C   UNL     1       2.717  -0.838  -0.206  0.00  0.00    +0.148 C 
ATOM     18  C   UNL     1       3.810  -0.063   0.187  0.00  0.00    +0.105 C 
ATOM     19  C   UNL     1       2.920  -2.145  -0.652  0.00  0.00    +0.074 C 
ATOM     20  C   UNL     1       5.100  -0.599   0.170  0.00  0.00    +0.142 C 
ATOM     21  C   UNL     1       4.208  -2.682  -0.674  0.00  0.00    +0.140 C 
ATOM     22  C   UNL     1       5.295  -1.912  -0.260  0.00  0.00    +0.073 C 
BRANCH  15  23
ATOM     23  O   UNL     1       1.970   2.912   1.331  0.00  0.00    -0.374 OA
ATOM     24  H   UNL     1       1.070   3.258   1.231  0.00  0.00    +0.211 HD
ENDBRANCH  15  23
BRANCH  20  25
ATOM     25  O   UNL     1       6.199   0.113   0.546  0.00  0.00    -0.505 OA
ATOM     26  H   UNL     1       6.105   0.998   0.840  0.00  0.00    +0.292 HD
ENDBRANCH  20  25
BRANCH  21  27
ATOM     27  O   UNL     1       4.404  -3.960  -1.102  0.00  0.00    -0.505 OA
ATOM     28  H   UNL     1       3.674  -4.478  -1.380  0.00  0.00    +0.292 HD
ENDBRANCH  21  27
ENDBRANCH   8  14
BRANCH   5  29
ATOM     29  C   UNL     1      -3.361  -0.607  -0.028  0.00  0.00    -0.018 C 
ATOM     30  C   UNL     1      -2.416  -1.623  -0.137  0.00  0.00    +0.036 C 
ATOM     31  C   UNL     1      -4.663  -0.894   0.373  0.00  0.00    -0.001 C 
ATOM     32  C   UNL     1      -2.775  -2.938   0.159  0.00  0.00    +0.172 C 
ATOM     33  C   UNL     1      -5.022  -2.209   0.668  0.00  0.00    +0.039 C 
ATOM     34  C   UNL     1      -4.078  -3.231   0.561  0.00  0.00    +0.168 C 
BRANCH  32  35
ATOM     35  O   UNL     1      -1.845  -3.927   0.051  0.00  0.00    -0.468 OA
ATOM     36  C   UNL     1      -0.536  -3.543  -0.366  0.00  0.00    +0.253 C 
ENDBRANCH  32  35
BRANCH  34  37
ATOM     37  O   UNL     1      -4.441  -4.511   0.853  0.00  0.00    -0.503 OA
ATOM     38  H   UNL     1      -3.813  -5.203   0.784  0.00  0.00    +0.292 HD
ENDBRANCH  34  37
ENDBRANCH   5  29
BRANCH   6  39
ATOM     39  O   UNL     1      -0.318   4.131  -0.566  0.00  0.00    -0.358 OA
ATOM     40  H   UNL     1       0.255   4.140  -1.348  0.00  0.00    +0.213 HD
ENDBRANCH   6  39
TORSDOF 8
