REMARK  Name = 11995774
REMARK  5 active torsions:
REMARK  status: ('A' for Active; 'I' for Inactive)
REMARK    1  A    between atoms: N_2  and  C_16
REMARK    2  A    between atoms: C_6  and  C_38
REMARK    3  A    between atoms: C_13  and  C_32
REMARK    4  A    between atoms: N_15  and  C_22
REMARK    5  A    between atoms: C_22  and  C_24
REMARK                            x       y       z     vdW  Elec       q    Type
REMARK                         _______ _______ _______ _____ _____    ______ ____
ROOT
ATOM      1 CL   UNL     1       4.149   0.843   2.459  0.00  0.00    -0.044 Cl
ATOM      2  N   UNL     1      -0.182   0.434  -0.202  0.00  0.00    +0.392 N 
ATOM      3  N   UNL     1       2.627   0.021  -0.049  0.00  0.00    -0.285 N 
ATOM      4  N   UNL     1       4.566  -0.871  -1.115  0.00  0.00    -0.366 NA
ATOM      5  N   UNL     1       6.107  -0.175   1.122  0.00  0.00    -0.378 NA
ATOM      6  C   UNL     1       0.733   1.506  -0.633  0.00  0.00    -0.038 C 
ATOM      7  C   UNL     1       0.379  -0.378   0.881  0.00  0.00    -0.055 C 
ATOM      8  C   UNL     1       2.070   0.890  -1.091  0.00  0.00    +0.072 C 
ATOM      9  C   UNL     1       1.715  -1.002   0.474  0.00  0.00    +0.070 C 
ATOM     10  C   UNL     1       3.997  -0.261  -0.038  0.00  0.00    +0.226 C 
ATOM     11  C   UNL     1       4.784   0.074   1.061  0.00  0.00    +0.233 C 
ATOM     12  C   UNL     1       5.889  -1.121  -1.055  0.00  0.00    +0.213 C 
ATOM     13  C   UNL     1       6.646  -0.779   0.044  0.00  0.00    +0.228 C 
ATOM     14  H   UNL     1      -0.290  -0.170  -1.016  0.00  0.00    -0.079 HD
ATOM     15  N   UNL     1       6.512  -1.753  -2.154  0.00  0.00    -0.331 N 
ATOM     16  H   UNL     1       5.981  -2.002  -2.945  0.00  0.00    +0.145 HD
ATOM     17  H   UNL     1       7.477  -1.945  -2.130  0.00  0.00    +0.145 HD
ENDROOT
BRANCH   2  19
ATOM     18  N   UNL     1      -4.379   1.056  -0.456  0.00  0.00    +0.390 N 
ATOM     19  C   UNL     1      -1.517   0.920   0.140  0.00  0.00    -0.062 C 
ATOM     20  C   UNL     1      -2.079   1.810  -0.972  0.00  0.00    -0.044 C 
ATOM     21  C   UNL     1      -2.461  -0.259   0.392  0.00  0.00    -0.044 C 
ATOM     22  C   UNL     1      -3.519   2.229  -0.665  0.00  0.00    -0.079 C 
ATOM     23  C   UNL     1      -3.889   0.228   0.655  0.00  0.00    -0.079 C 
ATOM     24  H   UNL     1      -4.351   0.491  -1.304  0.00  0.00    -0.079 HD
BRANCH  18  25
ATOM     25  C   UNL     1      -5.761   1.471  -0.213  0.00  0.00    -0.050 C 
BRANCH  25  27
ATOM     26 CL   UNL     1      -9.451  -3.231   0.325  0.00  0.00    -0.082 Cl
ATOM     27  C   UNL     1      -6.686   0.291  -0.079  0.00  0.00    -0.043 C 
ATOM     28  C   UNL     1      -7.308  -0.222  -1.208  0.00  0.00    -0.005 C 
ATOM     29  C   UNL     1      -6.903  -0.267   1.173  0.00  0.00    -0.005 C 
ATOM     30  C   UNL     1      -8.166  -1.314  -1.083  0.00  0.00    +0.011 C 
ATOM     31  C   UNL     1      -7.761  -1.360   1.299  0.00  0.00    +0.011 C 
ATOM     32  C   UNL     1      -8.393  -1.883   0.171  0.00  0.00    +0.058 C 
ENDBRANCH  25  27
ENDBRANCH  18  25
ENDBRANCH   2  19
BRANCH  13  35
ATOM     33  O   UNL     1       8.693  -1.575  -0.806  0.00  0.00    -0.267 OA
ATOM     34  N   UNL     1       8.735  -0.648   1.291  0.00  0.00    -0.323 N 
ATOM     35  C   UNL     1       8.075  -1.038   0.130  0.00  0.00    +0.276 C 
ATOM     36  H   UNL     1       9.702  -0.807   1.385  0.00  0.00    +0.145 HD
ATOM     37  H   UNL     1       8.235  -0.212   2.019  0.00  0.00    +0.145 HD
ENDBRANCH  13  35
BRANCH   6  38
ATOM     38  C   UNL     1       0.978   2.620   0.398  0.00  0.00    -0.019 C 
ATOM     39  C   UNL     1       1.802   3.742  -0.197  0.00  0.00    -0.002 C 
ENDBRANCH   6  38
TORSDOF 5
