REMARK  Name = 11990852
REMARK  6 active torsions:
REMARK  status: ('A' for Active; 'I' for Inactive)
REMARK    1  A    between atoms: S_1  and  N_5
REMARK    2  A    between atoms: S_1  and  C_24
REMARK    3  A    between atoms: C_11  and  O_16
REMARK    4  A    between atoms: C_12  and  O_18
REMARK    5  A    between atoms: C_25  and  C_30
REMARK    6  A    between atoms: C_30  and  C_31
REMARK                            x       y       z     vdW  Elec       q    Type
REMARK                         _______ _______ _______ _____ _____    ______ ____
ROOT
ATOM      1  S   UNL     1      -2.536  -1.464   1.759  0.00  0.00    +0.083 S 
ATOM      2  O   UNL     1      -2.553  -2.882   1.429  0.00  0.00    -0.152 OA
ATOM      3  O   UNL     1      -3.248  -0.968   2.929  0.00  0.00    -0.152 OA
ENDROOT
BRANCH   1   5
ATOM      4  O   UNL     1      -0.193  -1.731  -0.215  0.00  0.00    -0.250 OA
ATOM      5  N   UNL     1      -0.900  -0.949   1.854  0.00  0.00    -0.170 N 
ATOM      6  N   UNL     1       1.310  -0.628   1.192  0.00  0.00    -0.192 N 
ATOM      7  N   UNL     1       2.462  -1.229  -0.753  0.00  0.00    -0.294 NA
ATOM      8  N   UNL     1       3.573  -0.057   1.035  0.00  0.00    -0.294 NA
ATOM      9  C   UNL     1       0.082  -1.153   0.829  0.00  0.00    +0.332 C 
ATOM     10  C   UNL     1       2.515  -0.639   0.451  0.00  0.00    +0.212 C 
ATOM     11  C   UNL     1       3.628  -1.221  -1.433  0.00  0.00    +0.276 C 
ATOM     12  C   UNL     1       4.705  -0.085   0.301  0.00  0.00    +0.276 C 
ATOM     13  C   UNL     1       4.792  -0.658  -0.951  0.00  0.00    +0.199 C 
ATOM     14  H   UNL     1      -0.616  -0.480   2.672  0.00  0.00    +0.178 HD
ATOM     15  H   UNL     1       1.351  -0.194   2.075  0.00  0.00    +0.170 HD
BRANCH  11  16
ATOM     16  O   UNL     1       3.632  -1.811  -2.669  0.00  0.00    -0.450 OA
ATOM     17  C   UNL     1       2.405  -2.375  -3.115  0.00  0.00    +0.255 C 
ENDBRANCH  11  16
BRANCH  12  18
ATOM     18  O   UNL     1       5.818   0.495   0.849  0.00  0.00    -0.450 OA
ATOM     19  C   UNL     1       5.669   1.071   2.142  0.00  0.00    +0.255 C 
ENDBRANCH  12  18
ENDBRANCH   1   5
BRANCH   1  24
ATOM     20 CL   UNL     1      -5.168  -2.498  -0.442  0.00  0.00    -0.049 Cl
ATOM     21  N   UNL     1      -2.864   0.560  -0.080  0.00  0.00    -0.155 N 
ATOM     22  N   UNL     1      -1.879   1.318   0.475  0.00  0.00    -0.178 NA
ATOM     23  N   UNL     1      -4.502  -0.087  -1.447  0.00  0.00    -0.375 NA
ATOM     24  C   UNL     1      -3.269  -0.672   0.361  0.00  0.00    +0.308 C 
ATOM     25  C   UNL     1      -1.685   2.452  -0.132  0.00  0.00    +0.077 C 
ATOM     26  C   UNL     1      -3.641   0.874  -1.179  0.00  0.00    +0.205 C 
ATOM     27  C   UNL     1      -2.445   2.924  -1.326  0.00  0.00    +0.020 C 
ATOM     28  C   UNL     1      -3.397   2.116  -1.807  0.00  0.00    +0.051 C 
ATOM     29  C   UNL     1      -4.276  -1.048  -0.495  0.00  0.00    +0.212 C 
BRANCH  25  30
ATOM     30  C   UNL     1      -0.613   3.364   0.406  0.00  0.00    +0.047 C 
BRANCH  30  31
ATOM     31  C   UNL     1       0.721   3.066  -0.258  0.00  0.00    +0.006 C 
ATOM     32  C   UNL     1       1.858   3.915   0.291  0.00  0.00    +0.000 C 
ENDBRANCH  30  31
ENDBRANCH  25  30
ENDBRANCH   1  24
TORSDOF 6
