REMARK  Name = 12000328
REMARK  6 active torsions:
REMARK  status: ('A' for Active; 'I' for Inactive)
REMARK    1  A    between atoms: C_1  and  C_18
REMARK    2  A    between atoms: C_4  and  O_7
REMARK    3  A    between atoms: O_7  and  C_8
REMARK    4  A    between atoms: C_8  and  C_9
REMARK    5  A    between atoms: C_9  and  N_10
REMARK    6  A    between atoms: C_18  and  C_23
REMARK                            x       y       z     vdW  Elec       q    Type
REMARK                         _______ _______ _______ _____ _____    ______ ____
ROOT
ATOM      1  C   UNL     1      -2.165  -0.378   0.257  0.00  0.00    -0.021 C 
ATOM      2  C   UNL     1      -1.365  -1.174  -0.548  0.00  0.00    -0.001 C 
ATOM      3  C   UNL     1      -1.737   0.870   0.684  0.00  0.00    -0.001 C 
ATOM      4  C   UNL     1       0.336   0.541  -0.513  0.00  0.00    +0.139 C 
ATOM      5  C   UNL     1      -0.107  -0.712  -0.935  0.00  0.00    +0.037 C 
ATOM      6  C   UNL     1      -0.479   1.333   0.297  0.00  0.00    +0.037 C 
ENDROOT
BRANCH   4   7
ATOM      7  O   UNL     1       1.563   0.992  -0.891  0.00  0.00    -0.474 OA
BRANCH   7   8
ATOM      8  C   UNL     1       2.237   1.873   0.006  0.00  0.00    +0.227 C 
BRANCH   8   9
ATOM      9  C   UNL     1       3.738   1.698  -0.143  0.00  0.00    +0.136 C 
BRANCH   9  10
ATOM     10  N   UNL     1       4.114   0.345   0.195  0.00  0.00    -0.315 N 
ATOM     11  H   UNL     1       3.402  -0.286   0.449  0.00  0.00    +0.148 HD
ATOM     12  N   UNL     1       5.688  -1.414   0.518  0.00  0.00    -0.229 NA
ATOM     13  C   UNL     1       5.420  -0.116   0.183  0.00  0.00    +0.129 C 
ATOM     14  C   UNL     1       6.437   0.777  -0.177  0.00  0.00    +0.034 C 
ATOM     15  C   UNL     1       7.754   0.330  -0.194  0.00  0.00    +0.004 C 
ATOM     16  C   UNL     1       6.980  -1.813   0.490  0.00  0.00    +0.100 C 
ATOM     17  C   UNL     1       8.039  -0.988   0.144  0.00  0.00    +0.021 C 
ENDBRANCH   9  10
ENDBRANCH   8   9
ENDBRANCH   7   8
ENDBRANCH   4   7
BRANCH   1  18
ATOM     18  C   UNL     1      -3.524  -0.877   0.676  0.00  0.00    +0.047 C 
BRANCH  18  23
ATOM     19  S   UNL     1      -5.147   1.234  -0.025  0.00  0.00    -0.048 S 
ATOM     20  O   UNL     1      -5.836  -2.557  -0.242  0.00  0.00    -0.274 OA
ATOM     21  O   UNL     1      -7.713   1.613   0.406  0.00  0.00    -0.263 OA
ATOM     22  N   UNL     1      -6.959  -0.563   0.088  0.00  0.00    -0.246 N 
ATOM     23  C   UNL     1      -4.605  -0.478  -0.313  0.00  0.00    +0.137 C 
ATOM     24  C   UNL     1      -5.841  -1.333  -0.156  0.00  0.00    +0.239 C 
ATOM     25  C   UNL     1      -6.828   0.797   0.192  0.00  0.00    +0.279 C 
ATOM     26  H   UNL     1      -7.842  -0.986   0.187  0.00  0.00    +0.158 HD
ENDBRANCH  18  23
ENDBRANCH   1  18
TORSDOF 6
