REMARK  Name = 120032
REMARK  12 active torsions:
REMARK  status: ('A' for Active; 'I' for Inactive)
REMARK    1  A    between atoms: S_1  and  C_2
REMARK    2  A    between atoms: S_1  and  C_11
REMARK    3  A    between atoms: C_2  and  C_3
REMARK    4  A    between atoms: C_3  and  O_4
REMARK    5  A    between atoms: O_4  and  C_6
REMARK    6  A    between atoms: C_6  and  C_7
REMARK    7  A    between atoms: C_7  and  C_9
REMARK    8  A    between atoms: C_11  and  C_12
REMARK    9  A    between atoms: C_12  and  O_13
REMARK   10  A    between atoms: O_13  and  C_15
REMARK   11  A    between atoms: C_15  and  C_16
REMARK   12  A    between atoms: C_16  and  C_18
REMARK                            x       y       z     vdW  Elec       q    Type
REMARK                         _______ _______ _______ _____ _____    ______ ____
ROOT
ATOM      1  S   UNL     1       0.003   1.184  -0.002  0.00  0.00    -0.132 S 
ENDROOT
BRANCH   1   2
ATOM      2  C   UNL     1      -1.252   2.373   0.562  0.00  0.00    +0.105 C 
BRANCH   2   3
ATOM      3  C   UNL     1      -2.479   1.665   1.114  0.00  0.00    +0.220 C 
BRANCH   3   4
ATOM      4  O   UNL     1      -3.071   0.845   0.101  0.00  0.00    -0.447 OA
BRANCH   4   6
ATOM      5  O   UNL     1      -4.704   0.185   1.588  0.00  0.00    -0.250 OA
ATOM      6  C   UNL     1      -4.188   0.154   0.480  0.00  0.00    +0.325 C 
BRANCH   6   7
ATOM      7  C   UNL     1      -4.691  -0.637  -0.703  0.00  0.00    +0.174 C 
BRANCH   7   9
ATOM      8  O   UNL     1      -6.535  -1.517   0.591  0.00  0.00    -0.295 OA
ATOM      9  C   UNL     1      -5.952  -1.449  -0.489  0.00  0.00    +0.162 C 
ATOM     10  C   UNL     1      -6.458  -2.211  -1.687  0.00  0.00    +0.073 C 
ENDBRANCH   7   9
ENDBRANCH   6   7
ENDBRANCH   4   6
ENDBRANCH   3   4
ENDBRANCH   2   3
ENDBRANCH   1   2
BRANCH   1  11
ATOM     11  C   UNL     1       1.248   2.367  -0.562  0.00  0.00    +0.105 C 
BRANCH  11  12
ATOM     12  C   UNL     1       2.477   1.661  -1.114  0.00  0.00    +0.220 C 
BRANCH  12  13
ATOM     13  O   UNL     1       3.065   0.848  -0.107  0.00  0.00    -0.447 OA
BRANCH  13  15
ATOM     14  O   UNL     1       4.703   0.184  -1.587  0.00  0.00    -0.250 OA
ATOM     15  C   UNL     1       4.188   0.153  -0.479  0.00  0.00    +0.325 C 
BRANCH  15  16
ATOM     16  C   UNL     1       4.691  -0.637   0.704  0.00  0.00    +0.174 C 
BRANCH  16  18
ATOM     17  O   UNL     1       6.538  -1.515  -0.590  0.00  0.00    -0.295 OA
ATOM     18  C   UNL     1       5.954  -1.447   0.490  0.00  0.00    +0.162 C 
ATOM     19  C   UNL     1       6.462  -2.208   1.689  0.00  0.00    +0.073 C 
ENDBRANCH  16  18
ENDBRANCH  15  16
ENDBRANCH  13  15
ENDBRANCH  12  13
ENDBRANCH  11  12
ENDBRANCH   1  11
TORSDOF 12
