12011152
  -OEChem-03292013303D

 70 75  0     1  0  0  0  0  0999 V2000
   -3.3460    1.2566   -2.0849 O   0  0  0  0  0  0  0  0  0  0  0  0
   -0.9382   -2.1370   -0.1281 O   0  0  0  0  0  0  0  0  0  0  0  0
   -6.2979    1.1615   -0.5377 O   0  0  0  0  0  0  0  0  0  0  0  0
    4.0732   -1.2801   -1.0020 O   0  0  0  0  0  0  0  0  0  0  0  0
    4.3364    0.6940   -2.1707 O   0  0  0  0  0  0  0  0  0  0  0  0
    3.6230   -3.4073   -0.3747 O   0  0  0  0  0  0  0  0  0  0  0  0
   -1.8929   -3.8075    1.1502 O   0  0  0  0  0  0  0  0  0  0  0  0
    5.1171    1.1844    2.3331 O   0  0  0  0  0  0  0  0  0  0  0  0
   -2.0624    1.3162    0.0826 C   0  0  2  0  0  0  0  0  0  0  0  0
   -0.6187    0.8514   -0.3977 C   0  0  2  0  0  0  0  0  0  0  0  0
   -2.8939    0.0231    0.4210 C   0  0  2  0  0  0  0  0  0  0  0  0
    0.1740   -0.0762    0.5954 C   0  0  1  0  0  0  0  0  0  0  0  0
   -2.7455    2.0549   -1.0596 C   0  0  2  0  0  0  0  0  0  0  0  0
   -4.4241    0.2388    0.7046 C   0  0  0  0  0  0  0  0  0  0  0  0
   -4.2317    1.9839   -1.2139 C   0  0  2  0  0  0  0  0  0  0  0  0
   -2.1618   -0.8396    1.4727 C   0  0  0  0  0  0  0  0  0  0  0  0
   -0.7629   -1.2663    0.9980 C   0  0  1  0  0  0  0  0  0  0  0  0
    0.2310    2.0000   -0.9970 C   0  0  0  0  0  0  0  0  0  0  0  0
    1.4895   -0.5781   -0.0811 C   0  0  0  0  0  0  0  0  0  0  0  0
    2.1798    0.3031   -1.1203 C   0  0  1  0  0  0  0  0  0  0  0  0
   -2.0006    2.3161    1.2634 C   0  0  0  0  0  0  0  0  0  0  0  0
   -5.0816    1.1169   -0.3732 C   0  0  0  0  0  0  0  0  0  0  0  0
    1.7413    1.7755   -0.9787 C   0  0  0  0  0  0  0  0  0  0  0  0
    0.6140    0.6453    1.8945 C   0  0  0  0  0  0  0  0  0  0  0  0
   -4.7482    0.8625    2.0711 C   0  0  0  0  0  0  0  0  0  0  0  0
   -5.1492   -1.1322    0.6427 C   0  0  0  0  0  0  0  0  0  0  0  0
    3.7500    0.1465   -0.9689 C   0  0  1  0  0  0  0  0  0  0  0  0
    1.7568   -0.1925   -2.5392 C   0  0  0  0  0  0  0  0  0  0  0  0
    2.0566   -1.7606    0.2224 C   0  0  0  0  0  0  0  0  0  0  0  0
    3.3011   -2.2249   -0.4126 C   0  0  0  0  0  0  0  0  0  0  0  0
    4.3676    0.8377    0.2612 C   0  0  0  0  0  0  0  0  0  0  0  0
   -1.7372   -3.2199    0.0884 C   0  0  0  0  0  0  0  0  0  0  0  0
    4.8543    2.1536    0.3222 C   0  0  0  0  0  0  0  0  0  0  0  0
    4.5428    0.2818    1.4953 C   0  0  0  0  0  0  0  0  0  0  0  0
   -2.4190   -3.6023   -1.1902 C   0  0  0  0  0  0  0  0  0  0  0  0
    5.3034    2.3208    1.6117 C   0  0  0  0  0  0  0  0  0  0  0  0
   -0.8355    0.2104   -1.2662 H   0  0  0  0  0  0  0  0  0  0  0  0
   -2.8838   -0.5749   -0.5025 H   0  0  0  0  0  0  0  0  0  0  0  0
   -2.2636    2.9791   -1.3512 H   0  0  0  0  0  0  0  0  0  0  0  0
   -4.7179    2.8610   -1.6274 H   0  0  0  0  0  0  0  0  0  0  0  0
   -2.0704   -0.2928    2.4153 H   0  0  0  0  0  0  0  0  0  0  0  0
   -2.7705   -1.7057    1.7316 H   0  0  0  0  0  0  0  0  0  0  0  0
   -0.2947   -1.8420    1.8079 H   0  0  0  0  0  0  0  0  0  0  0  0
    0.0348    2.9567   -0.5044 H   0  0  0  0  0  0  0  0  0  0  0  0
   -0.0800    2.1458   -2.0404 H   0  0  0  0  0  0  0  0  0  0  0  0
   -1.1208    2.9628    1.2195 H   0  0  0  0  0  0  0  0  0  0  0  0
   -2.8575    2.9990    1.2528 H   0  0  0  0  0  0  0  0  0  0  0  0
   -1.9956    1.8339    2.2412 H   0  0  0  0  0  0  0  0  0  0  0  0
    2.1970    2.3874   -1.7683 H   0  0  0  0  0  0  0  0  0  0  0  0
    2.1172    2.1968   -0.0417 H   0  0  0  0  0  0  0  0  0  0  0  0
    1.0434    1.6322    1.7085 H   0  0  0  0  0  0  0  0  0  0  0  0
   -0.2011    0.7837    2.6051 H   0  0  0  0  0  0  0  0  0  0  0  0
    1.3710    0.0616    2.4335 H   0  0  0  0  0  0  0  0  0  0  0  0
   -4.4838    1.9201    2.1230 H   0  0  0  0  0  0  0  0  0  0  0  0
   -5.8262    0.8204    2.2723 H   0  0  0  0  0  0  0  0  0  0  0  0
   -4.2497    0.3367    2.8907 H   0  0  0  0  0  0  0  0  0  0  0  0
   -4.9527   -1.6406   -0.3079 H   0  0  0  0  0  0  0  0  0  0  0  0
   -4.8502   -1.7976    1.4577 H   0  0  0  0  0  0  0  0  0  0  0  0
   -6.2373   -1.0185    0.7208 H   0  0  0  0  0  0  0  0  0  0  0  0
    2.1112    0.4908   -3.3197 H   0  0  0  0  0  0  0  0  0  0  0  0
    2.1627   -1.1841   -2.7680 H   0  0  0  0  0  0  0  0  0  0  0  0
    0.6731   -0.2693   -2.6580 H   0  0  0  0  0  0  0  0  0  0  0  0
    1.6240   -2.4465    0.9406 H   0  0  0  0  0  0  0  0  0  0  0  0
    5.2941    0.7752   -2.0243 H   0  0  0  0  0  0  0  0  0  0  0  0
    4.8805    2.8979   -0.4607 H   0  0  0  0  0  0  0  0  0  0  0  0
    4.3346   -0.6832    1.9333 H   0  0  0  0  0  0  0  0  0  0  0  0
   -1.6801   -3.9741   -1.9042 H   0  0  0  0  0  0  0  0  0  0  0  0
   -2.9535   -2.7445   -1.6050 H   0  0  0  0  0  0  0  0  0  0  0  0
   -3.1464   -4.3941   -0.9894 H   0  0  0  0  0  0  0  0  0  0  0  0
    5.7564    3.1439    2.1447 H   0  0  0  0  0  0  0  0  0  0  0  0
  1 13  1  0  0  0  0
  1 15  1  0  0  0  0
  2 17  1  0  0  0  0
  2 32  1  0  0  0  0
  3 22  2  0  0  0  0
  4 27  1  0  0  0  0
  4 30  1  0  0  0  0
  5 27  1  0  0  0  0
  5 64  1  0  0  0  0
  6 30  2  0  0  0  0
  7 32  2  0  0  0  0
  8 34  1  0  0  0  0
  8 36  1  0  0  0  0
  9 10  1  0  0  0  0
  9 11  1  0  0  0  0
  9 13  1  0  0  0  0
  9 21  1  0  0  0  0
 10 12  1  0  0  0  0
 10 18  1  0  0  0  0
 10 37  1  0  0  0  0
 11 14  1  0  0  0  0
 11 16  1  0  0  0  0
 11 38  1  0  0  0  0
 12 17  1  0  0  0  0
 12 19  1  0  0  0  0
 12 24  1  0  0  0  0
 13 15  1  0  0  0  0
 13 39  1  0  0  0  0
 14 22  1  0  0  0  0
 14 25  1  0  0  0  0
 14 26  1  0  0  0  0
 15 22  1  0  0  0  0
 15 40  1  0  0  0  0
 16 17  1  0  0  0  0
 16 41  1  0  0  0  0
 16 42  1  0  0  0  0
 17 43  1  0  0  0  0
 18 23  1  0  0  0  0
 18 44  1  0  0  0  0
 18 45  1  0  0  0  0
 19 20  1  0  0  0  0
 19 29  2  0  0  0  0
 20 23  1  0  0  0  0
 20 27  1  0  0  0  0
 20 28  1  0  0  0  0
 21 46  1  0  0  0  0
 21 47  1  0  0  0  0
 21 48  1  0  0  0  0
 23 49  1  0  0  0  0
 23 50  1  0  0  0  0
 24 51  1  0  0  0  0
 24 52  1  0  0  0  0
 24 53  1  0  0  0  0
 25 54  1  0  0  0  0
 25 55  1  0  0  0  0
 25 56  1  0  0  0  0
 26 57  1  0  0  0  0
 26 58  1  0  0  0  0
 26 59  1  0  0  0  0
 27 31  1  0  0  0  0
 28 60  1  0  0  0  0
 28 61  1  0  0  0  0
 28 62  1  0  0  0  0
 29 30  1  0  0  0  0
 29 63  1  0  0  0  0
 31 33  1  0  0  0  0
 31 34  2  0  0  0  0
 32 35  1  0  0  0  0
 33 36  2  0  0  0  0
 33 65  1  0  0  0  0
 34 66  1  0  0  0  0
 35 67  1  0  0  0  0
 35 68  1  0  0  0  0
 35 69  1  0  0  0  0
 36 70  1  0  0  0  0
M  END
> <PUBCHEM_COMPOUND_CID>
12011152

> <PUBCHEM_CONFORMER_RMSD>
0.8

> <PUBCHEM_CONFORMER_DIVERSEORDER>
1
2

> <PUBCHEM_MMFF94_PARTIAL_CHARGES>
33
1 -0.3
12 0.14
13 -0.05
14 0.06
15 0.05
17 0.28
19 -0.28
2 -0.43
20 0.14
22 0.51
27 0.74
29 -0.14
3 -0.57
30 0.71
31 -0.18
32 0.66
33 -0.15
34 -0.01
35 0.06
36 -0.01
39 0.1
4 -0.43
40 0.1
5 -0.68
6 -0.57
63 0.15
64 0.4
65 0.15
66 0.15
7 -0.57
70 0.15
8 -0.28
9 0.09

> <PUBCHEM_EFFECTIVE_ROTOR_COUNT>
4.6

> <PUBCHEM_PHARMACOPHORE_FEATURES>
13
1 1 acceptor
1 3 acceptor
1 5 acceptor
1 5 donor
1 6 acceptor
1 7 acceptor
1 8 acceptor
3 14 25 26 hydrophobe
5 8 31 33 34 36 rings
6 10 12 18 19 20 23 rings
6 4 19 20 27 29 30 rings
6 9 10 11 12 16 17 rings
7 1 9 11 13 14 15 22 rings

> <PUBCHEM_HEAVY_ATOM_COUNT>
36

> <PUBCHEM_ATOM_DEF_STEREO_COUNT>
9

> <PUBCHEM_ATOM_UDEF_STEREO_COUNT>
0

> <PUBCHEM_BOND_DEF_STEREO_COUNT>
0

> <PUBCHEM_BOND_UDEF_STEREO_COUNT>
0

> <PUBCHEM_ISOTOPIC_ATOM_COUNT>
0

> <PUBCHEM_COMPONENT_COUNT>
1

> <PUBCHEM_CACTVS_TAUTO_COUNT>
2

> <PUBCHEM_CONFORMER_ID>
00B7469000000001

> <PUBCHEM_MMFF94_ENERGY>
136.9217

> <PUBCHEM_FEATURE_SELFOVERLAP>
66.015

> <PUBCHEM_SHAPE_FINGERPRINT>
11112241 14 17702086157387030488
11578080 2 18059299880248500050
12422481 6 17895463770165377576
12788726 201 16558761061312307699
13140716 1 18121225547508757313
13224815 77 18410860927848623344
13533116 47 18270684151800189630
13583140 156 17703226346850039248
14081887 123 18341895233717390672
144659 39 18060137677923021774
14790565 3 18127981806460425745
15238133 3 15502653724453035845
17349148 13 17385730187818093796
17980427 23 17677607747804052612
1813 80 12757419494229718024
20197701 30 18262233327146818663
20511986 3 17458610255176759344
21033648 144 18201718461937972772
21033648 29 18334573499488374804
21859007 373 17606664851891863588
22149856 69 18262821583654164849
22182313 1 18114743728878548477
22393880 68 17823697456535635237
23559900 14 18335147453922806108
27425 322 16700362753671186819
32027 91 18194680354580281694
3380486 145 18268442406652598955
4015057 19 17561079224205159432
4093350 32 17274830129420786629
4340502 62 18341043060466004388
460360 51 17531511114646048198
469060 322 18047769374722886531
5104073 3 18263085422777889185
6004065 56 18339350968523091485
6086070 43 17917430960791229042
6669772 16 18341319033505440314
70251023 43 16772966787729349420
8509985 295 15574434310707586508

> <PUBCHEM_SHAPE_MULTIPOLES>
693.91
11.81
3.51
1.98
0.22
3.44
0.09
-4.88
-1.86
-0.53
0.13
0.72
-0.61
1.6

> <PUBCHEM_SHAPE_SELFOVERLAP>
1520.005

> <PUBCHEM_SHAPE_VOLUME>
369.4

> <PUBCHEM_COORDINATE_TYPE>
2
5
10

$$$$
