REMARK  Name = 12011152
REMARK  4 active torsions:
REMARK  status: ('A' for Active; 'I' for Inactive)
REMARK    1  A    between atoms: C_13  and  O_34
REMARK    2  A    between atoms: C_23  and  C_28
REMARK    3  A    between atoms: C_23  and  O_32
REMARK    4  A    between atoms: O_34  and  C_36
REMARK                            x       y       z     vdW  Elec       q    Type
REMARK                         _______ _______ _______ _____ _____    ______ ____
ROOT
ATOM      1  O   UNL     1      -3.346   1.257  -2.085  0.00  0.00    -0.346 OA
ATOM      2  O   UNL     1      -6.298   1.161  -0.538  0.00  0.00    -0.293 OA
ATOM      3  O   UNL     1       4.073  -1.280  -1.002  0.00  0.00    -0.424 OA
ATOM      4  O   UNL     1       3.623  -3.407  -0.375  0.00  0.00    -0.245 OA
ATOM      5  C   UNL     1      -2.062   1.316   0.083  0.00  0.00    +0.029 C 
ATOM      6  C   UNL     1      -0.619   0.851  -0.398  0.00  0.00    +0.009 C 
ATOM      7  C   UNL     1      -2.894   0.023   0.421  0.00  0.00    +0.013 C 
ATOM      8  C   UNL     1       0.174  -0.076   0.595  0.00  0.00    +0.053 C 
ATOM      9  C   UNL     1      -2.745   2.055  -1.060  0.00  0.00    +0.150 C 
ATOM     10  C   UNL     1      -4.424   0.239   0.705  0.00  0.00    +0.054 C 
ATOM     11  C   UNL     1      -4.232   1.984  -1.214  0.00  0.00    +0.199 C 
ATOM     12  C   UNL     1      -2.162  -0.840   1.473  0.00  0.00    +0.044 C 
ATOM     13  C   UNL     1      -0.763  -1.266   0.998  0.00  0.00    +0.172 C 
ATOM     14  C   UNL     1       0.231   2.000  -0.997  0.00  0.00    +0.001 C 
ATOM     15  C   UNL     1       1.490  -0.578  -0.081  0.00  0.00    -0.030 C 
ATOM     16  C   UNL     1       2.180   0.303  -1.120  0.00  0.00    +0.078 C 
ATOM     17  C   UNL     1      -2.001   2.316   1.263  0.00  0.00    +0.003 C 
ATOM     18  C   UNL     1      -5.082   1.117  -0.373  0.00  0.00    +0.179 C 
ATOM     19  C   UNL     1       1.741   1.776  -0.979  0.00  0.00    +0.010 C 
ATOM     20  C   UNL     1       0.614   0.645   1.895  0.00  0.00    +0.008 C 
ATOM     21  C   UNL     1      -4.748   0.863   2.071  0.00  0.00    +0.007 C 
ATOM     22  C   UNL     1      -5.149  -1.132   0.643  0.00  0.00    +0.007 C 
ATOM     23  C   UNL     1       3.750   0.146  -0.969  0.00  0.00    +0.255 C 
ATOM     24  C   UNL     1       1.757  -0.193  -2.539  0.00  0.00    +0.011 C 
ATOM     25  C   UNL     1       2.057  -1.761   0.222  0.00  0.00    +0.074 C 
ATOM     26  C   UNL     1       3.301  -2.225  -0.413  0.00  0.00    +0.343 C 
ENDROOT
BRANCH  23  28
ATOM     27  O   UNL     1       5.117   1.184   2.333  0.00  0.00    -0.447 OA
ATOM     28  C   UNL     1       4.368   0.838   0.261  0.00  0.00    +0.082 C 
ATOM     29  C   UNL     1       4.854   2.154   0.322  0.00  0.00    +0.045 C 
ATOM     30  C   UNL     1       4.543   0.282   1.495  0.00  0.00    +0.181 C 
ATOM     31  C   UNL     1       5.303   2.321   1.612  0.00  0.00    +0.180 C 
ENDBRANCH  23  28
BRANCH  23  32
ATOM     32  O   UNL     1       4.336   0.694  -2.171  0.00  0.00    -0.351 OA
ATOM     33  H   UNL     1       3.949   0.260  -2.947  0.00  0.00    +0.214 HD
ENDBRANCH  23  32
BRANCH  13  34
ATOM     34  O   UNL     1      -0.938  -2.137  -0.128  0.00  0.00    -0.452 OA
BRANCH  34  36
ATOM     35  O   UNL     1      -1.893  -3.808   1.150  0.00  0.00    -0.250 OA
ATOM     36  C   UNL     1      -1.737  -3.220   0.088  0.00  0.00    +0.317 C 
ATOM     37  C   UNL     1      -2.419  -3.602  -1.190  0.00  0.00    +0.121 C 
ENDBRANCH  34  36
ENDBRANCH  13  34
TORSDOF 4
