REMARK  Name = 12016858
REMARK  6 active torsions:
REMARK  status: ('A' for Active; 'I' for Inactive)
REMARK    1  A    between atoms: C_3  and  C_12
REMARK    2  A    between atoms: C_6  and  O_26
REMARK    3  A    between atoms: C_8  and  O_28
REMARK    4  A    between atoms: C_10  and  O_30
REMARK    5  A    between atoms: C_14  and  C_19
REMARK    6  A    between atoms: C_19  and  C_20
REMARK                            x       y       z     vdW  Elec       q    Type
REMARK                         _______ _______ _______ _____ _____    ______ ____
ROOT
ATOM      1  O   UNL     1      -1.923   1.032  -0.176  0.00  0.00    -0.450 OA
ATOM      2  O   UNL     1      -3.014  -2.876  -0.554  0.00  0.00    -0.283 OA
ATOM      3  C   UNL     1      -1.052   0.084  -0.692  0.00  0.00    +0.182 A 
ATOM      4  C   UNL     1      -3.615  -0.688   0.090  0.00  0.00    +0.110 A 
ATOM      5  C   UNL     1      -3.180   0.631   0.197  0.00  0.00    +0.155 A 
ATOM      6  C   UNL     1      -1.345  -1.221  -0.838  0.00  0.00    +0.208 A 
ATOM      7  C   UNL     1      -2.691  -1.701  -0.443  0.00  0.00    +0.238 A 
ATOM      8  C   UNL     1      -4.907  -1.039   0.487  0.00  0.00    +0.143 C 
ATOM      9  C   UNL     1      -4.036   1.610   0.702  0.00  0.00    +0.074 C 
ATOM     10  C   UNL     1      -5.328   1.263   1.099  0.00  0.00    +0.140 C 
ATOM     11  C   UNL     1      -5.763  -0.058   0.992  0.00  0.00    +0.073 C 
ENDROOT
BRANCH   3  12
ATOM     12  C   UNL     1       0.262   0.646  -1.051  0.00  0.00    +0.038 C 
ATOM     13  C   UNL     1       1.283   0.698  -0.101  0.00  0.00    +0.006 C 
ATOM     14  C   UNL     1       2.526   1.230  -0.442  0.00  0.00    +0.039 C 
ATOM     15  C   UNL     1       0.486   1.127  -2.342  0.00  0.00    +0.003 C 
ATOM     16  C   UNL     1       2.750   1.710  -1.733  0.00  0.00    +0.003 C 
ATOM     17  C   UNL     1       1.729   1.658  -2.683  0.00  0.00    +0.000 C 
BRANCH  14  19
ATOM     18  O   UNL     1       3.766   2.254   1.287  0.00  0.00    -0.287 OA
ATOM     19  C   UNL     1       3.591   1.282   0.547  0.00  0.00    +0.196 C 
BRANCH  19  20
ATOM     20  C   UNL     1       4.537   0.147   0.694  0.00  0.00    +0.039 C 
ATOM     21  C   UNL     1       4.379  -0.961  -0.113  0.00  0.00    +0.003 C 
ATOM     22  C   UNL     1       5.543   0.235   1.634  0.00  0.00    +0.003 C 
ATOM     23  C   UNL     1       5.267  -2.028   0.026  0.00  0.00    +0.000 C 
ATOM     24  C   UNL     1       6.432  -0.831   1.772  0.00  0.00    +0.000 C 
ATOM     25  C   UNL     1       6.293  -1.963   0.968  0.00  0.00    +0.000 C 
ENDBRANCH  19  20
ENDBRANCH  14  19
ENDBRANCH   3  12
BRANCH   6  26
ATOM     26  O   UNL     1      -0.444  -2.144  -1.323  0.00  0.00    -0.501 OA
ATOM     27  H   UNL     1       0.415  -1.870  -1.580  0.00  0.00    +0.292 HD
ENDBRANCH   6  26
BRANCH   8  28
ATOM     28  O   UNL     1      -5.381  -2.313   0.405  0.00  0.00    -0.505 OA
ATOM     29  H   UNL     1      -4.833  -2.996   0.071  0.00  0.00    +0.292 HD
ENDBRANCH   8  28
BRANCH  10  30
ATOM     30  O   UNL     1      -6.166   2.216   1.592  0.00  0.00    -0.505 OA
ATOM     31  H   UNL     1      -5.875   3.104   1.664  0.00  0.00    +0.292 HD
ENDBRANCH  10  30
TORSDOF 6
