REMARK  Name = 120290
REMARK  13 active torsions:
REMARK  status: ('A' for Active; 'I' for Inactive)
REMARK    1  A    between atoms: C_1  and  C_5
REMARK    2  A    between atoms: C_1  and  C_20
REMARK    3  A    between atoms: C_4  and  O_11
REMARK    4  A    between atoms: C_7  and  C_16
REMARK    5  A    between atoms: C_10  and  O_13
REMARK    6  A    between atoms: C_16  and  C_17
REMARK    7  A    between atoms: C_17  and  C_18
REMARK    8  A    between atoms: C_21  and  O_27
REMARK    9  A    between atoms: C_22  and  O_29
REMARK   10  A    between atoms: C_23  and  C_34
REMARK   11  A    between atoms: C_25  and  O_31
REMARK   12  A    between atoms: C_34  and  C_35
REMARK   13  A    between atoms: C_35  and  C_36
REMARK                            x       y       z     vdW  Elec       q    Type
REMARK                         _______ _______ _______ _____ _____    ______ ____
ROOT
ATOM      1  C   UNL     1      -0.291   1.381   2.130  0.00  0.00    +0.065 C 
ENDROOT
BRANCH   1   5
ATOM      2  O   UNL     1      -4.487   0.523  -1.495  0.00  0.00    -0.291 OA
ATOM      3  C   UNL     1      -3.113   2.217  -0.463  0.00  0.00    +0.106 C 
ATOM      4  C   UNL     1      -1.968   2.306   0.525  0.00  0.00    +0.116 C 
ATOM      5  C   UNL     1      -1.435   1.242   1.154  0.00  0.00    +0.046 C 
ATOM      6  C   UNL     1      -3.582   0.769  -0.693  0.00  0.00    +0.185 C 
ATOM      7  C   UNL     1      -2.952  -0.363   0.056  0.00  0.00    +0.103 C 
ATOM      8  C   UNL     1      -4.331   2.999   0.061  0.00  0.00    +0.015 C 
ATOM      9  C   UNL     1      -2.679   2.766  -1.836  0.00  0.00    +0.015 C 
ATOM     10  C   UNL     1      -1.950  -0.103   0.918  0.00  0.00    +0.138 C 
BRANCH   4  11
ATOM     11  O   UNL     1      -1.464   3.576   0.773  0.00  0.00    -0.510 OA
ATOM     12  H   UNL     1      -1.832   4.319   0.337  0.00  0.00    +0.292 HD
ENDBRANCH   4  11
BRANCH  10  13
ATOM     13  O   UNL     1      -1.302  -1.066   1.671  0.00  0.00    -0.506 OA
ATOM     14  H   UNL     1      -0.611  -0.819   2.253  0.00  0.00    +0.292 HD
ENDBRANCH  10  13
BRANCH   7  16
ATOM     15  O   UNL     1      -4.356  -2.185   0.518  0.00  0.00    -0.291 OA
ATOM     16  C   UNL     1      -3.442  -1.736  -0.172  0.00  0.00    +0.179 C 
BRANCH  16  17
ATOM     17  C   UNL     1      -2.764  -2.522  -1.279  0.00  0.00    +0.069 C 
BRANCH  17  18
ATOM     18  C   UNL     1      -3.364  -3.915  -1.455  0.00  0.00    +0.008 C 
ATOM     19  C   UNL     1      -2.649  -4.696  -2.546  0.00  0.00    +0.000 C 
ENDBRANCH  17  18
ENDBRANCH  16  17
ENDBRANCH   7  16
ENDBRANCH   1   5
BRANCH   1  20
ATOM     20  C   UNL     1       0.930   0.642   1.673  0.00  0.00    +0.050 A 
ATOM     21  C   UNL     1       1.347   0.742   0.347  0.00  0.00    +0.138 A 
ATOM     22  C   UNL     1       1.644  -0.144   2.575  0.00  0.00    +0.132 A 
ATOM     23  C   UNL     1       2.483   0.053  -0.078  0.00  0.00    +0.102 A 
ATOM     24  C   UNL     1       2.780  -0.833   2.150  0.00  0.00    +0.046 A 
ATOM     25  C   UNL     1       3.199  -0.734   0.823  0.00  0.00    +0.143 A 
ATOM     26  C   UNL     1       3.548  -1.677   3.116  0.00  0.00    +0.037 C 
BRANCH  21  27
ATOM     27  O   UNL     1       0.643   1.513  -0.532  0.00  0.00    -0.506 OA
ATOM     28  H   UNL     1      -0.119   1.975  -0.244  0.00  0.00    +0.292 HD
ENDBRANCH  21  27
BRANCH  22  29
ATOM     29  O   UNL     1       1.234  -0.240   3.873  0.00  0.00    -0.506 OA
ATOM     30  H   UNL     1       0.471   0.222   4.159  0.00  0.00    +0.292 HD
ENDBRANCH  22  29
BRANCH  25  31
ATOM     31  O   UNL     1       4.310  -1.410   0.409  0.00  0.00    -0.471 OA
ATOM     32  C   UNL     1       4.114  -2.732  -0.087  0.00  0.00    +0.252 C 
ENDBRANCH  25  31
BRANCH  23  34
ATOM     33  O   UNL     1       2.502  -0.645  -2.324  0.00  0.00    -0.291 OA
ATOM     34  C   UNL     1       2.921   0.156  -1.466  0.00  0.00    +0.179 C 
BRANCH  34  35
ATOM     35  C   UNL     1       3.908   1.261  -1.876  0.00  0.00    +0.069 C 
BRANCH  35  36
ATOM     36  C   UNL     1       4.793   0.873  -3.061  0.00  0.00    +0.008 C 
ATOM     37  C   UNL     1       5.774   1.980  -3.410  0.00  0.00    +0.000 C 
ENDBRANCH  35  36
ENDBRANCH  34  35
ENDBRANCH  23  34
ENDBRANCH   1  20
TORSDOF 13
