REMARK  Name = 120267
REMARK  5 active torsions:
REMARK  status: ('A' for Active; 'I' for Inactive)
REMARK    1  A    between atoms: N_3  and  C_8
REMARK    2  A    between atoms: C_5  and  C_19
REMARK    3  A    between atoms: C_8  and  C_12
REMARK    4  A    between atoms: C_19  and  C_20
REMARK    5  A    between atoms: C_20  and  O_21
REMARK                            x       y       z     vdW  Elec       q    Type
REMARK                         _______ _______ _______ _____ _____    ______ ____
ROOT
ATOM      1  S   UNL     1      -2.710  -1.561  -1.005  0.00  0.00    -0.031 S 
ATOM      2  O   UNL     1      -0.490  -2.986  -0.967  0.00  0.00    -0.259 OA
ATOM      3  N   UNL     1      -0.680  -1.152   0.507  0.00  0.00    -0.289 N 
ATOM      4  C   UNL     1      -1.600  -0.160   0.839  0.00  0.00    +0.043 A 
ATOM      5  C   UNL     1      -2.741  -0.229   0.128  0.00  0.00    +0.026 A 
ATOM      6  C   UNL     1      -1.088  -2.035  -0.487  0.00  0.00    +0.292 A 
ATOM      7  C   UNL     1      -1.261   0.843   1.896  0.00  0.00    +0.050 C 
ENDROOT
BRANCH   3   8
ATOM      8  C   UNL     1       0.618  -1.269   1.146  0.00  0.00    +0.141 C 
BRANCH   8  12
ATOM      9  N   UNL     1       3.528   1.032   0.422  0.00  0.00    -0.340 NA
ATOM     10  N   UNL     1       2.678   0.153  -1.655  0.00  0.00    -0.186 NA
ATOM     11  N   UNL     1       2.530   0.407   2.481  0.00  0.00    -0.332 N 
ATOM     12  C   UNL     1       1.673  -0.476   0.421  0.00  0.00    +0.065 C 
ATOM     13  C   UNL     1       2.580   0.320   1.068  0.00  0.00    +0.187 C 
ATOM     14  C   UNL     1       1.757  -0.532  -0.945  0.00  0.00    +0.112 C 
ATOM     15  C   UNL     1       3.520   0.904  -0.918  0.00  0.00    +0.066 C 
ATOM     16  C   UNL     1       4.552   1.675  -1.667  0.00  0.00    +0.129 C 
ATOM     17  H   UNL     1       3.175   0.975   2.962  0.00  0.00    +0.145 HD
ATOM     18  H   UNL     1       1.851  -0.100   2.982  0.00  0.00    +0.145 HD
ENDBRANCH   8  12
ENDBRANCH   3   8
BRANCH   5  19
ATOM     19  C   UNL     1      -3.950   0.643   0.189  0.00  0.00    +0.066 C 
BRANCH  19  20
ATOM     20  C   UNL     1      -3.862   1.826  -0.766  0.00  0.00    +0.142 C 
BRANCH  20  21
ATOM     21  O   UNL     1      -5.055   2.595  -0.686  0.00  0.00    -0.382 OA
ATOM     22  H   UNL     1      -4.996   3.348  -1.295  0.00  0.00    +0.210 HD
ENDBRANCH  20  21
ENDBRANCH  19  20
ENDBRANCH   5  19
TORSDOF 5
