120267
  -OEChem-03292013323D

 35 36  0     0  0  0  0  0  0999 V2000
   -2.7104   -1.5612   -1.0046 S   0  0  0  0  0  0  0  0  0  0  0  0
   -0.4903   -2.9859   -0.9673 O   0  0  0  0  0  0  0  0  0  0  0  0
   -5.0547    2.5955   -0.6858 O   0  0  0  0  0  0  0  0  0  0  0  0
   -0.6801   -1.1516    0.5071 N   0  0  0  0  0  0  0  0  0  0  0  0
    3.5278    1.0318    0.4222 N   0  0  0  0  0  0  0  0  0  0  0  0
    2.6782    0.1529   -1.6546 N   0  0  0  0  0  0  0  0  0  0  0  0
    2.5302    0.4074    2.4810 N   0  0  0  0  0  0  0  0  0  0  0  0
   -1.5998   -0.1596    0.8385 C   0  0  0  0  0  0  0  0  0  0  0  0
    0.6180   -1.2687    1.1460 C   0  0  0  0  0  0  0  0  0  0  0  0
   -2.7412   -0.2288    0.1276 C   0  0  0  0  0  0  0  0  0  0  0  0
   -3.9497    0.6428    0.1888 C   0  0  0  0  0  0  0  0  0  0  0  0
   -1.0876   -2.0349   -0.4872 C   0  0  0  0  0  0  0  0  0  0  0  0
    1.6733   -0.4761    0.4214 C   0  0  0  0  0  0  0  0  0  0  0  0
   -1.2614    0.8426    1.8963 C   0  0  0  0  0  0  0  0  0  0  0  0
   -3.8619    1.8262   -0.7665 C   0  0  0  0  0  0  0  0  0  0  0  0
    2.5805    0.3202    1.0679 C   0  0  0  0  0  0  0  0  0  0  0  0
    1.7572   -0.5317   -0.9452 C   0  0  0  0  0  0  0  0  0  0  0  0
    3.5196    0.9036   -0.9184 C   0  0  0  0  0  0  0  0  0  0  0  0
    4.5523    1.6755   -1.6674 C   0  0  0  0  0  0  0  0  0  0  0  0
    0.5130   -1.0215    2.2045 H   0  0  0  0  0  0  0  0  0  0  0  0
    0.9246   -2.3225    1.1141 H   0  0  0  0  0  0  0  0  0  0  0  0
   -4.8574    0.0616   -0.0210 H   0  0  0  0  0  0  0  0  0  0  0  0
   -4.1041    1.0159    1.2090 H   0  0  0  0  0  0  0  0  0  0  0  0
   -0.3437    1.3831    1.6470 H   0  0  0  0  0  0  0  0  0  0  0  0
   -1.1403    0.3584    2.8703 H   0  0  0  0  0  0  0  0  0  0  0  0
   -2.0458    1.5972    2.0100 H   0  0  0  0  0  0  0  0  0  0  0  0
   -3.7338    1.5019   -1.8047 H   0  0  0  0  0  0  0  0  0  0  0  0
   -3.0219    2.4795   -0.5086 H   0  0  0  0  0  0  0  0  0  0  0  0
    1.1086   -1.1345   -1.5652 H   0  0  0  0  0  0  0  0  0  0  0  0
    2.3048   -0.4292    3.0048 H   0  0  0  0  0  0  0  0  0  0  0  0
    3.2040    1.0342    2.9057 H   0  0  0  0  0  0  0  0  0  0  0  0
   -5.7938    2.0180   -0.9420 H   0  0  0  0  0  0  0  0  0  0  0  0
    4.7752    2.6189   -1.1592 H   0  0  0  0  0  0  0  0  0  0  0  0
    4.2073    1.9091   -2.6794 H   0  0  0  0  0  0  0  0  0  0  0  0
    5.4728    1.0886   -1.7379 H   0  0  0  0  0  0  0  0  0  0  0  0
  1 10  1  0  0  0  0
  1 12  1  0  0  0  0
  2 12  2  0  0  0  0
  3 15  1  0  0  0  0
  3 32  1  0  0  0  0
  4  8  1  0  0  0  0
  4  9  1  0  0  0  0
  4 12  1  0  0  0  0
  5 16  2  0  0  0  0
  5 18  1  0  0  0  0
  6 17  1  0  0  0  0
  6 18  2  0  0  0  0
  7 16  1  0  0  0  0
  7 30  1  0  0  0  0
  7 31  1  0  0  0  0
  8 10  2  0  0  0  0
  8 14  1  0  0  0  0
  9 13  1  0  0  0  0
  9 20  1  0  0  0  0
  9 21  1  0  0  0  0
 10 11  1  0  0  0  0
 11 15  1  0  0  0  0
 11 22  1  0  0  0  0
 11 23  1  0  0  0  0
 13 16  1  0  0  0  0
 13 17  2  0  0  0  0
 14 24  1  0  0  0  0
 14 25  1  0  0  0  0
 14 26  1  0  0  0  0
 15 27  1  0  0  0  0
 15 28  1  0  0  0  0
 17 29  1  0  0  0  0
 18 19  1  0  0  0  0
 19 33  1  0  0  0  0
 19 34  1  0  0  0  0
 19 35  1  0  0  0  0
M  END
> <PUBCHEM_COMPOUND_CID>
120267

> <PUBCHEM_CONFORMER_RMSD>
0.6

> <PUBCHEM_CONFORMER_DIVERSEORDER>
4
44
18
39
29
55
63
54
22
21
69
61
46
48
37
30
10
51
17
73
45
62
19
64
72
56
9
20
57
43
71
60
28
16
68
31
8
36
50
59
38
67
27
42
40
23
5
15
25
34
74
66
65
33
58
12
49
1
32
35
70
11
2
3
13
7
14
26
41
52
24
53
6
47

> <PUBCHEM_MMFF94_PARTIAL_CHARGES>
23
1 -0.24
10 -0.04
11 0.14
12 0.77
13 -0.14
14 0.14
15 0.28
16 0.41
17 0.16
18 0.48
19 0.14
2 -0.57
29 0.15
3 -0.68
30 0.4
31 0.4
32 0.4
4 -0.47
5 -0.62
6 -0.62
7 -0.9
8 -0.03
9 0.44

> <PUBCHEM_EFFECTIVE_ROTOR_COUNT>
4

> <PUBCHEM_PHARMACOPHORE_FEATURES>
7
1 3 acceptor
1 3 donor
1 7 donor
3 5 6 18 cation
3 5 7 16 cation
5 1 4 8 10 12 rings
6 5 6 13 16 17 18 rings

> <PUBCHEM_HEAVY_ATOM_COUNT>
19

> <PUBCHEM_ATOM_DEF_STEREO_COUNT>
0

> <PUBCHEM_ATOM_UDEF_STEREO_COUNT>
0

> <PUBCHEM_BOND_DEF_STEREO_COUNT>
0

> <PUBCHEM_BOND_UDEF_STEREO_COUNT>
0

> <PUBCHEM_ISOTOPIC_ATOM_COUNT>
0

> <PUBCHEM_COMPONENT_COUNT>
1

> <PUBCHEM_CACTVS_TAUTO_COUNT>
3

> <PUBCHEM_CONFORMER_ID>
0001D5CB00000004

> <PUBCHEM_MMFF94_ENERGY>
45.7607

> <PUBCHEM_FEATURE_SELFOVERLAP>
35.656

> <PUBCHEM_SHAPE_FINGERPRINT>
10498660 4 18343022189996693193
11640471 11 18041270054132159258
12173636 292 18339913888126573879
12251169 10 13695871484113063074
12788726 201 17825106162954808187
12892183 10 15792019956688854713
14251764 38 17244967252399164917
15163728 17 18266193755108334005
15775835 57 18333732428911272467
16945 1 18196362839325165987
18186145 218 17846779611480122643
18915474 69 13110959838051689700
19868273 293 18412546534781680058
200 152 14476974388660900270
20645476 183 18409451426893247319
20645477 70 15769774701580267940
20871999 31 17988364883546273487
21475661 188 16373237093257053293
21503847 285 17458907029074521472
21713013 43 17059778956536125599
21756936 100 17750527337256330044
21864079 5 18113904887358675469
22182313 1 17202757258015368915
22802520 49 16988291966057102730
23402539 116 17917698120051072602
23557571 272 17559386066408392394
23559900 14 17632859737687891650
238 59 16487255460787288564
2748010 2 17058081366559923266
2838139 119 18040709221951439645
4028521 119 18201727261946114917
6049 1 17344356806763678322
633830 44 17894628123900881627
7808743 9 18335706078137733253
88987 49 18270388516316622418

> <PUBCHEM_SHAPE_MULTIPOLES>
363.2
8.34
2.32
1.82
0.41
0.28
0.62
-7.14
-3.15
2.27
-1.03
-1.38
-0.28
-0.47

> <PUBCHEM_SHAPE_SELFOVERLAP>
748.811

> <PUBCHEM_SHAPE_VOLUME>
211.7

> <PUBCHEM_COORDINATE_TYPE>
2
5
10

$$$$
