REMARK  Name = 12037325
REMARK  4 active torsions:
REMARK  status: ('A' for Active; 'I' for Inactive)
REMARK    1  A    between atoms: N_1  and  C_12
REMARK    2  A    between atoms: C_14  and  O_17
REMARK    3  A    between atoms: C_16  and  C_19
REMARK    4  A    between atoms: C_19  and  O_20
REMARK                            x       y       z     vdW  Elec       q    Type
REMARK                         _______ _______ _______ _____ _____    ______ ____
ROOT
ATOM      1  N   UNL     1      -0.483   0.896  -0.372  0.00  0.00    -0.248 N 
ATOM      2  N   UNL     1      -2.537   1.565  -0.878  0.00  0.00    -0.242 NA
ATOM      3  N   UNL     1      -0.966  -1.257   0.638  0.00  0.00    -0.228 NA
ATOM      4  N   UNL     1      -3.365  -1.703   0.646  0.00  0.00    -0.229 NA
ATOM      5  C   UNL     1      -1.305  -0.103   0.044  0.00  0.00    +0.152 C 
ATOM      6  C   UNL     1      -1.258   1.875  -0.917  0.00  0.00    +0.223 C 
ATOM      7  C   UNL     1      -2.581   0.330  -0.279  0.00  0.00    +0.140 C 
ATOM      8  C   UNL     1      -3.634  -0.519   0.043  0.00  0.00    +0.143 C 
ATOM      9  C   UNL     1      -2.067  -1.994   0.902  0.00  0.00    +0.253 C 
ATOM     10  N   UNL     1      -4.961  -0.160  -0.248  0.00  0.00    -0.342 N 
ATOM     11  H   UNL     1      -5.699  -0.769  -0.015  0.00  0.00    +0.144 HD
ATOM     12  H   UNL     1      -5.154   0.701  -0.685  0.00  0.00    +0.144 HD
ENDROOT
BRANCH   1  15
ATOM     13  O   UNL     1       1.711   0.028  -1.117  0.00  0.00    -0.334 OA
ATOM     14  O   UNL     1       2.156   2.017   1.135  0.00  0.00    -0.345 OA
ATOM     15  C   UNL     1       0.968   0.925  -0.259  0.00  0.00    +0.211 C 
ATOM     16  C   UNL     1       1.443   0.755   1.184  0.00  0.00    +0.189 C 
ATOM     17  C   UNL     1       2.345  -0.466   1.080  0.00  0.00    +0.171 C 
ATOM     18  C   UNL     1       1.504   2.351  -0.117  0.00  0.00    +0.191 C 
ATOM     19  C   UNL     1       2.827  -0.488  -0.375  0.00  0.00    +0.175 C 
BRANCH  17  20
ATOM     20  O   UNL     1       3.439  -0.373   1.976  0.00  0.00    -0.379 OA
ATOM     21  H   UNL     1       3.109  -0.361   2.888  0.00  0.00    +0.211 HD
ENDBRANCH  17  20
BRANCH  19  22
ATOM     22  C   UNL     1       3.171  -1.881  -0.868  0.00  0.00    +0.169 C 
BRANCH  22  23
ATOM     23  O   UNL     1       3.594  -1.798  -2.220  0.00  0.00    -0.379 OA
ATOM     24  H   UNL     1       3.816  -2.685  -2.544  0.00  0.00    +0.211 HD
ENDBRANCH  22  23
ENDBRANCH  19  22
ENDBRANCH   1  15
TORSDOF 4
