12037325
  -OEChem-03292013303D

 33 36  0     1  0  0  0  0  0999 V2000
    1.7107    0.0280   -1.1171 O   0  0  0  0  0  0  0  0  0  0  0  0
    2.1558    2.0167    1.1350 O   0  0  0  0  0  0  0  0  0  0  0  0
    3.4386   -0.3728    1.9763 O   0  0  0  0  0  0  0  0  0  0  0  0
    3.5937   -1.7984   -2.2196 O   0  0  0  0  0  0  0  0  0  0  0  0
   -0.4830    0.8961   -0.3717 N   0  0  0  0  0  0  0  0  0  0  0  0
   -2.5373    1.5645   -0.8776 N   0  0  0  0  0  0  0  0  0  0  0  0
   -0.9659   -1.2572    0.6382 N   0  0  0  0  0  0  0  0  0  0  0  0
   -3.3654   -1.7027    0.6456 N   0  0  0  0  0  0  0  0  0  0  0  0
   -4.9613   -0.1600   -0.2480 N   0  0  0  0  0  0  0  0  0  0  0  0
    0.9681    0.9253   -0.2594 C   0  0  1  0  0  0  0  0  0  0  0  0
    1.4428    0.7552    1.1843 C   0  0  1  0  0  0  0  0  0  0  0  0
    2.3454   -0.4661    1.0802 C   0  0  1  0  0  0  0  0  0  0  0  0
    1.5040    2.3512   -0.1166 C   0  0  0  0  0  0  0  0  0  0  0  0
    2.8274   -0.4881   -0.3752 C   0  0  1  0  0  0  0  0  0  0  0  0
    3.1712   -1.8811   -0.8679 C   0  0  0  0  0  0  0  0  0  0  0  0
   -1.3048   -0.1031    0.0444 C   0  0  0  0  0  0  0  0  0  0  0  0
   -1.2584    1.8755   -0.9171 C   0  0  0  0  0  0  0  0  0  0  0  0
   -2.5806    0.3303   -0.2791 C   0  0  0  0  0  0  0  0  0  0  0  0
   -3.6342   -0.5192    0.0434 C   0  0  0  0  0  0  0  0  0  0  0  0
   -2.0670   -1.9939    0.9018 C   0  0  0  0  0  0  0  0  0  0  0  0
    0.7111    0.7467    1.9977 H   0  0  0  0  0  0  0  0  0  0  0  0
    1.7762   -1.3733    1.3132 H   0  0  0  0  0  0  0  0  0  0  0  0
    2.2358    2.6472   -0.8753 H   0  0  0  0  0  0  0  0  0  0  0  0
    0.8104    3.1812    0.0437 H   0  0  0  0  0  0  0  0  0  0  0  0
    3.6763    0.1884   -0.5349 H   0  0  0  0  0  0  0  0  0  0  0  0
    2.2951   -2.5371   -0.8342 H   0  0  0  0  0  0  0  0  0  0  0  0
    3.9779   -2.3207   -0.2734 H   0  0  0  0  0  0  0  0  0  0  0  0
    3.0733   -0.3189    2.8759 H   0  0  0  0  0  0  0  0  0  0  0  0
   -0.8640    2.7820   -1.3550 H   0  0  0  0  0  0  0  0  0  0  0  0
    3.8072   -2.7021   -2.5084 H   0  0  0  0  0  0  0  0  0  0  0  0
   -1.8887   -2.9489    1.3843 H   0  0  0  0  0  0  0  0  0  0  0  0
   -5.1647    0.7224   -0.6976 H   0  0  0  0  0  0  0  0  0  0  0  0
   -5.7094   -0.7946   -0.0041 H   0  0  0  0  0  0  0  0  0  0  0  0
  1 10  1  0  0  0  0
  1 14  1  0  0  0  0
  2 11  1  0  0  0  0
  2 13  1  0  0  0  0
  3 12  1  0  0  0  0
  3 28  1  0  0  0  0
  4 15  1  0  0  0  0
  4 30  1  0  0  0  0
  5 10  1  0  0  0  0
  5 16  1  0  0  0  0
  5 17  1  0  0  0  0
  6 17  2  0  0  0  0
  6 18  1  0  0  0  0
  7 16  2  0  0  0  0
  7 20  1  0  0  0  0
  8 19  1  0  0  0  0
  8 20  2  0  0  0  0
  9 19  1  0  0  0  0
  9 32  1  0  0  0  0
  9 33  1  0  0  0  0
 10 11  1  0  0  0  0
 10 13  1  0  0  0  0
 11 12  1  0  0  0  0
 11 21  1  0  0  0  0
 12 14  1  0  0  0  0
 12 22  1  0  0  0  0
 13 23  1  0  0  0  0
 13 24  1  0  0  0  0
 14 15  1  0  0  0  0
 14 25  1  0  0  0  0
 15 26  1  0  0  0  0
 15 27  1  0  0  0  0
 16 18  1  0  0  0  0
 17 29  1  0  0  0  0
 18 19  2  0  0  0  0
 20 31  1  0  0  0  0
M  END
> <PUBCHEM_COMPOUND_CID>
12037325

> <PUBCHEM_CONFORMER_RMSD>
0.6

> <PUBCHEM_CONFORMER_DIVERSEORDER>
1
7
6
4
9
5
8
2
11
3
10
12

> <PUBCHEM_MMFF94_PARTIAL_CHARGES>
26
1 -0.54
10 0.34
11 0.26
12 0.28
13 0.26
14 0.28
15 0.28
16 0.11
17 0.04
18 0.23
19 0.41
2 -0.52
20 0.47
28 0.4
29 0.15
3 -0.68
30 0.4
31 0.15
32 0.4
33 0.4
4 -0.68
5 0.22
6 -0.57
7 -0.57
8 -0.62
9 -0.9

> <PUBCHEM_EFFECTIVE_ROTOR_COUNT>
3

> <PUBCHEM_PHARMACOPHORE_FEATURES>
14
1 1 acceptor
1 2 acceptor
1 3 acceptor
1 3 donor
1 4 acceptor
1 4 donor
1 9 cation
1 9 donor
3 5 6 17 cation
3 5 7 16 cation
3 7 8 20 cation
5 5 6 16 17 18 rings
6 7 8 16 18 19 20 rings
7 1 2 10 11 12 13 14 rings

> <PUBCHEM_HEAVY_ATOM_COUNT>
20

> <PUBCHEM_ATOM_DEF_STEREO_COUNT>
4

> <PUBCHEM_ATOM_UDEF_STEREO_COUNT>
0

> <PUBCHEM_BOND_DEF_STEREO_COUNT>
0

> <PUBCHEM_BOND_UDEF_STEREO_COUNT>
0

> <PUBCHEM_ISOTOPIC_ATOM_COUNT>
0

> <PUBCHEM_COMPONENT_COUNT>
1

> <PUBCHEM_CACTVS_TAUTO_COUNT>
3

> <PUBCHEM_CONFORMER_ID>
00B7ACCD00000001

> <PUBCHEM_MMFF94_ENERGY>
47.7339

> <PUBCHEM_FEATURE_SELFOVERLAP>
71.66

> <PUBCHEM_SHAPE_FINGERPRINT>
11471102 22 17632567237187162728
11543360 7 14129064742078413747
11578080 2 14402331709415264891
11582403 64 16323633755593830672
11640471 11 14979381997635670560
12553582 1 18187089429533617155
13140716 1 18187922945431544491
13533116 47 17988649635904810227
13544592 145 18410859845801532511
14022347 108 17821731654447202057
14115302 16 16805317799440777682
14289901 80 17560801099693134579
14386348 63 18343303635019376630
14866123 147 16975910056310512947
16752209 62 17822844295837260269
16945 1 18188766145958399457
17804303 29 18334293137155548369
18186145 218 18334571344068478149
18522853 295 18186515514581436795
19049666 15 18270392768165238992
19591789 44 17114386936080096241
20645476 183 16443357493772475763
20645477 70 18341046415046465903
20871999 31 18190195515548713574
21197605 99 12421952440597337978
23184049 29 18260540169075511409
232386 152 17968362482056235474
2334 1 17971755729516209163
23557571 272 18408318865787495316
23559900 14 18408890658693204236
23598291 2 16299511544152826484
2748010 2 18188771789782725203
3286 77 17775288253040270519
474 4 15409466996168923858
495365 180 17988070209982003449
7364860 26 18266743656803605044
77492 1 14620500225471556340
81228 2 18113898295164221985
9709674 26 18337390560327402259

> <PUBCHEM_SHAPE_MULTIPOLES>
363.21
6.94
2.28
1.41
3.57
0.31
0.08
-2.96
0.62
-0.42
0.2
-1.71
-0.38
1.61

> <PUBCHEM_SHAPE_SELFOVERLAP>
807.737

> <PUBCHEM_SHAPE_VOLUME>
191.5

> <PUBCHEM_COORDINATE_TYPE>
2
5
10

$$$$
