REMARK  Name = 12039
REMARK  7 active torsions:
REMARK  status: ('A' for Active; 'I' for Inactive)
REMARK    1  A    between atoms: C_1  and  O_13
REMARK    2  A    between atoms: C_2  and  O_7
REMARK    3  A    between atoms: C_5  and  C_10
REMARK    4  A    between atoms: C_10  and  O_11
REMARK    5  A    between atoms: O_13  and  C_14
REMARK    6  A    between atoms: C_14  and  C_17
REMARK    7  A    between atoms: C_17  and  O_18
REMARK                            x       y       z     vdW  Elec       q    Type
REMARK                         _______ _______ _______ _____ _____    ______ ____
ROOT
ATOM      1  C   UNL     1       0.109   1.294   0.409  0.00  0.00    +0.179 C 
ATOM      2  C   UNL     1      -0.900   2.229  -0.298  0.00  0.00    +0.168 C 
ATOM      3  C   UNL     1      -0.381  -0.112   0.638  0.00  0.00    +0.047 C 
ATOM      4  C   UNL     1      -2.025   1.524  -1.004  0.00  0.00    +0.040 C 
ATOM      5  C   UNL     1      -1.494  -0.587   0.061  0.00  0.00    +0.079 C 
ATOM      6  C   UNL     1      -2.285   0.221  -0.833  0.00  0.00    +0.010 C 
ENDROOT
BRANCH   2   7
ATOM      7  O   UNL     1      -1.473   3.092   0.687  0.00  0.00    -0.503 OA
ATOM      8  H   UNL     1      -0.765   3.560   1.157  0.00  0.00    +0.292 HD
ENDBRANCH   2   7
BRANCH   5  10
ATOM      9  O   UNL     1      -1.080  -2.861   0.615  0.00  0.00    -0.245 OA
ATOM     10  C   UNL     1      -1.870  -1.975   0.342  0.00  0.00    +0.338 C 
BRANCH  10  11
ATOM     11  O   UNL     1      -3.209  -2.110   0.249  0.00  0.00    -0.477 OA
ATOM     12  H   UNL     1      -3.740  -1.369   0.032  0.00  0.00    +0.295 HD
ENDBRANCH  10  11
ENDBRANCH   5  10
BRANCH   1  13
ATOM     13  O   UNL     1       1.293   1.190  -0.385  0.00  0.00    -0.444 OA
BRANCH  13  14
ATOM     14  C   UNL     1       2.248   0.465   0.240  0.00  0.00    +0.220 C 
ATOM     15  C   UNL     1       2.749   0.834   1.427  0.00  0.00    +0.048 C 
BRANCH  14  17
ATOM     16  O   UNL     1       3.554  -1.509  -0.029  0.00  0.00    -0.242 OA
ATOM     17  C   UNL     1       2.699  -0.754  -0.469  0.00  0.00    +0.373 C 
BRANCH  17  18
ATOM     18  O   UNL     1       2.065  -0.941  -1.649  0.00  0.00    -0.475 OA
ATOM     19  H   UNL     1       1.417  -0.328  -1.935  0.00  0.00    +0.296 HD
ENDBRANCH  17  18
ENDBRANCH  14  17
ENDBRANCH  13  14
ENDBRANCH   1  13
TORSDOF 7
