REMARK  Name = 12049295
REMARK  2 active torsions:
REMARK  status: ('A' for Active; 'I' for Inactive)
REMARK    1  A    between atoms: C_5  and  S_11
REMARK    2  A    between atoms: S_11  and  N_15
REMARK                            x       y       z     vdW  Elec       q    Type
REMARK                         _______ _______ _______ _____ _____    ______ ____
ROOT
ATOM      1  F   UNL     1      -3.764  -1.490   0.646  0.00  0.00    -0.202 F 
ATOM      2  O   UNL     1      -1.935   2.405   0.418  0.00  0.00    -0.241 OA
ATOM      3  N   UNL     1      -0.725   1.987  -0.110  0.00  0.00    -0.047 NA
ATOM      4  N   UNL     1      -2.801   1.346   0.624  0.00  0.00    -0.046 NA
ATOM      5  C   UNL     1       0.122  -0.265  -0.727  0.00  0.00    +0.148 C 
ATOM      6  C   UNL     1      -0.822   0.658  -0.239  0.00  0.00    +0.164 A 
ATOM      7  C   UNL     1      -2.142   0.250   0.227  0.00  0.00    +0.172 A 
ATOM      8  C   UNL     1      -0.317  -1.601  -0.723  0.00  0.00    +0.024 C 
ATOM      9  C   UNL     1      -2.561  -1.093   0.222  0.00  0.00    +0.163 C 
ATOM     10  C   UNL     1      -1.602  -1.998  -0.268  0.00  0.00    +0.033 C 
ENDROOT
BRANCH   5  11
ATOM     11  S   UNL     1       1.711   0.153  -1.299  0.00  0.00    +0.077 S 
ATOM     12  O   UNL     1       2.358  -1.043  -1.828  0.00  0.00    -0.150 OA
ATOM     13  O   UNL     1       1.585   1.332  -2.147  0.00  0.00    -0.150 OA
BRANCH  11  15
ATOM     14  O   UNL     1       2.347  -1.427   1.318  0.00  0.00    -0.274 OA
ATOM     15  N   UNL     1       2.502   0.607   0.154  0.00  0.00    -0.185 N 
ATOM     16  C   UNL     1       2.690  -0.251   1.284  0.00  0.00    +0.241 C 
ATOM     17  C   UNL     1       3.354   0.431   2.446  0.00  0.00    +0.096 C 
ATOM     18  H   UNL     1       2.853   1.525   0.215  0.00  0.00    +0.177 HD
ENDBRANCH  11  15
ENDBRANCH   5  11
TORSDOF 2
