REMARK  Name = 12049111
REMARK  11 active torsions:
REMARK  status: ('A' for Active; 'I' for Inactive)
REMARK    1  A    between atoms: SG_1  and  SG_2
REMARK    2  A    between atoms: SG_1  and  CB_13
REMARK    3  A    between atoms: SG_2  and  CB_3
REMARK    4  A    between atoms: CB_3  and  CA_4
REMARK    5  A    between atoms: CA_4  and  N_5
REMARK    6  A    between atoms: CA_4  and  C_10
REMARK    7  A    between atoms: C_10  and  O_11
REMARK    8  A    between atoms: CB_13  and  CA_14
REMARK    9  A    between atoms: CA_14  and  N_16
REMARK   10  A    between atoms: CA_14  and  C_21
REMARK   11  A    between atoms: C_21  and  O_22
REMARK                            x       y       z     vdW  Elec       q    Type
REMARK                         _______ _______ _______ _____ _____    ______ ____
ROOT
ATOM      1  SG  CYS A   1       0.128  -1.156  -0.036  0.00  0.00    -0.080 S 
ENDROOT
BRANCH   1   2
ATOM      2  SG  CYS A   1       1.721  -1.523  -1.281  0.00  0.00    -0.084 S 
BRANCH   2   3
ATOM      3  CB  CYS A   1       2.465   0.135  -1.411  0.00  0.00    +0.058 C 
BRANCH   3   4
ATOM      4  CA  CYS A   1       2.903   0.674  -0.048  0.00  0.00    +0.047 C 
BRANCH   4   5
ATOM      5  N   CYS A   1       3.516   1.994  -0.205  0.00  0.00    +0.389 N 
ATOM      6  H1  CYS A   1       2.854   2.625  -0.657  0.00  0.00    -0.088 HD
ATOM      7  H2  CYS A   1       4.355   1.914  -0.780  0.00  0.00    -0.088 HD
ATOM      8  H3  CYS A   1       3.766   2.364   0.712  0.00  0.00    -0.088 HD
ENDBRANCH   4   5
BRANCH   4  10
ATOM      9  OXT CYS A   1       4.993  -0.532   0.114  0.00  0.00    -0.253 OA
ATOM     10  C   CYS A   1       3.922  -0.226   0.625  0.00  0.00    +0.294 C 
BRANCH  10  11
ATOM     11  O   CYS A   1       3.525  -0.693   1.836  0.00  0.00    -0.482 OA
ATOM     12  H   CYS A   1       2.697  -0.433   2.190  0.00  0.00    +0.295 HD
ENDBRANCH  10  11
ENDBRANCH   4  10
ENDBRANCH   3   4
ENDBRANCH   2   3
ENDBRANCH   1   2
BRANCH   1  13
ATOM     13  CB  CYS A   1      -1.177  -0.743  -1.219  0.00  0.00    +0.100 C 
BRANCH  13  14
ATOM     14  CA  CYS A   1      -2.500  -0.421  -0.522  0.00  0.00    +0.183 C 
BRANCH  14  16
ATOM     15  O   UNK A   0      -2.858   2.400  -1.106  0.00  0.00    -0.275 OA
ATOM     16  N   CYS A   1      -2.322   0.706   0.395  0.00  0.00    -0.296 N 
ATOM     17  C   UNK A   0      -2.520   2.010   0.009  0.00  0.00    +0.223 C 
ATOM     18  C   UNK A   0      -2.294   2.966   1.149  0.00  0.00    +0.095 C 
ATOM     19  H   CYS A   1      -2.050   0.524   1.323  0.00  0.00    +0.150 HD
ENDBRANCH  14  16
BRANCH  14  21
ATOM     20  OXT CYS A   1      -3.337  -2.668  -0.205  0.00  0.00    -0.248 OA
ATOM     21  C   CYS A   1      -3.022  -1.592   0.290  0.00  0.00    +0.333 C 
BRANCH  21  22
ATOM     22  O   CYS A   1      -3.142  -1.329   1.616  0.00  0.00    -0.479 OA
ATOM     23  H   CYS A   1      -2.888  -0.492   1.952  0.00  0.00    +0.295 HD
ENDBRANCH  21  22
ENDBRANCH  14  21
ENDBRANCH  13  14
ENDBRANCH   1  13
TORSDOF 11
