REMARK  Name = 12049127
REMARK  11 active torsions:
REMARK  status: ('A' for Active; 'I' for Inactive)
REMARK    1  A    between atoms: C_1  and  O_2
REMARK    2  A    between atoms: C_1  and  C_5
REMARK    3  A    between atoms: C_1  and  C_14
REMARK    4  A    between atoms: C_1  and  C_17
REMARK    5  A    between atoms: C_5  and  C_6
REMARK    6  A    between atoms: C_14  and  O_15
REMARK    7  A    between atoms: C_17  and  O_18
REMARK    8  A    between atoms: C_17  and  C_21
REMARK    9  A    between atoms: C_17  and  C_30
REMARK   10  A    between atoms: C_21  and  C_22
REMARK   11  A    between atoms: C_30  and  O_31
REMARK                            x       y       z     vdW  Elec       q    Type
REMARK                         _______ _______ _______ _____ _____    ______ ____
ROOT
ATOM      1  C   UNL     1      -0.811  -1.376   0.460  0.00  0.00    +0.272 C 
ENDROOT
BRANCH   1   2
ATOM      2  O   UNL     1      -0.613  -2.357   1.494  0.00  0.00    -0.368 OA
ATOM      3  H   UNL     1       0.052  -2.033   2.123  0.00  0.00    +0.212 HD
ENDBRANCH   1   2
BRANCH   1   5
ATOM      4  O   UNL     1      -0.883   0.220   2.299  0.00  0.00    -0.288 OA
ATOM      5  C   UNL     1      -1.336  -0.129   1.208  0.00  0.00    +0.211 C 
BRANCH   5   6
ATOM      6  C   UNL     1      -2.405   0.715   0.619  0.00  0.00    +0.038 C 
ATOM      7  C   UNL     1      -2.050   1.775  -0.191  0.00  0.00    +0.003 C 
ATOM      8  C   UNL     1      -3.723   0.416   0.901  0.00  0.00    +0.003 C 
ATOM      9  C   UNL     1      -4.394   2.288  -0.473  0.00  0.00    -0.022 C 
ATOM     10  C   UNL     1      -3.055   2.570  -0.742  0.00  0.00    -0.004 C 
ATOM     11  C   UNL     1      -4.728   1.211   0.349  0.00  0.00    -0.004 C 
ATOM     12  C   UNL     1      -5.469   3.136  -1.063  0.00  0.00    +0.031 C 
ENDBRANCH   5   6
ENDBRANCH   1   5
BRANCH   1  14
ATOM     13  O   UNL     1      -2.645  -2.916  -0.087  0.00  0.00    -0.247 OA
ATOM     14  C   UNL     1      -1.868  -2.035  -0.424  0.00  0.00    +0.349 C 
BRANCH  14  15
ATOM     15  O   UNL     1      -1.848  -1.513  -1.680  0.00  0.00    -0.478 OA
ATOM     16  H   UNL     1      -1.235  -0.838  -1.897  0.00  0.00    +0.295 HD
ENDBRANCH  14  15
ENDBRANCH   1  14
BRANCH   1  17
ATOM     17  C   UNL     1       0.571  -1.144  -0.246  0.00  0.00    +0.272 C 
BRANCH  17  18
ATOM     18  O   UNL     1       0.391  -0.076  -1.169  0.00  0.00    -0.368 OA
ATOM     19  H   UNL     1       0.129   0.726  -0.688  0.00  0.00    +0.212 HD
ENDBRANCH  17  18
BRANCH  17  21
ATOM     20  O   UNL     1       1.715  -1.230   1.912  0.00  0.00    -0.288 OA
ATOM     21  C   UNL     1       1.665  -0.752   0.779  0.00  0.00    +0.211 C 
BRANCH  21  22
ATOM     22  C   UNL     1       2.737   0.198   0.405  0.00  0.00    +0.038 C 
ATOM     23  C   UNL     1       3.292   1.003   1.382  0.00  0.00    +0.003 C 
ATOM     24  C   UNL     1       3.153   0.257  -0.911  0.00  0.00    +0.003 C 
ATOM     25  C   UNL     1       4.735   1.975  -0.293  0.00  0.00    -0.022 C 
ATOM     26  C   UNL     1       4.300   1.899   1.030  0.00  0.00    -0.004 C 
ATOM     27  C   UNL     1       4.162   1.153  -1.264  0.00  0.00    -0.004 C 
ATOM     28  C   UNL     1       5.815   2.933  -0.670  0.00  0.00    +0.031 C 
ENDBRANCH  21  22
ENDBRANCH  17  21
BRANCH  17  30
ATOM     29  O   UNL     1       1.105  -2.396  -2.282  0.00  0.00    -0.247 OA
ATOM     30  C   UNL     1       0.981  -2.372  -1.065  0.00  0.00    +0.349 C 
BRANCH  30  31
ATOM     31  O   UNL     1       1.207  -3.454  -0.277  0.00  0.00    -0.478 OA
ATOM     32  H   UNL     1       1.099  -3.388   0.651  0.00  0.00    +0.295 HD
ENDBRANCH  30  31
ENDBRANCH  17  30
ENDBRANCH   1  17
TORSDOF 11
