12049111
  -OEChem-03292013303D

 31 30  0     1  0  0  0  0  0999 V2000
    0.1282   -1.1560   -0.0365 S   0  0  0  0  0  0  0  0  0  0  0  0
    1.7207   -1.5229   -1.2809 S   0  0  0  0  0  0  0  0  0  0  0  0
   -3.1416   -1.3291    1.6159 O   0  0  0  0  0  0  0  0  0  0  0  0
   -3.3371   -2.6683   -0.2046 O   0  0  0  0  0  0  0  0  0  0  0  0
    3.5246   -0.6928    1.8359 O   0  0  0  0  0  0  0  0  0  0  0  0
   -2.8579    2.3995   -1.1061 O   0  0  0  0  0  0  0  0  0  0  0  0
    4.9930   -0.5318    0.1144 O   0  0  0  0  0  0  0  0  0  0  0  0
   -2.3220    0.7064    0.3949 N   0  0  0  0  0  0  0  0  0  0  0  0
    3.5157    1.9942   -0.2053 N   0  0  0  0  0  0  0  0  0  0  0  0
   -2.5001   -0.4215   -0.5218 C   0  0  1  0  0  0  0  0  0  0  0  0
   -1.1771   -0.7434   -1.2192 C   0  0  0  0  0  0  0  0  0  0  0  0
    2.9027    0.6738   -0.0484 C   0  0  1  0  0  0  0  0  0  0  0  0
    2.4647    0.1345   -1.4114 C   0  0  0  0  0  0  0  0  0  0  0  0
   -3.0217   -1.5923    0.2901 C   0  0  0  0  0  0  0  0  0  0  0  0
   -2.5198    2.0100    0.0085 C   0  0  0  0  0  0  0  0  0  0  0  0
    3.9218   -0.2259    0.6253 C   0  0  0  0  0  0  0  0  0  0  0  0
   -2.2942    2.9657    1.1493 C   0  0  0  0  0  0  0  0  0  0  0  0
   -3.2673   -0.1512   -1.2559 H   0  0  0  0  0  0  0  0  0  0  0  0
   -1.3193   -1.5925   -1.8966 H   0  0  0  0  0  0  0  0  0  0  0  0
   -0.8563    0.1209   -1.8111 H   0  0  0  0  0  0  0  0  0  0  0  0
    2.0457    0.8043    0.6198 H   0  0  0  0  0  0  0  0  0  0  0  0
    1.7481    0.8084   -1.8945 H   0  0  0  0  0  0  0  0  0  0  0  0
    3.3251    0.0443   -2.0848 H   0  0  0  0  0  0  0  0  0  0  0  0
   -2.0189    0.5091    1.3448 H   0  0  0  0  0  0  0  0  0  0  0  0
    3.7156    2.3903    0.7127 H   0  0  0  0  0  0  0  0  0  0  0  0
    2.8525    2.6284   -0.6493 H   0  0  0  0  0  0  0  0  0  0  0  0
   -2.3749    3.9951    0.7894 H   0  0  0  0  0  0  0  0  0  0  0  0
   -3.0467    2.7986    1.9251 H   0  0  0  0  0  0  0  0  0  0  0  0
   -1.2956    2.8180    1.5706 H   0  0  0  0  0  0  0  0  0  0  0  0
   -3.4951   -2.0984    2.1113 H   0  0  0  0  0  0  0  0  0  0  0  0
    4.1962   -1.2835    2.2387 H   0  0  0  0  0  0  0  0  0  0  0  0
  1  2  1  0  0  0  0
  1 11  1  0  0  0  0
  2 13  1  0  0  0  0
  3 14  1  0  0  0  0
  3 30  1  0  0  0  0
  4 14  2  0  0  0  0
  5 16  1  0  0  0  0
  5 31  1  0  0  0  0
  6 15  2  0  0  0  0
  7 16  2  0  0  0  0
  8 10  1  0  0  0  0
  8 15  1  0  0  0  0
  8 24  1  0  0  0  0
  9 12  1  0  0  0  0
  9 25  1  0  0  0  0
  9 26  1  0  0  0  0
 10 11  1  0  0  0  0
 10 14  1  0  0  0  0
 10 18  1  0  0  0  0
 11 19  1  0  0  0  0
 11 20  1  0  0  0  0
 12 13  1  0  0  0  0
 12 16  1  0  0  0  0
 12 21  1  0  0  0  0
 13 22  1  0  0  0  0
 13 23  1  0  0  0  0
 15 17  1  0  0  0  0
 17 27  1  0  0  0  0
 17 28  1  0  0  0  0
 17 29  1  0  0  0  0
M  END
> <PUBCHEM_COMPOUND_CID>
12049111

> <PUBCHEM_CONFORMER_RMSD>
0.8

> <PUBCHEM_CONFORMER_DIVERSEORDER>
1
139
162
320
300
206
89
166
241
158
319
228
321
154
202
129
213
114
244
99
276
62
199
71
130
117
332
138
102
120
169
112
59
152
221
93
194
50
178
108
31
317
157
301
137
124
249
160
153
25
56
270
248
269
132
147
280
207
209
74
113
49
81
316
170
323
331
185
148
268
208
9
155
324
284
61
122
92
298
133
84
12
325
256
106
190
14
184
128
271
140
308
187
231
54
159
273
136
164
203
75
131
125
330
48
238
183
87
307
107
232
188
79
246
219
281
326
146
250
42
73
274
38
96
193
287
20
245
46
65
327
127
210
333
119
142
315
88
292
63
177
85
314
30
34
275
83
242
126
174
305
204
266
115
35
197
121
251
293
223
29
16
267
328
4
201
37
123
329
224
192
47
104
167
150
227
313
322
264
149
168
288
100
218
52
290
217
226
82
180
33
247
24
302
261
220
11
260
294
229
118
17
41
45
156
277
13
53
252
299
205
171
144
263
22
64
211
309
196
110
66
19
94
36
334
262
179
282
134
55
272
200
77
237
214
5
39
225
69
310
116
234
191
312
165
32
70
43
101
304
173
240
68
8
254
172
18
161
109
111
283
189
303
95
6
105
143
215
278
141
78
265
279
7
297
90
21
57
67
86
3
286
97
176
235
239
98
311
51
289
72
181
44
135
257
182
2
222
15
258
76
80
27
295
175
306
163
28
40
212
60
253
145
186
255
296
23
243
216
58
151
91
230
291
318
236
26
103
195
285
10
198
233
259

> <PUBCHEM_MMFF94_PARTIAL_CHARGES>
22
1 -0.23
10 0.36
11 0.23
12 0.33
13 0.23
14 0.66
15 0.57
16 0.66
17 0.06
2 -0.23
24 0.37
25 0.36
26 0.36
3 -0.65
30 0.5
31 0.5
4 -0.57
5 -0.65
6 -0.57
7 -0.57
8 -0.73
9 -0.99

> <PUBCHEM_EFFECTIVE_ROTOR_COUNT>
9

> <PUBCHEM_PHARMACOPHORE_FEATURES>
11
1 3 acceptor
1 4 acceptor
1 5 acceptor
1 6 acceptor
1 7 acceptor
1 8 donor
1 9 cation
1 9 donor
3 3 4 14 anion
3 5 7 16 anion
4 1 2 11 13 hydrophobe

> <PUBCHEM_HEAVY_ATOM_COUNT>
17

> <PUBCHEM_ATOM_DEF_STEREO_COUNT>
2

> <PUBCHEM_ATOM_UDEF_STEREO_COUNT>
0

> <PUBCHEM_BOND_DEF_STEREO_COUNT>
0

> <PUBCHEM_BOND_UDEF_STEREO_COUNT>
0

> <PUBCHEM_ISOTOPIC_ATOM_COUNT>
0

> <PUBCHEM_COMPONENT_COUNT>
1

> <PUBCHEM_CACTVS_TAUTO_COUNT>
2

> <PUBCHEM_CONFORMER_ID>
00B7DAD700000001

> <PUBCHEM_MMFF94_ENERGY>
16.664

> <PUBCHEM_FEATURE_SELFOVERLAP>
55.94

> <PUBCHEM_SHAPE_FINGERPRINT>
12077114 3 18272081665428236454
12596602 18 17969203690409427392
12633257 1 18115578232861546464
12892183 10 18337095848620071306
13675066 3 18131626786406587062
13764800 53 18342183215564364261
14289901 80 18411702101515243214
1741750 31 18198345057126549417
18186145 218 17275116011324054766
18981168 100 18058178236506651567
20645477 70 14129344035106600342
21864079 5 18343301509226927700
22182937 141 18129392496821243945
22749437 52 18271523083414967636
2306618 200 18059860562633359643
23503958 25 17988924491935978272
23557571 272 18273216387182178327
312423 11 18041575722849455132
6049 1 17915764022904790982
7097593 13 18042957671579805362
81228 2 18191049879471108983

> <PUBCHEM_SHAPE_MULTIPOLES>
318.24
8.54
2.88
1.4
6.67
1.49
0.19
0.49
1.9
-3.51
0.12
0.28
-0.14
0.27

> <PUBCHEM_SHAPE_SELFOVERLAP>
590.615

> <PUBCHEM_SHAPE_VOLUME>
200.8

> <PUBCHEM_COORDINATE_TYPE>
2
5
10

$$$$
