12069
  -OEChem-03292013323D

 20 20  0     0  0  0  0  0  0999 V2000
   -2.7400    2.2854   -0.0009 O   0  0  0  0  0  0  0  0  0  0  0  0
   -2.7340   -2.2926    0.0014 O   0  0  0  0  0  0  0  0  0  0  0  0
   -0.8785    3.5898    0.0003 O   0  0  0  0  0  0  0  0  0  0  0  0
   -0.8690   -3.5921   -0.0006 O   0  0  0  0  0  0  0  0  0  0  0  0
    3.4589    1.1020    0.0007 O   0  5  0  0  0  0  0  0  0  0  0  0
    3.4616   -1.0932    0.0001 O   0  0  0  0  0  0  0  0  0  0  0  0
    2.8520    0.0037    0.0000 N   0  3  0  0  0  0  0  0  0  0  0  0
   -0.6617    1.2072    0.0002 C   0  0  0  0  0  0  0  0  0  0  0  0
   -0.6585   -1.2088   -0.0001 C   0  0  0  0  0  0  0  0  0  0  0  0
    1.4322    0.0019   -0.0005 C   0  0  0  0  0  0  0  0  0  0  0  0
   -1.3575   -0.0017    0.0002 C   0  0  0  0  0  0  0  0  0  0  0  0
    0.7332    1.2089   -0.0003 C   0  0  0  0  0  0  0  0  0  0  0  0
    0.7364   -1.2070   -0.0004 C   0  0  0  0  0  0  0  0  0  0  0  0
   -1.3908    2.4657    0.0002 C   0  0  0  0  0  0  0  0  0  0  0  0
   -1.3842   -2.4693   -0.0002 C   0  0  0  0  0  0  0  0  0  0  0  0
   -2.4433   -0.0032    0.0004 H   0  0  0  0  0  0  0  0  0  0  0  0
    1.2612    2.1598   -0.0003 H   0  0  0  0  0  0  0  0  0  0  0  0
    1.2669   -2.1565   -0.0005 H   0  0  0  0  0  0  0  0  0  0  0  0
   -3.2224    3.1397   -0.0014 H   0  0  0  0  0  0  0  0  0  0  0  0
   -3.2140   -3.1481    0.0018 H   0  0  0  0  0  0  0  0  0  0  0  0
  1 14  1  0  0  0  0
  1 19  1  0  0  0  0
  2 15  1  0  0  0  0
  2 20  1  0  0  0  0
  3 14  2  0  0  0  0
  4 15  2  0  0  0  0
  5  7  1  0  0  0  0
  6  7  2  0  0  0  0
  7 10  1  0  0  0  0
  8 11  2  0  0  0  0
  8 12  1  0  0  0  0
  8 14  1  0  0  0  0
  9 11  1  0  0  0  0
  9 13  2  0  0  0  0
  9 15  1  0  0  0  0
 10 12  2  0  0  0  0
 10 13  1  0  0  0  0
 11 16  1  0  0  0  0
 12 17  1  0  0  0  0
 13 18  1  0  0  0  0
M  CHG  2   5  -1   7   1
M  END
> <PUBCHEM_COMPOUND_CID>
12069

> <PUBCHEM_CONFORMER_RMSD>
0.6

> <PUBCHEM_CONFORMER_DIVERSEORDER>
1
2

> <PUBCHEM_MMFF94_PARTIAL_CHARGES>
20
1 -0.65
10 0.13
11 -0.15
12 -0.15
13 -0.15
14 0.63
15 0.63
16 0.15
17 0.15
18 0.15
19 0.5
2 -0.65
20 0.5
3 -0.57
4 -0.57
5 -0.52
6 -0.52
7 0.91
8 0.09
9 0.09

> <PUBCHEM_EFFECTIVE_ROTOR_COUNT>
3

> <PUBCHEM_PHARMACOPHORE_FEATURES>
10
1 1 acceptor
1 2 acceptor
1 3 acceptor
1 4 acceptor
1 5 acceptor
1 5 anion
1 6 acceptor
3 1 3 14 anion
3 2 4 15 anion
6 8 9 10 11 12 13 rings

> <PUBCHEM_HEAVY_ATOM_COUNT>
15

> <PUBCHEM_ATOM_DEF_STEREO_COUNT>
0

> <PUBCHEM_ATOM_UDEF_STEREO_COUNT>
0

> <PUBCHEM_BOND_DEF_STEREO_COUNT>
0

> <PUBCHEM_BOND_UDEF_STEREO_COUNT>
0

> <PUBCHEM_ISOTOPIC_ATOM_COUNT>
0

> <PUBCHEM_COMPONENT_COUNT>
1

> <PUBCHEM_CACTVS_TAUTO_COUNT>
1

> <PUBCHEM_CONFORMER_ID>
00002F2500000001

> <PUBCHEM_MMFF94_ENERGY>
48.2155

> <PUBCHEM_FEATURE_SELFOVERLAP>
50.947

> <PUBCHEM_SHAPE_FINGERPRINT>
1 1 17761775065845236124
10967382 1 16609134460642002656
12553582 1 18122347049559239502
13380535 76 18124309411267877870
14648413 74 17327736704957129939
15042514 8 18408606933127366963
15490181 7 18051424976064953615
15490181 8 17977653221935048907
16945 1 18410573989694331780
17990270 104 17401199470264982667
19021347 4 18194402177995256608
193761 8 18410856564214331718
19591789 44 18051139090109376695
20510252 161 18342738494431992648
20645476 183 17972343736461959358
20645477 70 17325484407317888213
20711985 365 18410011044141710654
20871998 184 18272937162673417750
21524375 3 17984413045039406356
2334 1 17978511167216201541
23402539 116 18271231794616944247
23419403 2 17344887810876615169
23526114 1 17185595157152926047
23530152 11 18122626046339235861
23552423 10 17115230824091836927
23557571 272 18199762486877014436
241688 4 18194402414229001251
257057 1 18122900103712474734
2748010 2 18053092110417386876
305870 269 17689434884523874860
3071541 12 17114665112394952684
3071541 158 17757543432263505717
3071541 250 17689168119873261900
3091708 16 9275991914581065979
352729 6 18338517417615981711
54173680 148 18410012151910846699
7364860 26 17186157565998698053
81228 2 18339081591635102187

> <PUBCHEM_SHAPE_MULTIPOLES>
268.5
4.07
4
0.57
0.02
3.63
0
-3.48
0
-0.02
0
0
-0.02
0

> <PUBCHEM_SHAPE_SELFOVERLAP>
574.786

> <PUBCHEM_SHAPE_VOLUME>
149.6

> <PUBCHEM_COORDINATE_TYPE>
2
5
10

$$$$
