REMARK  Name = 120693
REMARK  10 active torsions:
REMARK  status: ('A' for Active; 'I' for Inactive)
REMARK    1  A    between atoms: C_1  and  O_2
REMARK    2  A    between atoms: C_1  and  C_5
REMARK    3  A    between atoms: C_1  and  C_8
REMARK    4  A    between atoms: C_1  and  C_17
REMARK    5  A    between atoms: C_5  and  O_6
REMARK    6  A    between atoms: C_8  and  C_9
REMARK    7  A    between atoms: C_14  and  O_15
REMARK    8  A    between atoms: C_17  and  O_18
REMARK    9  A    between atoms: C_17  and  C_21
REMARK   10  A    between atoms: C_21  and  O_22
REMARK                            x       y       z     vdW  Elec       q    Type
REMARK                         _______ _______ _______ _____ _____    ______ ____
ROOT
ATOM      1  C   UNL     1      -1.144  -0.566   0.186  0.00  0.00    +0.216 C 
ENDROOT
BRANCH   1   2
ATOM      2  O   UNL     1      -0.946  -0.582   1.599  0.00  0.00    -0.374 OA
ATOM      3  H   UNL     1      -0.140  -0.089   1.818  0.00  0.00    +0.211 HD
ENDBRANCH   1   2
BRANCH   1   5
ATOM      4  O   UNL     1      -3.170  -1.825   0.717  0.00  0.00    -0.248 OA
ATOM      5  C   UNL     1      -2.423  -1.352  -0.131  0.00  0.00    +0.341 C 
BRANCH   5   6
ATOM      6  O   UNL     1      -2.634  -1.520  -1.462  0.00  0.00    -0.479 OA
ATOM      7  H   UNL     1      -2.040  -1.142  -2.081  0.00  0.00    +0.295 HD
ENDBRANCH   5   6
ENDBRANCH   1   5
BRANCH   1   8
ATOM      8  C   UNL     1       0.024  -1.348  -0.465  0.00  0.00    +0.067 C 
BRANCH   8   9
ATOM      9  C   UNL     1       1.396  -0.742  -0.273  0.00  0.00    -0.019 C 
ATOM     10  C   UNL     1       1.870   0.166  -1.204  0.00  0.00    -0.001 C 
ATOM     11  C   UNL     1       2.148  -1.108   0.829  0.00  0.00    -0.001 C 
ATOM     12  C   UNL     1       3.136   0.725  -1.027  0.00  0.00    +0.036 C 
ATOM     13  C   UNL     1       3.414  -0.549   1.006  0.00  0.00    +0.036 C 
ATOM     14  C   UNL     1       3.908   0.367   0.078  0.00  0.00    +0.134 C 
BRANCH  14  15
ATOM     15  O   UNL     1       5.143   0.913   0.250  0.00  0.00    -0.506 OA
ATOM     16  H   UNL     1       5.474   1.529  -0.374  0.00  0.00    +0.292 HD
ENDBRANCH  14  15
ENDBRANCH   8   9
ENDBRANCH   1   8
BRANCH   1  17
ATOM     17  C   UNL     1      -1.256   0.905  -0.280  0.00  0.00    +0.245 C 
BRANCH  17  18
ATOM     18  O   UNL     1      -1.483   0.951  -1.684  0.00  0.00    -0.372 OA
ATOM     19  H   UNL     1      -0.776   0.470  -2.142  0.00  0.00    +0.211 HD
ENDBRANCH  17  18
BRANCH  17  21
ATOM     20  O   UNL     1      -3.357   2.148  -0.220  0.00  0.00    -0.247 OA
ATOM     21  C   UNL     1      -2.395   1.673   0.368  0.00  0.00    +0.344 C 
BRANCH  21  22
ATOM     22  O   UNL     1      -2.232   1.744   1.713  0.00  0.00    -0.478 OA
ATOM     23  H   UNL     1      -1.475   1.363   2.114  0.00  0.00    +0.295 HD
ENDBRANCH  21  22
ENDBRANCH  17  21
ENDBRANCH   1  17
TORSDOF 10
