REMARK  Name = 12069
REMARK  5 active torsions:
REMARK  status: ('A' for Active; 'I' for Inactive)
REMARK    1  A    between atoms: C_1  and  C_11
REMARK    2  A    between atoms: C_2  and  C_15
REMARK    3  A    between atoms: C_3  and  N_9
REMARK    4  A    between atoms: C_11  and  O_12
REMARK    5  A    between atoms: C_15  and  O_16
REMARK                            x       y       z     vdW  Elec       q    Type
REMARK                         _______ _______ _______ _____ _____    ______ ____
ROOT
ATOM      1  C   UNL     1      -0.662   1.207   0.000  0.00  0.00    +0.077 C 
ATOM      2  C   UNL     1      -0.658  -1.209   0.000  0.00  0.00    +0.077 C 
ATOM      3  C   UNL     1       1.432   0.002  -0.001  0.00  0.00    +0.143 C 
ATOM      4  C   UNL     1      -1.357  -0.002   0.000  0.00  0.00    +0.013 C 
ATOM      5  C   UNL     1       0.733   1.209   0.000  0.00  0.00    +0.031 C 
ATOM      6  C   UNL     1       0.736  -1.207   0.000  0.00  0.00    +0.031 C 
ENDROOT
BRANCH   3   9
ATOM      7  O   UNL     1       3.459   1.102   0.001  0.00  0.00    -0.126 OA
ATOM      8  O   UNL     1       3.462  -1.093   0.000  0.00  0.00    -0.126 OA
ATOM      9  N   UNL     1       2.852   0.004   0.000  0.00  0.00    +0.058 N 
ENDBRANCH   3   9
BRANCH   1  11
ATOM     10  O   UNL     1      -0.878   3.590   0.000  0.00  0.00    -0.245 OA
ATOM     11  C   UNL     1      -1.391   2.466   0.000  0.00  0.00    +0.338 C 
BRANCH  11  12
ATOM     12  O   UNL     1      -2.740   2.285  -0.001  0.00  0.00    -0.477 OA
ATOM     13  H   UNL     1      -3.097   1.419  -0.001  0.00  0.00    +0.295 HD
ENDBRANCH  11  12
ENDBRANCH   1  11
BRANCH   2  15
ATOM     14  O   UNL     1      -0.869  -3.592  -0.001  0.00  0.00    -0.245 OA
ATOM     15  C   UNL     1      -1.384  -2.469   0.000  0.00  0.00    +0.338 C 
BRANCH  15  16
ATOM     16  O   UNL     1      -2.734  -2.293   0.001  0.00  0.00    -0.477 OA
ATOM     17  H   UNL     1      -3.093  -1.427   0.002  0.00  0.00    +0.295 HD
ENDBRANCH  15  16
ENDBRANCH   2  15
TORSDOF 5
