REMARK  Name = 12067616
REMARK  4 active torsions:
REMARK  status: ('A' for Active; 'I' for Inactive)
REMARK    1  A    between atoms: CA_16  and  CB_29
REMARK    2  A    between atoms: CA_20  and  CB_32
REMARK    3  A    between atoms: CB_32  and  CG_33
REMARK    4  A    between atoms: CZ_38  and  OH_39
REMARK                            x       y       z     vdW  Elec       q    Type
REMARK                         _______ _______ _______ _____ _____    ______ ____
ROOT
ATOM      1  O   PRO A   1      -2.724   2.004  -2.459  0.00  0.00    -0.273 OA
ATOM      2  O   GLY A   5      -3.674  -1.244   1.869  0.00  0.00    -0.273 OA
ATOM      3  O   VAL A   2       0.067   0.138   0.875  0.00  0.00    -0.273 OA
ATOM      4  O   TYR A   3       1.006  -2.799  -2.261  0.00  0.00    -0.273 OA
ATOM      5  O   ALA A   4      -2.908  -4.087   0.531  0.00  0.00    -0.273 OA
ATOM      6  N   PRO A   1      -4.000   0.680   0.646  0.00  0.00    -0.272 N 
ATOM      7  N   VAL A   2      -1.705   1.713  -0.400  0.00  0.00    -0.297 N 
ATOM      8  N   TYR A   3       1.310   0.029  -1.087  0.00  0.00    -0.297 N 
ATOM      9  N   GLY A   5      -2.227  -2.103  -0.439  0.00  0.00    -0.295 N 
ATOM     10  N   ALA A   4       0.388  -2.807  -0.029  0.00  0.00    -0.297 N 
ATOM     11  CA  PRO A   1      -4.135   1.458  -0.590  0.00  0.00    +0.152 C 
ATOM     12  CB  PRO A   1      -4.785   2.770  -0.143  0.00  0.00    +0.031 C 
ATOM     13  CG  PRO A   1      -4.329   2.928   1.303  0.00  0.00    +0.024 C 
ATOM     14  CD  PRO A   1      -4.301   1.498   1.815  0.00  0.00    +0.094 C 
ATOM     15  C   PRO A   1      -2.785   1.719  -1.263  0.00  0.00    +0.241 C 
ATOM     16  CA  VAL A   2      -0.319   1.801  -0.830  0.00  0.00    +0.149 C 
ATOM     17  C   GLY A   5      -3.746  -0.677   0.774  0.00  0.00    +0.246 C 
ATOM     18  CA  GLY A   5      -3.531  -1.470  -0.504  0.00  0.00    +0.176 C 
ATOM     19  C   VAL A   2       0.354   0.569  -0.240  0.00  0.00    +0.241 C 
ATOM     20  CA  TYR A   3       2.060  -1.192  -0.825  0.00  0.00    +0.153 C 
ATOM     21  CA  ALA A   4      -0.585  -3.889  -0.106  0.00  0.00    +0.149 C 
ATOM     22  C   TYR A   3       1.131  -2.368  -1.114  0.00  0.00    +0.241 C 
ATOM     23  C   ALA A   4      -2.012  -3.367   0.087  0.00  0.00    +0.241 C 
ATOM     24  CB  ALA A   4      -0.244  -4.968   0.914  0.00  0.00    +0.031 C 
ATOM     25  H   VAL A   2      -1.886   1.645   0.566  0.00  0.00    +0.150 HD
ATOM     26  H   TYR A   3       1.496   0.507  -1.928  0.00  0.00    +0.150 HD
ATOM     27  H   GLY A   5      -1.452  -1.608  -0.789  0.00  0.00    +0.150 HD
ATOM     28  H   ALA A   4       0.525  -2.364   0.839  0.00  0.00    +0.150 HD
ENDROOT
BRANCH  16  29
ATOM     29  CB  VAL A   2       0.340   3.069  -0.316  0.00  0.00    +0.027 C 
ATOM     30  CG1 VAL A   2      -0.311   4.305  -0.934  0.00  0.00    +0.002 C 
ATOM     31  CG2 VAL A   2       0.270   3.134   1.209  0.00  0.00    +0.002 C 
ENDBRANCH  16  29
BRANCH  20  32
ATOM     32  CB  TYR A   3       2.801  -1.220   0.505  0.00  0.00    +0.055 C 
BRANCH  32  33
ATOM     33  CG  TYR A   3       4.045  -0.374   0.470  0.00  0.00    -0.020 C 
ATOM     34  CD1 TYR A   3       5.248  -0.944   0.079  0.00  0.00    -0.001 C 
ATOM     35  CD2 TYR A   3       3.971   0.964   0.831  0.00  0.00    -0.001 C 
ATOM     36  CE1 TYR A   3       6.401  -0.159   0.048  0.00  0.00    +0.036 C 
ATOM     37  CE2 TYR A   3       5.124   1.749   0.799  0.00  0.00    +0.036 C 
ATOM     38  CZ  TYR A   3       6.339   1.187   0.408  0.00  0.00    +0.134 C 
BRANCH  38  39
ATOM     39  OH  TYR A   3       7.465   1.952   0.376  0.00  0.00    -0.506 OA
ATOM     40  HH  TYR A   3       8.281   1.574   0.113  0.00  0.00    +0.292 HD
ENDBRANCH  38  39
ENDBRANCH  32  33
ENDBRANCH  20  32
TORSDOF 4
