REMARK  Name = 120639
REMARK  9 active torsions:
REMARK  status: ('A' for Active; 'I' for Inactive)
REMARK    1  A    between atoms: C_2  and  O_7
REMARK    2  A    between atoms: C_3  and  O_9
REMARK    3  A    between atoms: C_4  and  O_11
REMARK    4  A    between atoms: C_5  and  C_23
REMARK    5  A    between atoms: C_6  and  O_13
REMARK    6  A    between atoms: O_13  and  C_14
REMARK    7  A    between atoms: C_14  and  C_15
REMARK    8  A    between atoms: C_14  and  C_22
REMARK    9  A    between atoms: C_23  and  O_24
REMARK                            x       y       z     vdW  Elec       q    Type
REMARK                         _______ _______ _______ _____ _____    ______ ____
ROOT
ATOM      1  O   UNL     1       0.892   0.612   0.257  0.00  0.00    -0.326 OA
ATOM      2  C   UNL     1       3.322  -0.748  -0.445  0.00  0.00    +0.172 C 
ATOM      3  C   UNL     1       3.234   0.775  -0.345  0.00  0.00    +0.169 C 
ATOM      4  C   UNL     1       1.944  -1.368  -0.676  0.00  0.00    +0.196 C 
ATOM      5  C   UNL     1       2.140   1.192   0.640  0.00  0.00    +0.176 C 
ATOM      6  C   UNL     1       0.913  -0.813   0.307  0.00  0.00    +0.267 C 
ENDROOT
BRANCH   2   7
ATOM      7  O   UNL     1       4.179  -1.070  -1.542  0.00  0.00    -0.379 OA
ATOM      8  H   UNL     1       5.053  -0.676  -1.396  0.00  0.00    +0.211 HD
ENDBRANCH   2   7
BRANCH   3   9
ATOM      9  O   UNL     1       4.487   1.292   0.097  0.00  0.00    -0.379 OA
ATOM     10  H   UNL     1       5.183   1.029  -0.526  0.00  0.00    +0.211 HD
ENDBRANCH   3   9
BRANCH   4  11
ATOM     11  O   UNL     1       2.023  -2.781  -0.490  0.00  0.00    -0.378 OA
ATOM     12  H   UNL     1       2.674  -3.152  -1.106  0.00  0.00    +0.211 HD
ENDBRANCH   4  11
BRANCH   6  13
ATOM     13  O   UNL     1      -0.366  -1.327  -0.062  0.00  0.00    -0.312 OA
BRANCH  13  14
ATOM     14  C   UNL     1      -1.384  -0.849   0.804  0.00  0.00    +0.230 C 
BRANCH  14  15
ATOM     15  C   UNL     1      -2.377  -0.039   0.004  0.00  0.00    +0.019 C 
ATOM     16  C   UNL     1      -2.626  -0.383  -1.315  0.00  0.00    -0.001 C 
ATOM     17  C   UNL     1      -3.021   1.030   0.605  0.00  0.00    -0.001 C 
ATOM     18  C   UNL     1      -3.543   0.365  -2.054  0.00  0.00    -0.000 C 
ATOM     19  C   UNL     1      -3.938   1.778  -0.134  0.00  0.00    -0.000 C 
ATOM     20  C   UNL     1      -4.199   1.445  -1.464  0.00  0.00    -0.000 C 
ENDBRANCH  14  15
BRANCH  14  22
ATOM     21  N   UNL     1      -2.530  -2.861   2.052  0.00  0.00    -0.193 NA
ATOM     22  C   UNL     1      -2.026  -1.973   1.500  0.00  0.00    +0.107 C 
ENDBRANCH  14  22
ENDBRANCH  13  14
ENDBRANCH   6  13
BRANCH   5  23
ATOM     23  C   UNL     1       1.953   2.706   0.670  0.00  0.00    +0.169 C 
BRANCH  23  24
ATOM     24  O   UNL     1       0.923   3.015   1.590  0.00  0.00    -0.379 OA
ATOM     25  H   UNL     1       0.793   3.976   1.619  0.00  0.00    +0.211 HD
ENDBRANCH  23  24
ENDBRANCH   5  23
TORSDOF 9
