REMARK  Name = 12071198
REMARK  5 active torsions:
REMARK  status: ('A' for Active; 'I' for Inactive)
REMARK    1  A    between atoms: C2*_2  and  O2*_16
REMARK    2  A    between atoms: C1*_3  and  N_7
REMARK    3  A    between atoms: C3*_4  and  O3*_18
REMARK    4  A    between atoms: C4*_5  and  C5*_20
REMARK    5  A    between atoms: C5*_20  and  O5*_21
REMARK                            x       y       z     vdW  Elec       q    Type
REMARK                         _______ _______ _______ _____ _____    ______ ____
ROOT
ATOM      1  O4* UNL     1       2.000  -0.234  -0.957  0.00  0.00    -0.333 OA
ATOM      2  C2* UNL     1       1.579   1.375   0.775  0.00  0.00    +0.187 C 
ATOM      3  C1* UNL     1       0.995   0.661  -0.448  0.00  0.00    +0.225 C 
ATOM      4  C3* UNL     1       2.863   0.619   1.066  0.00  0.00    +0.171 C 
ATOM      5  C4* UNL     1       3.243   0.069  -0.304  0.00  0.00    +0.175 C 
ENDROOT
BRANCH   3   7
ATOM      6 CL   UNL     1      -4.728  -1.761   0.545  0.00  0.00    -0.060 Cl
ATOM      7  N   UNL     1      -0.227  -0.092  -0.156  0.00  0.00    -0.247 N 
ATOM      8  N   UNL     1      -1.530  -1.788   0.471  0.00  0.00    -0.243 NA
ATOM      9  N   UNL     1      -1.925   1.561  -0.693  0.00  0.00    -0.228 NA
ATOM     10  N   UNL     1      -4.170   0.677  -0.326  0.00  0.00    -0.231 NA
ATOM     11  C   UNL     1      -1.513   0.353  -0.279  0.00  0.00    +0.152 C 
ATOM     12  C   UNL     1      -0.290  -1.383   0.298  0.00  0.00    +0.223 C 
ATOM     13  C   UNL     1      -2.305  -0.713   0.115  0.00  0.00    +0.137 C 
ATOM     14  C   UNL     1      -3.682  -0.520   0.082  0.00  0.00    +0.155 C 
ATOM     15  C   UNL     1      -3.274   1.629  -0.683  0.00  0.00    +0.253 C 
ENDBRANCH   3   7
BRANCH   2  16
ATOM     16  O2* UNL     1       1.876   2.727   0.436  0.00  0.00    -0.378 OA
ATOM     17  H2* UNL     1       1.051   3.203   0.252  0.00  0.00    +0.211 HD
ENDBRANCH   2  16
BRANCH   4  18
ATOM     18  O3* UNL     1       2.594  -0.442   1.974  0.00  0.00    -0.379 OA
ATOM     19  H3* UNL     1       2.354  -0.074   2.839  0.00  0.00    +0.211 HD
ENDBRANCH   4  18
BRANCH   5  20
ATOM     20  C5* UNL     1       4.118  -1.171  -0.289  0.00  0.00    +0.169 C 
BRANCH  20  21
ATOM     21  O5* UNL     1       4.375  -1.567  -1.627  0.00  0.00    -0.379 OA
ATOM     22  H5* UNL     1       4.934  -2.359  -1.627  0.00  0.00    +0.211 HD
ENDBRANCH  20  21
ENDBRANCH   5  20
TORSDOF 5
