REMARK  Name = 120720
REMARK  6 active torsions:
REMARK  status: ('A' for Active; 'I' for Inactive)
REMARK    1  A    between atoms: CA_6  and  C_25
REMARK    2  A    between atoms: CA_7  and  N_12
REMARK    3  A    between atoms: C_13  and  C_15
REMARK    4  A    between atoms: C_15  and  C_16
REMARK    5  A    between atoms: C_21  and  O_22
REMARK    6  A    between atoms: C_25  and  O_26
REMARK                            x       y       z     vdW  Elec       q    Type
REMARK                         _______ _______ _______ _____ _____    ______ ____
ROOT
ATOM      1  S   UNL     1      -0.993   1.199   0.464  0.00  0.00    -0.118 S 
ATOM      2  O   UNL     1      -2.737  -2.528  -1.112  0.00  0.00    -0.273 OA
ATOM      3  N   UNL     1      -2.795  -0.663   0.334  0.00  0.00    -0.260 N 
ATOM      4  C   UNL     1      -1.597  -0.393   1.135  0.00  0.00    +0.151 C 
ATOM      5  C   UNL     1      -2.732   1.735   0.067  0.00  0.00    +0.068 C 
ATOM      6  CA  UNL     1      -3.423   0.429  -0.382  0.00  0.00    +0.184 C 
ATOM      7  CA  UNL     1      -0.989  -1.670   0.539  0.00  0.00    +0.178 C 
ATOM      8  C   UNL     1      -2.314  -1.805  -0.239  0.00  0.00    +0.247 C 
ATOM      9  C   UNL     1      -3.330   2.371   1.329  0.00  0.00    +0.013 C 
ATOM     10  C   UNL     1      -2.689   2.761  -1.067  0.00  0.00    +0.013 C 
ENDROOT
BRANCH   7  12
ATOM     11  O   UNL     1       1.762  -2.232   1.238  0.00  0.00    -0.275 OA
ATOM     12  N   UNL     1       0.195  -1.522  -0.319  0.00  0.00    -0.296 N 
ATOM     13  C   UNL     1       1.489  -1.821   0.114  0.00  0.00    +0.227 C 
ATOM     14  H   UNL     1       0.070  -1.197  -1.240  0.00  0.00    +0.150 HD
BRANCH  13  15
ATOM     15  C   UNL     1       2.523  -1.577  -0.968  0.00  0.00    +0.111 C 
BRANCH  15  16
ATOM     16  C   UNL     1       3.561  -0.557  -0.581  0.00  0.00    -0.013 C 
ATOM     17  C   UNL     1       3.343   0.782  -0.868  0.00  0.00    -0.001 C 
ATOM     18  C   UNL     1       4.722  -0.973   0.057  0.00  0.00    -0.001 C 
ATOM     19  C   UNL     1       4.305   1.727  -0.510  0.00  0.00    +0.036 C 
ATOM     20  C   UNL     1       5.684  -0.029   0.415  0.00  0.00    +0.036 C 
ATOM     21  C   UNL     1       5.476   1.321   0.131  0.00  0.00    +0.134 C 
BRANCH  21  22
ATOM     22  O   UNL     1       6.414   2.243   0.481  0.00  0.00    -0.506 OA
ATOM     23  H   UNL     1       6.273   3.150   0.290  0.00  0.00    +0.292 HD
ENDBRANCH  21  22
ENDBRANCH  15  16
ENDBRANCH  13  15
ENDBRANCH   7  12
BRANCH   6  25
ATOM     24  OXT UNL     1      -5.420  -0.444   0.656  0.00  0.00    -0.248 OA
ATOM     25  C   UNL     1      -4.890   0.353  -0.103  0.00  0.00    +0.333 C 
BRANCH  25  26
ATOM     26  O   UNL     1      -5.561   1.294  -0.812  0.00  0.00    -0.479 OA
ATOM     27  H   UNL     1      -5.094   1.876  -1.378  0.00  0.00    +0.295 HD
ENDBRANCH  25  26
ENDBRANCH   6  25
TORSDOF 6
