121000981
  -OEChem-03292013293D

 32 33  0     0  0  0  0  0  0999 V2000
    4.1728   -0.7400    0.2198 O   0  0  0  0  0  0  0  0  0  0  0  0
    1.6458   -2.7067    0.9410 O   0  0  0  0  0  0  0  0  0  0  0  0
   -0.5449   -0.7807   -0.5955 N   0  0  0  0  0  0  0  0  0  0  0  0
    0.6389    1.2452   -0.3968 N   0  0  0  0  0  0  0  0  0  0  0  0
    3.0139    1.2409    0.0118 N   0  0  0  0  0  0  0  0  0  0  0  0
    1.8326   -2.2147   -0.1811 N   0  0  0  0  0  0  0  0  0  0  0  0
    1.8303    3.2566   -0.1959 N   0  0  0  0  0  0  0  0  0  0  0  0
   -1.8839   -0.4505   -0.3002 C   0  0  0  0  0  0  0  0  0  0  0  0
    0.6725   -0.1035   -0.3883 C   0  0  0  0  0  0  0  0  0  0  0  0
   -4.5322    0.2036    0.2838 C   0  0  0  0  0  0  0  0  0  0  0  0
   -2.1765    0.3587    0.7976 C   0  0  0  0  0  0  0  0  0  0  0  0
   -2.9153   -0.9326   -1.1061 C   0  0  0  0  0  0  0  0  0  0  0  0
   -3.5006    0.6858    1.0895 C   0  0  0  0  0  0  0  0  0  0  0  0
   -4.2394   -0.6055   -0.8141 C   0  0  0  0  0  0  0  0  0  0  0  0
    1.8221   -0.8405   -0.1892 C   0  0  0  0  0  0  0  0  0  0  0  0
    2.9747   -0.1076    0.0076 C   0  0  0  0  0  0  0  0  0  0  0  0
   -5.9477    0.5540    0.5960 C   0  0  0  0  0  0  0  0  0  0  0  0
    1.8277    1.8446   -0.1933 C   0  0  0  0  0  0  0  0  0  0  0  0
    5.3094    0.0930    0.4133 C   0  0  0  0  0  0  0  0  0  0  0  0
   -0.4592   -1.5756   -1.2235 H   0  0  0  0  0  0  0  0  0  0  0  0
   -1.3917    0.7354    1.4481 H   0  0  0  0  0  0  0  0  0  0  0  0
   -2.7010   -1.5636   -1.9649 H   0  0  0  0  0  0  0  0  0  0  0  0
   -3.7165    1.3133    1.9502 H   0  0  0  0  0  0  0  0  0  0  0  0
   -5.0344   -0.9884   -1.4485 H   0  0  0  0  0  0  0  0  0  0  0  0
   -6.3785   -0.1907    1.2726 H   0  0  0  0  0  0  0  0  0  0  0  0
   -6.0157    1.5394    1.0692 H   0  0  0  0  0  0  0  0  0  0  0  0
   -6.5552    0.5937   -0.3146 H   0  0  0  0  0  0  0  0  0  0  0  0
    0.9639    3.7548   -0.3456 H   0  0  0  0  0  0  0  0  0  0  0  0
    2.6985    3.7522   -0.0475 H   0  0  0  0  0  0  0  0  0  0  0  0
    6.1778   -0.5548    0.5665 H   0  0  0  0  0  0  0  0  0  0  0  0
    5.1941    0.7161    1.3066 H   0  0  0  0  0  0  0  0  0  0  0  0
    5.5023    0.7087   -0.4718 H   0  0  0  0  0  0  0  0  0  0  0  0
  1 16  1  0  0  0  0
  1 19  1  0  0  0  0
  2  6  2  0  0  0  0
  3  8  1  0  0  0  0
  3  9  1  0  0  0  0
  3 20  1  0  0  0  0
  4  9  1  0  0  0  0
  4 18  2  0  0  0  0
  5 16  2  0  0  0  0
  5 18  1  0  0  0  0
  6 15  1  0  0  0  0
  7 18  1  0  0  0  0
  7 28  1  0  0  0  0
  7 29  1  0  0  0  0
  8 11  2  0  0  0  0
  8 12  1  0  0  0  0
  9 15  2  0  0  0  0
 10 13  2  0  0  0  0
 10 14  1  0  0  0  0
 10 17  1  0  0  0  0
 11 13  1  0  0  0  0
 11 21  1  0  0  0  0
 12 14  2  0  0  0  0
 12 22  1  0  0  0  0
 13 23  1  0  0  0  0
 14 24  1  0  0  0  0
 15 16  1  0  0  0  0
 17 25  1  0  0  0  0
 17 26  1  0  0  0  0
 17 27  1  0  0  0  0
 19 30  1  0  0  0  0
 19 31  1  0  0  0  0
 19 32  1  0  0  0  0
M  END
> <PUBCHEM_COMPOUND_CID>
121000981

> <PUBCHEM_CONFORMER_RMSD>
0.6

> <PUBCHEM_CONFORMER_DIVERSEORDER>
1
16
24
25
6
23
26
4
14
7
27
11
15
18
8
9
2
20
17
21
5
19
22
3
10
12
13

> <PUBCHEM_MMFF94_PARTIAL_CHARGES>
26
1 -0.36
10 -0.14
11 -0.15
12 -0.15
13 -0.15
14 -0.15
15 0.3
16 0.39
17 0.14
18 0.72
19 0.28
2 -0.16
20 0.4
21 0.15
22 0.15
23 0.15
24 0.15
28 0.4
29 0.4
3 -0.6
4 -0.62
5 -0.62
6 -0.14
7 -0.9
8 0.1
9 0.41

> <PUBCHEM_EFFECTIVE_ROTOR_COUNT>
4

> <PUBCHEM_PHARMACOPHORE_FEATURES>
6
1 3 cation
1 3 donor
1 7 donor
4 4 5 7 18 cation
6 4 5 9 15 16 18 rings
6 8 10 11 12 13 14 rings

> <PUBCHEM_HEAVY_ATOM_COUNT>
19

> <PUBCHEM_ATOM_DEF_STEREO_COUNT>
0

> <PUBCHEM_ATOM_UDEF_STEREO_COUNT>
0

> <PUBCHEM_BOND_DEF_STEREO_COUNT>
0

> <PUBCHEM_BOND_UDEF_STEREO_COUNT>
0

> <PUBCHEM_ISOTOPIC_ATOM_COUNT>
0

> <PUBCHEM_COMPONENT_COUNT>
1

> <PUBCHEM_CACTVS_TAUTO_COUNT>
56

> <PUBCHEM_CONFORMER_ID>
0736541500000001

> <PUBCHEM_MMFF94_ENERGY>
75.4108

> <PUBCHEM_FEATURE_SELFOVERLAP>
30.447

> <PUBCHEM_SHAPE_FINGERPRINT>
10354089 29 18412549799267970395
10366900 7 17967822643158173441
10906281 52 18339090405968484940
11089746 13 17703500047846422577
11471102 20 18408602578151646644
12107183 9 17550676517473032283
12236239 1 18059855060664266983
12251169 10 18341614806659907191
12507557 5 18412262852624334881
12633257 1 18187076273758749859
13140716 1 18263926716491849106
13583140 156 18333454231917807275
13965767 371 17411933602955274281
14386348 63 17022626355791683835
15048467 5 17346594188772661842
15475509 8 18129403561205676884
15527383 91 18261112980158059693
19050596 39 18343585170278200831
200 152 18272926146477864287
20233049 118 17275384300302468354
20279233 1 17240769462753173595
20715895 44 17840876170996776025
21033648 29 17458609151792138501
21267235 1 18342466923576039239
21641784 216 17823153250163016076
21709351 56 18411973693792740261
2255824 54 18410295847570103492
22854114 111 18411703218285458765
23402539 116 16917342641364660285
23557571 272 14261359024814626883
23558518 356 17829327239559327770
23559900 14 16559038164033389887
26918003 58 18260271854358474915
300161 21 18131344181758317599
33382 64 15792286000043029496
3545911 37 18130791148689249463
474 4 18337953510001183841
5104073 3 18339357590649921139
633830 44 18269840972231381932
67856867 119 18129938013360135289
8272917 22 18410860940717681631
84936 182 17913768589673601721
9971528 1 18202006508356941228
9981440 41 17191207047569834768

> <PUBCHEM_SHAPE_MULTIPOLES>
354.37
10.65
2.14
0.91
5.49
0.56
-0.04
0.84
-1.83
-2.18
-0.02
0.63
-0.12
-0.99

> <PUBCHEM_SHAPE_SELFOVERLAP>
756.474

> <PUBCHEM_SHAPE_VOLUME>
195.9

> <PUBCHEM_COORDINATE_TYPE>
2
5
10

$$$$
