REMARK  Name = 12100449
REMARK  8 active torsions:
REMARK  status: ('A' for Active; 'I' for Inactive)
REMARK    1  A    between atoms: C_1  and  C_11
REMARK    2  A    between atoms: C_2  and  C_16
REMARK    3  A    between atoms: C_3  and  C_21
REMARK    4  A    between atoms: C_4  and  C_26
REMARK    5  A    between atoms: C_11  and  N_12
REMARK    6  A    between atoms: C_16  and  N_17
REMARK    7  A    between atoms: C_21  and  N_22
REMARK    8  A    between atoms: C_26  and  N_27
REMARK                            x       y       z     vdW  Elec       q    Type
REMARK                         _______ _______ _______ _____ _____    ______ ____
ROOT
ATOM      1  C   UNL     1       0.899   0.745  -1.031  0.00  0.00    -0.020 C 
ATOM      2  C   UNL     1      -0.900   1.031   0.745  0.00  0.00    -0.020 C 
ATOM      3  C   UNL     1      -0.900  -1.031  -0.745  0.00  0.00    -0.020 C 
ATOM      4  C   UNL     1       0.899  -0.745   1.031  0.00  0.00    -0.020 C 
ATOM      5  C   UNL     1      -0.001   1.754  -0.283  0.00  0.00    -0.004 C 
ATOM      6  C   UNL     1      -0.001  -0.283  -1.754  0.00  0.00    -0.004 C 
ATOM      7  C   UNL     1       1.776   0.000   0.000  0.00  0.00    -0.004 C 
ATOM      8  C   UNL     1      -1.777   0.000   0.000  0.00  0.00    -0.004 C 
ATOM      9  C   UNL     1      -0.001   0.283   1.754  0.00  0.00    -0.004 C 
ATOM     10  C   UNL     1      -0.001  -1.754   0.283  0.00  0.00    -0.004 C 
ENDROOT
BRANCH   1  11
ATOM     11  C   UNL     1       1.783   1.477  -2.045  0.00  0.00    -0.086 C 
BRANCH  11  12
ATOM     12  N   UNL     1       2.625   0.557  -2.744  0.00  0.00    +0.380 N 
ATOM     13  H   UNL     1       3.204   1.065  -3.412  0.00  0.00    -0.089 HD
ATOM     14  H   UNL     1       2.048  -0.122  -3.241  0.00  0.00    -0.089 HD
ATOM     15  H   UNL     1       3.224   0.070  -2.077  0.00  0.00    -0.089 HD
ENDBRANCH  11  12
ENDBRANCH   1  11
BRANCH   2  16
ATOM     16  C   UNL     1      -1.785   2.045   1.477  0.00  0.00    -0.086 C 
BRANCH  16  17
ATOM     17  N   UNL     1      -2.621   2.749   0.556  0.00  0.00    +0.380 N 
ATOM     18  H   UNL     1      -3.200   3.417   1.064  0.00  0.00    -0.089 HD
ATOM     19  H   UNL     1      -3.220   2.085   0.064  0.00  0.00    -0.089 HD
ATOM     20  H   UNL     1      -2.040   3.247  -0.119  0.00  0.00    -0.089 HD
ENDBRANCH  16  17
ENDBRANCH   2  16
BRANCH   3  21
ATOM     21  C   UNL     1      -1.784  -2.045  -1.477  0.00  0.00    -0.086 C 
BRANCH  21  22
ATOM     22  N   UNL     1      -2.621  -2.749  -0.556  0.00  0.00    +0.380 N 
ATOM     23  H   UNL     1      -3.200  -3.417  -1.065  0.00  0.00    -0.089 HD
ATOM     24  H   UNL     1      -3.220  -2.085  -0.065  0.00  0.00    -0.089 HD
ATOM     25  H   UNL     1      -2.040  -3.247   0.119  0.00  0.00    -0.089 HD
ENDBRANCH  21  22
ENDBRANCH   3  21
BRANCH   4  26
ATOM     26  C   UNL     1       1.783  -1.477   2.046  0.00  0.00    -0.086 C 
BRANCH  26  27
ATOM     27  N   UNL     1       2.625  -0.557   2.744  0.00  0.00    +0.380 N 
ATOM     28  H   UNL     1       3.203  -1.065   3.413  0.00  0.00    -0.089 HD
ATOM     29  H   UNL     1       2.048   0.122   3.241  0.00  0.00    -0.089 HD
ATOM     30  H   UNL     1       3.224  -0.070   2.077  0.00  0.00    -0.089 HD
ENDBRANCH  26  27
ENDBRANCH   4  26
TORSDOF 8
