REMARK  Name = 121077
REMARK  6 active torsions:
REMARK  status: ('A' for Active; 'I' for Inactive)
REMARK    1  A    between atoms: S_1  and  C_4
REMARK    2  A    between atoms: S_1  and  N_13
REMARK    3  A    between atoms: C_9  and  N_10
REMARK    4  A    between atoms: N_13  and  C_17
REMARK    5  A    between atoms: C_19  and  O_21
REMARK    6  A    between atoms: C_20  and  O_23
REMARK                            x       y       z     vdW  Elec       q    Type
REMARK                         _______ _______ _______ _____ _____    ______ ____
ROOT
ATOM      1  S   UNL     1      -1.000  -2.318   0.068  0.00  0.00    +0.074 S 
ATOM      2  O   UNL     1      -1.974  -3.166  -0.610  0.00  0.00    -0.150 OA
ATOM      3  O   UNL     1      -0.391  -2.797   1.303  0.00  0.00    -0.150 OA
ENDROOT
BRANCH   1   4
ATOM      4  C   UNL     1      -1.761  -0.778   0.380  0.00  0.00    +0.125 C 
ATOM      5  C   UNL     1      -2.835  -0.358  -0.405  0.00  0.00    +0.021 C 
ATOM      6  C   UNL     1      -1.295   0.033   1.415  0.00  0.00    +0.021 C 
ATOM      7  C   UNL     1      -3.443   0.872  -0.155  0.00  0.00    +0.015 C 
ATOM      8  C   UNL     1      -1.903   1.263   1.665  0.00  0.00    +0.015 C 
ATOM      9  C   UNL     1      -2.977   1.683   0.880  0.00  0.00    +0.042 C 
BRANCH   9  10
ATOM     10  N   UNL     1      -3.591   2.927   1.133  0.00  0.00    -0.357 N 
ATOM     11  H   UNL     1      -4.349   3.223   0.578  0.00  0.00    +0.142 HD
ATOM     12  H   UNL     1      -3.262   3.499   1.863  0.00  0.00    +0.142 HD
ENDBRANCH   9  10
ENDBRANCH   1   4
BRANCH   1  13
ATOM     13  N   UNL     1       0.234  -1.912  -1.064  0.00  0.00    -0.210 N 
ATOM     14  H   UNL     1       0.320  -2.398  -1.915  0.00  0.00    +0.174 HD
BRANCH  13  17
ATOM     15  N   UNL     1       1.963   1.363  -1.129  0.00  0.00    -0.106 NA
ATOM     16  N   UNL     1       2.846   1.221  -0.104  0.00  0.00    -0.107 NA
ATOM     17  C   UNL     1       1.135  -0.842  -0.728  0.00  0.00    +0.124 C 
ATOM     18  C   UNL     1       2.027  -0.995   0.311  0.00  0.00    +0.080 C 
ATOM     19  C   UNL     1       1.129   0.343  -1.424  0.00  0.00    +0.259 C 
ATOM     20  C   UNL     1       2.868   0.064   0.591  0.00  0.00    +0.245 C 
BRANCH  19  21
ATOM     21  O   UNL     1       0.262   0.542  -2.464  0.00  0.00    -0.454 OA
ATOM     22  C   UNL     1       0.330   1.801  -3.124  0.00  0.00    +0.254 C 
ENDBRANCH  19  21
BRANCH  20  23
ATOM     23  O   UNL     1       3.770  -0.037   1.614  0.00  0.00    -0.455 OA
ATOM     24  C   UNL     1       4.606   1.091   1.847  0.00  0.00    +0.254 C 
ENDBRANCH  20  23
ENDBRANCH  13  17
ENDBRANCH   1  13
TORSDOF 6
