REMARK  Name = 121000981
REMARK  3 active torsions:
REMARK  status: ('A' for Active; 'I' for Inactive)
REMARK    1  A    between atoms: C_5  and  N_13
REMARK    2  A    between atoms: C_6  and  O_10
REMARK    3  A    between atoms: N_14  and  C_16
REMARK                            x       y       z     vdW  Elec       q    Type
REMARK                         _______ _______ _______ _____ _____    ______ ____
ROOT
ATOM      1  N   UNL     1       0.639   1.245  -0.397  0.00  0.00    -0.315 NA
ATOM      2  N   UNL     1       3.014   1.241   0.012  0.00  0.00    -0.293 NA
ATOM      3  N   UNL     1       1.830   3.257  -0.196  0.00  0.00    -0.283 N 
ATOM      4  C   UNL     1       0.672  -0.103  -0.388  0.00  0.00    +0.203 C 
ATOM      5  C   UNL     1       1.822  -0.841  -0.189  0.00  0.00    +0.262 C 
ATOM      6  C   UNL     1       2.975  -0.108   0.008  0.00  0.00    +0.292 C 
ATOM      7  C   UNL     1       1.828   1.845  -0.193  0.00  0.00    +0.200 C 
ATOM      8  H   UNL     1       0.991   3.750  -0.341  0.00  0.00    +0.156 HD
ATOM      9  H   UNL     1       2.671   3.748  -0.052  0.00  0.00    +0.156 HD
ATOM     10  N   UNL     1      -0.545  -0.781  -0.596  0.00  0.00    -0.289 N 
ATOM     11  H   UNL     1      -0.441  -1.657  -1.032  0.00  0.00    +0.154 HD
ENDROOT
BRANCH  10  12
ATOM     12  C   UNL     1      -1.884  -0.451  -0.300  0.00  0.00    +0.050 C 
ATOM     13  C   UNL     1      -4.532   0.204   0.284  0.00  0.00    -0.022 C 
ATOM     14  C   UNL     1      -2.176   0.359   0.798  0.00  0.00    +0.014 C 
ATOM     15  C   UNL     1      -2.915  -0.933  -1.106  0.00  0.00    +0.014 C 
ATOM     16  C   UNL     1      -3.501   0.686   1.089  0.00  0.00    -0.003 C 
ATOM     17  C   UNL     1      -4.239  -0.606  -0.814  0.00  0.00    -0.003 C 
ATOM     18  C   UNL     1      -5.948   0.554   0.596  0.00  0.00    +0.031 C 
ENDBRANCH  10  12
BRANCH   6  19
ATOM     19  O   UNL     1       4.173  -0.740   0.220  0.00  0.00    -0.449 OA
ATOM     20  C   UNL     1       5.309   0.093   0.413  0.00  0.00    +0.255 C 
ENDBRANCH   6  19
BRANCH   5  22
ATOM     21  O   UNL     1       1.646  -2.707   0.941  0.00  0.00    -0.099 OA
ATOM     22  N   UNL     1       1.833  -2.215  -0.181  0.00  0.00    -0.030 NA
ENDBRANCH   5  22
TORSDOF 3
