REMARK  Name = 121107559
REMARK  6 active torsions:
REMARK  status: ('A' for Active; 'I' for Inactive)
REMARK    1  A    between atoms: C_3  and  O_22
REMARK    2  A    between atoms: C_9  and  O_24
REMARK    3  A    between atoms: C_10  and  O_30
REMARK    4  A    between atoms: C_12  and  O_26
REMARK    5  A    between atoms: C_15  and  O_28
REMARK    6  A    between atoms: O_30  and  C_32
REMARK                            x       y       z     vdW  Elec       q    Type
REMARK                         _______ _______ _______ _____ _____    ______ ____
ROOT
ATOM      1  O   UNL     1      -3.083   2.672   0.405  0.00  0.00    -0.354 OA
ATOM      2  C   UNL     1      -1.096   1.388  -0.446  0.00  0.00    +0.082 C 
ATOM      3  C   UNL     1      -1.780   0.223   0.321  0.00  0.00    +0.131 C 
ATOM      4  C   UNL     1       1.496  -0.341   0.370  0.00  0.00    +0.033 C 
ATOM      5  C   UNL     1      -2.220   2.381  -0.704  0.00  0.00    +0.147 C 
ATOM      6  C   UNL     1       1.318   1.178   0.754  0.00  0.00    +0.027 C 
ATOM      7  C   UNL     1      -3.294   0.247  -0.202  0.00  0.00    +0.053 C 
ATOM      8  C   UNL     1      -3.528   1.705  -0.550  0.00  0.00    +0.144 C 
ATOM      9  C   UNL     1       0.174   2.079   0.123  0.00  0.00    +0.093 C 
ATOM     10  C   UNL     1      -1.038  -1.100   0.064  0.00  0.00    +0.193 C 
ATOM     11  C   UNL     1       0.309  -1.240   0.760  0.00  0.00    +0.049 C 
ATOM     12  C   UNL     1       2.003  -0.511  -1.074  0.00  0.00    +0.113 C 
ATOM     13  C   UNL     1       3.458  -0.019  -0.936  0.00  0.00    +0.052 C 
ATOM     14  C   UNL     1       2.737  -0.938   1.185  0.00  0.00    +0.030 C 
ATOM     15  C   UNL     1       3.949  -0.890   0.231  0.00  0.00    +0.091 C 
ATOM     16  C   UNL     1       2.704   1.895   0.617  0.00  0.00    +0.003 C 
ATOM     17  C   UNL     1       3.490   1.492  -0.640  0.00  0.00    +0.005 C 
ATOM     18  C   UNL     1      -4.330  -0.195   0.843  0.00  0.00    +0.005 C 
ATOM     19  C   UNL     1      -3.506  -0.567  -1.498  0.00  0.00    +0.005 C 
ATOM     20  C   UNL     1      -0.178   3.179   1.162  0.00  0.00    +0.029 C 
ATOM     21  C   UNL     1       5.252  -0.462   0.894  0.00  0.00    +0.029 C 
ENDROOT
BRANCH   3  22
ATOM     22  O   UNL     1      -1.756   0.509   1.720  0.00  0.00    -0.383 OA
ATOM     23  H   UNL     1      -2.222   1.342   1.888  0.00  0.00    +0.210 HD
ENDBRANCH   3  22
BRANCH   9  24
ATOM     24  O   UNL     1       0.701   2.779  -1.028  0.00  0.00    -0.387 OA
ATOM     25  H   UNL     1       0.940   2.137  -1.715  0.00  0.00    +0.210 HD
ENDBRANCH   9  24
BRANCH  12  26
ATOM     26  O   UNL     1       1.293   0.212  -2.051  0.00  0.00    -0.384 OA
ATOM     27  H   UNL     1       0.386  -0.126  -2.108  0.00  0.00    +0.210 HD
ENDBRANCH  12  26
BRANCH  15  28
ATOM     28  O   UNL     1       4.169  -2.212  -0.289  0.00  0.00    -0.387 OA
ATOM     29  H   UNL     1       3.360  -2.527  -0.723  0.00  0.00    +0.210 HD
ENDBRANCH  15  28
BRANCH  10  30
ATOM     30  O   UNL     1      -1.852  -2.168   0.572  0.00  0.00    -0.450 OA
BRANCH  30  32
ATOM     31  O   UNL     1      -1.019  -3.580  -1.056  0.00  0.00    -0.250 OA
ATOM     32  C   UNL     1      -1.736  -3.351  -0.091  0.00  0.00    +0.318 C 
ATOM     33  C   UNL     1      -2.637  -4.366   0.544  0.00  0.00    +0.121 C 
ENDBRANCH  30  32
ENDBRANCH  10  30
TORSDOF 6
