121225870
  -OEChem-03292013293D

 56 60  0     1  0  0  0  0  0999 V2000
    0.1726    3.6244    2.4787 Cl  0  0  0  0  0  0  0  0  0  0  0  0
    4.6955   -4.0846   -0.1988 S   0  0  0  0  0  0  0  0  0  0  0  0
    1.5462    3.7593   -0.5122 S   0  0  0  0  0  0  0  0  0  0  0  0
   -6.0431   -2.0314    0.0568 O   0  0  0  0  0  0  0  0  0  0  0  0
    1.8611    1.7536   -2.8239 O   0  0  0  0  0  0  0  0  0  0  0  0
    2.8740    2.3636    1.7898 O   0  0  0  0  0  0  0  0  0  0  0  0
    2.8013    0.2458    0.9192 N   0  0  0  0  0  0  0  0  0  0  0  0
   -3.2436   -1.7874    0.0080 N   0  0  0  0  0  0  0  0  0  0  0  0
    2.3966   -0.7268   -0.1319 C   0  0  2  0  0  0  0  0  0  0  0  0
    2.7792   -0.0440   -1.4811 C   0  0  0  0  0  0  0  0  0  0  0  0
    0.8713   -1.0135   -0.0947 C   0  0  0  0  0  0  0  0  0  0  0  0
    3.1515   -2.0551    0.1128 C   0  0  0  0  0  0  0  0  0  0  0  0
    2.2469    1.3597   -1.5595 C   0  0  0  0  0  0  0  0  0  0  0  0
    0.3075   -1.9106   -1.0020 C   0  0  0  0  0  0  0  0  0  0  0  0
    0.0646   -0.3742    0.8467 C   0  0  0  0  0  0  0  0  0  0  0  0
   -1.8695   -1.5288   -0.0267 C   0  0  0  0  0  0  0  0  0  0  0  0
    2.6362    1.6172    0.8419 C   0  0  0  0  0  0  0  0  0  0  0  0
    2.1484    2.1402   -0.4708 C   0  0  0  0  0  0  0  0  0  0  0  0
   -4.0364   -1.4873   -1.1921 C   0  0  0  0  0  0  0  0  0  0  0  0
   -3.9733   -1.6963    1.2775 C   0  0  0  0  0  0  0  0  0  0  0  0
   -1.0628   -2.1683   -0.9680 C   0  0  0  0  0  0  0  0  0  0  0  0
   -1.3058   -0.6318    0.8807 C   0  0  0  0  0  0  0  0  0  0  0  0
    3.0137   -2.8414    1.2930 C   0  0  0  0  0  0  0  0  0  0  0  0
    4.0361   -2.6158   -0.7820 C   0  0  0  0  0  0  0  0  0  0  0  0
   -5.3389   -2.2787   -1.1600 C   0  0  0  0  0  0  0  0  0  0  0  0
   -5.2799   -2.4758    1.1778 C   0  0  0  0  0  0  0  0  0  0  0  0
    3.7978   -3.9734    1.2550 C   0  0  0  0  0  0  0  0  0  0  0  0
   -0.1813    3.4168   -0.2364 C   0  0  0  0  0  0  0  0  0  0  0  0
   -0.7477    3.3630    1.0370 C   0  0  0  0  0  0  0  0  0  0  0  0
   -0.9747    3.1976   -1.3625 C   0  0  0  0  0  0  0  0  0  0  0  0
   -2.1077    3.0897    1.1845 C   0  0  0  0  0  0  0  0  0  0  0  0
   -2.3346    2.9242   -1.2151 C   0  0  0  0  0  0  0  0  0  0  0  0
   -2.9012    2.8703    0.0583 C   0  0  0  0  0  0  0  0  0  0  0  0
    2.4219   -0.6450   -2.3263 H   0  0  0  0  0  0  0  0  0  0  0  0
    3.8706    0.0262   -1.5887 H   0  0  0  0  0  0  0  0  0  0  0  0
    3.1170   -0.1234    1.8115 H   0  0  0  0  0  0  0  0  0  0  0  0
    0.9173   -2.4224   -1.7412 H   0  0  0  0  0  0  0  0  0  0  0  0
    0.4524    0.3126    1.5900 H   0  0  0  0  0  0  0  0  0  0  0  0
   -3.3835   -2.1053    2.1063 H   0  0  0  0  0  0  0  0  0  0  0  0
   -4.2553   -0.4122   -1.2040 H   0  0  0  0  0  0  0  0  0  0  0  0
   -3.4996   -1.7298   -2.1156 H   0  0  0  0  0  0  0  0  0  0  0  0
   -4.1963   -0.6433    1.4902 H   0  0  0  0  0  0  0  0  0  0  0  0
   -1.4812   -2.8807   -1.6744 H   0  0  0  0  0  0  0  0  0  0  0  0
   -1.9050   -0.1135    1.6237 H   0  0  0  0  0  0  0  0  0  0  0  0
    2.3756   -2.5972    2.1329 H   0  0  0  0  0  0  0  0  0  0  0  0
    4.3385   -2.2578   -1.7555 H   0  0  0  0  0  0  0  0  0  0  0  0
   -5.9832   -1.9711   -1.9897 H   0  0  0  0  0  0  0  0  0  0  0  0
   -5.1552   -3.3551   -1.2630 H   0  0  0  0  0  0  0  0  0  0  0  0
   -5.0961   -3.5535    1.0891 H   0  0  0  0  0  0  0  0  0  0  0  0
   -5.8801   -2.3153    2.0790 H   0  0  0  0  0  0  0  0  0  0  0  0
    3.8865   -4.7401    2.0117 H   0  0  0  0  0  0  0  0  0  0  0  0
    2.0819    1.0461   -3.4525 H   0  0  0  0  0  0  0  0  0  0  0  0
   -0.5597    3.2384   -2.3666 H   0  0  0  0  0  0  0  0  0  0  0  0
   -2.5661    3.0417    2.1691 H   0  0  0  0  0  0  0  0  0  0  0  0
   -2.9525    2.7523   -2.0916 H   0  0  0  0  0  0  0  0  0  0  0  0
   -3.9594    2.6547    0.1730 H   0  0  0  0  0  0  0  0  0  0  0  0
  1 29  1  0  0  0  0
  2 24  1  0  0  0  0
  2 27  1  0  0  0  0
  3 18  1  0  0  0  0
  3 28  1  0  0  0  0
  4 25  1  0  0  0  0
  4 26  1  0  0  0  0
  5 13  1  0  0  0  0
  5 52  1  0  0  0  0
  6 17  2  0  0  0  0
  7  9  1  0  0  0  0
  7 17  1  0  0  0  0
  7 36  1  0  0  0  0
  8 16  1  0  0  0  0
  8 19  1  0  0  0  0
  8 20  1  0  0  0  0
  9 10  1  0  0  0  0
  9 11  1  0  0  0  0
  9 12  1  0  0  0  0
 10 13  1  0  0  0  0
 10 34  1  0  0  0  0
 10 35  1  0  0  0  0
 11 14  2  0  0  0  0
 11 15  1  0  0  0  0
 12 23  1  0  0  0  0
 12 24  2  0  0  0  0
 13 18  2  0  0  0  0
 14 21  1  0  0  0  0
 14 37  1  0  0  0  0
 15 22  2  0  0  0  0
 15 38  1  0  0  0  0
 16 21  2  0  0  0  0
 16 22  1  0  0  0  0
 17 18  1  0  0  0  0
 19 25  1  0  0  0  0
 19 40  1  0  0  0  0
 19 41  1  0  0  0  0
 20 26  1  0  0  0  0
 20 39  1  0  0  0  0
 20 42  1  0  0  0  0
 21 43  1  0  0  0  0
 22 44  1  0  0  0  0
 23 27  2  0  0  0  0
 23 45  1  0  0  0  0
 24 46  1  0  0  0  0
 25 47  1  0  0  0  0
 25 48  1  0  0  0  0
 26 49  1  0  0  0  0
 26 50  1  0  0  0  0
 27 51  1  0  0  0  0
 28 29  1  0  0  0  0
 28 30  2  0  0  0  0
 29 31  2  0  0  0  0
 30 32  1  0  0  0  0
 30 53  1  0  0  0  0
 31 33  1  0  0  0  0
 31 54  1  0  0  0  0
 32 33  2  0  0  0  0
 32 55  1  0  0  0  0
 33 56  1  0  0  0  0
M  END
> <PUBCHEM_COMPOUND_CID>
121225870

> <PUBCHEM_CONFORMER_RMSD>
1

> <PUBCHEM_CONFORMER_DIVERSEORDER>
1
45
59
7
17
42
30
35
33
43
48
28
65
24
44
51
23
62
54
67
38
52
58
31
57
39
13
29
47
36
60
34
8
66
27
11
61
15
53
37
25
41
64
22
50
55
12
5
21
56
2
46
32
4
10
6
63
49
20
14
3
18
26
9
19
40
16

> <PUBCHEM_MMFF94_PARTIAL_CHARGES>
46
1 -0.18
10 0.14
11 -0.14
12 -0.18
13 -0.06
14 -0.15
15 -0.15
16 0.1
17 0.62
18 0.12
19 0.37
2 -0.08
20 0.37
21 -0.15
22 -0.15
23 -0.15
24 -0.11
25 0.28
26 0.28
27 -0.11
28 0.1
29 0.18
3 -0.2
30 -0.15
31 -0.15
32 -0.15
33 -0.15
36 0.37
37 0.15
38 0.15
4 -0.56
43 0.15
44 0.15
45 0.15
46 0.15
5 -0.53
51 0.15
52 0.45
53 0.15
54 0.15
55 0.15
56 0.15
6 -0.57
7 -0.73
8 -0.84
9 0.62

> <PUBCHEM_EFFECTIVE_ROTOR_COUNT>
6.8

> <PUBCHEM_PHARMACOPHORE_FEATURES>
10
1 4 acceptor
1 5 donor
1 6 acceptor
1 7 donor
1 8 cation
5 2 12 23 24 27 rings
6 11 14 15 16 21 22 rings
6 28 29 30 31 32 33 rings
6 4 8 19 20 25 26 rings
6 7 9 10 13 17 18 rings

> <PUBCHEM_HEAVY_ATOM_COUNT>
33

> <PUBCHEM_ATOM_DEF_STEREO_COUNT>
1

> <PUBCHEM_ATOM_UDEF_STEREO_COUNT>
0

> <PUBCHEM_BOND_DEF_STEREO_COUNT>
0

> <PUBCHEM_BOND_UDEF_STEREO_COUNT>
0

> <PUBCHEM_ISOTOPIC_ATOM_COUNT>
0

> <PUBCHEM_COMPONENT_COUNT>
1

> <PUBCHEM_CACTVS_TAUTO_COUNT>
4

> <PUBCHEM_CONFORMER_ID>
0739C28E00000001

> <PUBCHEM_MMFF94_ENERGY>
104.8499

> <PUBCHEM_FEATURE_SELFOVERLAP>
50.748

> <PUBCHEM_SHAPE_FINGERPRINT>
10074138 170 17614816549543769906
10119406 146 17046832946408365342
10675989 125 18122630719665398961
1100329 8 18192993721355386469
11421498 54 18190477115227324422
11578080 2 18057023750104511618
12156800 1 17029323446540944801
12422481 6 18200320918540437379
13140716 1 18269556048459203321
13692115 27 18264206920417768314
13692115 46 17268096565841722502
14114211 80 17326353502339487773
14866123 147 17542215766512573178
17909252 39 18410296929775540866
20775438 99 17476867710940106863
20775530 9 18409736131705911563
21133410 90 17417234443492556473
21344244 78 18339910597691320298
21703447 108 18337941342559541754
22033318 11 17982490111937213675
22223350 30 18197491814417783832
23559900 14 17676773174970293095
2818148 4 18263384528231326460
376196 1 16552272031669768584
4144715 1 18115312306326285515
463206 1 18193831549179192597
513532 50 17343515693300934421
70251023 43 18408327665901418987
7164475 11 18409168774968676190
7471813 234 18410853256857873214

> <PUBCHEM_SHAPE_MULTIPOLES>
661.12
9.14
6.64
1.86
3.84
2.46
0.01
-13.48
-0.31
1.39
-0.99
-0.16
1.11
-0.66

> <PUBCHEM_SHAPE_SELFOVERLAP>
1410.205

> <PUBCHEM_SHAPE_VOLUME>
368.4

> <PUBCHEM_COORDINATE_TYPE>
2
5
10

$$$$
