REMARK  Name = 121235270
REMARK  7 active torsions:
REMARK  status: ('A' for Active; 'I' for Inactive)
REMARK    1  A    between atoms: N_1  and  C1*_15
REMARK    2  A    between atoms: C_9  and  O_25
REMARK    3  A    between atoms: C2*_14  and  O2*_18
REMARK    4  A    between atoms: C3*_16  and  O3*_20
REMARK    5  A    between atoms: C4*_17  and  C5*_22
REMARK    6  A    between atoms: C5*_22  and  O5*_23
REMARK    7  A    between atoms: O_25  and  C_26
REMARK                            x       y       z     vdW  Elec       q    Type
REMARK                         _______ _______ _______ _____ _____    ______ ____
ROOT
ATOM      1  N   UNL     1      -0.643  -1.348  -0.531  0.00  0.00    -0.236 N 
ATOM      2  N   UNL     1       1.368  -2.309  -0.494  0.00  0.00    -0.239 NA
ATOM      3  N   UNL     1      -0.018   0.947  -0.040  0.00  0.00    -0.311 NA
ATOM      4  N   UNL     1       2.394   1.164   0.257  0.00  0.00    -0.289 NA
ATOM      5  N   UNL     1       0.968   3.013   0.444  0.00  0.00    -0.283 N 
ATOM      6  C   UNL     1       0.247  -0.351  -0.252  0.00  0.00    +0.223 C 
ATOM      7  C   UNL     1       0.078  -2.505  -0.668  0.00  0.00    +0.224 C 
ATOM      8  C   UNL     1       1.488  -0.967  -0.234  0.00  0.00    +0.190 C 
ATOM      9  C   UNL     1       2.588  -0.158   0.033  0.00  0.00    +0.311 C 
ATOM     10  C   UNL     1       1.122   1.627   0.207  0.00  0.00    +0.200 C 
ATOM     11  H   UNL     1       0.071   3.419   0.423  0.00  0.00    +0.156 HD
ATOM     12  H   UNL     1       1.757   3.571   0.630  0.00  0.00    +0.156 HD
ENDROOT
BRANCH   1  15
ATOM     13  O4* UNL     1      -2.538   0.062  -1.206  0.00  0.00    -0.333 OA
ATOM     14  C2* UNL     1      -2.914  -1.369   0.644  0.00  0.00    +0.187 C 
ATOM     15  C1* UNL     1      -2.140  -1.215  -0.664  0.00  0.00    +0.226 C 
ATOM     16  C3* UNL     1      -4.231  -0.720   0.267  0.00  0.00    +0.171 C 
ATOM     17  C4* UNL     1      -3.804   0.443  -0.626  0.00  0.00    +0.175 C 
BRANCH  14  18
ATOM     18  O2* UNL     1      -2.283  -0.635   1.689  0.00  0.00    -0.378 OA
ATOM     19  H2* UNL     1      -1.442  -1.060   1.921  0.00  0.00    +0.211 HD
ENDBRANCH  14  18
BRANCH  16  20
ATOM     20  O3* UNL     1      -4.997  -0.348   1.391  0.00  0.00    -0.379 OA
ATOM     21  H3* UNL     1      -5.226  -1.140   1.902  0.00  0.00    +0.211 HD
ENDBRANCH  16  20
BRANCH  17  22
ATOM     22  C5* UNL     1      -3.634   1.789   0.066  0.00  0.00    +0.169 C 
BRANCH  22  23
ATOM     23  O5* UNL     1      -3.229   2.746  -0.897  0.00  0.00    -0.379 OA
ATOM     24  H5* UNL     1      -3.117   3.609  -0.468  0.00  0.00    +0.211 HD
ENDBRANCH  22  23
ENDBRANCH  17  22
ENDBRANCH   1  15
BRANCH   9  25
ATOM     25  O   UNL     1       3.868  -0.647   0.079  0.00  0.00    -0.454 OA
BRANCH  25  26
ATOM     26  C   UNL     1       4.900   0.289   0.362  0.00  0.00    +0.169 C 
ATOM     27  C   UNL     1       6.021  -0.412   1.115  0.00  0.00    +0.047 C 
ATOM     28  C   UNL     1       5.390   0.903  -0.940  0.00  0.00    +0.047 C 
ENDBRANCH  25  26
ENDBRANCH   9  25
TORSDOF 7
