REMARK  Name = 121225498
REMARK  4 active torsions:
REMARK  status: ('A' for Active; 'I' for Inactive)
REMARK    1  A    between atoms: N_6  and  O_34
REMARK    2  A    between atoms: C_8  and  O_32
REMARK    3  A    between atoms: C_8  and  C_36
REMARK    4  A    between atoms: C_36  and  O_37
REMARK                            x       y       z     vdW  Elec       q    Type
REMARK                         _______ _______ _______ _____ _____    ______ ____
ROOT
ATOM      1  O   UNL     1      -2.213   1.370   1.368  0.00  0.00    -0.319 OA
ATOM      2  O   UNL     1       2.911  -3.712  -0.166  0.00  0.00    -0.267 OA
ATOM      3  O   UNL     1       4.862   0.460  -0.178  0.00  0.00    -0.267 OA
ATOM      4  N   UNL     1      -1.666  -0.678   0.356  0.00  0.00    -0.305 N 
ATOM      5  N   UNL     1      -0.389   2.002   0.179  0.00  0.00    -0.304 N 
ATOM      6  N   UNL     1       4.205  -1.776  -0.091  0.00  0.00    -0.109 N 
ATOM      7  C   UNL     1      -2.777   0.201   0.750  0.00  0.00    +0.190 C 
ATOM      8  C   UNL     1      -3.551   0.794  -0.452  0.00  0.00    +0.160 C 
ATOM      9  C   UNL     1      -1.799   2.226   0.307  0.00  0.00    +0.209 C 
ATOM     10  C   UNL     1      -2.579   1.854  -0.950  0.00  0.00    +0.088 C 
ATOM     11  C   UNL     1      -0.309  -0.457   0.234  0.00  0.00    +0.078 A 
ATOM     12  C   UNL     1       0.309   0.830   0.180  0.00  0.00    +0.078 A 
ATOM     13  C   UNL     1      -3.651  -0.409   1.857  0.00  0.00    +0.057 C 
ATOM     14  C   UNL     1       0.613  -1.570   0.103  0.00  0.00    +0.023 A 
ATOM     15  C   UNL     1      -1.727  -2.064   0.135  0.00  0.00    +0.062 A 
ATOM     16  C   UNL     1       1.753   0.846   0.077  0.00  0.00    +0.023 A 
ATOM     17  C   UNL     1       0.618   2.952   0.077  0.00  0.00    +0.062 A 
ATOM     18  C   UNL     1      -0.409  -2.617   0.047  0.00  0.00    +0.017 A 
ATOM     19  C   UNL     1       1.894   2.309   0.030  0.00  0.00    +0.017 A 
ATOM     20  C   UNL     1       2.003  -1.509   0.036  0.00  0.00    +0.062 A 
ATOM     21  C   UNL     1       2.595  -0.256   0.033  0.00  0.00    +0.062 A 
ATOM     22  C   UNL     1      -2.852  -2.910   0.007  0.00  0.00    +0.017 C 
ATOM     23  C   UNL     1       0.507   4.356   0.022  0.00  0.00    +0.017 C 
ATOM     24  C   UNL     1      -0.296  -4.023  -0.113  0.00  0.00    +0.001 C 
ATOM     25  C   UNL     1       3.060  -2.510  -0.079  0.00  0.00    +0.278 C 
ATOM     26  C   UNL     1       4.038  -0.426  -0.083  0.00  0.00    +0.278 C 
ATOM     27  C   UNL     1       3.036   3.143  -0.066  0.00  0.00    +0.001 C 
ATOM     28  C   UNL     1      -2.687  -4.285  -0.159  0.00  0.00    +0.001 C 
ATOM     29  C   UNL     1      -1.423  -4.840  -0.209  0.00  0.00    +0.000 C 
ATOM     30  C   UNL     1       1.662   5.131  -0.072  0.00  0.00    +0.001 C 
ATOM     31  C   UNL     1       2.912   4.535  -0.114  0.00  0.00    +0.000 C 
ENDROOT
BRANCH   8  32
ATOM     32  O   UNL     1      -3.804  -0.153  -1.478  0.00  0.00    -0.380 OA
ATOM     33  H   UNL     1      -2.974  -0.584  -1.733  0.00  0.00    +0.211 HD
ENDBRANCH   8  32
BRANCH   6  34
ATOM     34  O   UNL     1       5.442  -2.357  -0.285  0.00  0.00    -0.285 OA
ATOM     35  H   UNL     1       5.354  -3.323  -0.256  0.00  0.00    +0.242 HD
ENDBRANCH   6  34
BRANCH   8  36
ATOM     36  C   UNL     1      -4.886   1.454  -0.077  0.00  0.00    +0.168 C 
BRANCH  36  37
ATOM     37  O   UNL     1      -5.400   2.093  -1.226  0.00  0.00    -0.379 OA
ATOM     38  H   UNL     1      -6.245   2.517  -1.010  0.00  0.00    +0.211 HD
ENDBRANCH  36  37
ENDBRANCH   8  36
TORSDOF 4
