121235270
  -OEChem-03292013293D

 42 44  0     1  0  0  0  0  0999 V2000
   -2.5384    0.0624   -1.2061 O   0  0  0  0  0  0  0  0  0  0  0  0
   -2.2829   -0.6348    1.6891 O   0  0  0  0  0  0  0  0  0  0  0  0
   -4.9974   -0.3482    1.3907 O   0  0  0  0  0  0  0  0  0  0  0  0
   -3.2286    2.7463   -0.8968 O   0  0  0  0  0  0  0  0  0  0  0  0
    3.8683   -0.6475    0.0787 O   0  0  0  0  0  0  0  0  0  0  0  0
   -0.6433   -1.3484   -0.5315 N   0  0  0  0  0  0  0  0  0  0  0  0
    1.3681   -2.3090   -0.4944 N   0  0  0  0  0  0  0  0  0  0  0  0
   -0.0184    0.9469   -0.0403 N   0  0  0  0  0  0  0  0  0  0  0  0
    2.3943    1.1641    0.2572 N   0  0  0  0  0  0  0  0  0  0  0  0
    0.9676    3.0128    0.4442 N   0  0  0  0  0  0  0  0  0  0  0  0
   -2.9136   -1.3686    0.6438 C   0  0  2  0  0  0  0  0  0  0  0  0
   -2.1403   -1.2149   -0.6637 C   0  0  1  0  0  0  0  0  0  0  0  0
   -4.2305   -0.7198    0.2670 C   0  0  2  0  0  0  0  0  0  0  0  0
   -3.8037    0.4434   -0.6265 C   0  0  1  0  0  0  0  0  0  0  0  0
   -3.6343    1.7887    0.0656 C   0  0  0  0  0  0  0  0  0  0  0  0
    0.2468   -0.3509   -0.2520 C   0  0  0  0  0  0  0  0  0  0  0  0
    0.0776   -2.5050   -0.6682 C   0  0  0  0  0  0  0  0  0  0  0  0
    1.4879   -0.9671   -0.2335 C   0  0  0  0  0  0  0  0  0  0  0  0
    2.5878   -0.1580    0.0333 C   0  0  0  0  0  0  0  0  0  0  0  0
    1.1220    1.6275    0.2072 C   0  0  0  0  0  0  0  0  0  0  0  0
    4.9003    0.2892    0.3620 C   0  0  0  0  0  0  0  0  0  0  0  0
    6.0205   -0.4125    1.1145 C   0  0  0  0  0  0  0  0  0  0  0  0
    5.3904    0.9035   -0.9403 C   0  0  0  0  0  0  0  0  0  0  0  0
   -3.0234   -2.4062    0.9727 H   0  0  0  0  0  0  0  0  0  0  0  0
   -2.4384   -1.9786   -1.3933 H   0  0  0  0  0  0  0  0  0  0  0  0
   -4.8146   -1.4327   -0.3292 H   0  0  0  0  0  0  0  0  0  0  0  0
   -4.5107    0.5611   -1.4562 H   0  0  0  0  0  0  0  0  0  0  0  0
   -2.8596    1.7511    0.8365 H   0  0  0  0  0  0  0  0  0  0  0  0
   -4.5737    2.1254    0.5138 H   0  0  0  0  0  0  0  0  0  0  0  0
   -1.4928   -1.1318    1.9611 H   0  0  0  0  0  0  0  0  0  0  0  0
   -5.8035    0.0858    1.0632 H   0  0  0  0  0  0  0  0  0  0  0  0
   -0.3900   -3.4541   -0.8917 H   0  0  0  0  0  0  0  0  0  0  0  0
   -3.1259    3.5944   -0.4323 H   0  0  0  0  0  0  0  0  0  0  0  0
    4.5559    1.0867    1.0328 H   0  0  0  0  0  0  0  0  0  0  0  0
    5.7448    0.1273   -1.6277 H   0  0  0  0  0  0  0  0  0  0  0  0
    4.5852    1.4356   -1.4572 H   0  0  0  0  0  0  0  0  0  0  0  0
    5.6412   -0.8460    2.0463 H   0  0  0  0  0  0  0  0  0  0  0  0
    6.8345    0.2778    1.3560 H   0  0  0  0  0  0  0  0  0  0  0  0
    6.2077    1.6094   -0.7622 H   0  0  0  0  0  0  0  0  0  0  0  0
    6.4273   -1.2417    0.5252 H   0  0  0  0  0  0  0  0  0  0  0  0
    0.0430    3.4203    0.4202 H   0  0  0  0  0  0  0  0  0  0  0  0
    1.7836    3.5778    0.6346 H   0  0  0  0  0  0  0  0  0  0  0  0
  1 12  1  0  0  0  0
  1 14  1  0  0  0  0
  2 11  1  0  0  0  0
  2 30  1  0  0  0  0
  3 13  1  0  0  0  0
  3 31  1  0  0  0  0
  4 15  1  0  0  0  0
  4 33  1  0  0  0  0
  5 19  1  0  0  0  0
  5 21  1  0  0  0  0
  6 12  1  0  0  0  0
  6 16  1  0  0  0  0
  6 17  1  0  0  0  0
  7 17  2  0  0  0  0
  7 18  1  0  0  0  0
  8 16  1  0  0  0  0
  8 20  2  0  0  0  0
  9 19  2  0  0  0  0
  9 20  1  0  0  0  0
 10 20  1  0  0  0  0
 10 41  1  0  0  0  0
 10 42  1  0  0  0  0
 11 12  1  0  0  0  0
 11 13  1  0  0  0  0
 11 24  1  0  0  0  0
 12 25  1  0  0  0  0
 13 14  1  0  0  0  0
 13 26  1  0  0  0  0
 14 15  1  0  0  0  0
 14 27  1  0  0  0  0
 15 28  1  0  0  0  0
 15 29  1  0  0  0  0
 16 18  2  0  0  0  0
 17 32  1  0  0  0  0
 18 19  1  0  0  0  0
 21 22  1  0  0  0  0
 21 23  1  0  0  0  0
 21 34  1  0  0  0  0
 22 37  1  0  0  0  0
 22 38  1  0  0  0  0
 22 40  1  0  0  0  0
 23 35  1  0  0  0  0
 23 36  1  0  0  0  0
 23 39  1  0  0  0  0
M  END
> <PUBCHEM_COMPOUND_CID>
121235270

> <PUBCHEM_CONFORMER_RMSD>
0.8

> <PUBCHEM_CONFORMER_DIVERSEORDER>
2
46
44
26
32
16
42
29
6
25
49
38
48
22
13
23
8
12
24
31
37
43
39
19
36
14
20
35
3
47
7
45
11
21
9
17
34
41
5
18
10
4
27
33
30
40
28
1
15

> <PUBCHEM_MMFF94_PARTIAL_CHARGES>
27
1 -0.56
10 -0.9
11 0.28
12 0.54
13 0.28
14 0.28
15 0.28
16 0.11
17 0.04
18 0.23
19 0.39
2 -0.68
20 0.72
21 0.28
3 -0.68
30 0.4
31 0.4
32 0.15
33 0.4
4 -0.68
41 0.4
42 0.4
5 -0.36
6 0.05
7 -0.57
8 -0.57
9 -0.62

> <PUBCHEM_EFFECTIVE_ROTOR_COUNT>
5

> <PUBCHEM_PHARMACOPHORE_FEATURES>
14
1 1 acceptor
1 10 donor
1 2 acceptor
1 2 donor
1 3 acceptor
1 3 donor
1 4 acceptor
1 4 donor
3 21 22 23 hydrophobe
3 6 7 17 cation
4 8 9 10 20 cation
5 1 11 12 13 14 rings
5 6 7 16 17 18 rings
6 8 9 16 18 19 20 rings

> <PUBCHEM_HEAVY_ATOM_COUNT>
23

> <PUBCHEM_ATOM_DEF_STEREO_COUNT>
3

> <PUBCHEM_ATOM_UDEF_STEREO_COUNT>
1

> <PUBCHEM_BOND_DEF_STEREO_COUNT>
0

> <PUBCHEM_BOND_UDEF_STEREO_COUNT>
0

> <PUBCHEM_ISOTOPIC_ATOM_COUNT>
0

> <PUBCHEM_COMPONENT_COUNT>
1

> <PUBCHEM_CACTVS_TAUTO_COUNT>
3

> <PUBCHEM_CONFORMER_ID>
0739E74600000002

> <PUBCHEM_MMFF94_ENERGY>
64.5073

> <PUBCHEM_FEATURE_SELFOVERLAP>
71.195

> <PUBCHEM_SHAPE_FINGERPRINT>
10366900 7 18114742741400255715
10675989 125 16822757956428727237
12236239 1 18040713667801233220
12403259 226 18125995212028357283
12403259 415 18201714080644231968
12403260 363 18268704077466678439
12507557 5 18343021129218658683
12596602 18 16877944966087145832
12633257 1 18262255403378785243
13140716 1 18197218272229818059
13583140 156 17531229678213117471
13862211 1 18341323457733127342
14341114 176 17748832946339550218
14466204 15 18411130308371515088
14790565 3 18411425037849786276
15081414 286 18202293476596771268
15099037 51 18342458179476188422
15196674 1 18340204085749072886
15475509 8 17701007455408449188
1601671 61 18341894082771663148
18186145 218 17846215604827602698
19049666 15 18189340061527862267
19784866 170 18410575046330373590
19784866 9 18187079542793409746
21033648 29 17988627610674213616
21279426 13 18197218053682364966
22182313 1 18199479778753956158
23402539 116 18131058347442575326
23559900 14 18051407362699972110
350125 39 18126005103312198911
5104073 3 18265053531084593931

> <PUBCHEM_SHAPE_MULTIPOLES>
419.08
10.85
2.46
1.06
8.59
0.91
0.19
1.52
2.05
-0.92
-0.37
-0.36
-0.09
0.36

> <PUBCHEM_SHAPE_SELFOVERLAP>
895.235

> <PUBCHEM_SHAPE_VOLUME>
231.4

> <PUBCHEM_COORDINATE_TYPE>
2
5
10

$$$$
