REMARK  Name = 121231123
REMARK  6 active torsions:
REMARK  status: ('A' for Active; 'I' for Inactive)
REMARK    1  A    between atoms: C_2  and  C_11
REMARK    2  A    between atoms: C_4  and  O_21
REMARK    3  A    between atoms: C_7  and  O_23
REMARK    4  A    between atoms: C_10  and  O_25
REMARK    5  A    between atoms: C_14  and  O_17
REMARK    6  A    between atoms: C_16  and  O_19
REMARK                            x       y       z     vdW  Elec       q    Type
REMARK                         _______ _______ _______ _____ _____    ______ ____
ROOT
ATOM      1  O   UNL     1       0.283   0.681  -0.361  0.00  0.00    -0.475 OA
ATOM      2  C   UNL     1      -0.427  -0.565  -0.461  0.00  0.00    +0.191 C 
ATOM      3  C   UNL     1       0.006  -1.549   0.633  0.00  0.00    +0.082 C 
ATOM      4  C   UNL     1       1.489  -1.870   0.466  0.00  0.00    +0.142 C 
ATOM      5  C   UNL     1       2.274  -0.613   0.219  0.00  0.00    +0.072 C 
ATOM      6  C   UNL     1       1.638   0.570  -0.181  0.00  0.00    +0.143 C 
ATOM      7  C   UNL     1       3.667  -0.615   0.379  0.00  0.00    +0.138 C 
ATOM      8  C   UNL     1       2.380   1.736  -0.387  0.00  0.00    +0.073 C 
ATOM      9  C   UNL     1       4.408   0.547   0.161  0.00  0.00    +0.073 C 
ATOM     10  C   UNL     1       3.764   1.722  -0.219  0.00  0.00    +0.140 C 
ENDROOT
BRANCH   2  11
ATOM     11  C   UNL     1      -1.911  -0.273  -0.375  0.00  0.00    +0.020 C 
ATOM     12  C   UNL     1      -2.448   0.275   0.789  0.00  0.00    +0.039 C 
ATOM     13  C   UNL     1      -2.740  -0.552  -1.462  0.00  0.00    +0.002 C 
ATOM     14  C   UNL     1      -3.815   0.545   0.868  0.00  0.00    +0.167 C 
ATOM     15  C   UNL     1      -4.106  -0.283  -1.383  0.00  0.00    +0.040 C 
ATOM     16  C   UNL     1      -4.644   0.266  -0.219  0.00  0.00    +0.167 C 
BRANCH  14  17
ATOM     17  O   UNL     1      -4.327   1.082   2.010  0.00  0.00    -0.503 OA
ATOM     18  H   UNL     1      -3.763   1.267   2.735  0.00  0.00    +0.292 HD
ENDBRANCH  14  17
BRANCH  16  19
ATOM     19  O   UNL     1      -5.979   0.525  -0.154  0.00  0.00    -0.503 OA
ATOM     20  H   UNL     1      -6.348   0.893   0.624  0.00  0.00    +0.292 HD
ENDBRANCH  16  19
ENDBRANCH   2  11
BRANCH   4  21
ATOM     21  O   UNL     1       1.676  -2.738  -0.649  0.00  0.00    -0.380 OA
ATOM     22  H   UNL     1       1.176  -3.557  -0.508  0.00  0.00    +0.211 HD
ENDBRANCH   4  21
BRANCH   7  23
ATOM     23  O   UNL     1       4.329  -1.749   0.752  0.00  0.00    -0.506 OA
ATOM     24  H   UNL     1       3.852  -2.541   0.904  0.00  0.00    +0.292 HD
ENDBRANCH   7  23
BRANCH  10  25
ATOM     25  O   UNL     1       4.485   2.858  -0.427  0.00  0.00    -0.505 OA
ATOM     26  H   UNL     1       4.052   3.648  -0.682  0.00  0.00    +0.292 HD
ENDBRANCH  10  25
TORSDOF 6
