REMARK  Name = 121231412
REMARK  4 active torsions:
REMARK  status: ('A' for Active; 'I' for Inactive)
REMARK    1  A    between atoms: C_1  and  N_3
REMARK    2  A    between atoms: C_1  and  C_16
REMARK    3  A    between atoms: C_1  and  C_22
REMARK    4  A    between atoms: C_23  and  O_28
REMARK                            x       y       z     vdW  Elec       q    Type
REMARK                         _______ _______ _______ _____ _____    ______ ____
ROOT
ATOM      1  C   UNL     1       0.201  -0.154   0.653  0.00  0.00    +0.179 C 
ENDROOT
BRANCH   1   3
ATOM      2  O   UNL     1      -1.451   2.085   1.825  0.00  0.00    -0.270 OA
ATOM      3  N   UNL     1      -1.143   0.276   0.335  0.00  0.00    -0.262 N 
ATOM      4  C   UNL     1      -1.931  -0.391  -0.695  0.00  0.00    +0.121 C 
ATOM      5  C   UNL     1      -3.204   0.384  -0.660  0.00  0.00    +0.002 C 
ATOM      6  C   UNL     1      -3.134   1.394   0.301  0.00  0.00    +0.051 C 
ATOM      7  C   UNL     1      -1.816   1.331   0.942  0.00  0.00    +0.250 C 
ATOM      8  C   UNL     1      -4.348   0.220  -1.418  0.00  0.00    -0.002 C 
ATOM      9  C   UNL     1      -4.178   2.265   0.545  0.00  0.00    +0.004 C 
ATOM     10  C   UNL     1      -5.420   1.090  -1.191  0.00  0.00    -0.000 C 
ATOM     11  C   UNL     1      -5.335   2.103  -0.218  0.00  0.00    +0.000 C 
ENDBRANCH   1   3
BRANCH   1  16
ATOM     12  S   UNL     1       4.802   1.715   1.198  0.00  0.00    -0.051 S 
ATOM     13  O   UNL     1       0.921   1.024  -1.326  0.00  0.00    -0.273 OA
ATOM     14  N   UNL     1       2.360   0.910   0.525  0.00  0.00    -0.263 N 
ATOM     15  N   UNL     1       3.704   2.158  -1.100  0.00  0.00    -0.222 NA
ATOM     16  C   UNL     1       1.181   0.675  -0.177  0.00  0.00    +0.250 C 
ATOM     17  C   UNL     1       3.511   1.599   0.074  0.00  0.00    +0.166 C 
ATOM     18  C   UNL     1       5.708   2.584   0.030  0.00  0.00    +0.059 C 
ATOM     19  C   UNL     1       4.965   2.723  -1.123  0.00  0.00    +0.108 C 
ATOM     20  H   UNL     1       2.398   0.556   1.443  0.00  0.00    +0.157 HD
ENDBRANCH   1  16
BRANCH   1  22
ATOM     21  F   UNL     1       1.541  -3.852  -2.230  0.00  0.00    -0.204 F 
ATOM     22  C   UNL     1       0.393  -1.635   0.416  0.00  0.00    +0.040 C 
ATOM     23  C   UNL     1       0.084  -2.562   1.412  0.00  0.00    +0.132 C 
ATOM     24  C   UNL     1       0.886  -2.071  -0.813  0.00  0.00    +0.030 C 
ATOM     25  C   UNL     1       0.269  -3.924   1.178  0.00  0.00    +0.039 C 
ATOM     26  C   UNL     1       1.070  -3.434  -1.048  0.00  0.00    +0.140 C 
ATOM     27  C   UNL     1       0.761  -4.361  -0.052  0.00  0.00    +0.033 C 
BRANCH  23  28
ATOM     28  O   UNL     1      -0.396  -2.153   2.620  0.00  0.00    -0.506 OA
ATOM     29  H   UNL     1      -0.524  -1.240   2.789  0.00  0.00    +0.292 HD
ENDBRANCH  23  28
ENDBRANCH   1  22
TORSDOF 4
