REMARK  Name = 121235273
REMARK  6 active torsions:
REMARK  status: ('A' for Active; 'I' for Inactive)
REMARK    1  A    between atoms: N_1  and  C1*_14
REMARK    2  A    between atoms: C_9  and  O_23
REMARK    3  A    between atoms: C3*_15  and  O3*_18
REMARK    4  A    between atoms: C4*_17  and  C5*_20
REMARK    5  A    between atoms: C5*_20  and  O5*_21
REMARK    6  A    between atoms: O_23  and  C_24
REMARK                            x       y       z     vdW  Elec       q    Type
REMARK                         _______ _______ _______ _____ _____    ______ ____
ROOT
ATOM      1  N   UNL     1      -0.659   0.106   0.151  0.00  0.00    -0.238 N 
ATOM      2  N   UNL     1       0.660  -1.685   0.002  0.00  0.00    -0.239 NA
ATOM      3  N   UNL     1       1.022   1.857   0.230  0.00  0.00    -0.311 NA
ATOM      4  N   UNL     1       3.276   0.927   0.116  0.00  0.00    -0.289 NA
ATOM      5  N   UNL     1       2.912   3.236   0.275  0.00  0.00    -0.283 N 
ATOM      6  C   UNL     1       0.622   0.579   0.153  0.00  0.00    +0.223 C 
ATOM      7  C   UNL     1      -0.585  -1.258   0.059  0.00  0.00    +0.224 C 
ATOM      8  C   UNL     1       1.424  -0.546   0.060  0.00  0.00    +0.190 C 
ATOM      9  C   UNL     1       2.800  -0.339   0.042  0.00  0.00    +0.311 C 
ATOM     10  C   UNL     1       2.370   1.932   0.203  0.00  0.00    +0.200 C 
ATOM     11  H   UNL     1       2.313   4.015   0.341  0.00  0.00    +0.156 HD
ATOM     12  H   UNL     1       3.888   3.366   0.260  0.00  0.00    +0.156 HD
ENDROOT
BRANCH   1  14
ATOM     13  O4* UNL     1      -2.975   0.209   0.925  0.00  0.00    -0.335 OA
ATOM     14  C1* UNL     1      -1.930   0.925   0.238  0.00  0.00    +0.198 C 
ATOM     15  C3* UNL     1      -3.634   0.355  -1.337  0.00  0.00    +0.144 C 
ATOM     16  C2* UNL     1      -2.489   1.322  -1.131  0.00  0.00    +0.083 C 
ATOM     17  C4* UNL     1      -4.142   0.171   0.085  0.00  0.00    +0.173 C 
BRANCH  15  18
ATOM     18  O3* UNL     1      -3.144  -0.869  -1.869  0.00  0.00    -0.382 OA
ATOM     19  H3* UNL     1      -2.828  -0.723  -2.775  0.00  0.00    +0.210 HD
ENDBRANCH  15  18
BRANCH  17  20
ATOM     20  C5* UNL     1      -4.907  -1.113   0.343  0.00  0.00    +0.169 C 
BRANCH  20  21
ATOM     21  O5* UNL     1      -5.303  -1.145   1.705  0.00  0.00    -0.379 OA
ATOM     22  H5* UNL     1      -5.794  -1.964   1.880  0.00  0.00    +0.211 HD
ENDBRANCH  20  21
ENDBRANCH  17  20
ENDBRANCH   1  14
BRANCH   9  23
ATOM     23  O   UNL     1       3.699  -1.370  -0.048  0.00  0.00    -0.450 OA
BRANCH  23  24
ATOM     24  C   UNL     1       5.077  -1.017  -0.057  0.00  0.00    +0.208 C 
ATOM     25  C   UNL     1       5.909  -2.279  -0.146  0.00  0.00    +0.051 C 
ENDBRANCH  23  24
ENDBRANCH   9  23
TORSDOF 6
