REMARK  Name = 121225870
REMARK  6 active torsions:
REMARK  status: ('A' for Active; 'I' for Inactive)
REMARK    1  A    between atoms: C_3  and  C_9
REMARK    2  A    between atoms: C_3  and  C_22
REMARK    3  A    between atoms: C_5  and  O_26
REMARK    4  A    between atoms: C_7  and  S_28
REMARK    5  A    between atoms: C_12  and  N_16
REMARK    6  A    between atoms: S_28  and  C_30
REMARK                            x       y       z     vdW  Elec       q    Type
REMARK                         _______ _______ _______ _____ _____    ______ ____
ROOT
ATOM      1  O   UNL     1       2.874   2.364   1.790  0.00  0.00    -0.269 OA
ATOM      2  N   UNL     1       2.801   0.246   0.919  0.00  0.00    -0.296 N 
ATOM      3  C   UNL     1       2.397  -0.727  -0.132  0.00  0.00    +0.103 C 
ATOM      4  C   UNL     1       2.779  -0.044  -1.481  0.00  0.00    +0.091 C 
ATOM      5  C   UNL     1       2.247   1.360  -1.560  0.00  0.00    +0.124 C 
ATOM      6  C   UNL     1       2.636   1.617   0.842  0.00  0.00    +0.255 C 
ATOM      7  C   UNL     1       2.148   2.140  -0.471  0.00  0.00    +0.112 C 
ATOM      8  H   UNL     1       3.220  -0.115   1.734  0.00  0.00    +0.150 HD
ENDROOT
BRANCH   3   9
ATOM      9  C   UNL     1       0.871  -1.014  -0.095  0.00  0.00    -0.002 C 
ATOM     10  C   UNL     1       0.307  -1.911  -1.002  0.00  0.00    -0.001 C 
ATOM     11  C   UNL     1       0.065  -0.374   0.847  0.00  0.00    -0.001 C 
ATOM     12  C   UNL     1      -1.869  -1.529  -0.027  0.00  0.00    +0.048 C 
ATOM     13  C   UNL     1      -1.063  -2.168  -0.968  0.00  0.00    +0.014 C 
ATOM     14  C   UNL     1      -1.306  -0.632   0.881  0.00  0.00    +0.014 C 
BRANCH  12  16
ATOM     15  O   UNL     1      -6.043  -2.031   0.057  0.00  0.00    -0.350 OA
ATOM     16  N   UNL     1      -3.244  -1.787   0.008  0.00  0.00    -0.303 N 
ATOM     17  C   UNL     1      -4.036  -1.487  -1.192  0.00  0.00    +0.123 C 
ATOM     18  C   UNL     1      -3.973  -1.696   1.278  0.00  0.00    +0.123 C 
ATOM     19  C   UNL     1      -5.339  -2.279  -1.160  0.00  0.00    +0.164 C 
ATOM     20  C   UNL     1      -5.280  -2.476   1.178  0.00  0.00    +0.164 C 
ENDBRANCH  12  16
ENDBRANCH   3   9
BRANCH   3  22
ATOM     21  S   UNL     1       4.696  -4.085  -0.199  0.00  0.00    -0.086 S 
ATOM     22  C   UNL     1       3.151  -2.055   0.113  0.00  0.00    +0.005 C 
ATOM     23  C   UNL     1       3.014  -2.841   1.293  0.00  0.00    +0.005 C 
ATOM     24  C   UNL     1       4.036  -2.616  -0.782  0.00  0.00    +0.033 C 
ATOM     25  C   UNL     1       3.798  -3.973   1.255  0.00  0.00    +0.035 C 
ENDBRANCH   3  22
BRANCH   5  26
ATOM     26  O   UNL     1       1.861   1.754  -2.824  0.00  0.00    -0.509 OA
ATOM     27  H   UNL     1       1.954   1.165  -3.547  0.00  0.00    +0.292 HD
ENDBRANCH   5  26
BRANCH   7  28
ATOM     28  S   UNL     1       1.546   3.759  -0.512  0.00  0.00    -0.079 S 
BRANCH  28  30
ATOM     29 CL   UNL     1       0.173   3.624   2.479  0.00  0.00    -0.082 Cl
ATOM     30  C   UNL     1      -0.181   3.417  -0.236  0.00  0.00    +0.040 C 
ATOM     31  C   UNL     1      -0.748   3.363   1.037  0.00  0.00    +0.064 C 
ATOM     32  C   UNL     1      -0.975   3.198  -1.363  0.00  0.00    +0.007 C 
ATOM     33  C   UNL     1      -2.108   3.090   1.185  0.00  0.00    +0.012 C 
ATOM     34  C   UNL     1      -2.335   2.924  -1.215  0.00  0.00    +0.001 C 
ATOM     35  C   UNL     1      -2.901   2.870   0.058  0.00  0.00    +0.001 C 
ENDBRANCH  28  30
ENDBRANCH   7  28
TORSDOF 6
