REMARK  Name = 121231395
REMARK  6 active torsions:
REMARK  status: ('A' for Active; 'I' for Inactive)
REMARK    1  A    between atoms: C_7  and  C_24
REMARK    2  A    between atoms: C_9  and  C_13
REMARK    3  A    between atoms: C_14  and  C_22
REMARK    4  A    between atoms: C_27  and  O_30
REMARK    5  A    between atoms: C_29  and  C_33
REMARK    6  A    between atoms: C_33  and  O_34
REMARK                            x       y       z     vdW  Elec       q    Type
REMARK                         _______ _______ _______ _____ _____    ______ ____
ROOT
ATOM      1  O   UNL     1      -3.553  -1.008  -1.614  0.00  0.00    -0.268 OA
ATOM      2  N   UNL     1      -1.385  -0.943  -0.783  0.00  0.00    -0.173 N 
ATOM      3  N   UNL     1      -0.335  -0.131  -0.460  0.00  0.00    -0.174 NA
ATOM      4  N   UNL     1       0.918  -3.046   0.452  0.00  0.00    -0.245 NA
ATOM      5  C   UNL     1      -0.965  -2.312  -1.093  0.00  0.00    +0.145 C 
ATOM      6  C   UNL     1       0.524  -2.324  -0.756  0.00  0.00    +0.098 C 
ATOM      7  C   UNL     1       0.742  -0.855  -0.468  0.00  0.00    +0.116 C 
ATOM      8  C   UNL     1      -1.800  -3.304  -0.349  0.00  0.00    +0.056 C 
ATOM      9  C   UNL     1      -2.634  -0.403  -1.065  0.00  0.00    +0.269 C 
ATOM     10  C   UNL     1      -1.326  -4.051   0.647  0.00  0.00    -0.003 C 
ATOM     11  C   UNL     1       0.070  -3.812   1.031  0.00  0.00    +0.094 C 
ENDROOT
BRANCH   9  13
ATOM     12 CL   UNL     1      -1.945   1.742  -3.142  0.00  0.00    -0.082 Cl
ATOM     13  C   UNL     1      -2.877   1.004  -0.683  0.00  0.00    +0.070 C 
ATOM     14  C   UNL     1      -3.399   1.286   0.579  0.00  0.00    +0.077 C 
ATOM     15  C   UNL     1      -2.592   2.043  -1.569  0.00  0.00    +0.062 C 
ATOM     16  C   UNL     1      -3.636   2.608   0.957  0.00  0.00    +0.004 C 
ATOM     17  C   UNL     1      -2.829   3.365  -1.191  0.00  0.00    +0.012 C 
ATOM     18  C   UNL     1      -3.351   3.648   0.071  0.00  0.00    +0.001 C 
BRANCH  14  22
ATOM     19  F   UNL     1      -4.215   0.673   2.726  0.00  0.00    -0.166 F 
ATOM     20  F   UNL     1      -4.642  -0.693   1.089  0.00  0.00    -0.166 F 
ATOM     21  F   UNL     1      -2.631  -0.561   1.891  0.00  0.00    -0.166 F 
ATOM     22  C   UNL     1      -3.715   0.195   1.551  0.00  0.00    +0.419 C 
ENDBRANCH  14  22
ENDBRANCH   9  13
BRANCH   7  24
ATOM     23  F   UNL     1       1.145   1.394   1.191  0.00  0.00    -0.204 F 
ATOM     24  C   UNL     1       2.085  -0.282  -0.204  0.00  0.00    +0.051 C 
ATOM     25  C   UNL     1       3.213  -0.858  -0.790  0.00  0.00    +0.041 C 
ATOM     26  C   UNL     1       2.221   0.832   0.623  0.00  0.00    +0.142 C 
ATOM     27  C   UNL     1       4.477  -0.319  -0.548  0.00  0.00    +0.140 C 
ATOM     28  C   UNL     1       3.485   1.371   0.866  0.00  0.00    +0.039 C 
ATOM     29  C   UNL     1       4.613   0.795   0.280  0.00  0.00    +0.111 C 
BRANCH  27  30
ATOM     30  O   UNL     1       5.566  -0.896  -1.129  0.00  0.00    -0.505 OA
ATOM     31  H   UNL     1       5.461  -1.644  -1.683  0.00  0.00    +0.292 HD
ENDBRANCH  27  30
BRANCH  29  33
ATOM     32  O   UNL     1       6.987   0.750   0.568  0.00  0.00    -0.245 OA
ATOM     33  C   UNL     1       5.923   1.374   0.546  0.00  0.00    +0.341 C 
BRANCH  33  34
ATOM     34  O   UNL     1       5.861   2.713   0.776  0.00  0.00    -0.477 OA
ATOM     35  H   UNL     1       5.035   3.155   0.752  0.00  0.00    +0.295 HD
ENDBRANCH  33  34
ENDBRANCH  29  33
ENDBRANCH   7  24
TORSDOF 6
