REMARK  Name = 12137075
REMARK  6 active torsions:
REMARK  status: ('A' for Active; 'I' for Inactive)
REMARK    1  A    between atoms: C_2  and  O_28
REMARK    2  A    between atoms: C_3  and  O_30
REMARK    3  A    between atoms: C_7  and  C_23
REMARK    4  A    between atoms: C_14  and  O_34
REMARK    5  A    between atoms: C_20  and  O_32
REMARK    6  A    between atoms: O_34  and  C_36
REMARK                            x       y       z     vdW  Elec       q    Type
REMARK                         _______ _______ _______ _____ _____    ______ ____
ROOT
ATOM      1  O   UNL     1       1.352   3.277   1.030  0.00  0.00    -0.296 OA
ATOM      2  C   UNL     1       1.105  -0.053  -0.358  0.00  0.00    +0.117 C 
ATOM      3  C   UNL     1      -0.396  -0.340  -0.014  0.00  0.00    +0.115 C 
ATOM      4  C   UNL     1       1.829   0.928   0.614  0.00  0.00    +0.080 C 
ATOM      5  C   UNL     1      -1.194   0.986   0.174  0.00  0.00    +0.038 C 
ATOM      6  C   UNL     1      -2.752   0.815   0.395  0.00  0.00    +0.021 C 
ATOM      7  C   UNL     1       3.057   1.406  -0.220  0.00  0.00    +0.034 C 
ATOM      8  C   UNL     1       1.340   0.564  -1.762  0.00  0.00    +0.030 C 
ATOM      9  C   UNL     1      -1.073  -1.234  -1.082  0.00  0.00    +0.077 C 
ATOM     10  C   UNL     1      -0.532   1.841   1.266  0.00  0.00    +0.067 C 
ATOM     11  C   UNL     1       2.474   1.585  -1.625  0.00  0.00    +0.007 C 
ATOM     12  C   UNL     1       0.917   2.127   0.936  0.00  0.00    +0.153 C 
ATOM     13  C   UNL     1      -3.312  -0.185  -0.627  0.00  0.00    -0.007 C 
ATOM     14  C   UNL     1      -2.562  -1.480  -0.828  0.00  0.00    +0.189 C 
ATOM     15  C   UNL     1      -3.423   2.217   0.194  0.00  0.00    +0.007 C 
ATOM     16  C   UNL     1       2.251   0.328   1.966  0.00  0.00    +0.010 C 
ATOM     17  C   UNL     1      -3.112   0.332   1.821  0.00  0.00    +0.004 C 
ATOM     18  C   UNL     1      -4.929   2.132  -0.028  0.00  0.00    +0.034 C 
ATOM     19  C   UNL     1      -4.411   0.063  -1.366  0.00  0.00    -0.003 C 
ATOM     20  C   UNL     1      -5.245   1.302  -1.267  0.00  0.00    +0.132 C 
ENDROOT
BRANCH   7  23
ATOM     21  O   UNL     1       5.449  -1.418  -1.135  0.00  0.00    -0.418 OA
ATOM     22  O   UNL     1       7.455  -1.989  -0.228  0.00  0.00    -0.244 OA
ATOM     23  C   UNL     1       4.231   0.470  -0.248  0.00  0.00    +0.016 C 
ATOM     24  C   UNL     1       5.293   0.671   0.703  0.00  0.00    +0.006 C 
ATOM     25  C   UNL     1       4.353  -0.545  -1.109  0.00  0.00    +0.179 C 
ATOM     26  C   UNL     1       6.360  -0.134   0.720  0.00  0.00    +0.082 C 
ATOM     27  C   UNL     1       6.475  -1.250  -0.242  0.00  0.00    +0.346 C 
ENDBRANCH   7  23
BRANCH   2  28
ATOM     28  O   UNL     1       1.808  -1.309  -0.326  0.00  0.00    -0.384 OA
ATOM     29  H   UNL     1       1.684  -1.727   0.540  0.00  0.00    +0.210 HD
ENDBRANCH   2  28
BRANCH   3  30
ATOM     30  O   UNL     1      -0.414  -1.060   1.226  0.00  0.00    -0.384 OA
ATOM     31  H   UNL     1       0.005  -0.524   1.917  0.00  0.00    +0.210 HD
ENDBRANCH   3  30
BRANCH  20  32
ATOM     32  O   UNL     1      -6.619   0.927  -1.237  0.00  0.00    -0.380 OA
ATOM     33  H   UNL     1      -7.170   1.723  -1.173  0.00  0.00    +0.211 HD
ENDBRANCH  20  32
BRANCH  14  34
ATOM     34  O   UNL     1      -2.725  -2.335   0.300  0.00  0.00    -0.448 OA
BRANCH  34  36
ATOM     35  O   UNL     1      -5.012  -2.355  -0.024  0.00  0.00    -0.250 OA
ATOM     36  C   UNL     1      -4.010  -2.696   0.590  0.00  0.00    +0.318 C 
ATOM     37  C   UNL     1      -4.028  -3.591   1.793  0.00  0.00    +0.121 C 
ENDBRANCH  34  36
ENDBRANCH  14  34
TORSDOF 6
