121487936
  -OEChem-03292013293D

 57 60  0     0  0  0  0  0  0999 V2000
    8.0251   -2.5951    0.6344 F   0  0  0  0  0  0  0  0  0  0  0  0
    8.0625   -2.1352   -1.4848 F   0  0  0  0  0  0  0  0  0  0  0  0
    9.5249   -1.2320   -0.1531 F   0  0  0  0  0  0  0  0  0  0  0  0
   -4.6933   -1.3787   -0.5124 O   0  0  0  0  0  0  0  0  0  0  0  0
    5.9606   -0.6510   -0.0910 O   0  0  0  0  0  0  0  0  0  0  0  0
   -0.1010    0.9178    0.1406 N   0  0  0  0  0  0  0  0  0  0  0  0
   -4.3649    1.5230   -0.1864 N   0  0  0  0  0  0  0  0  0  0  0  0
   -6.8930   -1.1243    0.1758 N   0  0  0  0  0  0  0  0  0  0  0  0
   -5.9382    3.0183   -0.6560 N   0  0  0  0  0  0  0  0  0  0  0  0
    1.8699   -0.3719   -0.1043 N   0  0  0  0  0  0  0  0  0  0  0  0
    6.3808    1.4947    0.3821 N   0  0  0  0  0  0  0  0  0  0  0  0
    7.5918    0.8387    0.2617 N   0  0  0  0  0  0  0  0  0  0  0  0
   -2.9949    0.9667    0.1525 C   0  0  0  0  0  0  0  0  0  0  0  0
   -2.2006    0.5815   -1.1048 C   0  0  0  0  0  0  0  0  0  0  0  0
   -2.1684    1.9429    1.0026 C   0  0  0  0  0  0  0  0  0  0  0  0
   -0.7995    1.3577    1.3532 C   0  0  0  0  0  0  0  0  0  0  0  0
   -0.8355   -0.0012   -0.7399 C   0  0  0  0  0  0  0  0  0  0  0  0
   -5.5182    0.8109   -0.3598 C   0  0  0  0  0  0  0  0  0  0  0  0
    1.2962    0.8265    0.1458 C   0  0  0  0  0  0  0  0  0  0  0  0
   -4.6663    2.8432   -0.3740 C   0  0  0  0  0  0  0  0  0  0  0  0
   -5.6515   -0.6063   -0.2538 C   0  0  0  0  0  0  0  0  0  0  0  0
   -6.4749    1.7552   -0.6487 C   0  0  0  0  0  0  0  0  0  0  0  0
   -7.1767   -2.5303    0.3541 C   0  0  0  0  0  0  0  0  0  0  0  0
    2.0066    1.9863    0.4106 C   0  0  0  0  0  0  0  0  0  0  0  0
   -8.5901   -2.6936    0.9247 C   0  0  0  0  0  0  0  0  0  0  0  0
   -7.0801   -3.2367   -1.0022 C   0  0  0  0  0  0  0  0  0  0  0  0
   -6.1571   -3.1336    1.3272 C   0  0  0  0  0  0  0  0  0  0  0  0
    3.3951    1.9114    0.4191 C   0  0  0  0  0  0  0  0  0  0  0  0
    3.2213   -0.4058   -0.0875 C   0  0  0  0  0  0  0  0  0  0  0  0
    4.0218    0.6963    0.1664 C   0  0  0  0  0  0  0  0  0  0  0  0
    5.4574    0.5868    0.1684 C   0  0  0  0  0  0  0  0  0  0  0  0
    7.2980   -0.4104   -0.0144 C   0  0  0  0  0  0  0  0  0  0  0  0
    8.1920   -1.5519   -0.2461 C   0  0  0  0  0  0  0  0  0  0  0  0
   -3.1945    0.0794    0.7654 H   0  0  0  0  0  0  0  0  0  0  0  0
   -2.7066    2.1969    1.9237 H   0  0  0  0  0  0  0  0  0  0  0  0
   -2.0605    1.4708   -1.7339 H   0  0  0  0  0  0  0  0  0  0  0  0
   -2.7559   -0.1405   -1.7131 H   0  0  0  0  0  0  0  0  0  0  0  0
   -2.0037    2.8812    0.4584 H   0  0  0  0  0  0  0  0  0  0  0  0
   -0.9591   -0.9711   -0.2422 H   0  0  0  0  0  0  0  0  0  0  0  0
   -0.2823   -0.1724   -1.6720 H   0  0  0  0  0  0  0  0  0  0  0  0
   -0.2319    2.1193    1.8995 H   0  0  0  0  0  0  0  0  0  0  0  0
   -0.9196    0.5024    2.0299 H   0  0  0  0  0  0  0  0  0  0  0  0
   -3.9366    3.6376   -0.3081 H   0  0  0  0  0  0  0  0  0  0  0  0
   -7.5240    1.5988   -0.8566 H   0  0  0  0  0  0  0  0  0  0  0  0
   -7.6394   -0.4653    0.3785 H   0  0  0  0  0  0  0  0  0  0  0  0
    1.5195    2.9387    0.5922 H   0  0  0  0  0  0  0  0  0  0  0  0
   -8.6865   -2.1874    1.8923 H   0  0  0  0  0  0  0  0  0  0  0  0
   -9.3402   -2.2582    0.2541 H   0  0  0  0  0  0  0  0  0  0  0  0
   -5.1449   -3.1914    0.9175 H   0  0  0  0  0  0  0  0  0  0  0  0
   -8.8434   -3.7495    1.0707 H   0  0  0  0  0  0  0  0  0  0  0  0
   -6.0713   -3.2096   -1.4255 H   0  0  0  0  0  0  0  0  0  0  0  0
   -7.7524   -2.7750   -1.7350 H   0  0  0  0  0  0  0  0  0  0  0  0
   -7.3615   -4.2924   -0.9129 H   0  0  0  0  0  0  0  0  0  0  0  0
   -6.1057   -2.5537    2.2563 H   0  0  0  0  0  0  0  0  0  0  0  0
   -6.4394   -4.1590    1.5946 H   0  0  0  0  0  0  0  0  0  0  0  0
    3.9701    2.8115    0.6213 H   0  0  0  0  0  0  0  0  0  0  0  0
    3.6312   -1.3899   -0.2940 H   0  0  0  0  0  0  0  0  0  0  0  0
  1 33  1  0  0  0  0
  2 33  1  0  0  0  0
  3 33  1  0  0  0  0
  4 21  2  0  0  0  0
  5 31  1  0  0  0  0
  5 32  1  0  0  0  0
  6 16  1  0  0  0  0
  6 17  1  0  0  0  0
  6 19  1  0  0  0  0
  7 13  1  0  0  0  0
  7 18  1  0  0  0  0
  7 20  1  0  0  0  0
  8 21  1  0  0  0  0
  8 23  1  0  0  0  0
  8 45  1  0  0  0  0
  9 20  2  0  0  0  0
  9 22  1  0  0  0  0
 10 19  2  0  0  0  0
 10 29  1  0  0  0  0
 11 12  1  0  0  0  0
 11 31  2  0  0  0  0
 12 32  2  0  0  0  0
 13 14  1  0  0  0  0
 13 15  1  0  0  0  0
 13 34  1  0  0  0  0
 14 17  1  0  0  0  0
 14 36  1  0  0  0  0
 14 37  1  0  0  0  0
 15 16  1  0  0  0  0
 15 35  1  0  0  0  0
 15 38  1  0  0  0  0
 16 41  1  0  0  0  0
 16 42  1  0  0  0  0
 17 39  1  0  0  0  0
 17 40  1  0  0  0  0
 18 21  1  0  0  0  0
 18 22  2  0  0  0  0
 19 24  1  0  0  0  0
 20 43  1  0  0  0  0
 22 44  1  0  0  0  0
 23 25  1  0  0  0  0
 23 26  1  0  0  0  0
 23 27  1  0  0  0  0
 24 28  2  0  0  0  0
 24 46  1  0  0  0  0
 25 47  1  0  0  0  0
 25 48  1  0  0  0  0
 25 50  1  0  0  0  0
 26 51  1  0  0  0  0
 26 52  1  0  0  0  0
 26 53  1  0  0  0  0
 27 49  1  0  0  0  0
 27 54  1  0  0  0  0
 27 55  1  0  0  0  0
 28 30  1  0  0  0  0
 28 56  1  0  0  0  0
 29 30  2  0  0  0  0
 29 57  1  0  0  0  0
 30 31  1  0  0  0  0
 32 33  1  0  0  0  0
M  END
> <PUBCHEM_COMPOUND_CID>
121487936

> <PUBCHEM_CONFORMER_RMSD>
1

> <PUBCHEM_CONFORMER_DIVERSEORDER>
1
65
83
179
171
133
170
169
112
53
158
99
130
146
91
26
9
157
34
43
106
57
159
151
185
149
109
136
94
8
147
50
36
134
115
186
141
31
168
162
72
5
70
24
84
69
2
67
59
85
25
173
132
156
166
82
178
153
138
124
42
63
38
51
164
32
55
77
78
182
89
101
111
81
100
142
163
41
52
122
18
116
102
93
105
155
97
58
137
184
29
76
21
145
3
123
113
176
15
154
74
19
148
17
33
80
180
88
108
66
12
96
71
98
64
131
49
48
75
60
44
165
11
160
87
23
10
143
139
140
13
118
107
46
20
68
61
175
126
104
144
45
128
35
121
40
135
110
125
129
92
150
27
152
177
167
30
4
14
114
39
174
62
79
117
181
47
54
28
183
161
7
73
22
172
37
86
103
90
120
119
95
16
127
56
6

> <PUBCHEM_MMFF94_PARTIAL_CHARGES>
34
1 -0.34
10 -0.62
11 -0.34
12 -0.34
13 0.26
16 0.37
17 0.37
18 -0.24
19 0.41
2 -0.34
20 0.04
21 0.71
22 0.08
23 0.3
24 -0.15
28 -0.15
29 0.16
3 -0.34
30 0.05
31 0.43
32 0.3
33 1.2
4 -0.57
43 0.15
44 0.15
45 0.37
46 0.15
5 -0.28
56 0.15
57 0.15
6 -0.84
7 0.05
8 -0.73
9 -0.57

> <PUBCHEM_EFFECTIVE_ROTOR_COUNT>
8.2

> <PUBCHEM_PHARMACOPHORE_FEATURES>
9
1 4 acceptor
1 8 donor
3 6 10 19 cation
3 7 9 20 cation
4 23 25 26 27 hydrophobe
5 5 11 12 31 32 rings
5 7 9 18 20 22 rings
6 10 19 24 28 29 30 rings
6 6 13 14 15 16 17 rings

> <PUBCHEM_HEAVY_ATOM_COUNT>
33

> <PUBCHEM_ATOM_DEF_STEREO_COUNT>
0

> <PUBCHEM_ATOM_UDEF_STEREO_COUNT>
0

> <PUBCHEM_BOND_DEF_STEREO_COUNT>
0

> <PUBCHEM_BOND_UDEF_STEREO_COUNT>
0

> <PUBCHEM_ISOTOPIC_ATOM_COUNT>
0

> <PUBCHEM_COMPONENT_COUNT>
1

> <PUBCHEM_CACTVS_TAUTO_COUNT>
2

> <PUBCHEM_CONFORMER_ID>
073DC24000000001

> <PUBCHEM_MMFF94_ENERGY>
74.7056

> <PUBCHEM_FEATURE_SELFOVERLAP>
45.671

> <PUBCHEM_SHAPE_FINGERPRINT>
100830 39 18411416190180090389
10119406 146 18187087260723527827
10258705 36 18411708685674422998
11386260 185 16515971466811841036
11456790 92 16343705439401066826
11719270 70 17917425381591866750
12082328 90 18409444791242388013
12144600 37 18410011056978905888
12539745 222 18202290221744726217
12758862 56 18272079475580575728
1361 4 18334571313386996675
13631057 29 18335698378210437105
13668630 136 18410291402674733760
13782708 43 18340485668437595593
13885169 127 18409446955784741492
14178184 131 18059852930461449759
14344974 204 18198344146831971071
15419008 91 18269252639576070760
15461852 350 18334582338989590236
15510794 2 18343582936821360719
17686467 74 18042400395130924061
18608769 82 18341612650671032287
19611394 137 18342180011534540585
19841028 212 18191301582115053450
2026 5 18411138034717708115
21130935 74 18412542081623047080
21267235 1 18343022211592712464
212700 22 18271520898041713158
21315763 28 18408885152719444068
21781051 124 18272380788937633486
21792961 116 18202561753350309121
23523788 1 17844832433087752471
23559900 14 18201146732903230281
23569917 315 18341621391346938902
23569943 247 17977105661683406546
23576562 1 13624106373385783047
25025965 108 18201423823304264455
3178227 256 17346601906496511658
4073 2 18333452040629885793
4339292 15 18201147841674166559
437795 150 17313673771340132715
44280117 145 18335139795585394845
44802255 64 17458893840327156621
4625314 4 18334292067846478725
5028188 123 18114185216254091924
54039377 194 18341897424135075703
54583773 228 18337678615922218908
54728670 133 16486425278987433193
57676310 188 17676485012824416562
58083652 198 15841259415922290649
6009941 240 18410853231895229837
636775 8 18342747312474585526
6376802 90 18194404395043004733
6691757 9 15697990851393536340
9831232 110 18341055117209526678
999808 66 18341613754746542399

> <PUBCHEM_SHAPE_MULTIPOLES>
610.7
30.53
3.51
0.99
34.29
1.32
-0.04
24.87
1.17
-6.66
-0.14
-0.75
0.23
2.34

> <PUBCHEM_SHAPE_SELFOVERLAP>
1313.554

> <PUBCHEM_SHAPE_VOLUME>
338.9

> <PUBCHEM_COORDINATE_TYPE>
2
5
10

$$$$
