REMARK  Name = 121494077
REMARK  8 active torsions:
REMARK  status: ('A' for Active; 'I' for Inactive)
REMARK    1  A    between atoms: CA_1  and  C_6
REMARK    2  A    between atoms: CA_1  and  N_16
REMARK    3  A    between atoms: CA_1  and  C_27
REMARK    4  A    between atoms: CA_5  and  C_12
REMARK    5  A    between atoms: C_12  and  O_13
REMARK    6  A    between atoms: C_17  and  C_19
REMARK    7  A    between atoms: C_19  and  C_20
REMARK    8  A    between atoms: C_27  and  O_28
REMARK                            x       y       z     vdW  Elec       q    Type
REMARK                         _______ _______ _______ _____ _____    ______ ____
ROOT
ATOM      1  CA  UNL     1      -0.557  -1.579   0.845  0.00  0.00    +0.161 C 
ENDROOT
BRANCH   1   6
ATOM      2  S   UNL     1      -2.544  -1.493  -1.068  0.00  0.00    -0.164 S 
ATOM      3  N   UNL     1      -2.331   0.096   1.065  0.00  0.00    +0.402 N 
ATOM      4  C   UNL     1      -3.267   0.186  -1.176  0.00  0.00    +0.030 C 
ATOM      5  CA  UNL     1      -3.517   0.508   0.310  0.00  0.00    +0.050 C 
ATOM      6  C   UNL     1      -2.039  -1.286   0.672  0.00  0.00    +0.018 C 
ATOM      7  C   UNL     1      -4.569   0.143  -1.976  0.00  0.00    +0.009 C 
ATOM      8  C   UNL     1      -2.242   1.097  -1.866  0.00  0.00    +0.009 C 
ATOM      9  H1  UNL     1      -2.518   0.145   2.066  0.00  0.00    -0.082 HD
ATOM     10  H2  UNL     1      -1.539   0.708   0.867  0.00  0.00    -0.082 HD
BRANCH   5  12
ATOM     11  OXT UNL     1      -2.833   2.779   0.769  0.00  0.00    -0.253 OA
ATOM     12  C   UNL     1      -3.725   1.968   0.566  0.00  0.00    +0.294 C 
BRANCH  12  13
ATOM     13  O   UNL     1      -5.045   2.274   0.546  0.00  0.00    -0.482 OA
ATOM     14  H   UNL     1      -5.679   1.603   0.384  0.00  0.00    +0.295 HD
ENDBRANCH  12  13
ENDBRANCH   5  12
ENDBRANCH   1   6
BRANCH   1  16
ATOM     15  O   UNL     1       1.391   0.234   1.941  0.00  0.00    -0.275 OA
ATOM     16  N   UNL     1       0.236  -0.623   0.118  0.00  0.00    -0.297 N 
ATOM     17  C   UNL     1       1.157   0.215   0.736  0.00  0.00    +0.227 C 
ATOM     18  H   UNL     1       0.121  -0.561  -0.858  0.00  0.00    +0.150 HD
BRANCH  17  19
ATOM     19  C   UNL     1       1.855   1.115  -0.266  0.00  0.00    +0.111 C 
BRANCH  19  20
ATOM     20  C   UNL     1       3.348   0.923  -0.301  0.00  0.00    -0.013 C 
ATOM     21  C   UNL     1       4.169   1.682   0.533  0.00  0.00    -0.004 C 
ATOM     22  C   UNL     1       3.910  -0.013  -1.169  0.00  0.00    -0.004 C 
ATOM     23  C   UNL     1       5.552   1.504   0.500  0.00  0.00    -0.000 C 
ATOM     24  C   UNL     1       5.293  -0.191  -1.202  0.00  0.00    -0.000 C 
ATOM     25  C   UNL     1       6.114   0.568  -0.367  0.00  0.00    -0.000 C 
ENDBRANCH  19  20
ENDBRANCH  17  19
ENDBRANCH   1  16
BRANCH   1  27
ATOM     26  OXT UNL     1      -0.757  -3.985   0.956  0.00  0.00    -0.249 OA
ATOM     27  C   UNL     1      -0.249  -3.005   0.422  0.00  0.00    +0.331 C 
BRANCH  27  28
ATOM     28  O   UNL     1       0.647  -3.115  -0.588  0.00  0.00    -0.479 OA
ATOM     29  H   UNL     1       1.016  -2.344  -0.972  0.00  0.00    +0.295 HD
ENDBRANCH  27  28
ENDBRANCH   1  27
TORSDOF 8
