121499143
  -OEChem-03292013293D

 44 47  0     0  0  0  0  0  0999 V2000
   -5.2795    2.3794   -0.7705 S   0  0  0  0  0  0  0  0  0  0  0  0
    6.2416    1.1777    0.0888 S   0  0  0  0  0  0  0  0  0  0  0  0
   -6.0464   -0.1564    0.4897 O   0  0  0  0  0  0  0  0  0  0  0  0
    7.4154    0.3347   -0.0902 O   0  0  0  0  0  0  0  0  0  0  0  0
    6.0748    2.3687   -0.7323 O   0  0  0  0  0  0  0  0  0  0  0  0
   -1.9375    0.9385    0.6002 N   0  0  0  0  0  0  0  0  0  0  0  0
   -4.0348   -1.2576    0.3222 N   0  0  0  0  0  0  0  0  0  0  0  0
   -0.3198   -0.7016    0.0545 N   0  0  0  0  0  0  0  0  0  0  0  0
    1.3915   -2.2074   -0.4963 N   0  0  0  0  0  0  0  0  0  0  0  0
   -0.8257   -2.9487   -0.5399 N   0  0  0  0  0  0  0  0  0  0  0  0
    6.1304    1.6257    1.7338 N   0  0  0  0  0  0  0  0  0  0  0  0
   -1.6433   -0.3967    0.2354 C   0  0  0  0  0  0  0  0  0  0  0  0
   -2.9691    1.6681    0.0922 C   0  0  0  0  0  0  0  0  0  0  0  0
   -2.6217   -1.3836    0.0606 C   0  0  0  0  0  0  0  0  0  0  0  0
   -4.2419    1.1830   -0.0874 C   0  0  0  0  0  0  0  0  0  0  0  0
   -4.8311   -0.0900    0.2694 C   0  0  0  0  0  0  0  0  0  0  0  0
   -0.8166    1.6389    1.2443 C   0  0  0  0  0  0  0  0  0  0  0  0
   -2.8599    3.0408   -0.3131 C   0  0  0  0  0  0  0  0  0  0  0  0
   -2.1204   -2.6351   -0.3355 C   0  0  0  0  0  0  0  0  0  0  0  0
   -4.7569   -2.5070    0.6230 C   0  0  0  0  0  0  0  0  0  0  0  0
    0.0162   -1.9439   -0.3207 C   0  0  0  0  0  0  0  0  0  0  0  0
   -4.0389    3.5427   -0.8091 C   0  0  0  0  0  0  0  0  0  0  0  0
    2.5407   -1.4063   -0.3570 C   0  0  0  0  0  0  0  0  0  0  0  0
    4.8171    0.1829   -0.0825 C   0  0  0  0  0  0  0  0  0  0  0  0
    3.7531   -1.9836    0.0207 C   0  0  0  0  0  0  0  0  0  0  0  0
    2.4668   -0.0342   -0.5976 C   0  0  0  0  0  0  0  0  0  0  0  0
    4.8912   -1.1892    0.1580 C   0  0  0  0  0  0  0  0  0  0  0  0
    3.6049    0.7603   -0.4603 C   0  0  0  0  0  0  0  0  0  0  0  0
   -1.1646    2.5178    1.8008 H   0  0  0  0  0  0  0  0  0  0  0  0
   -0.0793    1.9701    0.5038 H   0  0  0  0  0  0  0  0  0  0  0  0
   -0.3170    1.0007    1.9839 H   0  0  0  0  0  0  0  0  0  0  0  0
   -1.9560    3.6355   -0.2663 H   0  0  0  0  0  0  0  0  0  0  0  0
   -2.7734   -3.4810   -0.5305 H   0  0  0  0  0  0  0  0  0  0  0  0
   -5.7038   -2.3134    1.1357 H   0  0  0  0  0  0  0  0  0  0  0  0
   -4.9834   -3.0226   -0.3156 H   0  0  0  0  0  0  0  0  0  0  0  0
   -4.1641   -3.1420    1.2897 H   0  0  0  0  0  0  0  0  0  0  0  0
   -4.2245    4.5375   -1.1890 H   0  0  0  0  0  0  0  0  0  0  0  0
    1.5822   -3.1939   -0.6444 H   0  0  0  0  0  0  0  0  0  0  0  0
    3.8233   -3.0512    0.2131 H   0  0  0  0  0  0  0  0  0  0  0  0
    1.5563    0.4493   -0.9354 H   0  0  0  0  0  0  0  0  0  0  0  0
    5.8232   -1.6589    0.4596 H   0  0  0  0  0  0  0  0  0  0  0  0
    3.5252    1.8260   -0.6556 H   0  0  0  0  0  0  0  0  0  0  0  0
    6.8066    1.2123    2.3874 H   0  0  0  0  0  0  0  0  0  0  0  0
    5.8894    2.6014    1.9470 H   0  0  0  0  0  0  0  0  0  0  0  0
  1 15  1  0  0  0  0
  1 22  1  0  0  0  0
  2  4  2  0  0  0  0
  2  5  2  0  0  0  0
  2 11  1  0  0  0  0
  2 24  1  0  0  0  0
  3 16  2  0  0  0  0
  6 12  1  0  0  0  0
  6 13  1  0  0  0  0
  6 17  1  0  0  0  0
  7 14  1  0  0  0  0
  7 16  1  0  0  0  0
  7 20  1  0  0  0  0
  8 12  2  0  0  0  0
  8 21  1  0  0  0  0
  9 21  1  0  0  0  0
  9 23  1  0  0  0  0
  9 38  1  0  0  0  0
 10 19  1  0  0  0  0
 10 21  2  0  0  0  0
 11 43  1  0  0  0  0
 11 44  1  0  0  0  0
 12 14  1  0  0  0  0
 13 15  2  0  0  0  0
 13 18  1  0  0  0  0
 14 19  2  0  0  0  0
 15 16  1  0  0  0  0
 17 29  1  0  0  0  0
 17 30  1  0  0  0  0
 17 31  1  0  0  0  0
 18 22  2  0  0  0  0
 18 32  1  0  0  0  0
 19 33  1  0  0  0  0
 20 34  1  0  0  0  0
 20 35  1  0  0  0  0
 20 36  1  0  0  0  0
 22 37  1  0  0  0  0
 23 25  2  0  0  0  0
 23 26  1  0  0  0  0
 24 27  2  0  0  0  0
 24 28  1  0  0  0  0
 25 27  1  0  0  0  0
 25 39  1  0  0  0  0
 26 28  2  0  0  0  0
 26 40  1  0  0  0  0
 27 41  1  0  0  0  0
 28 42  1  0  0  0  0
M  END
> <PUBCHEM_COMPOUND_CID>
121499143

> <PUBCHEM_CONFORMER_RMSD>
0.8

> <PUBCHEM_CONFORMER_DIVERSEORDER>
15
9
29
6
26
14
22
3
21
5
27
23
31
4
19
20
10
16
28
1
7
24
13
30
2
25
12
17
18
8
11

> <PUBCHEM_MMFF94_PARTIAL_CHARGES>
38
1 -0.08
10 -0.62
11 -0.98
12 0.41
13 0.08
14 0.12
15 -0.05
16 0.71
17 0.37
18 -0.15
19 0.16
2 1.45
20 0.3
21 0.72
22 -0.11
23 0.1
24 -0.01
25 -0.15
26 -0.15
27 -0.15
28 -0.15
3 -0.57
32 0.15
33 0.15
37 0.15
38 0.4
39 0.15
4 -0.65
40 0.15
41 0.15
42 0.15
43 0.42
44 0.42
5 -0.65
6 -0.55
7 -0.48
8 -0.62
9 -0.6

> <PUBCHEM_EFFECTIVE_ROTOR_COUNT>
3.4

> <PUBCHEM_PHARMACOPHORE_FEATURES>
10
1 11 donor
1 3 acceptor
1 4 acceptor
1 5 acceptor
1 9 donor
4 8 9 10 21 cation
5 1 13 15 18 22 rings
6 23 24 25 26 27 28 rings
6 8 10 12 14 19 21 rings
7 6 7 12 13 14 15 16 rings

> <PUBCHEM_HEAVY_ATOM_COUNT>
28

> <PUBCHEM_ATOM_DEF_STEREO_COUNT>
0

> <PUBCHEM_ATOM_UDEF_STEREO_COUNT>
0

> <PUBCHEM_BOND_DEF_STEREO_COUNT>
0

> <PUBCHEM_BOND_UDEF_STEREO_COUNT>
0

> <PUBCHEM_ISOTOPIC_ATOM_COUNT>
0

> <PUBCHEM_COMPONENT_COUNT>
1

> <PUBCHEM_CACTVS_TAUTO_COUNT>
4

> <PUBCHEM_CONFORMER_ID>
073DEE070000000F

> <PUBCHEM_MMFF94_ENERGY>
97.1035

> <PUBCHEM_FEATURE_SELFOVERLAP>
50.799

> <PUBCHEM_SHAPE_FINGERPRINT>
10 15 18260270745671402016
100830 39 18409730651712945540
10290309 65 18342743987579853630
10675989 125 17257084875443759453
11135609 187 18194958549183348469
12107183 9 18046053870975929106
12236239 1 18187081784850779762
12403259 415 18340494356744900830
12596602 18 17749104521844067970
13402501 40 18201438111968406640
13726171 33 18339647737424624153
13911987 19 17489585641304635207
14739800 52 18261943060029136434
15196674 1 18410858728957217086
15419008 145 18187633684280733496
15575132 122 18411703200889201534
18608769 82 18340770454517788299
19611394 137 17971205960617492587
20511986 3 18114452384072116758
20715895 44 18048593712238524717
21033648 144 18188202083703277813
21315764 268 18335417929050603596
21859007 373 17680136388023997436
22956985 138 16889220694929572115
23227448 37 18337674109994499655
23559900 14 17982734069309560158
2838139 119 18265890263717456590
350125 39 18412267276029264593
4073 2 17967822669529910066
44249763 50 17702652415118812030
508706 21 18127955589594590968
5104073 3 18335144137427728467
550186 72 18410855486368159277
7808743 9 18411415128953701746
9981440 41 18261398827733549891

> <PUBCHEM_SHAPE_MULTIPOLES>
536.43
16.54
3.76
0.9
20.04
0.52
0.18
8.53
0.92
-3.55
-0.59
0.27
0.33
1.34

> <PUBCHEM_SHAPE_SELFOVERLAP>
1152.94

> <PUBCHEM_SHAPE_VOLUME>
296.6

> <PUBCHEM_COORDINATE_TYPE>
2
5
10

$$$$
