121473004
  -OEChem-03292013293D

 53 55  0     0  0  0  0  0  0999 V2000
    6.3965    4.2593   -0.6844 Cl  0  0  0  0  0  0  0  0  0  0  0  0
   -3.6075    2.0046    0.7077 S   0  0  0  0  0  0  0  0  0  0  0  0
   -3.2192    2.7643   -0.4653 O   0  0  0  0  0  0  0  0  0  0  0  0
   -3.8555    2.6817    1.9661 O   0  0  0  0  0  0  0  0  0  0  0  0
   -8.5205   -1.0144   -0.6245 O   0  0  0  0  0  0  0  0  0  0  0  0
    3.3359   -3.3215    1.1230 O   0  0  0  0  0  0  0  0  0  0  0  0
   -2.4869    0.7568    0.9706 N   0  0  0  0  0  0  0  0  0  0  0  0
    4.0731   -1.8980   -0.5527 N   0  0  0  0  0  0  0  0  0  0  0  0
    5.4643    0.6484    0.7160 N   0  0  0  0  0  0  0  0  0  0  0  0
   -2.1770   -0.1991   -0.1207 C   0  0  0  0  0  0  0  0  0  0  0  0
   -0.8054   -0.7742   -0.0089 C   0  0  0  0  0  0  0  0  0  0  0  0
   -5.0736    1.1005    0.3105 C   0  0  0  0  0  0  0  0  0  0  0  0
    1.7596   -1.8508    0.2007 C   0  0  0  0  0  0  0  0  0  0  0  0
    5.4397   -2.3674   -0.5823 C   0  0  0  0  0  0  0  0  0  0  0  0
    0.3039   -0.0082   -0.3672 C   0  0  0  0  0  0  0  0  0  0  0  0
   -0.6322   -2.0786    0.4543 C   0  0  0  0  0  0  0  0  0  0  0  0
    6.3446   -1.5970    0.3762 C   0  0  0  0  0  0  0  0  0  0  0  0
    1.5863   -0.5465   -0.2623 C   0  0  0  0  0  0  0  0  0  0  0  0
    0.6502   -2.6168    0.5590 C   0  0  0  0  0  0  0  0  0  0  0  0
    3.0970   -2.4119    0.3090 C   0  0  0  0  0  0  0  0  0  0  0  0
   -5.3500    0.7687   -1.0159 C   0  0  0  0  0  0  0  0  0  0  0  0
   -5.9555    0.7217    1.3226 C   0  0  0  0  0  0  0  0  0  0  0  0
    6.3841   -0.1166    0.0863 C   0  0  0  0  0  0  0  0  0  0  0  0
   -6.5083    0.0580   -1.3301 C   0  0  0  0  0  0  0  0  0  0  0  0
   -7.1138    0.0111    1.0083 C   0  0  0  0  0  0  0  0  0  0  0  0
   -7.3902   -0.3210   -0.3180 C   0  0  0  0  0  0  0  0  0  0  0  0
    7.3366    0.3788   -0.7895 C   0  0  0  0  0  0  0  0  0  0  0  0
    7.3459    1.7475   -1.0349 C   0  0  0  0  0  0  0  0  0  0  0  0
    5.5040    1.9739    0.4528 C   0  0  0  0  0  0  0  0  0  0  0  0
    6.4152    2.5672   -0.4059 C   0  0  0  0  0  0  0  0  0  0  0  0
   -8.7411   -1.3203   -2.0007 C   0  0  0  0  0  0  0  0  0  0  0  0
   -2.2695    0.2936   -1.0955 H   0  0  0  0  0  0  0  0  0  0  0  0
   -2.9253   -1.0000   -0.0967 H   0  0  0  0  0  0  0  0  0  0  0  0
   -2.3857    0.3866    1.9241 H   0  0  0  0  0  0  0  0  0  0  0  0
    5.7914   -2.2608   -1.6144 H   0  0  0  0  0  0  0  0  0  0  0  0
    5.4566   -3.4330   -0.3294 H   0  0  0  0  0  0  0  0  0  0  0  0
    0.1808    1.0117   -0.7223 H   0  0  0  0  0  0  0  0  0  0  0  0
   -1.4871   -2.6867    0.7381 H   0  0  0  0  0  0  0  0  0  0  0  0
    5.9943   -1.7384    1.4069 H   0  0  0  0  0  0  0  0  0  0  0  0
    7.3600   -2.0101    0.3392 H   0  0  0  0  0  0  0  0  0  0  0  0
    2.4228    0.0957   -0.5215 H   0  0  0  0  0  0  0  0  0  0  0  0
    0.7635   -3.6364    0.9183 H   0  0  0  0  0  0  0  0  0  0  0  0
    3.8255   -1.1967   -1.2423 H   0  0  0  0  0  0  0  0  0  0  0  0
   -4.6752    1.0520   -1.8188 H   0  0  0  0  0  0  0  0  0  0  0  0
   -5.7569    0.9634    2.3628 H   0  0  0  0  0  0  0  0  0  0  0  0
   -6.6611   -0.1674   -2.3800 H   0  0  0  0  0  0  0  0  0  0  0  0
   -7.7965   -0.2828    1.8010 H   0  0  0  0  0  0  0  0  0  0  0  0
    8.0570   -0.2695   -1.2767 H   0  0  0  0  0  0  0  0  0  0  0  0
    8.0825    2.1617   -1.7182 H   0  0  0  0  0  0  0  0  0  0  0  0
    4.7520    2.5588    0.9737 H   0  0  0  0  0  0  0  0  0  0  0  0
   -9.6841   -1.8734   -2.0617 H   0  0  0  0  0  0  0  0  0  0  0  0
   -8.8641   -0.4119   -2.6002 H   0  0  0  0  0  0  0  0  0  0  0  0
   -7.9593   -1.9769   -2.3973 H   0  0  0  0  0  0  0  0  0  0  0  0
  1 30  1  0  0  0  0
  2  3  2  0  0  0  0
  2  4  2  0  0  0  0
  2  7  1  0  0  0  0
  2 12  1  0  0  0  0
  5 26  1  0  0  0  0
  5 31  1  0  0  0  0
  6 20  2  0  0  0  0
  7 10  1  0  0  0  0
  7 34  1  0  0  0  0
  8 14  1  0  0  0  0
  8 20  1  0  0  0  0
  8 43  1  0  0  0  0
  9 23  2  0  0  0  0
  9 29  1  0  0  0  0
 10 11  1  0  0  0  0
 10 32  1  0  0  0  0
 10 33  1  0  0  0  0
 11 15  2  0  0  0  0
 11 16  1  0  0  0  0
 12 21  2  0  0  0  0
 12 22  1  0  0  0  0
 13 18  2  0  0  0  0
 13 19  1  0  0  0  0
 13 20  1  0  0  0  0
 14 17  1  0  0  0  0
 14 35  1  0  0  0  0
 14 36  1  0  0  0  0
 15 18  1  0  0  0  0
 15 37  1  0  0  0  0
 16 19  2  0  0  0  0
 16 38  1  0  0  0  0
 17 23  1  0  0  0  0
 17 39  1  0  0  0  0
 17 40  1  0  0  0  0
 18 41  1  0  0  0  0
 19 42  1  0  0  0  0
 21 24  1  0  0  0  0
 21 44  1  0  0  0  0
 22 25  2  0  0  0  0
 22 45  1  0  0  0  0
 23 27  1  0  0  0  0
 24 26  2  0  0  0  0
 24 46  1  0  0  0  0
 25 26  1  0  0  0  0
 25 47  1  0  0  0  0
 27 28  2  0  0  0  0
 27 48  1  0  0  0  0
 28 30  1  0  0  0  0
 28 49  1  0  0  0  0
 29 30  2  0  0  0  0
 29 50  1  0  0  0  0
 31 51  1  0  0  0  0
 31 52  1  0  0  0  0
 31 53  1  0  0  0  0
M  END
> <PUBCHEM_COMPOUND_CID>
121473004

> <PUBCHEM_CONFORMER_RMSD>
1.2

> <PUBCHEM_CONFORMER_DIVERSEORDER>
1
7
131
117
67
93
121
96
44
30
128
11
135
137
61
91
89
43
19
36
129
73
24
29
8
81
99
68
101
139
65
85
120
126
132
27
69
78
25
9
48
136
56
133
20
46
63
12
116
97
114
134
28
14
74
62
109
106
92
53
83
49
26
88
80
5
23
102
108
125
100
75
71
21
47
22
112
119
141
105
90
39
107
140
82
37
10
15
130
34
60
17
111
113
87
51
84
138
110
54
42
70
95
18
104
124
52
41
123
45
33
86
72
76
127
94
32
55
98
58
31
6
66
57
50
79
2
3
115
118
16
40
122
35
64
38
103
13
4
59
77

> <PUBCHEM_MMFF94_PARTIAL_CHARGES>
44
1 -0.18
10 0.5
11 -0.14
12 -0.01
13 0.09
14 0.3
15 -0.15
16 -0.15
17 0.14
18 -0.15
19 -0.15
2 1.45
20 0.54
21 -0.15
22 -0.15
23 0.17
24 -0.15
25 -0.15
26 0.08
27 -0.15
28 -0.15
29 0.16
3 -0.65
30 0.18
31 0.28
34 0.42
37 0.15
38 0.15
4 -0.65
41 0.15
42 0.15
43 0.37
44 0.15
45 0.15
46 0.15
47 0.15
48 0.15
49 0.15
5 -0.36
50 0.15
6 -0.57
7 -0.91
8 -0.73
9 -0.62

> <PUBCHEM_EFFECTIVE_ROTOR_COUNT>
10

> <PUBCHEM_PHARMACOPHORE_FEATURES>
10
1 3 acceptor
1 4 acceptor
1 5 acceptor
1 6 acceptor
1 7 donor
1 8 donor
1 9 acceptor
6 11 13 15 16 18 19 rings
6 12 21 22 24 25 26 rings
6 9 23 27 28 29 30 rings

> <PUBCHEM_HEAVY_ATOM_COUNT>
31

> <PUBCHEM_ATOM_DEF_STEREO_COUNT>
0

> <PUBCHEM_ATOM_UDEF_STEREO_COUNT>
0

> <PUBCHEM_BOND_DEF_STEREO_COUNT>
0

> <PUBCHEM_BOND_UDEF_STEREO_COUNT>
0

> <PUBCHEM_ISOTOPIC_ATOM_COUNT>
0

> <PUBCHEM_COMPONENT_COUNT>
1

> <PUBCHEM_CACTVS_TAUTO_COUNT>
6

> <PUBCHEM_CONFORMER_ID>
073D87EC00000001

> <PUBCHEM_MMFF94_ENERGY>
69.417

> <PUBCHEM_FEATURE_SELFOVERLAP>
50.767

> <PUBCHEM_SHAPE_FINGERPRINT>
10 15 17749110001863550114
10162869 55 18411130330289690190
10391435 84 17894352203124175467
10638233 991 18342458110561474296
11007060 377 18114188501930518435
11101153 10 18411702045838956625
11828042 206 18260256436339149149
12144603 126 18272654516289019113
12373685 5 14129058136629664467
12708847 88 17894624860142163002
12925494 130 18264211490715898520
14142895 15 18410292562062832951
14400156 162 11815620822399517791
14429380 56 18334570248503443966
14444916 359 13902189296827005853
1454969 45 18411417311092188289
14849402 71 18342179985570188185
15150948 74 18336545027892599668
15183329 4 18272373066422950120
15685185 35 18193276519250895108
16067689 302 18341900731497354731
20105231 36 13326854439718524557
21150785 3 18343862208464543759
21585482 57 18337388343754811390
21781051 124 15482670212282088958
21987483 16 17894914040116656243
23389318 12 18341324557497904679
23522609 53 17774179915339390561
335352 9 18410299087099402222
335507 130 17846212237621164134
34797466 226 18130795512302539750
3552219 110 17988932163322718809
3986486 107 18057067778305204964
4173938 306 16805319994427717139
4258327 124 18338525234752086910
437795 163 18339077198559382495
445580 167 18342735217651507543
4567818 161 18190178078055650693
4625314 4 18339924788653279087
4760202 70 18270394018691591781
5109719 28 18334019401910638296
9849439 229 18341042039223916776

> <PUBCHEM_SHAPE_MULTIPOLES>
605.26
27.9
3.81
1.27
16.65
1.45
0.06
8.56
8.09
-7.68
-0.3
2.19
0.21
-2.84

> <PUBCHEM_SHAPE_SELFOVERLAP>
1265.684

> <PUBCHEM_SHAPE_VOLUME>
344.1

> <PUBCHEM_COORDINATE_TYPE>
2
5
10

$$$$
