REMARK  Name = 121499143
REMARK  3 active torsions:
REMARK  status: ('A' for Active; 'I' for Inactive)
REMARK    1  A    between atoms: N_6  and  C_20
REMARK    2  A    between atoms: C_21  and  S_26
REMARK    3  A    between atoms: S_26  and  N_29
REMARK                            x       y       z     vdW  Elec       q    Type
REMARK                         _______ _______ _______ _____ _____    ______ ____
ROOT
ATOM      1  S   UNL     1      -5.279   2.379  -0.770  0.00  0.00    -0.081 S 
ATOM      2  O   UNL     1      -6.046  -0.156   0.490  0.00  0.00    -0.269 OA
ATOM      3  N   UNL     1      -1.938   0.939   0.600  0.00  0.00    -0.259 N 
ATOM      4  N   UNL     1      -4.035  -1.258   0.322  0.00  0.00    -0.248 N 
ATOM      5  N   UNL     1      -0.320  -0.702   0.054  0.00  0.00    -0.320 NA
ATOM      6  N   UNL     1       1.391  -2.207  -0.496  0.00  0.00    -0.247 N 
ATOM      7  N   UNL     1      -0.826  -2.949  -0.540  0.00  0.00    -0.168 NA
ATOM      8  C   UNL     1      -1.643  -0.397   0.235  0.00  0.00    +0.215 C 
ATOM      9  C   UNL     1      -2.969   1.668   0.092  0.00  0.00    +0.065 C 
ATOM     10  C   UNL     1      -2.622  -1.384   0.061  0.00  0.00    +0.120 C 
ATOM     11  C   UNL     1      -4.242   1.183  -0.087  0.00  0.00    +0.097 C 
ATOM     12  C   UNL     1      -4.831  -0.090   0.269  0.00  0.00    +0.260 C 
ATOM     13  C   UNL     1      -0.817   1.639   1.244  0.00  0.00    +0.120 C 
ATOM     14  C   UNL     1      -2.860   3.041  -0.313  0.00  0.00    +0.023 C 
ATOM     15  C   UNL     1      -2.120  -2.635  -0.336  0.00  0.00    +0.131 C 
ATOM     16  C   UNL     1      -4.757  -2.507   0.623  0.00  0.00    +0.121 C 
ATOM     17  C   UNL     1       0.016  -1.944  -0.321  0.00  0.00    +0.150 C 
ATOM     18  C   UNL     1      -4.039   3.543  -0.809  0.00  0.00    +0.037 C 
ATOM     19  H   UNL     1       1.585  -3.133  -0.770  0.00  0.00    +0.165 HD
ENDROOT
BRANCH   6  20
ATOM     20  C   UNL     1       2.541  -1.406  -0.357  0.00  0.00    +0.058 C 
ATOM     21  C   UNL     1       4.817   0.183  -0.083  0.00  0.00    +0.122 C 
ATOM     22  C   UNL     1       3.753  -1.984   0.021  0.00  0.00    +0.017 C 
ATOM     23  C   UNL     1       2.467  -0.034  -0.598  0.00  0.00    +0.017 C 
ATOM     24  C   UNL     1       4.891  -1.189   0.158  0.00  0.00    +0.021 C 
ATOM     25  C   UNL     1       3.605   0.760  -0.460  0.00  0.00    +0.021 C 
BRANCH  21  26
ATOM     26  S   UNL     1       6.242   1.178   0.089  0.00  0.00    +0.057 S 
ATOM     27  O   UNL     1       7.415   0.335  -0.090  0.00  0.00    -0.153 OA
ATOM     28  O   UNL     1       6.075   2.369  -0.732  0.00  0.00    -0.153 OA
BRANCH  26  29
ATOM     29  N   UNL     1       6.130   1.626   1.734  0.00  0.00    -0.203 NA
ATOM     30  H   UNL     1       6.920   2.224   1.977  0.00  0.00    +0.144 HD
ATOM     31  H   UNL     1       6.146   0.788   2.316  0.00  0.00    +0.144 HD
ENDBRANCH  26  29
ENDBRANCH  21  26
ENDBRANCH   6  20
TORSDOF 3
