REMARK  Name = 121488167
REMARK  6 active torsions:
REMARK  status: ('A' for Active; 'I' for Inactive)
REMARK    1  A    between atoms: N_1  and  C_20
REMARK    2  A    between atoms: C_6  and  C_10
REMARK    3  A    between atoms: C_11  and  O_16
REMARK    4  A    between atoms: C_18  and  C_24
REMARK    5  A    between atoms: C_24  and  S_25
REMARK    6  A    between atoms: S_25  and  N_27
REMARK                            x       y       z     vdW  Elec       q    Type
REMARK                         _______ _______ _______ _____ _____    ______ ____
ROOT
ATOM      1  N   UNL     1       1.912   2.531   0.208  0.00  0.00    -0.247 N 
ATOM      2  N   UNL     1      -0.198   1.508   0.227  0.00  0.00    -0.284 NA
ATOM      3  N   UNL     1       0.010   3.894   0.366  0.00  0.00    -0.169 NA
ATOM      4  N   UNL     1      -2.163   2.876   0.389  0.00  0.00    -0.181 NA
ATOM      5  C   UNL     1       0.506   2.650   0.270  0.00  0.00    +0.156 C 
ATOM      6  C   UNL     1      -1.526   1.698   0.291  0.00  0.00    +0.100 C 
ATOM      7  C   UNL     1      -1.331   3.930   0.421  0.00  0.00    +0.274 C 
ATOM      8  H   UNL     1       2.384   3.394   0.243  0.00  0.00    +0.165 HD
ENDROOT
BRANCH   6  10
ATOM      9  F   UNL     1      -4.746  -2.856   0.194  0.00  0.00    -0.204 F 
ATOM     10  C   UNL     1      -2.356   0.511   0.251  0.00  0.00    +0.109 C 
ATOM     11  C   UNL     1      -2.317  -0.353  -0.843  0.00  0.00    +0.151 C 
ATOM     12  C   UNL     1      -3.201   0.237   1.326  0.00  0.00    +0.016 C 
ATOM     13  C   UNL     1      -3.124  -1.491  -0.863  0.00  0.00    +0.067 C 
ATOM     14  C   UNL     1      -4.009  -0.900   1.307  0.00  0.00    +0.031 C 
ATOM     15  C   UNL     1      -3.970  -1.764   0.212  0.00  0.00    +0.143 C 
BRANCH  11  16
ATOM     16  O   UNL     1      -1.500  -0.111  -1.907  0.00  0.00    -0.471 OA
ATOM     17  C   UNL     1      -2.038   0.671  -2.971  0.00  0.00    +0.252 C 
ENDBRANCH  11  16
ENDBRANCH   6  10
BRANCH   1  20
ATOM     18  C   UNL     1       3.241  -0.908   0.550  0.00  0.00    -0.008 C 
ATOM     19  C   UNL     1       2.390   0.193   0.651  0.00  0.00    +0.012 C 
ATOM     20  C   UNL     1       2.770   1.420   0.106  0.00  0.00    +0.057 C 
ATOM     21  C   UNL     1       4.471  -0.782  -0.096  0.00  0.00    -0.003 C 
ATOM     22  C   UNL     1       4.000   1.546  -0.540  0.00  0.00    +0.015 C 
ATOM     23  C   UNL     1       4.850   0.445  -0.641  0.00  0.00    +0.001 C 
BRANCH  18  24
ATOM     24  C   UNL     1       2.835  -2.220   1.132  0.00  0.00    +0.109 C 
BRANCH  24  25
ATOM     25  S   UNL     1       1.593  -2.914   0.091  0.00  0.00    -0.007 S 
ATOM     26  O   UNL     1       0.409  -2.076   0.218  0.00  0.00    -0.156 OA
ATOM     27  C   UNL     1       1.213  -4.454   0.901  0.00  0.00    +0.097 C 
BRANCH  25  28
ATOM     28  N   UNL     1       2.278  -3.279  -1.250  0.00  0.00    -0.183 NA
ATOM     29  H   UNL     1       2.573  -2.566  -1.861  0.00  0.00    +0.156 HD
ENDBRANCH  25  28
ENDBRANCH  24  25
ENDBRANCH  18  24
ENDBRANCH   1  20
TORSDOF 6
