REMARK  Name = 121488170
REMARK  16 active torsions:
REMARK  status: ('A' for Active; 'I' for Inactive)
REMARK    1  A    between atoms: N_1  and  C_5
REMARK    2  A    between atoms: N_1  and  C_14
REMARK    3  A    between atoms: C_5  and  C_6
REMARK    4  A    between atoms: C_6  and  C_7
REMARK    5  A    between atoms: C_7  and  C_8
REMARK    6  A    between atoms: C_8  and  O_9
REMARK    7  A    between atoms: O_9  and  C_10
REMARK    8  A    between atoms: C_10  and  C_11
REMARK    9  A    between atoms: C_11  and  O_12
REMARK   10  A    between atoms: C_14  and  C_15
REMARK   11  A    between atoms: C_15  and  C_16
REMARK   12  A    between atoms: C_16  and  C_17
REMARK   13  A    between atoms: C_17  and  C_18
REMARK   14  A    between atoms: C_18  and  N_19
REMARK   15  A    between atoms: C_18  and  C_24
REMARK   16  A    between atoms: C_24  and  O_25
REMARK                            x       y       z     vdW  Elec       q    Type
REMARK                         _______ _______ _______ _____ _____    ______ ____
ROOT
ATOM      1  N   UNK     1      -3.041   0.972  -0.673  0.00  0.00    -0.369 NA
ATOM      2  H   UNK     1      -2.600   0.893  -1.550  0.00  0.00    +0.127 HD
ATOM      3  H   UNK     1      -2.760   0.096  -0.324  0.00  0.00    +0.127 HD
ENDROOT
BRANCH   1   5
ATOM      4  O   UNK     1      -3.376   2.376   1.147  0.00  0.00    -0.277 OA
ATOM      5  C   UNK     1      -2.880   2.154   0.046  0.00  0.00    +0.207 C 
BRANCH   5   6
ATOM      6  C   UNK     1      -1.984   3.143  -0.680  0.00  0.00    +0.086 C 
BRANCH   6   7
ATOM      7  C   UNK     1      -0.576   2.616  -0.942  0.00  0.00    +0.042 C 
BRANCH   7   8
ATOM      8  C   UNK     1       0.161   2.244   0.340  0.00  0.00    +0.143 C 
BRANCH   8   9
ATOM      9  O   UNK     1       1.463   1.786   0.001  0.00  0.00    -0.351 OA
BRANCH   9  10
ATOM     10  C   UNK     1       2.205   1.422   1.157  0.00  0.00    +0.174 C 
BRANCH  10  11
ATOM     11  C   UNK     1       3.571   0.920   0.731  0.00  0.00    +0.174 C 
BRANCH  11  12
ATOM     12  O   UNK     1       4.239   1.950   0.012  0.00  0.00    -0.348 OA
ATOM     13  C   UNK     1       5.538   1.542  -0.395  0.00  0.00    +0.174 C 
ENDBRANCH  11  12
ENDBRANCH  10  11
ENDBRANCH   9  10
ENDBRANCH   8   9
ENDBRANCH   7   8
ENDBRANCH   6   7
ENDBRANCH   5   6
ENDBRANCH   1   5
BRANCH   1  14
ATOM     14  C   UNK     1      -3.820  -0.135  -0.197  0.00  0.00    +0.072 C 
BRANCH  14  15
ATOM     15  C   UNK     1      -3.004  -1.130   0.624  0.00  0.00    +0.020 C 
BRANCH  15  16
ATOM     16  C   UNK     1      -1.859  -1.810  -0.138  0.00  0.00    +0.000 C 
BRANCH  16  17
ATOM     17  C   UNK     1      -1.132  -2.897   0.660  0.00  0.00    -0.011 C 
BRANCH  17  18
ATOM     18  C   UNK     1      -0.025  -3.585  -0.149  0.00  0.00    +0.036 C 
BRANCH  18  19
ATOM     19  N   UNK     1       0.613  -4.612   0.679  0.00  0.00    +0.389 N 
ATOM     20  H   UNK     1      -0.086  -5.293   0.975  0.00  0.00    -0.088 HD
ATOM     21  H   UNK     1       1.031  -4.174   1.500  0.00  0.00    -0.088 HD
ATOM     22  H   UNK     1       1.339  -5.082   0.138  0.00  0.00    -0.088 HD
ENDBRANCH  18  19
BRANCH  18  24
ATOM     23  O   UNK     1       2.022  -2.290   0.125  0.00  0.00    -0.253 OA
ATOM     24  C   UNK     1       1.057  -2.601  -0.561  0.00  0.00    +0.293 C 
BRANCH  24  25
ATOM     25  O   UNK     1       0.827  -2.067  -1.789  0.00  0.00    -0.482 OA
ATOM     26  H   UNK     1       0.075  -2.332  -2.282  0.00  0.00    +0.295 HD
ENDBRANCH  24  25
ENDBRANCH  18  24
ENDBRANCH  17  18
ENDBRANCH  16  17
ENDBRANCH  15  16
ENDBRANCH  14  15
ENDBRANCH   1  14
TORSDOF 16
