REMARK  Name = 121433863
REMARK  12 active torsions:
REMARK  status: ('A' for Active; 'I' for Inactive)
REMARK    1  A    between atoms: P_1  and  N_3
REMARK    2  A    between atoms: P_1  and  O_13
REMARK    3  A    between atoms: P_1  and  C_20
REMARK    4  A    between atoms: N_3  and  C_5
REMARK    5  A    between atoms: C_5  and  C_8
REMARK    6  A    between atoms: C_8  and  O_9
REMARK    7  A    between atoms: O_9  and  C_10
REMARK    8  A    between atoms: O_13  and  C_14
REMARK    9  A    between atoms: C_20  and  O_21
REMARK   10  A    between atoms: O_21  and  C_22
REMARK   11  A    between atoms: C_22  and  C_24
REMARK   12  A    between atoms: C_24  and  N_25
REMARK                            x       y       z     vdW  Elec       q    Type
REMARK                         _______ _______ _______ _____ _____    ______ ____
ROOT
ATOM      1  P   UNL     1      -1.795   1.463   1.304  0.00  0.00    +0.358 P 
ATOM      2  O   UNL     1      -2.719   2.550   1.788  0.00  0.00    -0.256 OA
ENDROOT
BRANCH   1   3
ATOM      3  N   UNL     1      -0.904   1.745  -0.063  0.00  0.00    -0.215 NA
ATOM      4  H   UNL     1      -1.565   1.851  -0.833  0.00  0.00    +0.134 HD
BRANCH   3   5
ATOM      5  C   UNL     1      -0.013   2.893  -0.108  0.00  0.00    +0.162 C 
ATOM      6  C   UNL     1      -0.752   4.095  -0.681  0.00  0.00    +0.030 C 
BRANCH   5   8
ATOM      7  O   UNL     1       1.151   1.780  -1.941  0.00  0.00    -0.249 OA
ATOM      8  C   UNL     1       1.178   2.533  -0.977  0.00  0.00    +0.332 C 
BRANCH   8   9
ATOM      9  O   UNL     1       2.285   3.188  -0.513  0.00  0.00    -0.451 OA
BRANCH   9  10
ATOM     10  C   UNL     1       3.495   2.949  -1.241  0.00  0.00    +0.169 C 
ATOM     11  C   UNL     1       4.368   4.193  -1.183  0.00  0.00    +0.047 C 
ATOM     12  C   UNL     1       4.199   1.734  -0.656  0.00  0.00    +0.047 C 
ENDBRANCH   9  10
ENDBRANCH   8   9
ENDBRANCH   5   8
ENDBRANCH   3   5
ENDBRANCH   1   3
BRANCH   1  13
ATOM     13  O   UNL     1      -2.577   0.056   1.118  0.00  0.00    -0.429 OA
BRANCH  13  14
ATOM     14  C   UNL     1      -3.600  -0.165   0.236  0.00  0.00    +0.146 C 
ATOM     15  C   UNL     1      -4.043   0.868  -0.591  0.00  0.00    +0.037 C 
ATOM     16  C   UNL     1      -4.200  -1.422   0.164  0.00  0.00    +0.037 C 
ATOM     17  C   UNL     1      -5.086   0.643  -1.490  0.00  0.00    +0.003 C 
ATOM     18  C   UNL     1      -5.243  -1.647  -0.735  0.00  0.00    +0.003 C 
ATOM     19  C   UNL     1      -5.686  -0.615  -1.562  0.00  0.00    +0.000 C 
ENDBRANCH  13  14
ENDBRANCH   1  13
BRANCH   1  20
ATOM     20  C   UNL     1      -0.612   1.035   2.593  0.00  0.00    +0.258 C 
BRANCH  20  21
ATOM     21  O   UNL     1       0.054  -0.132   2.130  0.00  0.00    -0.343 OA
BRANCH  21  22
ATOM     22  C   UNL     1       1.017  -0.590   3.068  0.00  0.00    +0.136 C 
ATOM     23  C   UNL     1       2.274   0.258   2.918  0.00  0.00    +0.034 C 
BRANCH  22  24
ATOM     24  C   UNL     1       1.315  -2.075   2.829  0.00  0.00    +0.123 C 
BRANCH  24  25
ATOM     25  N   UNL     1       1.882  -2.329   1.453  0.00  0.00    -0.269 N 
ATOM     26  N   UNL     1       3.388  -2.754  -0.134  0.00  0.00    -0.242 NA
ATOM     27  N   UNL     1      -0.125  -2.178   0.094  0.00  0.00    -0.228 NA
ATOM     28  N   UNL     1       0.375  -2.539  -2.268  0.00  0.00    -0.229 NA
ATOM     29  C   UNL     1       1.191  -2.362   0.276  0.00  0.00    +0.151 C 
ATOM     30  C   UNL     1       3.197  -2.570   1.155  0.00  0.00    +0.221 C 
ATOM     31  C   UNL     1       2.143  -2.627  -0.696  0.00  0.00    +0.140 C 
ATOM     32  C   UNL     1       1.693  -2.715  -2.010  0.00  0.00    +0.143 C 
ATOM     33  C   UNL     1      -0.441  -2.286  -1.216  0.00  0.00    +0.253 C 
ATOM     34  N   UNL     1       2.589  -2.981  -3.059  0.00  0.00    -0.342 N 
ATOM     35  H   UNL     1       2.260  -3.041  -3.985  0.00  0.00    +0.144 HD
ATOM     36  H   UNL     1       3.547  -3.109  -2.868  0.00  0.00    +0.144 HD
ENDBRANCH  24  25
ENDBRANCH  22  24
ENDBRANCH  21  22
ENDBRANCH  20  21
ENDBRANCH   1  20
TORSDOF 12
