121488167
  -OEChem-03292013293D

 45 47  0     1  0  0  0  0  0999 V2000
    1.5929   -2.9145    0.0909 S   0  0  1  0  0  0  0  0  0  0  0  0
   -4.7456   -2.8564    0.1937 F   0  0  0  0  0  0  0  0  0  0  0  0
    0.4095   -2.0756    0.2178 O   0  0  0  0  0  0  0  0  0  0  0  0
   -1.4998   -0.1105   -1.9075 O   0  0  0  0  0  0  0  0  0  0  0  0
    1.9118    2.5307    0.2080 N   0  0  0  0  0  0  0  0  0  0  0  0
    2.2777   -3.2786   -1.2498 N   0  0  0  0  0  0  0  0  0  0  0  0
   -0.1981    1.5076    0.2269 N   0  0  0  0  0  0  0  0  0  0  0  0
    0.0100    3.8942    0.3658 N   0  0  0  0  0  0  0  0  0  0  0  0
   -2.1626    2.8759    0.3891 N   0  0  0  0  0  0  0  0  0  0  0  0
    2.8354   -2.2196    1.1323 C   0  0  0  0  0  0  0  0  0  0  0  0
    3.2413   -0.9079    0.5499 C   0  0  0  0  0  0  0  0  0  0  0  0
    2.3905    0.1928    0.6509 C   0  0  0  0  0  0  0  0  0  0  0  0
    2.7696    1.4197    0.1060 C   0  0  0  0  0  0  0  0  0  0  0  0
    4.4713   -0.7820   -0.0959 C   0  0  0  0  0  0  0  0  0  0  0  0
    1.2129   -4.4540    0.9011 C   0  0  0  0  0  0  0  0  0  0  0  0
    3.9997    1.5457   -0.5398 C   0  0  0  0  0  0  0  0  0  0  0  0
    4.8503    0.4448   -0.6409 C   0  0  0  0  0  0  0  0  0  0  0  0
    0.5063    2.6501    0.2695 C   0  0  0  0  0  0  0  0  0  0  0  0
   -2.3558    0.5106    0.2512 C   0  0  0  0  0  0  0  0  0  0  0  0
   -1.5257    1.6977    0.2911 C   0  0  0  0  0  0  0  0  0  0  0  0
   -2.3172   -0.3534   -0.8432 C   0  0  0  0  0  0  0  0  0  0  0  0
   -3.2015    0.2369    1.3264 C   0  0  0  0  0  0  0  0  0  0  0  0
   -3.1244   -1.4909   -0.8627 C   0  0  0  0  0  0  0  0  0  0  0  0
   -4.0089   -0.9003    1.3068 C   0  0  0  0  0  0  0  0  0  0  0  0
   -3.9703   -1.7643    0.2123 C   0  0  0  0  0  0  0  0  0  0  0  0
   -1.3311    3.9298    0.4212 C   0  0  0  0  0  0  0  0  0  0  0  0
   -2.0383    0.6715   -2.9710 C   0  0  0  0  0  0  0  0  0  0  0  0
    2.4202   -2.0908    2.1370 H   0  0  0  0  0  0  0  0  0  0  0  0
    3.6719   -2.9228    1.1952 H   0  0  0  0  0  0  0  0  0  0  0  0
    1.4695    0.0877    1.2149 H   0  0  0  0  0  0  0  0  0  0  0  0
    5.1436   -1.6314   -0.1831 H   0  0  0  0  0  0  0  0  0  0  0  0
    0.4199   -4.9519    0.3390 H   0  0  0  0  0  0  0  0  0  0  0  0
    2.1093   -5.0764    0.9291 H   0  0  0  0  0  0  0  0  0  0  0  0
    0.8675   -4.2382    1.9143 H   0  0  0  0  0  0  0  0  0  0  0  0
    4.3066    2.4959   -0.9695 H   0  0  0  0  0  0  0  0  0  0  0  0
    5.8077    0.5427   -1.1444 H   0  0  0  0  0  0  0  0  0  0  0  0
    2.3738    3.4297    0.1083 H   0  0  0  0  0  0  0  0  0  0  0  0
    2.6999   -2.4828   -1.7362 H   0  0  0  0  0  0  0  0  0  0  0  0
   -3.2432    0.8960    2.1904 H   0  0  0  0  0  0  0  0  0  0  0  0
   -3.0991   -2.1695   -1.7109 H   0  0  0  0  0  0  0  0  0  0  0  0
   -4.6669   -1.1141    2.1438 H   0  0  0  0  0  0  0  0  0  0  0  0
   -1.7888    4.9080    0.4996 H   0  0  0  0  0  0  0  0  0  0  0  0
   -1.2582    0.8056   -3.7254 H   0  0  0  0  0  0  0  0  0  0  0  0
   -2.8858    0.1553   -3.4331 H   0  0  0  0  0  0  0  0  0  0  0  0
   -2.3503    1.6576   -2.6134 H   0  0  0  0  0  0  0  0  0  0  0  0
  1  3  2  0  0  0  0
  1  6  2  0  0  0  0
  1 10  1  0  0  0  0
  1 15  1  0  0  0  0
  2 25  1  0  0  0  0
  4 21  1  0  0  0  0
  4 27  1  0  0  0  0
  5 13  1  0  0  0  0
  5 18  1  0  0  0  0
  5 37  1  0  0  0  0
  6 38  1  0  0  0  0
  7 18  1  0  0  0  0
  7 20  2  0  0  0  0
  8 18  2  0  0  0  0
  8 26  1  0  0  0  0
  9 20  1  0  0  0  0
  9 26  2  0  0  0  0
 10 11  1  0  0  0  0
 10 28  1  0  0  0  0
 10 29  1  0  0  0  0
 11 12  2  0  0  0  0
 11 14  1  0  0  0  0
 12 13  1  0  0  0  0
 12 30  1  0  0  0  0
 13 16  2  0  0  0  0
 14 17  2  0  0  0  0
 14 31  1  0  0  0  0
 15 32  1  0  0  0  0
 15 33  1  0  0  0  0
 15 34  1  0  0  0  0
 16 17  1  0  0  0  0
 16 35  1  0  0  0  0
 17 36  1  0  0  0  0
 19 20  1  0  0  0  0
 19 21  2  0  0  0  0
 19 22  1  0  0  0  0
 21 23  1  0  0  0  0
 22 24  2  0  0  0  0
 22 39  1  0  0  0  0
 23 25  2  0  0  0  0
 23 40  1  0  0  0  0
 24 25  1  0  0  0  0
 24 41  1  0  0  0  0
 26 42  1  0  0  0  0
 27 43  1  0  0  0  0
 27 44  1  0  0  0  0
 27 45  1  0  0  0  0
M  END
> <PUBCHEM_COMPOUND_CID>
121488167

> <PUBCHEM_CONFORMER_RMSD>
1.2

> <PUBCHEM_CONFORMER_DIVERSEORDER>
1
48
91
110
36
85
53
90
14
108
113
22
31
112
45
80
61
57
120
78
26
86
15
18
94
38
32
76
13
106
118
37
65
2
23
43
67
10
58
20
77
111
35
27
12
66
54
33
96
95
73
89
84
62
117
72
41
70
56
74
47
40
21
51
104
49
88
19
81
60
17
69
105
83
92
7
64
87
107
75
119
98
102
8
25
34
121
99
44
122
4
109
9
29
50
103
101
3
42
46
16
68
24
28
97
11
79
114
93
55
100
116
6
82
5
59
63
30
52
71
39
115

> <PUBCHEM_MMFF94_PARTIAL_CHARGES>
36
1 1.03
10 0.25
11 -0.14
12 -0.15
13 0.1
14 -0.15
15 0.11
16 -0.15
17 -0.15
18 0.72
2 -0.19
20 0.62
21 0.08
22 -0.15
23 -0.15
24 -0.15
25 0.19
26 0.47
27 0.28
3 -0.65
30 0.15
31 0.15
35 0.15
36 0.15
37 0.4
38 0.4
39 0.15
4 -0.36
40 0.15
41 0.15
42 0.15
5 -0.6
6 -0.99
7 -0.62
8 -0.62
9 -0.62

> <PUBCHEM_EFFECTIVE_ROTOR_COUNT>
6

> <PUBCHEM_PHARMACOPHORE_FEATURES>
7
1 3 acceptor
1 4 acceptor
1 5 donor
4 5 7 8 18 cation
6 11 12 13 14 16 17 rings
6 19 21 22 23 24 25 rings
6 7 8 9 18 20 26 rings

> <PUBCHEM_HEAVY_ATOM_COUNT>
27

> <PUBCHEM_ATOM_DEF_STEREO_COUNT>
1

> <PUBCHEM_ATOM_UDEF_STEREO_COUNT>
0

> <PUBCHEM_BOND_DEF_STEREO_COUNT>
0

> <PUBCHEM_BOND_UDEF_STEREO_COUNT>
0

> <PUBCHEM_ISOTOPIC_ATOM_COUNT>
0

> <PUBCHEM_COMPONENT_COUNT>
1

> <PUBCHEM_CACTVS_TAUTO_COUNT>
7

> <PUBCHEM_CONFORMER_ID>
073DC32700000001

> <PUBCHEM_MMFF94_ENERGY>
89.4138

> <PUBCHEM_FEATURE_SELFOVERLAP>
35.522

> <PUBCHEM_SHAPE_FINGERPRINT>
10616163 171 18267307534569857864
1100329 8 17906169912416760792
11513181 2 16975912792416138998
11578080 2 17677614146708997645
12156800 1 11162379909748689470
12539773 59 17632580461301861483
12553582 1 18412538842526869048
13122387 1 18338797819051763834
13140716 1 18340761547125200048
1361 2 18122343751172049851
14178342 30 18122609579814607008
14787075 74 18187931741097675082
19319366 153 17825105063780010522
19591789 44 18266463294064798346
19930381 70 18337953505853909955
20028762 73 17842000184595454031
20291156 8 18413108389613769736
21857420 4 15259130891420440414
235170 7 17095237055654745820
238 59 17830411245990902790
3737641 26 18340221703868691770
445580 102 18408598141492887678
463206 1 18265619968757310835
5309563 4 18339080505393679947
7097593 13 17904200330682961930
7970288 3 18340488966804141430
9709674 26 18051974714751577152

> <PUBCHEM_SHAPE_MULTIPOLES>
515.58
8.33
5.15
1.46
1.59
0.41
1.1
3.26
-0.14
0.25
-1.12
-1.11
0.17
-0.35

> <PUBCHEM_SHAPE_SELFOVERLAP>
1099.896

> <PUBCHEM_SHAPE_VOLUME>
291.7

> <PUBCHEM_COORDINATE_TYPE>
2
5
10

$$$$
