REMARK  Name = 121492536
REMARK  7 active torsions:
REMARK  status: ('A' for Active; 'I' for Inactive)
REMARK    1  A    between atoms: C_7  and  O_22
REMARK    2  A    between atoms: C_9  and  C_26
REMARK    3  A    between atoms: C_13  and  O_18
REMARK    4  A    between atoms: C_17  and  C_21
REMARK    5  A    between atoms: O_22  and  C_24
REMARK    6  A    between atoms: C_26  and  O_27
REMARK    7  A    between atoms: O_27  and  C_30
REMARK                            x       y       z     vdW  Elec       q    Type
REMARK                         _______ _______ _______ _____ _____    ______ ____
ROOT
ATOM      1  O   UNL     1       1.484   0.101  -1.233  0.00  0.00    -0.220 OA
ATOM      2  O   UNL     1       0.739  -4.673   1.084  0.00  0.00    -0.275 OA
ATOM      3  N   UNL     1       0.211  -2.560   0.245  0.00  0.00    -0.272 N 
ATOM      4  N   UNL     1       0.266  -0.377  -1.749  0.00  0.00    -0.234 N 
ATOM      5  C   UNL     1       1.484  -1.895   0.177  0.00  0.00    +0.162 C 
ATOM      6  C   UNL     1       0.910  -2.599  -1.002  0.00  0.00    +0.124 C 
ATOM      7  C   UNL     1       1.579  -0.374   0.130  0.00  0.00    +0.279 C 
ATOM      8  C   UNL     1       0.391  -1.782  -2.153  0.00  0.00    +0.154 C 
ATOM      9  C   UNL     1       0.496   0.375   0.972  0.00  0.00    +0.138 C 
ATOM     10  C   UNL     1      -0.858   0.359   0.270  0.00  0.00    +0.039 C 
ATOM     11  C   UNL     1      -0.928  -0.022  -1.087  0.00  0.00    +0.082 C 
ATOM     12  C   UNL     1       0.006  -3.689   1.020  0.00  0.00    +0.226 C 
ATOM     13  C   UNL     1      -2.034   0.676   0.963  0.00  0.00    +0.137 C 
ATOM     14  C   UNL     1      -2.174  -0.084  -1.723  0.00  0.00    +0.022 C 
ATOM     15  C   UNL     1      -1.280  -3.606   1.796  0.00  0.00    +0.095 C 
ATOM     16  C   UNL     1      -3.267   0.620   0.315  0.00  0.00    +0.040 C 
ATOM     17  C   UNL     1      -3.337   0.241  -1.025  0.00  0.00    +0.047 C 
ENDROOT
BRANCH  13  18
ATOM     18  O   UNL     1      -2.009   1.012   2.284  0.00  0.00    -0.472 OA
ATOM     19  C   UNL     1      -3.259   1.317   2.898  0.00  0.00    +0.252 C 
ENDBRANCH  13  18
BRANCH  17  21
ATOM     20  O   UNL     1      -5.691   0.451  -1.133  0.00  0.00    -0.283 OA
ATOM     21  C   UNL     1      -4.627   0.177  -1.694  0.00  0.00    +0.234 C 
ENDBRANCH  17  21
BRANCH   7  22
ATOM     22  O   UNL     1       2.867  -0.005   0.641  0.00  0.00    -0.426 OA
BRANCH  22  24
ATOM     23  O   UNL     1       3.850  -0.670  -1.341  0.00  0.00    -0.250 OA
ATOM     24  C   UNL     1       3.912  -0.211  -0.208  0.00  0.00    +0.319 C 
ATOM     25  C   UNL     1       5.185   0.216   0.456  0.00  0.00    +0.121 C 
ENDBRANCH  22  24
ENDBRANCH   7  22
BRANCH   9  26
ATOM     26  C   UNL     1       0.888   1.839   1.240  0.00  0.00    +0.221 C 
BRANCH  26  27
ATOM     27  O   UNL     1       0.972   2.502  -0.003  0.00  0.00    -0.434 OA
BRANCH  27  30
ATOM     28  O   UNL     1       1.545   4.462   1.059  0.00  0.00    -0.227 OA
ATOM     29  N   UNL     1       1.364   4.365  -1.231  0.00  0.00    -0.295 N 
ATOM     30  C   UNL     1       1.314   3.832   0.033  0.00  0.00    +0.398 C 
ATOM     31  H   UNL     1       1.167   3.799  -2.012  0.00  0.00    +0.148 HD
ATOM     32  H   UNL     1       1.598   5.313  -1.356  0.00  0.00    +0.148 HD
ENDBRANCH  27  30
ENDBRANCH  26  27
ENDBRANCH   9  26
TORSDOF 7
