REMARK  Name = 121447
REMARK  17 active torsions:
REMARK  status: ('A' for Active; 'I' for Inactive)
REMARK    1  A    between atoms: N_2  and  CA_19
REMARK    2  A    between atoms: C_3  and  CA_5
REMARK    3  A    between atoms: CA_5  and  N_6
REMARK    4  A    between atoms: CA_5  and  C_12
REMARK    5  A    between atoms: N_6  and  C_9
REMARK    6  A    between atoms: C_9  and  C_10
REMARK    7  A    between atoms: C_12  and  C_13
REMARK    8  A    between atoms: C_13  and  C_15
REMARK    9  A    between atoms: C_15  and  C_16
REMARK   10  A    between atoms: C_16  and  N_17
REMARK   11  A    between atoms: CA_19  and  C_21
REMARK   12  A    between atoms: CA_19  and  C_24
REMARK   13  A    between atoms: C_21  and  O_22
REMARK   14  A    between atoms: C_24  and  C_25
REMARK   15  A    between atoms: C_25  and  C_27
REMARK   16  A    between atoms: C_27  and  C_28
REMARK   17  A    between atoms: C_28  and  N_29
REMARK                            x       y       z     vdW  Elec       q    Type
REMARK                         _______ _______ _______ _____ _____    ______ ____
ROOT
ATOM      1  O   UNL     1       0.804  -1.006  -2.441  0.00  0.00    -0.277 OA
ATOM      2  N   UNL     1       0.389   0.266  -0.546  0.00  0.00    -0.298 N 
ATOM      3  C   UNL     1       0.987  -0.770  -1.248  0.00  0.00    +0.203 C 
ATOM      4  H   UNL     1       0.599   0.375   0.410  0.00  0.00    +0.150 HD
ENDROOT
BRANCH   3   5
ATOM      5  CA  UNL     1       1.888  -1.627  -0.368  0.00  0.00    +0.018 C 
BRANCH   5   6
ATOM      6  N   UNL     1       1.277  -2.958  -0.353  0.00  0.00    +0.393 N 
ATOM      7  H1  UNL     1       1.977  -3.644  -0.069  0.00  0.00    -0.083 HD
ATOM      8  H2  UNL     1       0.932  -3.172  -1.289  0.00  0.00    -0.083 HD
BRANCH   6   9
ATOM      9  C   UNL     1       0.161  -3.000   0.578  0.00  0.00    -0.054 C 
BRANCH   9  10
ATOM     10  C   UNL     1      -0.479  -4.354   0.611  0.00  0.00    -0.050 C 
ATOM     11  C   UNL     1      -0.552  -5.120   1.705  0.00  0.00    -0.007 C 
ENDBRANCH   9  10
ENDBRANCH   6   9
ENDBRANCH   5   6
BRANCH   5  12
ATOM     12  C   UNL     1       3.317  -1.728  -0.923  0.00  0.00    -0.005 C 
BRANCH  12  13
ATOM     13  C   UNL     1       4.021  -0.368  -1.118  0.00  0.00    +0.064 C 
BRANCH  13  15
ATOM     14  O   UNL     1       4.935  -0.188   1.009  0.00  0.00    -0.294 OA
ATOM     15  C   UNL     1       4.247   0.445   0.159  0.00  0.00    +0.170 C 
BRANCH  15  16
ATOM     16  C   UNL     1       3.731   1.690   0.191  0.00  0.00    +0.175 C 
BRANCH  16  17
ATOM     17  N   UNL     1       3.910   2.545   1.360  0.00  0.00    -0.105 NA
ATOM     18  N   UNL     1       4.044   3.179   2.224  0.00  0.00    -0.020 NA
ENDBRANCH  16  17
ENDBRANCH  15  16
ENDBRANCH  13  15
ENDBRANCH  12  13
ENDBRANCH   5  12
ENDBRANCH   3   5
BRANCH   2  19
ATOM     19  CA  UNL     1      -0.530   1.190  -1.167  0.00  0.00    +0.172 C 
BRANCH  19  21
ATOM     20  OXT UNL     1      -0.879   3.587  -0.897  0.00  0.00    -0.248 OA
ATOM     21  C   UNL     1      -0.339   2.552  -0.528  0.00  0.00    +0.332 C 
BRANCH  21  22
ATOM     22  O   UNL     1       0.489   2.497   0.548  0.00  0.00    -0.479 OA
ATOM     23  H   UNL     1       0.882   1.682   0.795  0.00  0.00    +0.295 HD
ENDBRANCH  21  22
ENDBRANCH  19  21
BRANCH  19  24
ATOM     24  C   UNL     1      -1.983   0.710  -1.094  0.00  0.00    +0.039 C 
BRANCH  24  25
ATOM     25  C   UNL     1      -2.549   0.628   0.338  0.00  0.00    +0.068 C 
BRANCH  25  27
ATOM     26  O   UNL     1      -4.144  -1.057   0.441  0.00  0.00    -0.294 OA
ATOM     27  C   UNL     1      -4.018   0.197   0.369  0.00  0.00    +0.170 C 
BRANCH  27  28
ATOM     28  C   UNL     1      -4.940   1.180   0.344  0.00  0.00    +0.175 C 
BRANCH  28  29
ATOM     29  N   UNL     1      -6.366   0.870   0.387  0.00  0.00    -0.105 NA
ATOM     30  N   UNL     1      -7.421   0.640   0.419  0.00  0.00    -0.020 NA
ENDBRANCH  28  29
ENDBRANCH  27  28
ENDBRANCH  25  27
ENDBRANCH  24  25
ENDBRANCH  19  24
ENDBRANCH   2  19
TORSDOF 17
