REMARK  Name = 12146484
REMARK  12 active torsions:
REMARK  status: ('A' for Active; 'I' for Inactive)
REMARK    1  A    between atoms: C_3  and  C_26
REMARK    2  A    between atoms: C_5  and  C_12
REMARK    3  A    between atoms: C_8  and  O_22
REMARK    4  A    between atoms: C_10  and  O_24
REMARK    5  A    between atoms: C_13  and  O_18
REMARK    6  A    between atoms: C_17  and  O_20
REMARK    7  A    between atoms: C_26  and  C_27
REMARK    8  A    between atoms: C_27  and  C_28
REMARK    9  A    between atoms: C_27  and  C_31
REMARK   10  A    between atoms: C_31  and  C_32
REMARK   11  A    between atoms: C_32  and  C_33
REMARK   12  A    between atoms: C_33  and  O_36
REMARK                            x       y       z     vdW  Elec       q    Type
REMARK                         _______ _______ _______ _____ _____    ______ ____
ROOT
ATOM      1  O   UNL     1       1.139  -0.340  -0.565  0.00  0.00    -0.474 OA
ATOM      2  O   UNL     1       4.052  -3.025   0.501  0.00  0.00    -0.291 OA
ATOM      3  C   UNL     1      -0.472  -2.055  -0.673  0.00  0.00    +0.046 C 
ATOM      4  C   UNL     1       0.842  -1.669  -0.405  0.00  0.00    +0.143 C 
ATOM      5  C   UNL     1       2.273   0.077   0.212  0.00  0.00    +0.199 C 
ATOM      6  C   UNL     1       1.784  -2.628  -0.023  0.00  0.00    +0.102 C 
ATOM      7  C   UNL     1       3.501  -0.772  -0.111  0.00  0.00    +0.118 C 
ATOM      8  C   UNL     1      -0.849  -3.390  -0.527  0.00  0.00    +0.136 C 
ATOM      9  C   UNL     1       3.189  -2.217   0.178  0.00  0.00    +0.183 C 
ATOM     10  C   UNL     1       1.409  -3.966   0.125  0.00  0.00    +0.142 C 
ATOM     11  C   UNL     1       0.089  -4.342  -0.125  0.00  0.00    +0.073 C 
ENDROOT
BRANCH   5  12
ATOM     12  C   UNL     1       2.533   1.542  -0.068  0.00  0.00    +0.052 C 
ATOM     13  C   UNL     1       3.032   2.382   0.929  0.00  0.00    +0.136 C 
ATOM     14  C   UNL     1       2.268   2.051  -1.340  0.00  0.00    +0.005 C 
ATOM     15  C   UNL     1       3.266   3.729   0.654  0.00  0.00    +0.073 C 
ATOM     16  C   UNL     1       2.502   3.399  -1.615  0.00  0.00    +0.037 C 
ATOM     17  C   UNL     1       3.001   4.238  -0.618  0.00  0.00    +0.137 C 
BRANCH  13  18
ATOM     18  O   UNL     1       3.295   1.901   2.176  0.00  0.00    -0.506 OA
ATOM     19  H   UNL     1       3.141   0.998   2.372  0.00  0.00    +0.292 HD
ENDBRANCH  13  18
BRANCH  17  20
ATOM     20  O   UNL     1       3.228   5.553  -0.886  0.00  0.00    -0.505 OA
ATOM     21  H   UNL     1       3.563   6.116  -0.217  0.00  0.00    +0.292 HD
ENDBRANCH  17  20
ENDBRANCH   5  12
BRANCH   8  22
ATOM     22  O   UNL     1      -2.131  -3.787  -0.774  0.00  0.00    -0.506 OA
ATOM     23  H   UNL     1      -2.772  -3.160  -1.045  0.00  0.00    +0.292 HD
ENDBRANCH   8  22
BRANCH  10  24
ATOM     24  O   UNL     1       2.285  -4.939   0.499  0.00  0.00    -0.505 OA
ATOM     25  H   UNL     1       3.180  -4.722   0.675  0.00  0.00    +0.292 HD
ENDBRANCH  10  24
BRANCH   3  26
ATOM     26  C   UNL     1      -1.489  -1.039  -1.105  0.00  0.00    +0.037 C 
BRANCH  26  27
ATOM     27  C   UNL     1      -2.257  -0.384   0.070  0.00  0.00    +0.023 C 
BRANCH  27  28
ATOM     28  C   UNL     1      -1.445   0.709   0.759  0.00  0.00    -0.044 C 
ATOM     29  C   UNL     1      -1.096   0.542   2.213  0.00  0.00    +0.026 C 
ATOM     30  C   UNL     1      -1.049   1.802   0.084  0.00  0.00    -0.009 C 
ENDBRANCH  27  28
BRANCH  27  31
ATOM     31  C   UNL     1      -3.631   0.111  -0.445  0.00  0.00    +0.007 C 
BRANCH  31  32
ATOM     32  C   UNL     1      -4.505   0.730   0.661  0.00  0.00    +0.027 C 
BRANCH  32  33
ATOM     33  C   UNL     1      -5.851   1.298   0.166  0.00  0.00    +0.088 C 
ATOM     34  C   UNL     1      -6.591   1.957   1.335  0.00  0.00    +0.029 C 
ATOM     35  C   UNL     1      -6.736   0.226  -0.474  0.00  0.00    +0.029 C 
BRANCH  33  36
ATOM     36  O   UNL     1      -5.585   2.308  -0.809  0.00  0.00    -0.387 OA
ATOM     37  H   UNL     1      -5.024   2.995  -0.417  0.00  0.00    +0.210 HD
ENDBRANCH  33  36
ENDBRANCH  32  33
ENDBRANCH  31  32
ENDBRANCH  27  31
ENDBRANCH  26  27
ENDBRANCH   3  26
TORSDOF 12
