REMARK  Name = 12144826
REMARK  7 active torsions:
REMARK  status: ('A' for Active; 'I' for Inactive)
REMARK    1  A    between atoms: C_5  and  C_11
REMARK    2  A    between atoms: CA_6  and  CB_23
REMARK    3  A    between atoms: C_11  and  C_14
REMARK    4  A    between atoms: CB_23  and  CG_24
REMARK    5  A    between atoms: CG_24  and  CD_25
REMARK    6  A    between atoms: CD_25  and  NE_26
REMARK    7  A    between atoms: NE_26  and  CZ_29
REMARK                            x       y       z     vdW  Elec       q    Type
REMARK                         _______ _______ _______ _____ _____    ______ ____
ROOT
ATOM      1  O   UNK A   1      -0.201   4.144  -0.196  0.00  0.00    -0.273 OA
ATOM      2  O   ARG A   2      -1.235  -1.058  -0.676  0.00  0.00    -0.273 OA
ATOM      3  N   UNK A   1       0.197   0.714  -0.954  0.00  0.00    -0.297 N 
ATOM      4  N   ARG A   2      -1.551   2.331   0.230  0.00  0.00    -0.297 N 
ATOM      5  C   UNK A   1       0.763   1.953  -0.444  0.00  0.00    +0.153 C 
ATOM      6  CA  ARG A   2      -1.631   0.937   0.638  0.00  0.00    +0.149 C 
ATOM      7  C   UNK A   1      -0.367   2.925  -0.164  0.00  0.00    +0.241 C 
ATOM      8  C   ARG A   2      -0.918   0.100  -0.413  0.00  0.00    +0.241 C 
ATOM      9  H   UNK A   1       0.632   0.289  -1.728  0.00  0.00    +0.150 HD
ATOM     10  H   ARG A   2      -2.373   2.873   0.236  0.00  0.00    +0.150 HD
ENDROOT
BRANCH   5  11
ATOM     11  C   UNK A   1       1.647   1.737   0.775  0.00  0.00    +0.057 C 
BRANCH  11  14
ATOM     12 BR   UNK A   1       5.605  -4.226  -0.314  0.00  0.00    -0.049 Br
ATOM     13  N   UNK A   1       5.125   1.118  -0.147  0.00  0.00    -0.312 N 
ATOM     14  C   UNK A   1       3.001   1.206   0.414  0.00  0.00    -0.004 C 
ATOM     15  C   UNK A   1       3.353  -0.156   0.311  0.00  0.00    +0.011 C 
ATOM     16  C   UNK A   1       4.092   1.972   0.132  0.00  0.00    +0.058 C 
ATOM     17  C   UNK A   1       4.703  -0.188  -0.045  0.00  0.00    +0.049 C 
ATOM     18  C   UNK A   1       2.668  -1.376   0.482  0.00  0.00    +0.001 C 
ATOM     19  C   UNK A   1       5.405  -1.383  -0.240  0.00  0.00    +0.021 C 
ATOM     20  C   UNK A   1       3.357  -2.579   0.291  0.00  0.00    +0.007 C 
ATOM     21  C   UNK A   1       4.705  -2.580  -0.065  0.00  0.00    +0.036 C 
ATOM     22  H   UNK A   1       6.039   1.398  -0.386  0.00  0.00    +0.152 HD
ENDBRANCH  11  14
ENDBRANCH   5  11
BRANCH   6  23
ATOM     23  CB  ARG A   2      -3.080   0.502   0.809  0.00  0.00    +0.031 C 
BRANCH  23  24
ATOM     24  CG  ARG A   2      -3.875   0.686  -0.485  0.00  0.00    +0.029 C 
BRANCH  24  25
ATOM     25  CD  ARG A   2      -5.328   0.244  -0.344  0.00  0.00    +0.129 C 
BRANCH  25  26
ATOM     26  NE  ARG A   2      -5.384  -1.181  -0.016  0.00  0.00    -0.240 NA
BRANCH  26  29
ATOM     27  NH1 ARG A   2      -7.784  -1.091  -0.067  0.00  0.00    -0.370 N 
ATOM     28  NH2 ARG A   2      -6.702  -3.043   0.397  0.00  0.00    -0.370 N 
ATOM     29  CZ  ARG A   2      -6.564  -1.709   0.091  0.00  0.00    +0.189 C 
ATOM     30 HH11 ARG A   2      -7.825  -0.132  -0.288  0.00  0.00    +0.159 HD
ATOM     31 HH12 ARG A   2      -8.615  -1.607   0.042  0.00  0.00    +0.159 HD
ATOM     32 HH21 ARG A   2      -5.904  -3.601   0.535  0.00  0.00    +0.159 HD
ATOM     33 HH22 ARG A   2      -7.600  -3.439   0.477  0.00  0.00    +0.159 HD
ENDBRANCH  26  29
ENDBRANCH  25  26
ENDBRANCH  24  25
ENDBRANCH  23  24
ENDBRANCH   6  23
TORSDOF 7
