REMARK  Name = 121487936
REMARK  5 active torsions:
REMARK  status: ('A' for Active; 'I' for Inactive)
REMARK    1  A    between atoms: C_3  and  N_22
REMARK    2  A    between atoms: C_12  and  C_16
REMARK    3  A    between atoms: C_17  and  C_21
REMARK    4  A    between atoms: C_24  and  C_29
REMARK    5  A    between atoms: N_28  and  C_31
REMARK                            x       y       z     vdW  Elec       q    Type
REMARK                         _______ _______ _______ _____ _____    ______ ____
ROOT
ATOM      1  N   UNL     1      -0.101   0.918   0.141  0.00  0.00    -0.293 N 
ATOM      2  N   UNL     1       1.870  -0.372  -0.104  0.00  0.00    -0.229 NA
ATOM      3  C   UNL     1      -2.995   0.967   0.152  0.00  0.00    +0.082 C 
ATOM      4  C   UNL     1      -2.201   0.582  -1.105  0.00  0.00    +0.042 C 
ATOM      5  C   UNL     1      -2.168   1.943   1.003  0.00  0.00    +0.042 C 
ATOM      6  C   UNL     1      -0.799   1.358   1.353  0.00  0.00    +0.094 C 
ATOM      7  C   UNL     1      -0.836  -0.001  -0.740  0.00  0.00    +0.094 C 
ATOM      8  C   UNL     1       1.296   0.827   0.146  0.00  0.00    +0.132 C 
ATOM      9  C   UNL     1       2.007   1.986   0.411  0.00  0.00    +0.034 C 
ATOM     10  C   UNL     1       3.395   1.911   0.419  0.00  0.00    +0.009 C 
ATOM     11  C   UNL     1       3.221  -0.406  -0.087  0.00  0.00    +0.105 C 
ATOM     12  C   UNL     1       4.022   0.696   0.166  0.00  0.00    +0.074 C 
ENDROOT
BRANCH  12  16
ATOM     13  O   UNL     1       5.961  -0.651  -0.091  0.00  0.00    -0.413 OA
ATOM     14  N   UNL     1       6.381   1.495   0.382  0.00  0.00    -0.107 NA
ATOM     15  N   UNL     1       7.592   0.839   0.262  0.00  0.00    -0.103 NA
ATOM     16  C   UNL     1       5.457   0.587   0.168  0.00  0.00    +0.251 A 
ATOM     17  C   UNL     1       7.298  -0.410  -0.014  0.00  0.00    +0.322 A 
BRANCH  17  21
ATOM     18  F   UNL     1       8.025  -2.595   0.634  0.00  0.00    -0.162 F 
ATOM     19  F   UNL     1       8.063  -2.135  -1.485  0.00  0.00    -0.162 F 
ATOM     20  F   UNL     1       9.525  -1.232  -0.153  0.00  0.00    -0.162 F 
ATOM     21  C   UNL     1       8.192  -1.552  -0.246  0.00  0.00    +0.471 C 
ENDBRANCH  17  21
ENDBRANCH  12  16
BRANCH   3  22
ATOM     22  N   UNL     1      -4.365   1.523  -0.186  0.00  0.00    -0.267 N 
ATOM     23  N   UNL     1      -5.938   3.018  -0.656  0.00  0.00    -0.225 NA
ATOM     24  C   UNL     1      -5.518   0.811  -0.360  0.00  0.00    +0.126 C 
ATOM     25  C   UNL     1      -4.666   2.843  -0.374  0.00  0.00    +0.168 C 
ATOM     26  C   UNL     1      -6.475   1.755  -0.649  0.00  0.00    +0.120 C 
BRANCH  24  29
ATOM     27  O   UNL     1      -4.693  -1.379  -0.512  0.00  0.00    -0.269 OA
ATOM     28  N   UNL     1      -6.893  -1.124   0.176  0.00  0.00    -0.303 N 
ATOM     29  C   UNL     1      -5.652  -0.606  -0.254  0.00  0.00    +0.261 C 
ATOM     30  H   UNL     1      -7.615  -0.483   0.367  0.00  0.00    +0.150 HD
BRANCH  28  31
ATOM     31  C   UNL     1      -7.177  -2.530   0.354  0.00  0.00    +0.057 C 
ATOM     32  C   UNL     1      -8.590  -2.694   0.925  0.00  0.00    +0.020 C 
ATOM     33  C   UNL     1      -7.080  -3.237  -1.002  0.00  0.00    +0.020 C 
ATOM     34  C   UNL     1      -6.157  -3.134   1.327  0.00  0.00    +0.020 C 
ENDBRANCH  28  31
ENDBRANCH  24  29
ENDBRANCH   3  22
TORSDOF 5
