REMARK  Name = 121473004
REMARK  9 active torsions:
REMARK  status: ('A' for Active; 'I' for Inactive)
REMARK    1  A    between atoms: C_1  and  C_20
REMARK    2  A    between atoms: C_2  and  C_9
REMARK    3  A    between atoms: N_8  and  C_11
REMARK    4  A    between atoms: C_11  and  C_12
REMARK    5  A    between atoms: C_12  and  C_15
REMARK    6  A    between atoms: C_20  and  N_21
REMARK    7  A    between atoms: N_21  and  S_23
REMARK    8  A    between atoms: S_23  and  C_26
REMARK    9  A    between atoms: C_31  and  O_32
REMARK                            x       y       z     vdW  Elec       q    Type
REMARK                         _______ _______ _______ _____ _____    ______ ____
ROOT
ATOM      1  C   UNL     1      -0.805  -0.774  -0.009  0.00  0.00    -0.005 C 
ATOM      2  C   UNL     1       1.760  -1.851   0.201  0.00  0.00    +0.053 C 
ATOM      3  C   UNL     1       0.304  -0.008  -0.367  0.00  0.00    -0.003 C 
ATOM      4  C   UNL     1      -0.632  -2.079   0.454  0.00  0.00    -0.003 C 
ATOM      5  C   UNL     1       1.586  -0.546  -0.262  0.00  0.00    +0.004 C 
ATOM      6  C   UNL     1       0.650  -2.617   0.559  0.00  0.00    +0.004 C 
ENDROOT
BRANCH   2   9
ATOM      7  O   UNL     1       3.336  -3.321   1.123  0.00  0.00    -0.270 OA
ATOM      8  N   UNL     1       4.073  -1.898  -0.553  0.00  0.00    -0.300 N 
ATOM      9  C   UNL     1       3.097  -2.412   0.309  0.00  0.00    +0.246 C 
ATOM     10  H   UNL     1       3.815  -1.178  -1.172  0.00  0.00    +0.150 HD
BRANCH   8  11
ATOM     11  C   UNL     1       5.440  -2.367  -0.582  0.00  0.00    +0.096 C 
BRANCH  11  12
ATOM     12  C   UNL     1       6.345  -1.597   0.376  0.00  0.00    +0.067 C 
BRANCH  12  15
ATOM     13 CL   UNL     1       6.396   4.259  -0.684  0.00  0.00    -0.081 Cl
ATOM     14  N   UNL     1       5.464   0.648   0.716  0.00  0.00    -0.247 NA
ATOM     15  C   UNL     1       6.384  -0.117   0.086  0.00  0.00    +0.061 C 
ATOM     16  C   UNL     1       7.337   0.379  -0.789  0.00  0.00    +0.016 C 
ATOM     17  C   UNL     1       7.346   1.748  -1.035  0.00  0.00    +0.014 C 
ATOM     18  C   UNL     1       5.504   1.974   0.453  0.00  0.00    +0.110 C 
ATOM     19  C   UNL     1       6.415   2.567  -0.406  0.00  0.00    +0.077 C 
ENDBRANCH  12  15
ENDBRANCH  11  12
ENDBRANCH   8  11
ENDBRANCH   2   9
BRANCH   1  20
ATOM     20  C   UNL     1      -2.177  -0.199  -0.121  0.00  0.00    +0.118 C 
BRANCH  20  21
ATOM     21  N   UNL     1      -2.487   0.757   0.971  0.00  0.00    -0.175 NA
ATOM     22  H   UNL     1      -2.837   0.206   1.755  0.00  0.00    +0.149 HD
BRANCH  21  23
ATOM     23  S   UNL     1      -3.607   2.005   0.708  0.00  0.00    +0.061 S 
ATOM     24  O   UNL     1      -3.219   2.764  -0.465  0.00  0.00    -0.153 OA
ATOM     25  O   UNL     1      -3.856   2.682   1.966  0.00  0.00    -0.153 OA
BRANCH  23  26
ATOM     26  C   UNL     1      -5.074   1.101   0.310  0.00  0.00    +0.122 C 
ATOM     27  C   UNL     1      -5.350   0.769  -1.016  0.00  0.00    +0.023 C 
ATOM     28  C   UNL     1      -5.955   0.722   1.323  0.00  0.00    +0.023 C 
ATOM     29  C   UNL     1      -6.508   0.058  -1.330  0.00  0.00    +0.038 C 
ATOM     30  C   UNL     1      -7.114   0.011   1.008  0.00  0.00    +0.038 C 
ATOM     31  C   UNL     1      -7.390  -0.321  -0.318  0.00  0.00    +0.139 C 
BRANCH  31  32
ATOM     32  O   UNL     1      -8.521  -1.014  -0.625  0.00  0.00    -0.471 OA
ATOM     33  C   UNL     1      -8.741  -1.320  -2.001  0.00  0.00    +0.252 C 
ENDBRANCH  31  32
ENDBRANCH  23  26
ENDBRANCH  21  23
ENDBRANCH  20  21
ENDBRANCH   1  20
TORSDOF 9
