REMARK  Name = 121488177
REMARK  10 active torsions:
REMARK  status: ('A' for Active; 'I' for Inactive)
REMARK    1  A    between atoms: C_2  and  C_3
REMARK    2  A    between atoms: C_3  and  C_4
REMARK    3  A    between atoms: C_4  and  N_5
REMARK    4  A    between atoms: C_4  and  C_10
REMARK    5  A    between atoms: C_10  and  O_11
REMARK    6  A    between atoms: N_14  and  C_18
REMARK    7  A    between atoms: C_18  and  O_19
REMARK    8  A    between atoms: O_19  and  C_20
REMARK    9  A    between atoms: C_20  and  C_21
REMARK   10  A    between atoms: C_21  and  O_22
REMARK                            x       y       z     vdW  Elec       q    Type
REMARK                         _______ _______ _______ _____ _____    ______ ____
ROOT
ATOM      1  C   UNK     1       4.072   0.379  -0.152  0.00  0.00    +0.036 C 
ENDROOT
BRANCH   1   2
ATOM      2  N   UNK     1       5.275   0.589   0.658  0.00  0.00    +0.389 N 
ATOM      3  H   UNK     1       5.849  -0.253   0.639  0.00  0.00    -0.088 HD
ATOM      4  H   UNK     1       5.005   0.796   1.620  0.00  0.00    -0.088 HD
ATOM      5  H   UNK     1       5.807   1.372   0.278  0.00  0.00    -0.088 HD
ENDBRANCH   1   2
BRANCH   1   7
ATOM      6  O   UNK     1       3.192   2.405   0.879  0.00  0.00    -0.253 OA
ATOM      7  C   UNK     1       3.256   1.658  -0.090  0.00  0.00    +0.293 C 
BRANCH   7   8
ATOM      8  O   UNK     1       2.565   1.885  -1.237  0.00  0.00    -0.482 OA
ATOM      9  H   UNK     1       2.642   1.289  -1.956  0.00  0.00    +0.295 HD
ENDBRANCH   7   8
ENDBRANCH   1   7
BRANCH   1  10
ATOM     10  C   UNK     1       3.287  -0.816   0.407  0.00  0.00    -0.011 C 
BRANCH  10  12
ATOM     11  C   UNK     1       1.224  -2.328   0.113  0.00  0.00    -0.000 C 
ATOM     12  C   UNK     1       2.012  -1.111  -0.389  0.00  0.00    -0.002 C 
ENDBRANCH  10  12
ENDBRANCH   1  10
TORSDOF 5
REMARK  Name = 121488177
REMARK  10 active torsions:
REMARK  status: ('A' for Active; 'I' for Inactive)
REMARK    1  A    between atoms: C_2  and  C_3
REMARK    2  A    between atoms: C_3  and  C_4
REMARK    3  A    between atoms: C_4  and  N_5
REMARK    4  A    between atoms: C_4  and  C_10
REMARK    5  A    between atoms: C_10  and  O_11
REMARK    6  A    between atoms: N_14  and  C_18
REMARK    7  A    between atoms: C_18  and  O_19
REMARK    8  A    between atoms: O_19  and  C_20
REMARK    9  A    between atoms: C_20  and  C_21
REMARK   10  A    between atoms: C_21  and  O_22
REMARK                            x       y       z     vdW  Elec       q    Type
REMARK                         _______ _______ _______ _____ _____    ______ ____
ROOT
ATOM      1  C   UNK     1       0.022  -2.713  -0.744  0.00  0.00    +0.000 C 
ENDROOT
TORSDOF 0
REMARK  Name = 121488177
REMARK  10 active torsions:
REMARK  status: ('A' for Active; 'I' for Inactive)
REMARK    1  A    between atoms: C_2  and  C_3
REMARK    2  A    between atoms: C_3  and  C_4
REMARK    3  A    between atoms: C_4  and  N_5
REMARK    4  A    between atoms: C_4  and  C_10
REMARK    5  A    between atoms: C_10  and  O_11
REMARK    6  A    between atoms: N_14  and  C_18
REMARK    7  A    between atoms: C_18  and  O_19
REMARK    8  A    between atoms: O_19  and  C_20
REMARK    9  A    between atoms: C_20  and  C_21
REMARK   10  A    between atoms: C_21  and  O_22
REMARK                            x       y       z     vdW  Elec       q    Type
REMARK                         _______ _______ _______ _____ _____    ______ ____
ROOT
ATOM      1  O   UNK     1      -2.800  -0.487  -0.250  0.00  0.00    -0.431 OA
ENDROOT
BRANCH   1   3
ATOM      2  O   UNK     1      -2.249  -2.317   1.024  0.00  0.00    -0.225 OA
ATOM      3  C   UNK     1      -2.030  -1.566   0.078  0.00  0.00    +0.418 C 
BRANCH   3   4
ATOM      4  N   UNK     1      -0.974  -1.683  -0.810  0.00  0.00    -0.197 NA
ATOM      5  H   UNK     1      -0.902  -1.017  -1.531  0.00  0.00    +0.176 HD
ENDBRANCH   3   4
ENDBRANCH   1   3
BRANCH   1   6
ATOM      6  C   UNK     1      -3.933  -0.249   0.593  0.00  0.00    +0.242 C 
BRANCH   6   7
ATOM      7  C   UNK     1      -4.674   0.977   0.093  0.00  0.00    +0.190 C 
BRANCH   7   8
ATOM      8  O   UNK     1      -3.804   2.100   0.152  0.00  0.00    -0.347 OA
ATOM      9  C   UNK     1      -4.440   3.277  -0.327  0.00  0.00    +0.174 C 
ENDBRANCH   7   8
ENDBRANCH   6   7
ENDBRANCH   1   6
TORSDOF 5
