REMARK  Name = 121488750
REMARK  14 active torsions:
REMARK  status: ('A' for Active; 'I' for Inactive)
REMARK    1  A    between atoms: C_1  and  C_2
REMARK    2  A    between atoms: C_1  and  C_14
REMARK    3  A    between atoms: C_2  and  C_3
REMARK    4  A    between atoms: C_3  and  C_4
REMARK    5  A    between atoms: C_4  and  CA_5
REMARK    6  A    between atoms: CA_5  and  N_6
REMARK    7  A    between atoms: CA_5  and  C_11
REMARK    8  A    between atoms: C_11  and  O_12
REMARK    9  A    between atoms: C_14  and  C_15
REMARK   10  A    between atoms: C_15  and  C_16
REMARK   11  A    between atoms: C_16  and  CA_17
REMARK   12  A    between atoms: CA_17  and  N_18
REMARK   13  A    between atoms: CA_17  and  C_23
REMARK   14  A    between atoms: C_23  and  O_24
REMARK                            x       y       z     vdW  Elec       q    Type
REMARK                         _______ _______ _______ _____ _____    ______ ____
ROOT
ATOM      1  C   UNL     1      -0.047  -0.407  -0.196  0.00  0.00    -0.000 C 
ENDROOT
BRANCH   1   2
ATOM      2  C   UNL     1       1.256  -0.907   0.432  0.00  0.00    -0.000 C 
BRANCH   2   3
ATOM      3  C   UNL     1       2.475  -0.394  -0.340  0.00  0.00    -0.002 C 
BRANCH   3   4
ATOM      4  C   UNL     1       3.779  -0.925   0.266  0.00  0.00    -0.011 C 
BRANCH   4   5
ATOM      5  CA  UNL     1       5.024  -0.409  -0.464  0.00  0.00    +0.036 C 
BRANCH   5   6
ATOM      6  N   UNL     1       6.172  -1.254  -0.131  0.00  0.00    +0.389 N 
ATOM      7  H1  UNL     1       5.975  -2.218  -0.404  0.00  0.00    -0.088 HD
ATOM      8  H2  UNL     1       6.345  -1.214   0.873  0.00  0.00    -0.088 HD
ATOM      9  H3  UNL     1       6.996  -0.921  -0.632  0.00  0.00    -0.088 HD
ENDBRANCH   5   6
BRANCH   5  11
ATOM     10  OXT UNL     1       6.060   1.315   0.918  0.00  0.00    -0.253 OA
ATOM     11  C   UNL     1       5.368   1.004  -0.041  0.00  0.00    +0.293 C 
BRANCH  11  12
ATOM     12  O   UNL     1       4.777   1.908  -0.864  0.00  0.00    -0.482 OA
ATOM     13  H   UNL     1       4.256   1.614  -1.585  0.00  0.00    +0.295 HD
ENDBRANCH  11  12
ENDBRANCH   5  11
ENDBRANCH   4   5
ENDBRANCH   3   4
ENDBRANCH   2   3
ENDBRANCH   1   2
BRANCH   1  14
ATOM     14  C   UNL     1      -1.302  -0.872   0.549  0.00  0.00    -0.000 C 
BRANCH  14  15
ATOM     15  C   UNL     1      -2.641  -0.454  -0.070  0.00  0.00    -0.002 C 
BRANCH  15  16
ATOM     16  C   UNL     1      -3.856  -0.927   0.739  0.00  0.00    -0.011 C 
BRANCH  16  17
ATOM     17  CA  UNL     1      -5.219  -0.566   0.128  0.00  0.00    +0.036 C 
BRANCH  17  18
ATOM     18  N   UNL     1      -5.407  -1.139  -1.204  0.00  0.00    +0.389 N 
ATOM     19  H1  UNL     1      -5.270  -2.149  -1.162  0.00  0.00    -0.088 HD
ATOM     20  H2  UNL     1      -4.731  -0.731  -1.849  0.00  0.00    -0.088 HD
ATOM     21  H3  UNL     1      -6.352  -0.938  -1.531  0.00  0.00    -0.088 HD
ENDBRANCH  17  18
BRANCH  17  23
ATOM     22  OXT UNL     1      -5.622   1.559  -1.004  0.00  0.00    -0.253 OA
ATOM     23  C   UNL     1      -5.430   0.935   0.031  0.00  0.00    +0.293 C 
BRANCH  23  24
ATOM     24  O   UNL     1      -5.385   1.534   1.251  0.00  0.00    -0.482 OA
ATOM     25  H   UNL     1      -5.236   1.021   2.020  0.00  0.00    +0.295 HD
ENDBRANCH  23  24
ENDBRANCH  17  23
ENDBRANCH  16  17
ENDBRANCH  15  16
ENDBRANCH  14  15
ENDBRANCH   1  14
TORSDOF 14
