121513936
  -OEChem-03292013293D

 42 41  0     1  0  0  0  0  0999 V2000
    0.8759    0.7191   -0.8130 O   0  0  0  0  0  0  0  0  0  0  0  0
   -0.8031   -0.1097    2.2289 O   0  0  0  0  0  0  0  0  0  0  0  0
   -1.7652    1.9976   -2.1752 O   0  0  0  0  0  0  0  0  0  0  0  0
   -3.8670    1.2685   -1.7164 O   0  0  0  0  0  0  0  0  0  0  0  0
    3.4669    1.1694    1.6344 O   0  0  0  0  0  0  0  0  0  0  0  0
    4.8982    2.3798    0.3560 O   0  0  0  0  0  0  0  0  0  0  0  0
   -0.7711   -1.1440    0.1490 N   0  0  0  0  0  0  0  0  0  0  0  0
    2.7847   -0.4841   -0.2695 N   0  0  0  0  0  0  0  0  0  0  0  0
   -3.5632   -1.0054    2.0201 N   0  0  0  0  0  0  0  0  0  0  0  0
    0.6251   -1.5001    0.1344 C   0  0  1  0  0  0  0  0  0  0  0  0
    0.9145   -2.7814   -0.6758 C   0  0  0  0  0  0  0  0  0  0  0  0
   -2.8687   -0.2501    0.9758 C   0  0  2  0  0  0  0  0  0  0  0  0
    0.6051   -2.5743   -2.1617 C   0  0  0  0  0  0  0  0  0  0  0  0
    0.1582   -4.0074   -0.1530 C   0  0  0  0  0  0  0  0  0  0  0  0
    1.4141   -0.2989   -0.3826 C   0  0  0  0  0  0  0  0  0  0  0  0
   -1.3766   -0.4723    1.2036 C   0  0  0  0  0  0  0  0  0  0  0  0
   -3.2598    1.2318    1.0767 C   0  0  0  0  0  0  0  0  0  0  0  0
   -2.5143    2.1294    0.0890 C   0  0  0  0  0  0  0  0  0  0  0  0
    3.7491    0.5208   -0.6532 C   0  0  0  0  0  0  0  0  0  0  0  0
   -2.8085    1.7578   -1.3430 C   0  0  0  0  0  0  0  0  0  0  0  0
    4.1057    1.4535    0.4756 C   0  0  0  0  0  0  0  0  0  0  0  0
    0.9381   -1.6641    1.1742 H   0  0  0  0  0  0  0  0  0  0  0  0
    1.9839   -3.0146   -0.5996 H   0  0  0  0  0  0  0  0  0  0  0  0
   -1.3202   -1.3349   -0.6829 H   0  0  0  0  0  0  0  0  0  0  0  0
   -3.1766   -0.6527    0.0054 H   0  0  0  0  0  0  0  0  0  0  0  0
   -0.9252   -3.8904   -0.2606 H   0  0  0  0  0  0  0  0  0  0  0  0
    0.4542   -4.9078   -0.7019 H   0  0  0  0  0  0  0  0  0  0  0  0
    0.3795   -4.1730    0.9065 H   0  0  0  0  0  0  0  0  0  0  0  0
   -0.4574   -2.3830   -2.3412 H   0  0  0  0  0  0  0  0  0  0  0  0
    1.1795   -1.7461   -2.5878 H   0  0  0  0  0  0  0  0  0  0  0  0
    0.8720   -3.4723   -2.7307 H   0  0  0  0  0  0  0  0  0  0  0  0
   -4.3419    1.3358    0.9228 H   0  0  0  0  0  0  0  0  0  0  0  0
   -3.0512    1.6040    2.0887 H   0  0  0  0  0  0  0  0  0  0  0  0
   -2.8190    3.1721    0.2292 H   0  0  0  0  0  0  0  0  0  0  0  0
   -1.4352    2.0721    0.2647 H   0  0  0  0  0  0  0  0  0  0  0  0
    3.1411   -1.3345    0.1556 H   0  0  0  0  0  0  0  0  0  0  0  0
   -3.3847   -2.0016    1.8969 H   0  0  0  0  0  0  0  0  0  0  0  0
   -4.5701   -0.8838    1.9181 H   0  0  0  0  0  0  0  0  0  0  0  0
    3.3434    1.1125   -1.4791 H   0  0  0  0  0  0  0  0  0  0  0  0
    4.6539   -0.0040   -0.9723 H   0  0  0  0  0  0  0  0  0  0  0  0
   -1.9668    1.7382   -3.0995 H   0  0  0  0  0  0  0  0  0  0  0  0
    3.7155    1.7898    2.3525 H   0  0  0  0  0  0  0  0  0  0  0  0
  1 15  2  0  0  0  0
  2 16  2  0  0  0  0
  3 20  1  0  0  0  0
  3 41  1  0  0  0  0
  4 20  2  0  0  0  0
  5 21  1  0  0  0  0
  5 42  1  0  0  0  0
  6 21  2  0  0  0  0
  7 10  1  0  0  0  0
  7 16  1  0  0  0  0
  7 24  1  0  0  0  0
  8 15  1  0  0  0  0
  8 19  1  0  0  0  0
  8 36  1  0  0  0  0
  9 12  1  0  0  0  0
  9 37  1  0  0  0  0
  9 38  1  0  0  0  0
 10 11  1  0  0  0  0
 10 15  1  0  0  0  0
 10 22  1  0  0  0  0
 11 13  1  0  0  0  0
 11 14  1  0  0  0  0
 11 23  1  0  0  0  0
 12 16  1  0  0  0  0
 12 17  1  0  0  0  0
 12 25  1  0  0  0  0
 13 29  1  0  0  0  0
 13 30  1  0  0  0  0
 13 31  1  0  0  0  0
 14 26  1  0  0  0  0
 14 27  1  0  0  0  0
 14 28  1  0  0  0  0
 17 18  1  0  0  0  0
 17 32  1  0  0  0  0
 17 33  1  0  0  0  0
 18 20  1  0  0  0  0
 18 34  1  0  0  0  0
 18 35  1  0  0  0  0
 19 21  1  0  0  0  0
 19 39  1  0  0  0  0
 19 40  1  0  0  0  0
M  END
> <PUBCHEM_COMPOUND_CID>
121513936

> <PUBCHEM_CONFORMER_RMSD>
1

> <PUBCHEM_CONFORMER_DIVERSEORDER>
1
33
20
14
37
30
15
32
7
24
28
11
29
26
22
4
27
10
23
16
25
35
13
17
36
9
34
21
19
31
6
18
8
3
2
12
5

> <PUBCHEM_MMFF94_PARTIAL_CHARGES>
23
1 -0.57
10 0.36
12 0.33
15 0.57
16 0.57
18 0.06
19 0.36
2 -0.57
20 0.66
21 0.66
24 0.37
3 -0.65
36 0.37
37 0.36
38 0.36
4 -0.57
41 0.5
42 0.5
5 -0.65
6 -0.57
7 -0.73
8 -0.73
9 -0.99

> <PUBCHEM_EFFECTIVE_ROTOR_COUNT>
11

> <PUBCHEM_PHARMACOPHORE_FEATURES>
13
1 1 acceptor
1 2 acceptor
1 3 acceptor
1 4 acceptor
1 5 acceptor
1 6 acceptor
1 7 donor
1 8 donor
1 9 cation
1 9 donor
3 11 13 14 hydrophobe
3 3 4 20 anion
3 5 6 21 anion

> <PUBCHEM_HEAVY_ATOM_COUNT>
21

> <PUBCHEM_ATOM_DEF_STEREO_COUNT>
2

> <PUBCHEM_ATOM_UDEF_STEREO_COUNT>
0

> <PUBCHEM_BOND_DEF_STEREO_COUNT>
0

> <PUBCHEM_BOND_UDEF_STEREO_COUNT>
0

> <PUBCHEM_ISOTOPIC_ATOM_COUNT>
0

> <PUBCHEM_COMPONENT_COUNT>
1

> <PUBCHEM_CACTVS_TAUTO_COUNT>
8

> <PUBCHEM_CONFORMER_ID>
073E27D000000001

> <PUBCHEM_MMFF94_ENERGY>
27.611

> <PUBCHEM_FEATURE_SELFOVERLAP>
66.09

> <PUBCHEM_SHAPE_FINGERPRINT>
10764073 3 16665963312372690554
10871710 139 16967471854587176252
11725454 13 18115290216143170360
11759241 127 18337402599294611663
121448 382 17773857848162462855
12403259 415 18339094730267276944
12892183 10 17313101986216268712
13134695 92 17618503181792708622
13294875 104 16665423430298024723
13544592 271 18333449820406489973
13583140 156 18187074045034700738
13681431 1 17552926131001001614
14251764 3 18412821412804857032
14957384 54 18189037837575012792
18186145 218 17989215845432181062
18915476 22 18268998583268936463
21033648 29 18342174492671013584
21524375 3 18201450193980786074
21639500 275 18129666275100365890
23402539 116 17969227896729225323
23557571 272 17823440239750600491
23559900 14 17749957631319293934
238 59 18128532665785028710
2748010 2 18044115470171656343
3187 122 17119140653248769280
469060 322 18265047127757977063
4921388 177 13110970846037123072
6049 1 17827952558061588995
621550 34 18337689524621802739
633830 44 17703244926836376560
7097593 13 11603408411568563637
7399639 24 18336562550883627739
81228 2 17767115776321788410
84936 182 18058179314722629146
9862522 239 18335977662025936814
9925002 15 17619644913191389359

> <PUBCHEM_SHAPE_MULTIPOLES>
382.01
7.33
3.58
1.97
3.56
3.19
0.25
-7.07
-0.99
1.63
0.97
-1.65
-0.2
1.99

> <PUBCHEM_SHAPE_SELFOVERLAP>
747.059

> <PUBCHEM_SHAPE_VOLUME>
227.7

> <PUBCHEM_COORDINATE_TYPE>
2
5
10

$$$$
