REMARK  Name = 121596198
REMARK  15 active torsions:
REMARK  status: ('A' for Active; 'I' for Inactive)
REMARK    1  A    between atoms: C_1  and  C_2
REMARK    2  A    between atoms: C_1  and  C_22
REMARK    3  A    between atoms: C_2  and  C_3
REMARK    4  A    between atoms: C_3  and  N_4
REMARK    5  A    between atoms: N_4  and  C_7
REMARK    6  A    between atoms: C_7  and  C_8
REMARK    7  A    between atoms: C_8  and  C_11
REMARK    8  A    between atoms: C_8  and  O_20
REMARK    9  A    between atoms: C_22  and  C_23
REMARK   10  A    between atoms: C_23  and  N_25
REMARK   11  A    between atoms: C_23  and  C_40
REMARK   12  A    between atoms: C_26  and  C_28
REMARK   13  A    between atoms: C_28  and  N_30
REMARK   14  A    between atoms: C_31  and  C_33
REMARK   15  A    between atoms: C_40  and  O_41
REMARK                            x       y       z     vdW  Elec       q    Type
REMARK                         _______ _______ _______ _____ _____    ______ ____
ROOT
ATOM      1  C   UNK A   1      -1.959  -1.903   1.386  0.00  0.00    +0.000 C 
ENDROOT
BRANCH   1   2
ATOM      2  C   UNK A   1      -1.542  -2.486   2.740  0.00  0.00    -0.023 C 
BRANCH   2   3
ATOM      3  C   UNK A   1      -0.140  -2.050   3.172  0.00  0.00    -0.082 C 
BRANCH   3   4
ATOM      4  N   UNK A   1       0.883  -2.500   2.235  0.00  0.00    +0.386 N 
ATOM      5  H   UNK A   1       0.684  -2.112   1.312  0.00  0.00    -0.084 HD
ATOM      6  H   UNK A   1       0.869  -3.520   2.203  0.00  0.00    -0.084 HD
BRANCH   4   7
ATOM      7  C   UNK A   1       2.205  -2.065   2.661  0.00  0.00    -0.044 C 
BRANCH   7   8
ATOM      8  C   UNK A   1       3.283  -2.565   1.690  0.00  0.00    +0.143 C 
BRANCH   8  11
ATOM      9  N   UNK A   1       2.410  -0.863   0.183  0.00  0.00    -0.403 NA
ATOM     10  N   UNK A   1       3.276  -2.258  -2.059  0.00  0.00    -0.406 NA
ATOM     11  C   UNK A   1       3.054  -2.039   0.290  0.00  0.00    +0.158 C 
ATOM     12  C   UNK A   1       3.480  -2.727  -0.815  0.00  0.00    +0.137 C 
ATOM     13  C   UNK A   1       2.195  -0.377  -1.052  0.00  0.00    +0.139 C 
ATOM     14  C   UNK A   1       2.634  -1.083  -2.187  0.00  0.00    +0.138 C 
ATOM     15  C   UNK A   1       4.194  -4.030  -0.699  0.00  0.00    +0.069 C 
ATOM     16  C   UNK A   1       1.533   0.837  -1.223  0.00  0.00    +0.087 C 
ATOM     17  C   UNK A   1       2.394  -0.549  -3.451  0.00  0.00    +0.087 C 
ATOM     18  C   UNK A   1       1.298   1.362  -2.492  0.00  0.00    -0.023 C 
ATOM     19  C   UNK A   1       1.731   0.666  -3.611  0.00  0.00    -0.023 C 
ENDBRANCH   8  11
BRANCH   8  20
ATOM     20  O   UNK A   1       4.574  -2.136   2.122  0.00  0.00    -0.379 OA
ATOM     21  H   UNK A   1       4.740  -2.464   3.019  0.00  0.00    +0.211 HD
ENDBRANCH   8  20
ENDBRANCH   7   8
ENDBRANCH   4   7
ENDBRANCH   3   4
ENDBRANCH   2   3
ENDBRANCH   1   2
BRANCH   1  22
ATOM     22  C   UNK A   1      -3.386  -2.287   0.975  0.00  0.00    +0.031 C 
BRANCH  22  23
ATOM     23  C   UNK A   1      -3.817  -1.767  -0.398  0.00  0.00    +0.171 C 
BRANCH  23  25
ATOM     24  O   UNK A   0      -1.691  -0.008  -1.280  0.00  0.00    -0.273 OA
ATOM     25  N   UNK A   1      -3.842  -0.328  -0.458  0.00  0.00    -0.295 N 
ATOM     26  C   UNK A   0      -2.769   0.439  -0.897  0.00  0.00    +0.243 C 
ATOM     27  H   UNK A   1      -4.662   0.136  -0.174  0.00  0.00    +0.150 HD
BRANCH  26  28
ATOM     28  C   UNK A   0      -3.104   1.915  -0.904  0.00  0.00    +0.176 C 
BRANCH  28  30
ATOM     29  O   UNK A   0      -2.116   2.740   1.663  0.00  0.00    -0.270 OA
ATOM     30  N   UNK A   0      -1.917   2.677  -0.648  0.00  0.00    -0.293 N 
ATOM     31  C   UNK A   0      -1.512   3.035   0.635  0.00  0.00    +0.246 C 
ATOM     32  H   UNK A   0      -1.365   2.960  -1.413  0.00  0.00    +0.150 HD
BRANCH  31  33
ATOM     33  C   UNK A   0      -0.272   3.848   0.730  0.00  0.00    +0.053 C 
ATOM     34  C   UNK A   0       0.516   3.788   1.879  0.00  0.00    +0.005 C 
ATOM     35  C   UNK A   0       0.104   4.672  -0.331  0.00  0.00    +0.005 C 
ATOM     36  C   UNK A   0       1.680   4.550   1.968  0.00  0.00    +0.000 C 
ATOM     37  C   UNK A   0       1.268   5.435  -0.242  0.00  0.00    +0.000 C 
ATOM     38  C   UNK A   0       2.056   5.374   0.907  0.00  0.00    +0.000 C 
ENDBRANCH  31  33
ENDBRANCH  28  30
ENDBRANCH  26  28
ENDBRANCH  23  25
BRANCH  23  40
ATOM     39  O   UNK A   1      -6.252  -1.662  -0.382  0.00  0.00    -0.248 OA
ATOM     40  C   UNK A   1      -5.223  -2.236  -0.716  0.00  0.00    +0.332 C 
BRANCH  40  41
ATOM     41  O   UNK A   1      -5.224  -3.418  -1.387  0.00  0.00    -0.479 OA
ATOM     42  H   UNK A   1      -4.413  -3.823  -1.623  0.00  0.00    +0.295 HD
ENDBRANCH  40  41
ENDBRANCH  23  40
ENDBRANCH  22  23
ENDBRANCH   1  22
TORSDOF 15
