121578
  -OEChem-03292013323D

 33 35  0     1  0  0  0  0  0999 V2000
    2.0928   -1.1959   -0.2259 O   0  0  0  0  0  0  0  0  0  0  0  0
    1.3392    2.2612    0.5040 O   0  0  0  0  0  0  0  0  0  0  0  0
    3.8614    1.3973    0.0105 O   0  0  0  0  0  0  0  0  0  0  0  0
    0.9346   -0.5276   -2.6846 O   0  0  0  0  0  0  0  0  0  0  0  0
   -0.2043   -0.5553   -0.1130 N   0  0  0  0  0  0  0  0  0  0  0  0
   -1.8733   -1.9800    0.2363 N   0  0  0  0  0  0  0  0  0  0  0  0
   -1.4302    1.5397   -0.1438 N   0  0  0  0  0  0  0  0  0  0  0  0
   -3.8168    1.1668    0.2042 N   0  0  0  0  0  0  0  0  0  0  0  0
   -4.7424   -1.0162    0.5278 N   0  0  0  0  0  0  0  0  0  0  0  0
    1.1809   -0.0686   -0.3391 C   0  0  1  0  0  0  0  0  0  0  0  0
    1.6055    0.9005    0.7837 C   0  0  1  0  0  0  0  0  0  0  0  0
    3.0924    0.6504    0.9414 C   0  0  1  0  0  0  0  0  0  0  0  0
    1.3525    0.4711   -1.7711 C   0  0  0  0  0  0  0  0  0  0  0  0
    3.1545   -0.7900    0.5705 C   0  0  0  0  0  0  0  0  0  0  0  0
   -1.3295    0.2065   -0.0348 C   0  0  0  0  0  0  0  0  0  0  0  0
   -0.5750   -1.8586    0.0541 C   0  0  0  0  0  0  0  0  0  0  0  0
   -2.3574   -0.6970    0.1831 C   0  0  0  0  0  0  0  0  0  0  0  0
    4.0725   -1.6601    1.0030 C   0  0  0  0  0  0  0  0  0  0  0  0
   -3.6405   -0.1727    0.3040 C   0  0  0  0  0  0  0  0  0  0  0  0
   -2.7170    1.9286   -0.0103 C   0  0  0  0  0  0  0  0  0  0  0  0
    1.1003    0.6406    1.7237 H   0  0  0  0  0  0  0  0  0  0  0  0
    3.4478    0.8616    1.9547 H   0  0  0  0  0  0  0  0  0  0  0  0
    2.3933    0.7128   -2.0045 H   0  0  0  0  0  0  0  0  0  0  0  0
    0.7412    1.3601   -1.9513 H   0  0  0  0  0  0  0  0  0  0  0  0
    0.1225   -2.6848    0.0345 H   0  0  0  0  0  0  0  0  0  0  0  0
    1.8509    2.5225   -0.2794 H   0  0  0  0  0  0  0  0  0  0  0  0
    3.8354    2.3273    0.2931 H   0  0  0  0  0  0  0  0  0  0  0  0
    4.0309   -2.7046    0.7133 H   0  0  0  0  0  0  0  0  0  0  0  0
    4.8818   -1.3444    1.6522 H   0  0  0  0  0  0  0  0  0  0  0  0
    1.4848   -1.3148   -2.5308 H   0  0  0  0  0  0  0  0  0  0  0  0
   -2.8950    2.9960   -0.0847 H   0  0  0  0  0  0  0  0  0  0  0  0
   -5.6646   -0.6112    0.6132 H   0  0  0  0  0  0  0  0  0  0  0  0
   -4.6132   -2.0161    0.6037 H   0  0  0  0  0  0  0  0  0  0  0  0
  1 10  1  0  0  0  0
  1 14  1  0  0  0  0
  2 11  1  0  0  0  0
  2 26  1  0  0  0  0
  3 12  1  0  0  0  0
  3 27  1  0  0  0  0
  4 13  1  0  0  0  0
  4 30  1  0  0  0  0
  5 10  1  0  0  0  0
  5 15  1  0  0  0  0
  5 16  1  0  0  0  0
  6 16  2  0  0  0  0
  6 17  1  0  0  0  0
  7 15  2  0  0  0  0
  7 20  1  0  0  0  0
  8 19  1  0  0  0  0
  8 20  2  0  0  0  0
  9 19  1  0  0  0  0
  9 32  1  0  0  0  0
  9 33  1  0  0  0  0
 10 11  1  0  0  0  0
 10 13  1  0  0  0  0
 11 12  1  0  0  0  0
 11 21  1  0  0  0  0
 12 14  1  0  0  0  0
 12 22  1  0  0  0  0
 13 23  1  0  0  0  0
 13 24  1  0  0  0  0
 14 18  2  0  0  0  0
 15 17  1  0  0  0  0
 16 25  1  0  0  0  0
 17 19  2  0  0  0  0
 18 28  1  0  0  0  0
 18 29  1  0  0  0  0
 20 31  1  0  0  0  0
M  END
> <PUBCHEM_COMPOUND_CID>
121578

> <PUBCHEM_CONFORMER_RMSD>
0.6

> <PUBCHEM_CONFORMER_DIVERSEORDER>
3
10
5
6
13
7
4
1
8
9
11
2
12

> <PUBCHEM_MMFF94_PARTIAL_CHARGES>
29
1 -0.36
10 0.54
11 0.28
12 0.42
13 0.28
14 -0.06
15 0.11
16 0.04
17 0.23
18 -0.3
19 0.41
2 -0.68
20 0.47
25 0.15
26 0.4
27 0.4
28 0.15
29 0.15
3 -0.68
30 0.4
31 0.15
32 0.4
33 0.4
4 -0.68
5 0.05
6 -0.57
7 -0.57
8 -0.62
9 -0.9

> <PUBCHEM_EFFECTIVE_ROTOR_COUNT>
2.8

> <PUBCHEM_PHARMACOPHORE_FEATURES>
15
1 1 acceptor
1 2 acceptor
1 2 donor
1 3 acceptor
1 3 donor
1 4 acceptor
1 4 donor
1 9 cation
1 9 donor
3 5 6 16 cation
3 5 7 15 cation
3 7 8 20 cation
5 1 10 11 12 14 rings
5 5 6 15 16 17 rings
6 7 8 15 17 19 20 rings

> <PUBCHEM_HEAVY_ATOM_COUNT>
20

> <PUBCHEM_ATOM_DEF_STEREO_COUNT>
3

> <PUBCHEM_ATOM_UDEF_STEREO_COUNT>
0

> <PUBCHEM_BOND_DEF_STEREO_COUNT>
0

> <PUBCHEM_BOND_UDEF_STEREO_COUNT>
0

> <PUBCHEM_ISOTOPIC_ATOM_COUNT>
0

> <PUBCHEM_COMPONENT_COUNT>
1

> <PUBCHEM_CACTVS_TAUTO_COUNT>
3

> <PUBCHEM_CONFORMER_ID>
0001DAEA00000003

> <PUBCHEM_MMFF94_ENERGY>
50.5365

> <PUBCHEM_FEATURE_SELFOVERLAP>
76.745

> <PUBCHEM_SHAPE_FINGERPRINT>
10608611 8 18413383245977052249
10646746 165 18339360760293671297
10759866 29 18334301993705465624
10863032 1 18410007754244020520
1100329 8 16107264989689544042
11578080 2 17386824219321061980
12119455 92 16916489373096826606
12251169 10 18338794619153071496
12403259 226 18410285904947861369
12403260 363 18341040857453528769
12507560 40 18410285909195174120
12633257 1 18273217499515300787
12892183 10 18335413565253054698
13134695 92 17130691778907693354
13140716 1 18267582412081397129
13538477 17 17677907901139858751
13581323 91 18334293184326296699
13675066 3 17967533488938368611
14115302 16 17604154821580439827
15196674 1 18410290298546314097
15219456 202 18060423490763661149
15309172 13 16988559121638858356
15442244 35 18409443653223442256
15775835 57 18409732875951948177
15852999 172 16558747918807729742
16945 1 18197203944366429648
17804303 29 18335985264039208762
1813 80 16805600327238363406
18186145 218 17916881118581973611
19786989 88 17203612596699700735
20361792 2 16008741412063085462
20510252 161 18342178856257124241
20511035 2 17916009343158007304
20559304 39 18114753714603535221
21267235 1 18409736144754740138
21501502 16 18340198691338597338
23402539 116 18271513265620434415
23557571 272 18059304265652883775
23559900 14 18199474260238120790
2748010 2 18194691367250221679
3286 77 18408037416442905581
42 15 18260829276214466419
474 4 16662351717281011788
5104073 3 18410291398015725153
69090 78 18201431498051229247
7097593 13 18336535088783440410
77492 1 17458071485973116997
84936 31 16056329314579123069
9709674 26 18412266133626427811

> <PUBCHEM_SHAPE_MULTIPOLES>
363.21
7.27
2.03
1.24
2.03
0.16
1.02
-0.68
-2.37
0.09
-0.33
-0.85
-0.02
-0.04

> <PUBCHEM_SHAPE_SELFOVERLAP>
797.942

> <PUBCHEM_SHAPE_VOLUME>
192.1

> <PUBCHEM_COORDINATE_TYPE>
2
5
10

$$$$
