REMARK  Name = 121596580
REMARK  11 active torsions:
REMARK  status: ('A' for Active; 'I' for Inactive)
REMARK    1  A    between atoms: C_5  and  C_32
REMARK    2  A    between atoms: C_7  and  O_19
REMARK    3  A    between atoms: C_9  and  O_17
REMARK    4  A    between atoms: C_13  and  O_23
REMARK    5  A    between atoms: O_19  and  C_21
REMARK    6  A    between atoms: O_23  and  C_25
REMARK    7  A    between atoms: C_25  and  C_26
REMARK    8  A    between atoms: C_26  and  C_27
REMARK    9  A    between atoms: C_27  and  O_30
REMARK   10  A    between atoms: C_32  and  O_33
REMARK   11  A    between atoms: O_33  and  C_35
REMARK                            x       y       z     vdW  Elec       q    Type
REMARK                         _______ _______ _______ _____ _____    ______ ____
ROOT
ATOM      1  O   UNL     1       3.600   1.231   2.340  0.00  0.00    -0.351 OA
ATOM      2  O   UNL     1       1.920   2.472  -0.650  0.00  0.00    -0.349 OA
ATOM      3  C   UNL     1       2.097  -0.007   0.763  0.00  0.00    +0.073 C 
ATOM      4  C   UNL     1       2.620   1.316   1.292  0.00  0.00    +0.151 C 
ATOM      5  C   UNL     1       0.738   0.342  -0.011  0.00  0.00    +0.079 C 
ATOM      6  C   UNL     1       3.077   2.062   0.086  0.00  0.00    +0.173 C 
ATOM      7  C   UNL     1       3.240  -0.354  -0.283  0.00  0.00    +0.200 C 
ATOM      8  C   UNL     1       2.388   1.931   2.652  0.00  0.00    +0.172 C 
ATOM      9  C   UNL     1       3.922   0.996  -0.627  0.00  0.00    +0.180 C 
ATOM     10  C   UNL     1       1.038   1.428  -1.103  0.00  0.00    +0.140 C 
ATOM     11  C   UNL     1       1.922  -1.086   1.837  0.00  0.00    +0.006 C 
ATOM     12  C   UNL     1      -0.348   0.921   0.956  0.00  0.00    +0.054 C 
ATOM     13  C   UNL     1      -1.635   1.402   0.262  0.00  0.00    +0.187 C 
ATOM     14  C   UNL     1      -0.185   2.128  -1.634  0.00  0.00    -0.002 C 
ATOM     15  C   UNL     1      -1.394   2.107  -1.049  0.00  0.00    -0.007 C 
ATOM     16  C   UNL     1      -2.567   2.824  -1.656  0.00  0.00    +0.030 C 
ENDROOT
BRANCH   9  17
ATOM     17  O   UNL     1       4.006   1.227  -2.020  0.00  0.00    -0.379 OA
ATOM     18  H   UNL     1       4.438   2.081  -2.181  0.00  0.00    +0.211 HD
ENDBRANCH   9  17
BRANCH   7  19
ATOM     19  O   UNL     1       4.239  -1.200   0.283  0.00  0.00    -0.450 OA
BRANCH  19  21
ATOM     20  O   UNL     1       4.782  -1.988  -1.819  0.00  0.00    -0.250 OA
ATOM     21  C   UNL     1       4.937  -1.966  -0.606  0.00  0.00    +0.318 C 
ATOM     22  C   UNL     1       5.945  -2.799   0.127  0.00  0.00    +0.121 C 
ENDBRANCH  19  21
ENDBRANCH   7  19
BRANCH  13  23
ATOM     23  O   UNL     1      -2.506   0.289   0.070  0.00  0.00    -0.448 OA
BRANCH  23  25
ATOM     24  O   UNL     1      -4.057   1.245   1.487  0.00  0.00    -0.250 OA
ATOM     25  C   UNL     1      -3.692   0.341   0.746  0.00  0.00    +0.320 C 
BRANCH  25  26
ATOM     26  C   UNL     1      -4.524  -0.883   0.435  0.00  0.00    +0.136 C 
BRANCH  26  27
ATOM     27  C   UNL     1      -5.906  -0.538  -0.141  0.00  0.00    +0.099 C 
ATOM     28  C   UNL     1      -6.707  -1.824  -0.372  0.00  0.00    +0.030 C 
ATOM     29  C   UNL     1      -5.811   0.253  -1.447  0.00  0.00    +0.030 C 
BRANCH  27  30
ATOM     30  O   UNL     1      -6.628   0.260   0.799  0.00  0.00    -0.386 OA
ATOM     31  H   UNL     1      -6.704  -0.219   1.639  0.00  0.00    +0.210 HD
ENDBRANCH  27  30
ENDBRANCH  26  27
ENDBRANCH  25  26
ENDBRANCH  23  25
ENDBRANCH  13  23
BRANCH   5  32
ATOM     32  C   UNL     1       0.159  -0.931  -0.687  0.00  0.00    +0.211 C 
BRANCH  32  33
ATOM     33  O   UNL     1      -0.554  -1.644   0.295  0.00  0.00    -0.448 OA
BRANCH  33  35
ATOM     34  O   UNL     1      -1.104  -3.277  -1.245  0.00  0.00    -0.250 OA
ATOM     35  C   UNL     1      -1.147  -2.815  -0.113  0.00  0.00    +0.318 C 
ATOM     36  C   UNL     1      -1.866  -3.462   1.032  0.00  0.00    +0.121 C 
ENDBRANCH  33  35
ENDBRANCH  32  33
ENDBRANCH   5  32
TORSDOF 11
