REMARK  Name = 121513893
REMARK  6 active torsions:
REMARK  status: ('A' for Active; 'I' for Inactive)
REMARK    1  A    between atoms: N_1  and  C_12
REMARK    2  A    between atoms: C_7  and  C_23
REMARK    3  A    between atoms: C_17  and  C_18
REMARK    4  A    between atoms: C_18  and  N_19
REMARK    5  A    between atoms: C_28  and  O_29
REMARK    6  A    between atoms: O_29  and  C_30
REMARK                            x       y       z     vdW  Elec       q    Type
REMARK                         _______ _______ _______ _____ _____    ______ ____
ROOT
ATOM      1  N   UNL     1       3.007  -0.456  -0.229  0.00  0.00    -0.198 N 
ATOM      2  N   UNL     1       1.728  -0.172   0.079  0.00  0.00    -0.181 NA
ATOM      3  N   UNL     1       4.391  -2.351  -0.824  0.00  0.00    -0.231 NA
ATOM      4  N   UNL     1       3.101  -4.420  -0.902  0.00  0.00    -0.234 NA
ATOM      5  C   UNL     1       3.225  -1.776  -0.491  0.00  0.00    +0.137 C 
ATOM      6  C   UNL     1       1.999  -2.401  -0.344  0.00  0.00    +0.150 C 
ATOM      7  C   UNL     1       1.119  -1.361   0.007  0.00  0.00    +0.090 C 
ATOM      8  C   UNL     1       1.960  -3.774  -0.562  0.00  0.00    +0.112 C 
ATOM      9  C   UNL     1       4.230  -3.679  -1.010  0.00  0.00    +0.252 C 
ATOM     10  N   UNL     1       0.761  -4.500  -0.438  0.00  0.00    -0.346 N 
ATOM     11  H   UNL     1       0.755  -5.471  -0.597  0.00  0.00    +0.143 HD
ATOM     12  H   UNL     1      -0.072  -4.036  -0.192  0.00  0.00    +0.143 HD
ENDROOT
BRANCH   1  15
ATOM     13  O   UNL     1       1.302   4.388   1.068  0.00  0.00    -0.277 OA
ATOM     14  N   UNL     1       2.872   2.815   0.379  0.00  0.00    -0.279 N 
ATOM     15  C   UNL     1       4.041   0.664  -0.251  0.00  0.00    +0.117 C 
ATOM     16  C   UNL     1       4.804   0.754   1.082  0.00  0.00    +0.025 C 
ATOM     17  C   UNL     1       3.511   2.042  -0.697  0.00  0.00    +0.115 C 
ATOM     18  C   UNL     1       4.024   1.520   2.145  0.00  0.00    +0.023 C 
ATOM     19  C   UNL     1       3.618   2.896   1.635  0.00  0.00    +0.093 C 
ATOM     20  C   UNL     1       1.733   3.609   0.214  0.00  0.00    +0.205 C 
BRANCH  20  21
ATOM     21  C   UNL     1       1.002   3.480  -1.100  0.00  0.00    +0.010 C 
BRANCH  21  22
ATOM     22  N   UNL     1      -0.117   4.394  -1.032  0.00  0.00    +0.390 N 
ATOM     23  C   UNL     1      -0.580   4.762  -2.376  0.00  0.00    -0.100 C 
ATOM     24  C   UNL     1      -1.226   3.813  -0.265  0.00  0.00    -0.100 C 
ATOM     25  H   UNL     1       0.205   5.236  -0.555  0.00  0.00    -0.079 HD
ENDBRANCH  21  22
ENDBRANCH  20  21
ENDBRANCH   1  15
BRANCH   7  26
ATOM     26  C   UNL     1      -0.292  -1.460   0.283  0.00  0.00    +0.016 C 
ATOM     27  C   UNL     1      -1.216  -1.320  -0.753  0.00  0.00    +0.004 C 
ATOM     28  C   UNL     1      -0.734  -1.699   1.584  0.00  0.00    +0.004 C 
ATOM     29  C   UNL     1      -2.581  -1.419  -0.487  0.00  0.00    +0.038 C 
ATOM     30  C   UNL     1      -2.100  -1.798   1.850  0.00  0.00    +0.038 C 
ATOM     31  C   UNL     1      -3.023  -1.658   0.814  0.00  0.00    +0.145 C 
BRANCH  31  32
ATOM     32  O   UNL     1      -4.356  -1.753   1.072  0.00  0.00    -0.453 OA
BRANCH  32  33
ATOM     33  C   UNL     1      -5.192  -0.808   0.500  0.00  0.00    +0.145 C 
ATOM     34  C   UNL     1      -4.842   0.542   0.529  0.00  0.00    +0.037 C 
ATOM     35  C   UNL     1      -6.384  -1.207  -0.104  0.00  0.00    +0.037 C 
ATOM     36  C   UNL     1      -5.684   1.493  -0.047  0.00  0.00    +0.003 C 
ATOM     37  C   UNL     1      -7.226  -0.255  -0.680  0.00  0.00    +0.003 C 
ATOM     38  C   UNL     1      -6.876   1.095  -0.651  0.00  0.00    +0.000 C 
ENDBRANCH  32  33
ENDBRANCH  31  32
ENDBRANCH   7  26
TORSDOF 6
