REMARK  Name = 121578
REMARK  5 active torsions:
REMARK  status: ('A' for Active; 'I' for Inactive)
REMARK    1  A    between atoms: C_2  and  N_7
REMARK    2  A    between atoms: C_2  and  C_23
REMARK    3  A    between atoms: C_3  and  O_19
REMARK    4  A    between atoms: C_4  and  O_21
REMARK    5  A    between atoms: C_23  and  O_24
REMARK                            x       y       z     vdW  Elec       q    Type
REMARK                         _______ _______ _______ _____ _____    ______ ____
ROOT
ATOM      1  O   UNL     1       2.093  -1.196  -0.226  0.00  0.00    -0.462 OA
ATOM      2  C   UNL     1       1.181  -0.069  -0.339  0.00  0.00    +0.251 C 
ATOM      3  C   UNL     1       1.605   0.900   0.784  0.00  0.00    +0.202 C 
ATOM      4  C   UNL     1       3.092   0.650   0.941  0.00  0.00    +0.199 C 
ATOM      5  C   UNL     1       3.155  -0.790   0.571  0.00  0.00    +0.147 C 
ATOM      6  C   UNL     1       4.072  -1.660   1.003  0.00  0.00    +0.038 C 
ENDROOT
BRANCH   2   7
ATOM      7  N   UNL     1      -0.204  -0.555  -0.113  0.00  0.00    -0.239 N 
ATOM      8  N   UNL     1      -1.873  -1.980   0.236  0.00  0.00    -0.242 NA
ATOM      9  N   UNL     1      -1.430   1.540  -0.144  0.00  0.00    -0.228 NA
ATOM     10  N   UNL     1      -3.817   1.167   0.204  0.00  0.00    -0.229 NA
ATOM     11  C   UNL     1      -1.329   0.206  -0.035  0.00  0.00    +0.153 C 
ATOM     12  C   UNL     1      -0.575  -1.859   0.054  0.00  0.00    +0.224 C 
ATOM     13  C   UNL     1      -2.357  -0.697   0.183  0.00  0.00    +0.140 C 
ATOM     14  C   UNL     1      -3.640  -0.173   0.304  0.00  0.00    +0.143 C 
ATOM     15  C   UNL     1      -2.717   1.929  -0.010  0.00  0.00    +0.253 C 
ATOM     16  N   UNL     1      -4.742  -1.016   0.528  0.00  0.00    -0.342 N 
ATOM     17  H   UNL     1      -5.646  -0.634   0.612  0.00  0.00    +0.144 HD
ATOM     18  H   UNL     1      -4.611  -1.989   0.601  0.00  0.00    +0.144 HD
ENDBRANCH   2   7
BRANCH   3  19
ATOM     19  O   UNL     1       1.339   2.261   0.504  0.00  0.00    -0.377 OA
ATOM     20  H   UNL     1       0.383   2.390   0.409  0.00  0.00    +0.211 HD
ENDBRANCH   3  19
BRANCH   4  21
ATOM     21  O   UNL     1       3.861   1.397   0.011  0.00  0.00    -0.375 OA
ATOM     22  H   UNL     1       3.827   2.338   0.244  0.00  0.00    +0.211 HD
ENDBRANCH   4  21
BRANCH   2  23
ATOM     23  C   UNL     1       1.353   0.471  -1.771  0.00  0.00    +0.200 C 
BRANCH  23  24
ATOM     24  O   UNL     1       0.935  -0.528  -2.685  0.00  0.00    -0.377 OA
ATOM     25  H   UNL     1       1.038  -0.200  -3.592  0.00  0.00    +0.211 HD
ENDBRANCH  23  24
ENDBRANCH   2  23
TORSDOF 5
