REMARK  Name = 12160163
REMARK  4 active torsions:
REMARK  status: ('A' for Active; 'I' for Inactive)
REMARK    1  A    between atoms: C_6  and  C_30
REMARK    2  A    between atoms: C_16  and  O_26
REMARK    3  A    between atoms: C_21  and  O_28
REMARK    4  A    between atoms: C_30  and  C_32
REMARK                            x       y       z     vdW  Elec       q    Type
REMARK                         _______ _______ _______ _____ _____    ______ ____
ROOT
ATOM      1  O   UNL     1      -2.888  -1.658  -0.908  0.00  0.00    -0.427 OA
ATOM      2  O   UNL     1      -2.741  -3.860  -0.300  0.00  0.00    -0.248 OA
ATOM      3  O   UNL     1       2.010  -1.810  -1.082  0.00  0.00    -0.285 OA
ATOM      4  O   UNL     1       1.176   3.305  -0.462  0.00  0.00    -0.287 OA
ATOM      5  N   UNL     1      -0.662  -1.069  -0.691  0.00  0.00    -0.261 N 
ATOM      6  C   UNL     1      -0.737  -2.475  -0.349  0.00  0.00    +0.175 C 
ATOM      7  C   UNL     1      -1.949  -0.622  -1.186  0.00  0.00    +0.272 C 
ATOM      8  C   UNL     1       0.386  -0.170  -0.523  0.00  0.00    +0.094 C 
ATOM      9  C   UNL     1      -2.314   0.700  -0.552  0.00  0.00    +0.040 C 
ATOM     10  C   UNL     1      -2.212  -2.779  -0.512  0.00  0.00    +0.337 C 
ATOM     11  C   UNL     1       0.152   1.143  -0.303  0.00  0.00    +0.058 C 
ATOM     12  C   UNL     1      -1.275   1.568  -0.130  0.00  0.00    +0.039 C 
ATOM     13  C   UNL     1       1.782  -0.690  -0.640  0.00  0.00    +0.212 C 
ATOM     14  C   UNL     1      -3.656   1.087  -0.426  0.00  0.00    -0.003 C 
ATOM     15  C   UNL     1       1.294   2.105  -0.240  0.00  0.00    +0.197 C 
ATOM     16  C   UNL     1      -1.633   2.780   0.480  0.00  0.00    +0.133 C 
ATOM     17  C   UNL     1       2.882   0.200  -0.240  0.00  0.00    +0.077 C 
ATOM     18  C   UNL     1       2.645   1.557  -0.046  0.00  0.00    +0.045 C 
ATOM     19  C   UNL     1      -3.984   2.307   0.159  0.00  0.00    -0.019 C 
ATOM     20  C   UNL     1      -2.975   3.146   0.619  0.00  0.00    +0.032 C 
ATOM     21  C   UNL     1       4.173  -0.315  -0.079  0.00  0.00    +0.137 C 
ATOM     22  C   UNL     1       3.699   2.408   0.308  0.00  0.00    +0.003 C 
ATOM     23  C   UNL     1      -5.413   2.706   0.304  0.00  0.00    +0.031 C 
ATOM     24  C   UNL     1       5.221   0.533   0.281  0.00  0.00    +0.037 C 
ATOM     25  C   UNL     1       4.984   1.893   0.474  0.00  0.00    +0.003 C 
ENDROOT
BRANCH  16  26
ATOM     26  O   UNL     1      -0.741   3.610   1.094  0.00  0.00    -0.506 OA
ATOM     27  H   UNL     1       0.177   3.429   1.045  0.00  0.00    +0.292 HD
ENDBRANCH  16  26
BRANCH  21  28
ATOM     28  O   UNL     1       4.465  -1.637  -0.241  0.00  0.00    -0.505 OA
ATOM     29  H   UNL     1       3.789  -2.239  -0.483  0.00  0.00    +0.292 HD
ENDBRANCH  21  28
BRANCH   6  30
ATOM     30  C   UNL     1      -0.332  -2.741   1.093  0.00  0.00    +0.029 C 
ATOM     31  C   UNL     1      -1.100  -1.810   2.036  0.00  0.00    +0.002 C 
BRANCH  30  32
ATOM     32  C   UNL     1      -0.553  -4.227   1.442  0.00  0.00    +0.002 C 
ATOM     33  C   UNL     1       0.296  -5.186   0.620  0.00  0.00    +0.000 C 
ENDBRANCH  30  32
ENDBRANCH   6  30
TORSDOF 4
