REMARK  Name = 121698
REMARK  7 active torsions:
REMARK  status: ('A' for Active; 'I' for Inactive)
REMARK    1  A    between atoms: N_3  and  C1*_13
REMARK    2  A    between atoms: C_7  and  C_22
REMARK    3  A    between atoms: C2*_11  and  O2*_15
REMARK    4  A    between atoms: C3*_12  and  O3*_17
REMARK    5  A    between atoms: C4*_14  and  C5*_19
REMARK    6  A    between atoms: C5*_19  and  O5*_20
REMARK    7  A    between atoms: C_22  and  O_23
REMARK                            x       y       z     vdW  Elec       q    Type
REMARK                         _______ _______ _______ _____ _____    ______ ____
ROOT
ATOM      1  O   UNL     1       0.516  -2.962  -0.709  0.00  0.00    -0.252 OA
ATOM      2  O   UNL     1       4.274  -0.542   0.373  0.00  0.00    -0.270 OA
ATOM      3  N   UNL     1       0.262  -0.682  -0.275  0.00  0.00    -0.217 N 
ATOM      4  N   UNL     1       2.382  -1.743  -0.167  0.00  0.00    -0.236 N 
ATOM      5  C   UNL     1       0.896   0.506   0.071  0.00  0.00    +0.074 C 
ATOM      6  C   UNL     1       1.010  -1.874  -0.406  0.00  0.00    +0.315 C 
ATOM      7  C   UNL     1       2.210   0.627   0.299  0.00  0.00    +0.076 C 
ATOM      8  C   UNL     1       3.062  -0.585   0.178  0.00  0.00    +0.252 C 
ATOM      9  H   UNL     1       2.923  -2.561  -0.254  0.00  0.00    +0.159 HD
ENDROOT
BRANCH   3  13
ATOM     10  O4* UNL     1      -1.532   0.612  -1.032  0.00  0.00    -0.333 OA
ATOM     11  C2* UNL     1      -1.942  -0.836   0.799  0.00  0.00    +0.187 C 
ATOM     12  C3* UNL     1      -3.208  -0.062   0.500  0.00  0.00    +0.171 C 
ATOM     13  C1* UNL     1      -1.157  -0.665  -0.490  0.00  0.00    +0.229 C 
ATOM     14  C4* UNL     1      -2.680   1.112  -0.313  0.00  0.00    +0.175 C 
BRANCH  11  15
ATOM     15  O2* UNL     1      -2.201  -2.191   1.102  0.00  0.00    -0.378 OA
ATOM     16  H2* UNL     1      -2.703  -2.247   1.931  0.00  0.00    +0.211 HD
ENDBRANCH  11  15
BRANCH  12  17
ATOM     17  O3* UNL     1      -4.070  -0.827  -0.342  0.00  0.00    -0.379 OA
ATOM     18  H3* UNL     1      -4.420  -1.583   0.155  0.00  0.00    +0.211 HD
ENDBRANCH  12  17
BRANCH  14  19
ATOM     19  C5* UNL     1      -2.227   2.285   0.547  0.00  0.00    +0.169 C 
BRANCH  19  20
ATOM     20  O5* UNL     1      -1.747   3.312  -0.303  0.00  0.00    -0.379 OA
ATOM     21  H5* UNL     1      -1.455   4.065   0.234  0.00  0.00    +0.211 HD
ENDBRANCH  19  20
ENDBRANCH  14  19
ENDBRANCH   3  13
BRANCH   7  22
ATOM     22  C   UNL     1       2.870   1.916   0.669  0.00  0.00    +0.169 C 
BRANCH  22  23
ATOM     23  O   UNL     1       3.282   2.601  -0.501  0.00  0.00    -0.377 OA
ATOM     24  H   UNL     1       3.709   3.436  -0.254  0.00  0.00    +0.211 HD
ENDBRANCH  22  23
ENDBRANCH   7  22
TORSDOF 7
