121698
  -OEChem-03292013323D

 33 34  0     1  0  0  0  0  0999 V2000
   -1.5315    0.6118   -1.0317 O   0  0  0  0  0  0  0  0  0  0  0  0
   -2.2010   -2.1914    1.1021 O   0  0  0  0  0  0  0  0  0  0  0  0
   -4.0698   -0.8273   -0.3420 O   0  0  0  0  0  0  0  0  0  0  0  0
   -1.7470    3.3117   -0.3027 O   0  0  0  0  0  0  0  0  0  0  0  0
    0.5164   -2.9622   -0.7091 O   0  0  0  0  0  0  0  0  0  0  0  0
    4.2741   -0.5421    0.3735 O   0  0  0  0  0  0  0  0  0  0  0  0
    3.2818    2.6010   -0.5011 O   0  0  0  0  0  0  0  0  0  0  0  0
    0.2620   -0.6823   -0.2745 N   0  0  0  0  0  0  0  0  0  0  0  0
    2.3822   -1.7433   -0.1673 N   0  0  0  0  0  0  0  0  0  0  0  0
   -1.9420   -0.8361    0.7987 C   0  0  2  0  0  0  0  0  0  0  0  0
   -3.2083   -0.0616    0.5001 C   0  0  1  0  0  0  0  0  0  0  0  0
   -1.1568   -0.6654   -0.4904 C   0  0  1  0  0  0  0  0  0  0  0  0
   -2.6800    1.1124   -0.3128 C   0  0  1  0  0  0  0  0  0  0  0  0
   -2.2272    2.2848    0.5471 C   0  0  0  0  0  0  0  0  0  0  0  0
    0.8961    0.5058    0.0706 C   0  0  0  0  0  0  0  0  0  0  0  0
    1.0096   -1.8737   -0.4064 C   0  0  0  0  0  0  0  0  0  0  0  0
    2.2096    0.6270    0.2988 C   0  0  0  0  0  0  0  0  0  0  0  0
    3.0624   -0.5854    0.1782 C   0  0  0  0  0  0  0  0  0  0  0  0
    2.8696    1.9163    0.6690 C   0  0  0  0  0  0  0  0  0  0  0  0
   -1.4244   -0.3830    1.6529 H   0  0  0  0  0  0  0  0  0  0  0  0
   -3.7762    0.2186    1.3910 H   0  0  0  0  0  0  0  0  0  0  0  0
   -1.4159   -1.4392   -1.2229 H   0  0  0  0  0  0  0  0  0  0  0  0
   -3.3985    1.4562   -1.0657 H   0  0  0  0  0  0  0  0  0  0  0  0
   -1.4371    2.0161    1.2523 H   0  0  0  0  0  0  0  0  0  0  0  0
   -3.0738    2.6816    1.1173 H   0  0  0  0  0  0  0  0  0  0  0  0
   -1.3428   -2.6387    1.1954 H   0  0  0  0  0  0  0  0  0  0  0  0
   -3.6196   -0.9966   -1.1862 H   0  0  0  0  0  0  0  0  0  0  0  0
    0.2865    1.3922    0.1568 H   0  0  0  0  0  0  0  0  0  0  0  0
    2.9392   -2.5885   -0.2571 H   0  0  0  0  0  0  0  0  0  0  0  0
   -1.4758    4.0518    0.2667 H   0  0  0  0  0  0  0  0  0  0  0  0
    3.7423    1.7590    1.3103 H   0  0  0  0  0  0  0  0  0  0  0  0
    2.1851    2.5681    1.2237 H   0  0  0  0  0  0  0  0  0  0  0  0
    2.4879    2.7965   -1.0279 H   0  0  0  0  0  0  0  0  0  0  0  0
  1 12  1  0  0  0  0
  1 13  1  0  0  0  0
  2 10  1  0  0  0  0
  2 26  1  0  0  0  0
  3 11  1  0  0  0  0
  3 27  1  0  0  0  0
  4 14  1  0  0  0  0
  4 30  1  0  0  0  0
  5 16  2  0  0  0  0
  6 18  2  0  0  0  0
  7 19  1  0  0  0  0
  7 33  1  0  0  0  0
  8 12  1  0  0  0  0
  8 15  1  0  0  0  0
  8 16  1  0  0  0  0
  9 16  1  0  0  0  0
  9 18  1  0  0  0  0
  9 29  1  0  0  0  0
 10 11  1  0  0  0  0
 10 12  1  0  0  0  0
 10 20  1  0  0  0  0
 11 13  1  0  0  0  0
 11 21  1  0  0  0  0
 12 22  1  0  0  0  0
 13 14  1  0  0  0  0
 13 23  1  0  0  0  0
 14 24  1  0  0  0  0
 14 25  1  0  0  0  0
 15 17  2  0  0  0  0
 15 28  1  0  0  0  0
 17 18  1  0  0  0  0
 17 19  1  0  0  0  0
 19 31  1  0  0  0  0
 19 32  1  0  0  0  0
M  END
> <PUBCHEM_COMPOUND_CID>
121698

> <PUBCHEM_CONFORMER_RMSD>
0.6

> <PUBCHEM_CONFORMER_DIVERSEORDER>
1
20
33
30
28
18
29
15
32
8
6
25
27
11
21
24
7
16
34
12
3
14
35
23
4
19
17
5
31
22
10
13
2
26
9

> <PUBCHEM_MMFF94_PARTIAL_CHARGES>
25
1 -0.56
10 0.28
11 0.28
12 0.58
13 0.28
14 0.28
15 -0.04
16 0.69
17 -0.12
18 0.62
19 0.42
2 -0.68
26 0.4
27 0.4
28 0.15
29 0.37
3 -0.68
30 0.4
33 0.4
4 -0.68
5 -0.57
6 -0.57
7 -0.68
8 -0.47
9 -0.49

> <PUBCHEM_EFFECTIVE_ROTOR_COUNT>
4

> <PUBCHEM_PHARMACOPHORE_FEATURES>
14
1 1 acceptor
1 2 acceptor
1 2 donor
1 3 acceptor
1 3 donor
1 4 acceptor
1 4 donor
1 5 acceptor
1 6 acceptor
1 7 acceptor
1 7 donor
1 9 donor
5 1 10 11 12 13 rings
6 8 9 15 16 17 18 rings

> <PUBCHEM_HEAVY_ATOM_COUNT>
19

> <PUBCHEM_ATOM_DEF_STEREO_COUNT>
4

> <PUBCHEM_ATOM_UDEF_STEREO_COUNT>
0

> <PUBCHEM_BOND_DEF_STEREO_COUNT>
0

> <PUBCHEM_BOND_UDEF_STEREO_COUNT>
0

> <PUBCHEM_ISOTOPIC_ATOM_COUNT>
0

> <PUBCHEM_COMPONENT_COUNT>
1

> <PUBCHEM_CACTVS_TAUTO_COUNT>
3

> <PUBCHEM_CONFORMER_ID>
0001DB6200000001

> <PUBCHEM_MMFF94_ENERGY>
49.0574

> <PUBCHEM_FEATURE_SELFOVERLAP>
71.069

> <PUBCHEM_SHAPE_FINGERPRINT>
10366900 7 18335709346581413098
10498660 4 18193841663394157652
10608611 8 18338796715118295209
10967382 1 18267583696260579528
1100329 8 17042048433832238227
12251169 10 18334293158562014570
12403259 226 18342452651378459754
12403260 363 18339349803763579378
12633257 1 18335424534399049491
13140716 1 18410296955487075659
13294875 104 17177971745048416441
14026960 21 18338238274991181114
14223421 5 18410018719031685555
14648413 74 18267586797237289466
14787075 74 17029942746354104530
15375462 6 18410576235777754216
15442244 35 18194118517244228242
15775835 57 17988643063808073780
16945 1 18338526243932322887
17802600 8 18342168960225102072
18186145 218 17988931067583499722
19049666 15 18121506752018579211
19591789 44 16823068611581031525
200 152 18130774651936130679
20510252 161 18410293571559339545
21501502 16 18339082571103923211
21524375 3 18130504231852084598
2334 1 18267583687876230344
23402539 116 18410002231211626295
23419403 2 15538356825781171506
23558518 356 18263646173813497353
23559900 14 18339636729048578938
2748010 2 18339363066690940478
350125 39 18411703179557114384
44154327 71 18266463298233366468
7832392 63 17910111309119730597
81228 2 18042139699621852281
8809292 202 18192717747825262306
9709674 26 18411704244656379719

> <PUBCHEM_SHAPE_MULTIPOLES>
339.96
6.4
3.1
0.86
1.5
1.03
0.05
1.18
0.63
0.15
-0.22
-0.24
-0.07
0.39

> <PUBCHEM_SHAPE_SELFOVERLAP>
714.787

> <PUBCHEM_SHAPE_VOLUME>
191.5

> <PUBCHEM_COORDINATE_TYPE>
2
5
10

$$$$
