REMARK  Name = 12174536
REMARK  5 active torsions:
REMARK  status: ('A' for Active; 'I' for Inactive)
REMARK    1  A    between atoms: C_5  and  O_31
REMARK    2  A    between atoms: C_13  and  O_35
REMARK    3  A    between atoms: C_14  and  O_33
REMARK    4  A    between atoms: C_16  and  O_37
REMARK    5  A    between atoms: C_27  and  O_39
REMARK                            x       y       z     vdW  Elec       q    Type
REMARK                         _______ _______ _______ _____ _____    ______ ____
ROOT
ATOM      1  O   UNL     1      -6.157   1.873   0.409  0.00  0.00    -0.449 OA
ATOM      2  O   UNL     1      -4.232   3.061   0.336  0.00  0.00    -0.245 OA
ATOM      3  O   UNL     1       4.380  -1.900   0.057  0.00  0.00    -0.286 OA
ATOM      4  O   UNL     1       2.032   2.892  -0.191  0.00  0.00    -0.286 OA
ATOM      5  C   UNL     1      -0.630  -3.027  -0.178  0.00  0.00    +0.140 C 
ATOM      6  C   UNL     1      -2.662  -1.602  -0.631  0.00  0.00    -0.017 C 
ATOM      7  C   UNL     1      -1.921  -2.872  -0.988  0.00  0.00    +0.060 C 
ATOM      8  C   UNL     1       0.189  -1.758  -0.171  0.00  0.00    +0.042 A 
ATOM      9  C   UNL     1      -1.938  -0.444  -0.264  0.00  0.00    +0.033 C 
ATOM     10  C   UNL     1      -0.455  -0.501  -0.209  0.00  0.00    +0.038 A 
ATOM     11  C   UNL     1      -4.774  -0.419  -0.404  0.00  0.00    -0.010 C 
ATOM     12  C   UNL     1      -4.063  -1.578  -0.720  0.00  0.00    -0.008 C 
ATOM     13  C   UNL     1      -2.674   0.715   0.046  0.00  0.00    +0.139 C 
ATOM     14  C   UNL     1       1.589  -1.846  -0.093  0.00  0.00    +0.140 A 
ATOM     15  C   UNL     1      -4.075   0.727  -0.025  0.00  0.00    +0.105 C 
ATOM     16  C   UNL     1       0.357   0.649  -0.206  0.00  0.00    +0.137 A 
ATOM     17  C   UNL     1      -6.268  -0.374  -0.503  0.00  0.00    +0.070 C 
ATOM     18  C   UNL     1       2.371  -0.690  -0.078  0.00  0.00    +0.079 A 
ATOM     19  C   UNL     1       1.756   0.557  -0.140  0.00  0.00    +0.079 A 
ATOM     20  C   UNL     1      -6.773   0.575   0.573  0.00  0.00    +0.174 C 
ATOM     21  C   UNL     1      -4.809   1.984   0.262  0.00  0.00    +0.344 C 
ATOM     22  C   UNL     1       3.842  -0.801  -0.001  0.00  0.00    +0.202 C 
ATOM     23  C   UNL     1       2.569   1.792  -0.136  0.00  0.00    +0.199 C 
ATOM     24  C   UNL     1       4.654   0.431   0.005  0.00  0.00    +0.076 C 
ATOM     25  C   UNL     1       4.040   1.683  -0.061  0.00  0.00    +0.045 C 
ATOM     26  C   UNL     1      -8.280   0.766   0.481  0.00  0.00    +0.048 C 
ATOM     27  C   UNL     1       6.050   0.341   0.076  0.00  0.00    +0.137 C 
ATOM     28  C   UNL     1       4.821   2.845  -0.056  0.00  0.00    +0.003 C 
ATOM     29  C   UNL     1       6.824   1.501   0.081  0.00  0.00    +0.037 C 
ATOM     30  C   UNL     1       6.211   2.751   0.015  0.00  0.00    +0.003 C 
ENDROOT
BRANCH   5  31
ATOM     31  O   UNL     1      -0.933  -3.371   1.172  0.00  0.00    -0.380 OA
ATOM     32  H   UNL     1      -1.460  -4.185   1.187  0.00  0.00    +0.211 HD
ENDBRANCH   5  31
BRANCH  14  33
ATOM     33  O   UNL     1       2.156  -3.088  -0.022  0.00  0.00    -0.472 OA
ATOM     34  C   UNL     1       2.345  -3.636   1.279  0.00  0.00    +0.252 C 
ENDBRANCH  14  33
BRANCH  13  35
ATOM     35  O   UNL     1      -2.105   1.750   0.743  0.00  0.00    -0.505 OA
ATOM     36  H   UNL     1      -1.173   1.801   0.829  0.00  0.00    +0.292 HD
ENDBRANCH  13  35
BRANCH  16  37
ATOM     37  O   UNL     1      -0.154   1.860  -0.598  0.00  0.00    -0.505 OA
ATOM     38  H   UNL     1      -1.082   1.980  -0.661  0.00  0.00    +0.292 HD
ENDBRANCH  16  37
BRANCH  27  39
ATOM     39  O   UNL     1       6.715  -0.847   0.143  0.00  0.00    -0.505 OA
ATOM     40  H   UNL     1       6.237  -1.653   0.143  0.00  0.00    +0.292 HD
ENDBRANCH  27  39
TORSDOF 5
