121895
  -OEChem-03292013323D

 35 35  0     1  0  0  0  0  0999 V2000
   -1.2379    1.9049    0.0642 O   0  0  0  0  0  0  0  0  0  0  0  0
    5.6700   -1.1157   -0.0022 O   0  5  0  0  0  0  0  0  0  0  0  0
    5.5343    1.0226    0.4752 O   0  0  0  0  0  0  0  0  0  0  0  0
   -3.6801    1.3392   -1.0535 N   0  0  0  0  0  0  0  0  0  0  0  0
   -0.5768   -0.3064   -0.3599 N   0  0  0  0  0  0  0  0  0  0  0  0
    4.9972   -0.0721    0.1789 N   0  3  0  0  0  0  0  0  0  0  0  0
   -4.9698   -0.7715    0.8004 C   0  0  0  0  0  0  0  0  0  0  0  0
   -3.5436   -0.1916    0.8956 C   0  0  0  0  0  0  0  0  0  0  0  0
   -2.9233    0.2488   -0.4406 C   0  0  2  0  0  0  0  0  0  0  0  0
   -5.0472   -1.9709   -0.1449 C   0  0  0  0  0  0  0  0  0  0  0  0
   -5.9395    0.3175    0.3324 C   0  0  0  0  0  0  0  0  0  0  0  0
   -1.4903    0.7336   -0.2047 C   0  0  0  0  0  0  0  0  0  0  0  0
    0.8307   -0.2473   -0.2228 C   0  0  0  0  0  0  0  0  0  0  0  0
    1.5789   -1.3958   -0.4199 C   0  0  0  0  0  0  0  0  0  0  0  0
    1.4295    0.9578    0.1047 C   0  0  0  0  0  0  0  0  0  0  0  0
    2.9661   -1.3376   -0.2856 C   0  0  0  0  0  0  0  0  0  0  0  0
    2.8166    1.0161    0.2390 C   0  0  0  0  0  0  0  0  0  0  0  0
    3.5851   -0.1316    0.0437 C   0  0  0  0  0  0  0  0  0  0  0  0
   -5.2658   -1.0945    1.8062 H   0  0  0  0  0  0  0  0  0  0  0  0
   -3.5397    0.6485    1.6041 H   0  0  0  0  0  0  0  0  0  0  0  0
   -2.8951   -0.9543    1.3481 H   0  0  0  0  0  0  0  0  0  0  0  0
   -2.9026   -0.5866   -1.1479 H   0  0  0  0  0  0  0  0  0  0  0  0
   -6.0396   -2.4319   -0.0900 H   0  0  0  0  0  0  0  0  0  0  0  0
   -4.8753   -1.6926   -1.1892 H   0  0  0  0  0  0  0  0  0  0  0  0
   -4.3111   -2.7322    0.1333 H   0  0  0  0  0  0  0  0  0  0  0  0
   -5.9412    0.4614   -0.7515 H   0  0  0  0  0  0  0  0  0  0  0  0
   -6.9626    0.0152    0.5889 H   0  0  0  0  0  0  0  0  0  0  0  0
   -5.7602    1.2728    0.8363 H   0  0  0  0  0  0  0  0  0  0  0  0
   -3.6883    2.1493   -0.4350 H   0  0  0  0  0  0  0  0  0  0  0  0
   -3.2237    1.6357   -1.9151 H   0  0  0  0  0  0  0  0  0  0  0  0
   -0.9457   -1.2263   -0.5906 H   0  0  0  0  0  0  0  0  0  0  0  0
    1.1065   -2.3398   -0.6769 H   0  0  0  0  0  0  0  0  0  0  0  0
    0.9059    1.8869    0.2732 H   0  0  0  0  0  0  0  0  0  0  0  0
    3.5326   -2.2515   -0.4452 H   0  0  0  0  0  0  0  0  0  0  0  0
    3.2657    1.9721    0.4967 H   0  0  0  0  0  0  0  0  0  0  0  0
  1 12  2  0  0  0  0
  2  6  1  0  0  0  0
  3  6  2  0  0  0  0
  4  9  1  0  0  0  0
  4 29  1  0  0  0  0
  4 30  1  0  0  0  0
  5 12  1  0  0  0  0
  5 13  1  0  0  0  0
  5 31  1  0  0  0  0
  6 18  1  0  0  0  0
  7  8  1  0  0  0  0
  7 10  1  0  0  0  0
  7 11  1  0  0  0  0
  7 19  1  0  0  0  0
  8  9  1  0  0  0  0
  8 20  1  0  0  0  0
  8 21  1  0  0  0  0
  9 12  1  0  0  0  0
  9 22  1  0  0  0  0
 10 23  1  0  0  0  0
 10 24  1  0  0  0  0
 10 25  1  0  0  0  0
 11 26  1  0  0  0  0
 11 27  1  0  0  0  0
 11 28  1  0  0  0  0
 13 14  2  0  0  0  0
 13 15  1  0  0  0  0
 14 16  1  0  0  0  0
 14 32  1  0  0  0  0
 15 17  2  0  0  0  0
 15 33  1  0  0  0  0
 16 18  2  0  0  0  0
 16 34  1  0  0  0  0
 17 18  1  0  0  0  0
 17 35  1  0  0  0  0
M  CHG  2   2  -1   6   1
M  END
> <PUBCHEM_COMPOUND_CID>
121895

> <PUBCHEM_CONFORMER_RMSD>
0.8

> <PUBCHEM_CONFORMER_DIVERSEORDER>
3
6
10
2
9
5
8
4
7
1

> <PUBCHEM_MMFF94_PARTIAL_CHARGES>
21
1 -0.57
12 0.57
13 0.12
14 -0.15
15 -0.15
16 -0.15
17 -0.15
18 0.13
2 -0.52
29 0.36
3 -0.52
30 0.36
31 0.37
32 0.15
33 0.15
34 0.15
35 0.15
4 -0.99
5 -0.55
6 0.91
9 0.33

> <PUBCHEM_EFFECTIVE_ROTOR_COUNT>
6

> <PUBCHEM_PHARMACOPHORE_FEATURES>
9
1 1 acceptor
1 2 acceptor
1 2 anion
1 3 acceptor
1 4 cation
1 4 donor
1 5 donor
3 7 10 11 hydrophobe
6 13 14 15 16 17 18 rings

> <PUBCHEM_HEAVY_ATOM_COUNT>
18

> <PUBCHEM_ATOM_DEF_STEREO_COUNT>
0

> <PUBCHEM_ATOM_UDEF_STEREO_COUNT>
1

> <PUBCHEM_BOND_DEF_STEREO_COUNT>
0

> <PUBCHEM_BOND_UDEF_STEREO_COUNT>
0

> <PUBCHEM_ISOTOPIC_ATOM_COUNT>
0

> <PUBCHEM_COMPONENT_COUNT>
1

> <PUBCHEM_CACTVS_TAUTO_COUNT>
2

> <PUBCHEM_CONFORMER_ID>
0001DC2700000003

> <PUBCHEM_MMFF94_ENERGY>
50.0958

> <PUBCHEM_FEATURE_SELFOVERLAP>
45.752

> <PUBCHEM_SHAPE_FINGERPRINT>
10 15 18336256942886588224
10354089 29 17346883351223900002
11089746 13 16773792589644421041
11287383 113 18335139808401133384
12236239 1 17060622191775880425
12596602 18 17275106162774179899
12670543 26 8142096372488143536
1420 363 18408889524890383446
14251732 16 18341894155459079298
14251764 18 18411695513783990946
14252887 29 17918002641790684174
14341114 176 18412269423496821977
14386348 63 18334299760127052723
15048467 5 12247673881805223034
15183329 4 9439136341824795502
15880784 105 18271811276052520707
17834072 33 17967256416118513692
17834076 25 9943807780943253754
18222031 100 17095526188895527950
18785283 64 18196926889138660920
19141452 34 18411423930164545927
19489759 90 17167578280779720957
200 152 18343863312297044809
20281389 69 12751242484347912627
20621476 66 8790621324843410047
20645477 56 12319741358552154353
20645477 70 18199744739470864822
21150785 3 14779559993167989466
21267235 1 18342745075113200110
21503847 285 14620787215313187978
22485316 2 18410858759433373347
23402539 116 18187362138566466159
23557571 272 17676203542242418837
23559900 14 18260824942972461097
26918003 58 18342459240396251633
29717793 49 13551465943711229634
300161 21 13901906678761038197
4214541 1 18408886209671594013
4325135 7 18186806911011638268
474229 33 18411136956627720926
5104073 3 18270676438302670832
542803 24 15841834451565203915
59682541 35 18340481287903192224
59755656 520 11671781551359996501
7495541 125 18271807972784683624

> <PUBCHEM_SHAPE_MULTIPOLES>
337.88
13.89
1.6
0.79
0.58
0.17
0
2.56
2.13
0.45
-0.15
0.54
-0.04
0.6

> <PUBCHEM_SHAPE_SELFOVERLAP>
689.477

> <PUBCHEM_SHAPE_VOLUME>
195.9

> <PUBCHEM_COORDINATE_TYPE>
2
5
10

$$$$
