REMARK  Name = 121872
REMARK  15 active torsions:
REMARK  status: ('A' for Active; 'I' for Inactive)
REMARK    1  A    between atoms: C_1  and  C_4
REMARK    2  A    between atoms: C_1  and  N_14
REMARK    3  A    between atoms: C_1  and  C_30
REMARK    4  A    between atoms: N_3  and  C_6
REMARK    5  A    between atoms: C_6  and  C_7
REMARK    6  A    between atoms: C_7  and  O_8
REMARK    7  A    between atoms: C_7  and  C_11
REMARK    8  A    between atoms: C_11  and  O_12
REMARK    9  A    between atoms: N_14  and  CA_17
REMARK   10  A    between atoms: CA_17  and  C_19
REMARK   11  A    between atoms: CA_17  and  C_22
REMARK   12  A    between atoms: C_19  and  O_20
REMARK   13  A    between atoms: C_22  and  C_23
REMARK   14  A    between atoms: C_23  and  C_24
REMARK   15  A    between atoms: C_30  and  C_31
REMARK                            x       y       z     vdW  Elec       q    Type
REMARK                         _______ _______ _______ _____ _____    ______ ____
ROOT
ATOM      1  C   UNL     1      -1.648  -0.764   0.708  0.00  0.00    +0.022 C 
ENDROOT
BRANCH   1   4
ATOM      2  O   UNL     1      -0.908   0.989   2.208  0.00  0.00    -0.277 OA
ATOM      3  N   UNL     1      -0.611   1.284  -0.072  0.00  0.00    -0.303 N 
ATOM      4  C   UNL     1      -1.016   0.582   1.053  0.00  0.00    +0.203 C 
ATOM      5  H   UNL     1      -0.738   0.877  -0.960  0.00  0.00    +0.149 HD
BRANCH   3   6
ATOM      6  C   UNL     1      -0.009   2.593   0.015  0.00  0.00    +0.130 C 
BRANCH   6   7
ATOM      7  C   UNL     1       1.507   2.507   0.139  0.00  0.00    +0.229 C 
BRANCH   7   8
ATOM      8  O   UNL     1       1.835   2.239   1.496  0.00  0.00    -0.373 OA
ATOM      9  H   UNL     1       1.428   1.401   1.768  0.00  0.00    +0.211 HD
ENDBRANCH   7   8
BRANCH   7  11
ATOM     10  O   UNL     1       2.804   4.536   0.505  0.00  0.00    -0.248 OA
ATOM     11  C   UNL     1       2.159   3.817  -0.244  0.00  0.00    +0.343 C 
BRANCH  11  12
ATOM     12  O   UNL     1       1.911   4.117  -1.544  0.00  0.00    -0.478 OA
ATOM     13  H   UNL     1       1.410   3.528  -2.074  0.00  0.00    +0.295 HD
ENDBRANCH  11  12
ENDBRANCH   7  11
ENDBRANCH   6   7
ENDBRANCH   3   6
ENDBRANCH   1   4
BRANCH   1  14
ATOM     14  N   UNL     1      -0.813  -1.793   1.328  0.00  0.00    +0.399 N 
ATOM     15  H1  UNL     1      -1.355  -2.652   1.423  0.00  0.00    -0.083 HD
ATOM     16  H2  UNL     1      -0.510  -1.462   2.244  0.00  0.00    -0.083 HD
BRANCH  14  17
ATOM     17  CA  UNL     1       0.363  -2.059   0.515  0.00  0.00    +0.041 C 
BRANCH  17  19
ATOM     18  OXT UNL     1      -0.505  -4.116  -0.456  0.00  0.00    -0.253 OA
ATOM     19  C   UNL     1      -0.076  -2.979  -0.610  0.00  0.00    +0.293 C 
BRANCH  19  20
ATOM     20  O   UNL     1       0.033  -2.395  -1.831  0.00  0.00    -0.482 OA
ATOM     21  H   UNL     1       0.366  -1.523  -1.905  0.00  0.00    +0.295 HD
ENDBRANCH  19  20
ENDBRANCH  17  19
BRANCH  17  22
ATOM     22  C   UNL     1       1.440  -2.724   1.385  0.00  0.00    -0.006 C 
BRANCH  22  23
ATOM     23  C   UNL     1       2.750  -3.039   0.647  0.00  0.00    +0.025 C 
BRANCH  23  24
ATOM     24  C   UNL     1       3.405  -1.845  -0.003  0.00  0.00    -0.022 C 
ATOM     25  C   UNL     1       3.085  -1.504  -1.317  0.00  0.00    -0.004 C 
ATOM     26  C   UNL     1       4.330  -1.083   0.710  0.00  0.00    -0.004 C 
ATOM     27  C   UNL     1       3.691  -0.400  -1.918  0.00  0.00    -0.000 C 
ATOM     28  C   UNL     1       4.935   0.021   0.109  0.00  0.00    -0.000 C 
ATOM     29  C   UNL     1       4.615   0.362  -1.205  0.00  0.00    -0.000 C 
ENDBRANCH  23  24
ENDBRANCH  22  23
ENDBRANCH  17  22
ENDBRANCH  14  17
ENDBRANCH   1  14
BRANCH   1  30
ATOM     30  C   UNL     1      -3.079  -0.850   1.258  0.00  0.00    +0.014 C 
BRANCH  30  31
ATOM     31  C   UNL     1      -4.095  -0.191   0.355  0.00  0.00    -0.024 C 
ATOM     32  C   UNL     1      -4.403   1.159   0.520  0.00  0.00    -0.004 C 
ATOM     33  C   UNL     1      -4.725  -0.933  -0.644  0.00  0.00    -0.004 C 
ATOM     34  C   UNL     1      -5.341   1.768  -0.314  0.00  0.00    -0.000 C 
ATOM     35  C   UNL     1      -5.663  -0.325  -1.478  0.00  0.00    -0.000 C 
ATOM     36  C   UNL     1      -5.971   1.026  -1.313  0.00  0.00    -0.000 C 
ENDBRANCH  30  31
ENDBRANCH   1  30
TORSDOF 15
