REMARK  Name = 121834
REMARK  5 active torsions:
REMARK  status: ('A' for Active; 'I' for Inactive)
REMARK    1  A    between atoms: C_3  and  N_15
REMARK    2  A    between atoms: C_4  and  S_11
REMARK    3  A    between atoms: N_15  and  C_17
REMARK    4  A    between atoms: C_17  and  C_18
REMARK    5  A    between atoms: C_18  and  N_20
REMARK                            x       y       z     vdW  Elec       q    Type
REMARK                         _______ _______ _______ _____ _____    ______ ____
ROOT
ATOM      1  C   UNL     1      -0.509   0.200   0.386  0.00  0.00    +0.014 C 
ATOM      2  C   UNL     1      -1.784  -0.283   0.006  0.00  0.00    +0.019 C 
ATOM      3  C   UNL     1       0.578  -0.688   0.431  0.00  0.00    +0.045 C 
ATOM      4  C   UNL     1      -2.870   0.605  -0.039  0.00  0.00    +0.112 C 
ATOM      5  C   UNL     1      -0.359   1.559   0.710  0.00  0.00    +0.001 C 
ATOM      6  C   UNL     1      -1.934  -1.642  -0.319  0.00  0.00    +0.001 C 
ATOM      7  C   UNL     1       0.410  -2.034   0.105  0.00  0.00    +0.014 C 
ATOM      8  C   UNL     1      -2.703   1.952   0.287  0.00  0.00    +0.019 C 
ATOM      9  C   UNL     1      -0.843  -2.510  -0.269  0.00  0.00    +0.001 C 
ATOM     10  C   UNL     1      -1.449   2.427   0.660  0.00  0.00    +0.001 C 
ENDROOT
BRANCH   4  11
ATOM     11  S   UNL     1      -4.491   0.105  -0.497  0.00  0.00    +0.042 S 
ATOM     12  O   UNL     1      -5.007  -0.825   0.742  0.00  0.00    -0.065 OA
ATOM     13  O   UNL     1      -5.326   1.293  -0.521  0.00  0.00    -0.065 OA
ATOM     14  O   UNL     1      -4.348  -0.736  -1.671  0.00  0.00    -0.065 OA
ENDBRANCH   4  11
BRANCH   3  15
ATOM     15  N   UNL     1       1.874  -0.257   0.806  0.00  0.00    -0.331 N 
ATOM     16  H   UNL     1       2.007   0.691   1.038  0.00  0.00    +0.147 HD
BRANCH  15  17
ATOM     17  C   UNL     1       2.994  -1.139   0.860  0.00  0.00    +0.109 C 
BRANCH  17  18
ATOM     18  C   UNL     1       4.244  -0.383   1.284  0.00  0.00    +0.111 C 
BRANCH  18  20
ATOM     19  O   UNL     1       5.955  -0.560  -1.054  0.00  0.00    -0.275 OA
ATOM     20  N   UNL     1       4.580   0.671   0.365  0.00  0.00    -0.303 N 
ATOM     21  C   UNL     1       5.412   0.493  -0.732  0.00  0.00    +0.223 C 
ATOM     22  C   UNL     1       5.576   1.752  -1.540  0.00  0.00    +0.095 C 
ATOM     23  H   UNL     1       4.201   1.566   0.523  0.00  0.00    +0.149 HD
ENDBRANCH  18  20
ENDBRANCH  17  18
ENDBRANCH  15  17
ENDBRANCH   3  15
TORSDOF 5
