REMARK  Name = 121865
REMARK  11 active torsions:
REMARK  status: ('A' for Active; 'I' for Inactive)
REMARK    1  A    between atoms: N_1  and  C_3
REMARK    2  A    between atoms: N_1  and  C_15
REMARK    3  A    between atoms: C_4  and  N_11
REMARK    4  A    between atoms: C_8  and  N_14
REMARK    5  A    between atoms: C_15  and  C_16
REMARK    6  A    between atoms: C_16  and  C_17
REMARK    7  A    between atoms: C_17  and  N_18
REMARK    8  A    between atoms: N_18  and  C_21
REMARK    9  A    between atoms: C_21  and  C_22
REMARK   10  A    between atoms: C_22  and  C_23
REMARK   11  A    between atoms: C_23  and  N_24
REMARK                            x       y       z     vdW  Elec       q    Type
REMARK                         _______ _______ _______ _____ _____    ______ ____
ROOT
ATOM      1  N   UNL     1      -0.803  -0.440   1.226  0.00  0.00    -0.331 N 
ATOM      2  H   UNL     1      -1.160  -1.320   0.967  0.00  0.00    +0.147 HD
ENDROOT
BRANCH   1   3
ATOM      3  C   UNL     1       0.493  -0.129   0.876  0.00  0.00    +0.067 C 
ATOM      4  C   UNL     1       1.285  -1.035   0.171  0.00  0.00    +0.157 C 
ATOM      5  C   UNL     1       1.009   1.115   1.238  0.00  0.00    +0.018 C 
ATOM      6  C   UNL     1       2.594  -0.697  -0.172  0.00  0.00    +0.049 C 
ATOM      7  C   UNL     1       2.318   1.453   0.894  0.00  0.00    +0.025 C 
ATOM      8  C   UNL     1       3.111   0.547   0.189  0.00  0.00    +0.145 C 
BRANCH   4  11
ATOM      9  O   UNL     1       0.927  -3.277   0.575  0.00  0.00    -0.126 OA
ATOM     10  O   UNL     1       0.212  -2.429  -1.319  0.00  0.00    -0.126 OA
ATOM     11  N   UNL     1       0.783  -2.311  -0.210  0.00  0.00    +0.059 N 
ENDBRANCH   4  11
BRANCH   8  14
ATOM     12  O   UNL     1       4.888   2.017   0.176  0.00  0.00    -0.126 OA
ATOM     13  O   UNL     1       5.140   0.064  -0.793  0.00  0.00    -0.126 OA
ATOM     14  N   UNL     1       4.443   0.893  -0.160  0.00  0.00    +0.058 N 
ENDBRANCH   8  14
ENDBRANCH   1   3
BRANCH   1  15
ATOM     15  C   UNL     1      -1.671   0.472   1.963  0.00  0.00    +0.085 C 
BRANCH  15  16
ATOM     16  C   UNL     1      -3.054  -0.154   2.154  0.00  0.00    -0.002 C 
BRANCH  16  17
ATOM     17  C   UNL     1      -3.744  -0.494   0.831  0.00  0.00    -0.076 C 
BRANCH  17  18
ATOM     18  N   UNL     1      -3.926   0.690  -0.011  0.00  0.00    +0.385 N 
ATOM     19  C   UNL     1      -5.102   1.445   0.422  0.00  0.00    -0.101 C 
ATOM     20  H   UNL     1      -3.104   1.286   0.085  0.00  0.00    -0.080 HD
BRANCH  18  21
ATOM     21  C   UNL     1      -4.048   0.309  -1.413  0.00  0.00    -0.080 C 
BRANCH  21  22
ATOM     22  C   UNL     1      -2.690  -0.010  -2.041  0.00  0.00    -0.047 C 
BRANCH  22  23
ATOM     23  C   UNL     1      -1.714   1.167  -1.984  0.00  0.00    -0.088 C 
BRANCH  23  24
ATOM     24  N   UNL     1      -0.449   0.803  -2.611  0.00  0.00    +0.380 N 
ATOM     25  H   UNL     1       0.193   1.595  -2.567  0.00  0.00    -0.089 HD
ATOM     26  H   UNL     1      -0.613   0.552  -3.586  0.00  0.00    -0.089 HD
ATOM     27  H   UNL     1      -0.042   0.008  -2.119  0.00  0.00    -0.089 HD
ENDBRANCH  23  24
ENDBRANCH  22  23
ENDBRANCH  21  22
ENDBRANCH  18  21
ENDBRANCH  17  18
ENDBRANCH  16  17
ENDBRANCH  15  16
ENDBRANCH   1  15
TORSDOF 11
