REMARK  Name = 121895
REMARK  6 active torsions:
REMARK  status: ('A' for Active; 'I' for Inactive)
REMARK    1  A    between atoms: N_2  and  C_5
REMARK    2  A    between atoms: C_3  and  C_14
REMARK    3  A    between atoms: C_10  and  N_13
REMARK    4  A    between atoms: C_14  and  N_15
REMARK    5  A    between atoms: C_14  and  C_19
REMARK    6  A    between atoms: C_19  and  C_20
REMARK                            x       y       z     vdW  Elec       q    Type
REMARK                         _______ _______ _______ _____ _____    ______ ____
ROOT
ATOM      1  O   UNL     1      -1.238   1.905   0.064  0.00  0.00    -0.277 OA
ATOM      2  N   UNL     1      -0.577  -0.306  -0.360  0.00  0.00    -0.286 N 
ATOM      3  C   UNL     1      -1.490   0.734  -0.205  0.00  0.00    +0.206 C 
ATOM      4  H   UNL     1      -0.954  -1.185  -0.592  0.00  0.00    +0.155 HD
ENDROOT
BRANCH   2   5
ATOM      5  C   UNL     1       0.831  -0.247  -0.223  0.00  0.00    +0.050 C 
ATOM      6  C   UNL     1       1.579  -1.396  -0.420  0.00  0.00    +0.016 C 
ATOM      7  C   UNL     1       1.429   0.958   0.105  0.00  0.00    +0.016 C 
ATOM      8  C   UNL     1       2.966  -1.338  -0.286  0.00  0.00    +0.025 C 
ATOM      9  C   UNL     1       2.817   1.016   0.239  0.00  0.00    +0.025 C 
ATOM     10  C   UNL     1       3.585  -0.132   0.044  0.00  0.00    +0.143 C 
BRANCH  10  13
ATOM     11  O   UNL     1       5.670  -1.116  -0.002  0.00  0.00    -0.126 OA
ATOM     12  O   UNL     1       5.534   1.023   0.475  0.00  0.00    -0.126 OA
ATOM     13  N   UNL     1       4.997  -0.072   0.179  0.00  0.00    +0.058 N 
ENDBRANCH  10  13
ENDBRANCH   2   5
BRANCH   3  14
ATOM     14  C   UNL     1      -2.923   0.249  -0.441  0.00  0.00    +0.013 C 
BRANCH  14  15
ATOM     15  N   UNL     1      -3.680   1.339  -1.054  0.00  0.00    +0.387 N 
ATOM     16  H   UNL     1      -4.640   1.036  -1.219  0.00  0.00    -0.089 HD
ATOM     17  H   UNL     1      -3.247   1.597  -1.940  0.00  0.00    -0.089 HD
ATOM     18  H   UNL     1      -3.681   2.145  -0.429  0.00  0.00    -0.089 HD
ENDBRANCH  14  15
BRANCH  14  19
ATOM     19  C   UNL     1      -3.544  -0.192   0.896  0.00  0.00    -0.013 C 
BRANCH  19  20
ATOM     20  C   UNL     1      -4.970  -0.771   0.800  0.00  0.00    -0.002 C 
ATOM     21  C   UNL     1      -5.047  -1.971  -0.145  0.00  0.00    -0.000 C 
ATOM     22  C   UNL     1      -5.939   0.318   0.332  0.00  0.00    -0.000 C 
ENDBRANCH  19  20
ENDBRANCH  14  19
ENDBRANCH   3  14
TORSDOF 6
