121829
  -OEChem-03292013323D

 56 57  0     1  0  0  0  0  0999 V2000
   -6.0363   -0.7422   -1.2040 S   0  0  0  0  0  0  0  0  0  0  0  0
    4.1553   -0.5003    1.1415 O   0  0  0  0  0  0  0  0  0  0  0  0
   -6.1130    1.5415    0.7593 O   0  0  0  0  0  0  0  0  0  0  0  0
   -7.1124    0.2354   -1.2666 O   0  0  0  0  0  0  0  0  0  0  0  0
   -5.5490   -1.3644   -2.4259 O   0  0  0  0  0  0  0  0  0  0  0  0
    4.8576    1.9395   -0.0003 O   0  0  0  0  0  0  0  0  0  0  0  0
    0.8799   -2.0096    0.4226 N   0  0  0  0  0  0  0  0  0  0  0  0
   -6.4662   -1.9684   -0.0955 N   0  0  0  0  0  0  0  0  0  0  0  0
   -0.4922   -1.5927    0.7266 C   0  0  1  0  0  0  0  0  0  0  0  0
   -0.9089   -0.4589   -0.2280 C   0  0  0  0  0  0  0  0  0  0  0  0
   -2.2991    0.0698    0.0317 C   0  0  0  0  0  0  0  0  0  0  0  0
   -1.4023   -2.8161    0.6154 C   0  0  0  0  0  0  0  0  0  0  0  0
    1.8349   -1.0456    0.9432 C   0  0  0  0  0  0  0  0  0  0  0  0
   -3.3945   -0.4998   -0.6173 C   0  0  0  0  0  0  0  0  0  0  0  0
   -4.6789   -0.0111   -0.3775 C   0  0  0  0  0  0  0  0  0  0  0  0
   -2.4880    1.1283    0.9204 C   0  0  0  0  0  0  0  0  0  0  0  0
    3.2586   -1.4779    0.6306 C   0  0  0  0  0  0  0  0  0  0  0  0
   -4.8678    1.0473    0.5111 C   0  0  0  0  0  0  0  0  0  0  0  0
   -3.7723    1.6171    1.1599 C   0  0  0  0  0  0  0  0  0  0  0  0
    5.3488   -0.3532    0.4842 C   0  0  0  0  0  0  0  0  0  0  0  0
    5.6974    0.8706   -0.0873 C   0  0  0  0  0  0  0  0  0  0  0  0
    6.2182   -1.4399    0.3895 C   0  0  0  0  0  0  0  0  0  0  0  0
   -6.2083    2.6243    1.6824 C   0  0  0  0  0  0  0  0  0  0  0  0
    6.9151    1.0077   -0.7537 C   0  0  0  0  0  0  0  0  0  0  0  0
    7.4360   -1.3028   -0.2768 C   0  0  0  0  0  0  0  0  0  0  0  0
    7.7844   -0.0791   -0.8485 C   0  0  0  0  0  0  0  0  0  0  0  0
    4.3919    2.4996   -1.2267 C   0  0  0  0  0  0  0  0  0  0  0  0
    3.0110    3.0810   -1.0103 C   0  0  0  0  0  0  0  0  0  0  0  0
   -0.5578   -1.2463    1.7670 H   0  0  0  0  0  0  0  0  0  0  0  0
   -0.8483   -0.8030   -1.2702 H   0  0  0  0  0  0  0  0  0  0  0  0
   -0.2216    0.3929   -0.1697 H   0  0  0  0  0  0  0  0  0  0  0  0
    1.0682   -2.9186    0.8452 H   0  0  0  0  0  0  0  0  0  0  0  0
   -1.0332   -3.6389    1.2391 H   0  0  0  0  0  0  0  0  0  0  0  0
   -2.4155   -2.5964    0.9657 H   0  0  0  0  0  0  0  0  0  0  0  0
   -1.4643   -3.1808   -0.4160 H   0  0  0  0  0  0  0  0  0  0  0  0
    1.7301   -0.9358    2.0303 H   0  0  0  0  0  0  0  0  0  0  0  0
    1.6930   -0.0474    0.5168 H   0  0  0  0  0  0  0  0  0  0  0  0
   -3.2369   -1.3255   -1.3062 H   0  0  0  0  0  0  0  0  0  0  0  0
   -1.6417    1.5780    1.4332 H   0  0  0  0  0  0  0  0  0  0  0  0
    3.4790   -2.4412    1.1058 H   0  0  0  0  0  0  0  0  0  0  0  0
    3.3815   -1.5873   -0.4554 H   0  0  0  0  0  0  0  0  0  0  0  0
   -3.8399    2.4401    1.8628 H   0  0  0  0  0  0  0  0  0  0  0  0
   -6.2689   -2.9413   -0.3602 H   0  0  0  0  0  0  0  0  0  0  0  0
   -7.3398   -1.8500    0.4319 H   0  0  0  0  0  0  0  0  0  0  0  0
    5.9644   -2.3969    0.8371 H   0  0  0  0  0  0  0  0  0  0  0  0
   -5.8824    2.3301    2.6860 H   0  0  0  0  0  0  0  0  0  0  0  0
   -5.6860    3.5148    1.3166 H   0  0  0  0  0  0  0  0  0  0  0  0
   -7.2682    2.8886    1.7590 H   0  0  0  0  0  0  0  0  0  0  0  0
    7.2038    1.9569   -1.1966 H   0  0  0  0  0  0  0  0  0  0  0  0
    8.1141   -2.1482   -0.3485 H   0  0  0  0  0  0  0  0  0  0  0  0
    8.7337    0.0280   -1.3653 H   0  0  0  0  0  0  0  0  0  0  0  0
    4.3420    1.7373   -2.0143 H   0  0  0  0  0  0  0  0  0  0  0  0
    5.0835    3.2884   -1.5417 H   0  0  0  0  0  0  0  0  0  0  0  0
    2.6280    3.5322   -1.9299 H   0  0  0  0  0  0  0  0  0  0  0  0
    3.0318    3.8432   -0.2246 H   0  0  0  0  0  0  0  0  0  0  0  0
    2.3132    2.3039   -0.6811 H   0  0  0  0  0  0  0  0  0  0  0  0
  1  4  2  0  0  0  0
  1  5  2  0  0  0  0
  1  8  1  0  0  0  0
  1 15  1  0  0  0  0
  2 17  1  0  0  0  0
  2 20  1  0  0  0  0
  3 18  1  0  0  0  0
  3 23  1  0  0  0  0
  6 21  1  0  0  0  0
  6 27  1  0  0  0  0
  7  9  1  0  0  0  0
  7 13  1  0  0  0  0
  7 32  1  0  0  0  0
  8 43  1  0  0  0  0
  8 44  1  0  0  0  0
  9 10  1  0  0  0  0
  9 12  1  0  0  0  0
  9 29  1  0  0  0  0
 10 11  1  0  0  0  0
 10 30  1  0  0  0  0
 10 31  1  0  0  0  0
 11 14  2  0  0  0  0
 11 16  1  0  0  0  0
 12 33  1  0  0  0  0
 12 34  1  0  0  0  0
 12 35  1  0  0  0  0
 13 17  1  0  0  0  0
 13 36  1  0  0  0  0
 13 37  1  0  0  0  0
 14 15  1  0  0  0  0
 14 38  1  0  0  0  0
 15 18  2  0  0  0  0
 16 19  2  0  0  0  0
 16 39  1  0  0  0  0
 17 40  1  0  0  0  0
 17 41  1  0  0  0  0
 18 19  1  0  0  0  0
 19 42  1  0  0  0  0
 20 21  1  0  0  0  0
 20 22  2  0  0  0  0
 21 24  2  0  0  0  0
 22 25  1  0  0  0  0
 22 45  1  0  0  0  0
 23 46  1  0  0  0  0
 23 47  1  0  0  0  0
 23 48  1  0  0  0  0
 24 26  1  0  0  0  0
 24 49  1  0  0  0  0
 25 26  2  0  0  0  0
 25 50  1  0  0  0  0
 26 51  1  0  0  0  0
 27 28  1  0  0  0  0
 27 52  1  0  0  0  0
 27 53  1  0  0  0  0
 28 54  1  0  0  0  0
 28 55  1  0  0  0  0
 28 56  1  0  0  0  0
M  END
> <PUBCHEM_COMPOUND_CID>
121829

> <PUBCHEM_CONFORMER_RMSD>
1

> <PUBCHEM_CONFORMER_DIVERSEORDER>
1
49
134
123
67
193
187
52
29
136
58
22
48
91
43
162
11
77
35
65
174
62
170
182
10
102
128
156
103
116
74
190
181
189
195
148
38
87
55
27
88
54
171
15
144
130
172
173
178
60
118
117
86
192
111
83
63
142
153
160
32
30
147
197
126
51
12
45
106
50
184
26
131
196
64
135
150
92
93
85
146
154
98
183
139
46
165
141
73
175
109
158
31
125
115
137
169
161
13
47
6
180
167
3
191
186
14
177
129
56
94
120
176
122
17
69
61
90
194
18
185
95
149
99
16
104
36
119
157
82
105
25
121
2
20
124
19
132
5
75
89
57
21
143
101
42
66
78
24
76
100
114
188
72
164
44
81
80
34
39
28
68
152
40
168
133
138
145
4
140
179
163
41
71
96
110
97
159
127
166
107
23
33
79
7
112
9
84
37
70
53
151
59
113
155
108
8

> <PUBCHEM_MMFF94_PARTIAL_CHARGES>
36
1 1.45
10 0.14
11 -0.14
13 0.27
14 -0.15
15 -0.01
16 -0.15
17 0.28
18 0.08
19 -0.15
2 -0.36
20 0.08
21 0.08
22 -0.15
23 0.28
24 -0.15
25 -0.15
26 -0.15
27 0.28
3 -0.36
32 0.36
38 0.15
39 0.15
4 -0.65
42 0.15
43 0.42
44 0.42
45 0.15
49 0.15
5 -0.65
50 0.15
51 0.15
6 -0.36
7 -0.9
8 -0.98
9 0.27

> <PUBCHEM_EFFECTIVE_ROTOR_COUNT>
11

> <PUBCHEM_PHARMACOPHORE_FEATURES>
10
1 2 acceptor
1 3 acceptor
1 4 acceptor
1 5 acceptor
1 6 acceptor
1 7 cation
1 7 donor
1 8 donor
6 11 14 15 16 18 19 rings
6 20 21 22 24 25 26 rings

> <PUBCHEM_HEAVY_ATOM_COUNT>
28

> <PUBCHEM_ATOM_DEF_STEREO_COUNT>
0

> <PUBCHEM_ATOM_UDEF_STEREO_COUNT>
1

> <PUBCHEM_BOND_DEF_STEREO_COUNT>
0

> <PUBCHEM_BOND_UDEF_STEREO_COUNT>
0

> <PUBCHEM_ISOTOPIC_ATOM_COUNT>
0

> <PUBCHEM_COMPONENT_COUNT>
1

> <PUBCHEM_CACTVS_TAUTO_COUNT>
1

> <PUBCHEM_CONFORMER_ID>
0001DBE500000001

> <PUBCHEM_MMFF94_ENERGY>
67.5541

> <PUBCHEM_FEATURE_SELFOVERLAP>
50.78

> <PUBCHEM_SHAPE_FINGERPRINT>
10 15 15140965063034666306
10299344 5 18342738498869176554
10454371 7 18410012182218808515
10670039 82 18342455915960079192
11315181 36 18335421266788909531
12166972 35 18343863333914793680
13782708 43 15769478945974851455
14394314 77 18412550911370296728
14840074 17 17894631452600477132
14856354 85 17846492682459832255
15001296 14 18188205528710823032
15064981 194 18189630508243160350
15183329 4 18408321090754101728
15301273 46 13984660318368506122
15419008 47 16587738728933289981
1577012 14 18411700959248472058
17899979 19 17894909620864216701
18335252 114 18261106357988019030
21298829 104 18410015455479773392
21315759 40 18059855039390085706
21623969 137 12463571803070586700
221357 26 18259981566520543820
23081809 10 18340198609697770090
2838139 119 18333450919643512312
335507 130 18131354115828159247
397830 11 16009048214250859825
4325135 7 18272647944229459431
445580 37 17989487399139933299
504579 68 18272642442545151981
58902169 19 18412258437419093150
5911458 16 18271254807031130825

> <PUBCHEM_SHAPE_MULTIPOLES>
540.77
24.17
2.88
1.39
10.69
1.02
-0.33
3.23
-5.02
0.08
0.18
-1.97
0.21
-3.72

> <PUBCHEM_SHAPE_SELFOVERLAP>
1104.394

> <PUBCHEM_SHAPE_VOLUME>
314.9

> <PUBCHEM_COORDINATE_TYPE>
2
5
10

$$$$
