REMARK  Name = 121829
REMARK  12 active torsions:
REMARK  status: ('A' for Active; 'I' for Inactive)
REMARK    1  A    between atoms: C_1  and  N_3
REMARK    2  A    between atoms: C_1  and  C_18
REMARK    3  A    between atoms: N_3  and  C_6
REMARK    4  A    between atoms: C_6  and  C_7
REMARK    5  A    between atoms: C_7  and  O_8
REMARK    6  A    between atoms: O_8  and  C_9
REMARK    7  A    between atoms: C_10  and  O_15
REMARK    8  A    between atoms: O_15  and  C_16
REMARK    9  A    between atoms: C_18  and  C_19
REMARK   10  A    between atoms: C_21  and  S_25
REMARK   11  A    between atoms: C_23  and  O_31
REMARK   12  A    between atoms: S_25  and  N_28
REMARK                            x       y       z     vdW  Elec       q    Type
REMARK                         _______ _______ _______ _____ _____    ______ ____
ROOT
ATOM      1  C   UNL     1      -0.492  -1.593   0.727  0.00  0.00    -0.057 C 
ATOM      2  C   UNL     1      -1.402  -2.816   0.615  0.00  0.00    -0.023 C 
ENDROOT
BRANCH   1   3
ATOM      3  N   UNL     1       0.880  -2.010   0.423  0.00  0.00    +0.388 N 
ATOM      4  H   UNL     1       0.992  -2.080  -0.589  0.00  0.00    -0.084 HD
ATOM      5  H   UNL     1       1.053  -2.914   0.861  0.00  0.00    -0.084 HD
BRANCH   3   6
ATOM      6  C   UNL     1       1.835  -1.046   0.943  0.00  0.00    -0.033 C 
BRANCH   6   7
ATOM      7  C   UNL     1       3.259  -1.478   0.631  0.00  0.00    +0.182 C 
BRANCH   7   8
ATOM      8  O   UNL     1       4.155  -0.500   1.141  0.00  0.00    -0.475 OA
BRANCH   8   9
ATOM      9  C   UNL     1       5.349  -0.353   0.484  0.00  0.00    +0.172 C 
ATOM     10  C   UNL     1       5.697   0.871  -0.087  0.00  0.00    +0.172 C 
ATOM     11  C   UNL     1       6.218  -1.440   0.390  0.00  0.00    +0.040 C 
ATOM     12  C   UNL     1       6.915   1.008  -0.754  0.00  0.00    +0.040 C 
ATOM     13  C   UNL     1       7.436  -1.303  -0.277  0.00  0.00    +0.003 C 
ATOM     14  C   UNL     1       7.784  -0.079  -0.849  0.00  0.00    +0.003 C 
BRANCH  10  15
ATOM     15  O   UNL     1       4.858   1.940   0.000  0.00  0.00    -0.472 OA
BRANCH  15  16
ATOM     16  C   UNL     1       4.392   2.500  -1.227  0.00  0.00    +0.206 C 
ATOM     17  C   UNL     1       3.011   3.081  -1.010  0.00  0.00    +0.051 C 
ENDBRANCH  15  16
ENDBRANCH  10  15
ENDBRANCH   8   9
ENDBRANCH   7   8
ENDBRANCH   6   7
ENDBRANCH   3   6
ENDBRANCH   1   3
BRANCH   1  18
ATOM     18  C   UNL     1      -0.909  -0.459  -0.228  0.00  0.00    +0.005 C 
BRANCH  18  19
ATOM     19  C   UNL     1      -2.299   0.070   0.032  0.00  0.00    -0.023 C 
ATOM     20  C   UNL     1      -3.394  -0.500  -0.617  0.00  0.00    +0.019 C 
ATOM     21  C   UNL     1      -4.679  -0.011  -0.378  0.00  0.00    +0.155 C 
ATOM     22  C   UNL     1      -2.488   1.128   0.920  0.00  0.00    -0.001 C 
ATOM     23  C   UNL     1      -4.868   1.047   0.511  0.00  0.00    +0.157 C 
ATOM     24  C   UNL     1      -3.772   1.617   1.160  0.00  0.00    +0.038 C 
BRANCH  21  25
ATOM     25  S   UNL     1      -6.036  -0.742  -1.204  0.00  0.00    +0.060 S 
ATOM     26  O   UNL     1      -7.112   0.235  -1.267  0.00  0.00    -0.153 OA
ATOM     27  O   UNL     1      -5.549  -1.364  -2.426  0.00  0.00    -0.153 OA
BRANCH  25  28
ATOM     28  N   UNL     1      -6.466  -1.968  -0.096  0.00  0.00    -0.203 NA
ATOM     29  H   UNL     1      -7.265  -2.489  -0.457  0.00  0.00    +0.144 HD
ATOM     30  H   UNL     1      -6.713  -1.546   0.800  0.00  0.00    +0.144 HD
ENDBRANCH  25  28
ENDBRANCH  21  25
BRANCH  23  31
ATOM     31  O   UNL     1      -6.113   1.542   0.759  0.00  0.00    -0.470 OA
ATOM     32  C   UNL     1      -6.208   2.624   1.682  0.00  0.00    +0.253 C 
ENDBRANCH  23  31
ENDBRANCH  18  19
ENDBRANCH   1  18
TORSDOF 12
