121994
  -OEChem-03292013323D

 41 43  0     0  0  0  0  0  0999 V2000
   -8.7213   -1.4170   -1.2624 I   0  0  0  0  0  0  0  0  0  0  0  0
    6.4994   -1.2743   -0.0157 S   0  0  0  0  0  0  0  0  0  0  0  0
    6.5294   -2.1722   -1.3816 O   0  0  0  0  0  0  0  0  0  0  0  0
    7.3463   -0.1141   -0.2517 O   0  0  0  0  0  0  0  0  0  0  0  0
    6.7502   -2.1586    1.1117 O   0  0  0  0  0  0  0  0  0  0  0  0
   -5.3505   -2.4054   -0.6747 O   0  0  0  0  0  0  0  0  0  0  0  0
   -0.8353    2.2989    0.0117 N   0  0  0  0  0  0  0  0  0  0  0  0
   -5.7145   -0.3966    0.4977 N   0  0  0  0  0  0  0  0  0  0  0  0
    2.1996    0.1788    0.3669 C   0  0  0  0  0  0  0  0  0  0  0  0
    3.1472    0.9531   -0.3441 C   0  0  0  0  0  0  0  0  0  0  0  0
    0.4960    1.8493   -0.1076 C   0  0  0  0  0  0  0  0  0  0  0  0
    0.8780    0.6409    0.4757 C   0  0  0  0  0  0  0  0  0  0  0  0
    4.4688    0.4906   -0.4530 C   0  0  0  0  0  0  0  0  0  0  0  0
    4.8509   -0.7177    0.1309 C   0  0  0  0  0  0  0  0  0  0  0  0
    2.7451    2.1667   -0.9251 C   0  0  0  0  0  0  0  0  0  0  0  0
    2.6015   -1.0352    0.9478 C   0  0  0  0  0  0  0  0  0  0  0  0
    1.4278    2.6107   -0.8068 C   0  0  0  0  0  0  0  0  0  0  0  0
    3.9189   -1.4793    0.8297 C   0  0  0  0  0  0  0  0  0  0  0  0
   -2.0639    1.6209    0.1335 C   0  0  0  0  0  0  0  0  0  0  0  0
   -3.1200    2.2069    0.8331 C   0  0  0  0  0  0  0  0  0  0  0  0
   -2.2274    0.3609   -0.4447 C   0  0  0  0  0  0  0  0  0  0  0  0
   -4.4981    0.2757    0.3761 C   0  0  0  0  0  0  0  0  0  0  0  0
   -4.3361    1.5348    0.9545 C   0  0  0  0  0  0  0  0  0  0  0  0
   -3.4436   -0.3112   -0.3235 C   0  0  0  0  0  0  0  0  0  0  0  0
   -6.0626   -1.6567   -0.0103 C   0  0  0  0  0  0  0  0  0  0  0  0
   -7.4857   -2.0501    0.3318 C   0  0  0  0  0  0  0  0  0  0  0  0
    0.1599    0.0522    1.0436 H   0  0  0  0  0  0  0  0  0  0  0  0
    5.1950    1.0827   -1.0063 H   0  0  0  0  0  0  0  0  0  0  0  0
    3.4564    2.7782   -1.4765 H   0  0  0  0  0  0  0  0  0  0  0  0
    1.8894   -1.6477    1.4970 H   0  0  0  0  0  0  0  0  0  0  0  0
    1.1416    3.5534   -1.2665 H   0  0  0  0  0  0  0  0  0  0  0  0
    4.1910   -2.4270    1.2857 H   0  0  0  0  0  0  0  0  0  0  0  0
   -0.9255    3.3110    0.0108 H   0  0  0  0  0  0  0  0  0  0  0  0
   -3.0059    3.1871    1.2893 H   0  0  0  0  0  0  0  0  0  0  0  0
   -1.4303   -0.1099   -1.0139 H   0  0  0  0  0  0  0  0  0  0  0  0
   -5.1491    2.0039    1.5027 H   0  0  0  0  0  0  0  0  0  0  0  0
   -3.4932   -1.2791   -0.8020 H   0  0  0  0  0  0  0  0  0  0  0  0
   -6.4325    0.1011    1.0199 H   0  0  0  0  0  0  0  0  0  0  0  0
    6.3067   -1.6876   -2.2111 H   0  0  0  0  0  0  0  0  0  0  0  0
   -7.7907   -1.5984    1.2812 H   0  0  0  0  0  0  0  0  0  0  0  0
   -7.5222   -3.1366    0.4635 H   0  0  0  0  0  0  0  0  0  0  0  0
  1 26  1  0  0  0  0
  2  3  1  0  0  0  0
  2  4  2  0  0  0  0
  2  5  2  0  0  0  0
  2 14  1  0  0  0  0
  3 39  1  0  0  0  0
  6 25  2  0  0  0  0
  7 11  1  0  0  0  0
  7 19  1  0  0  0  0
  7 33  1  0  0  0  0
  8 22  1  0  0  0  0
  8 25  1  0  0  0  0
  8 38  1  0  0  0  0
  9 10  2  0  0  0  0
  9 12  1  0  0  0  0
  9 16  1  0  0  0  0
 10 13  1  0  0  0  0
 10 15  1  0  0  0  0
 11 12  2  0  0  0  0
 11 17  1  0  0  0  0
 12 27  1  0  0  0  0
 13 14  2  0  0  0  0
 13 28  1  0  0  0  0
 14 18  1  0  0  0  0
 15 17  2  0  0  0  0
 15 29  1  0  0  0  0
 16 18  2  0  0  0  0
 16 30  1  0  0  0  0
 17 31  1  0  0  0  0
 18 32  1  0  0  0  0
 19 20  2  0  0  0  0
 19 21  1  0  0  0  0
 20 23  1  0  0  0  0
 20 34  1  0  0  0  0
 21 24  2  0  0  0  0
 21 35  1  0  0  0  0
 22 23  2  0  0  0  0
 22 24  1  0  0  0  0
 23 36  1  0  0  0  0
 24 37  1  0  0  0  0
 25 26  1  0  0  0  0
 26 40  1  0  0  0  0
 26 41  1  0  0  0  0
M  END
> <PUBCHEM_COMPOUND_CID>
121994

> <PUBCHEM_CONFORMER_RMSD>
0.8

> <PUBCHEM_CONFORMER_DIVERSEORDER>
1
19
21
13
10
9
8
24
30
7
16
29
12
11
28
4
25
5
26
3
32
14
22
6
17
23
27
31
18
20
2
15

> <PUBCHEM_MMFF94_PARTIAL_CHARGES>
37
1 -0.19
11 0.1
12 -0.15
13 -0.15
14 -0.01
15 -0.15
16 -0.15
17 -0.15
18 -0.15
19 0.1
2 1.49
20 -0.15
21 -0.15
22 0.12
23 -0.15
24 -0.15
25 0.57
26 0.25
27 0.15
28 0.15
29 0.15
3 -0.68
30 0.15
31 0.15
32 0.15
33 0.4
34 0.15
35 0.15
36 0.15
37 0.15
38 0.37
39 0.5
4 -0.65
5 -0.65
6 -0.57
7 -0.6
8 -0.55

> <PUBCHEM_EFFECTIVE_ROTOR_COUNT>
6

> <PUBCHEM_PHARMACOPHORE_FEATURES>
12
1 1 hydrophobe
1 3 acceptor
1 4 acceptor
1 5 acceptor
1 6 acceptor
1 7 cation
1 7 donor
1 8 donor
4 2 3 4 5 anion
6 19 20 21 22 23 24 rings
6 9 10 11 12 15 17 rings
6 9 10 13 14 16 18 rings

> <PUBCHEM_HEAVY_ATOM_COUNT>
26

> <PUBCHEM_ATOM_DEF_STEREO_COUNT>
0

> <PUBCHEM_ATOM_UDEF_STEREO_COUNT>
0

> <PUBCHEM_BOND_DEF_STEREO_COUNT>
0

> <PUBCHEM_BOND_UDEF_STEREO_COUNT>
0

> <PUBCHEM_ISOTOPIC_ATOM_COUNT>
0

> <PUBCHEM_COMPONENT_COUNT>
1

> <PUBCHEM_CACTVS_TAUTO_COUNT>
2

> <PUBCHEM_CONFORMER_ID>
0001DC8A00000001

> <PUBCHEM_MMFF94_ENERGY>
83.1518

> <PUBCHEM_FEATURE_SELFOVERLAP>
60.978

> <PUBCHEM_SHAPE_FINGERPRINT>
10 15 11383839286035522783
10740516 88 17559134077279806598
11408170 108 17418098707441312935
11963148 33 18263640659361183386
12107183 9 18266748983016986513
12166972 35 18341896311538333296
12236239 1 18411986849156800224
12592606 108 18340763849871203335
12596602 18 18060421309084215008
12760667 363 18342453773372453511
13533116 47 18338799043481498473
13690498 29 17968088708224990069
13862211 1 18114464453768962872
14117953 113 18342453747455535535
14556957 393 16081664269975089950
14767858 380 17749968678460404630
14931854 50 17821444647405142315
15188451 53 18131348622744030153
15519825 34 14835829751809421359
15728490 51 18341610443511243524
17134984 74 17313099795519444331
1768 4 8430316866553564951
17857418 61 18341050813520049689
18335252 98 18131071524882397510
18681886 176 18410853274480652896
19841028 212 18335699498806985699
20028762 73 18411700967918261650
21130935 74 18270962316064367498
21267235 1 18410579487009838577
21304304 249 18343022216135892599
21315759 148 17489028141959936068
23389318 12 18260834825902978780
23522609 53 18048070482016738476
23559900 14 17895762923027674753
23569943 247 17906178348260980298
23622692 118 18409730660224135529
2838139 119 8213847172622218248
3004659 81 18113893892748507457
3383291 50 18410572911885394755
397830 11 17917134070955516616
406291 66 18412542141700601391
439807 62 18334858342499666971
4461854 278 18060146474085544967
46194498 28 16950841539369159789
465052 167 18342179994001263069
474113 269 18202274828445034031
484989 97 17677907901367024915
5028188 123 18270412586115124908
5104073 3 17917715720880416945
54039377 194 18411422800044978046
5470011 282 17458068187385967006
559249 180 18411419493341990425
5718773 13 18411981373363121935
58260988 587 17773024479396452352
5874358 3 17459730563822316802
59682541 52 13407064865685465016
7970288 3 18410009918507078543
96874 4 18411695517609894903
9962374 69 17987788739395088903

> <PUBCHEM_SHAPE_MULTIPOLES>
517.41
23.28
2.89
1.06
17
0.45
0.11
-21.88
3.91
0.02
0.18
0.19
-0.14
-1.77

> <PUBCHEM_SHAPE_SELFOVERLAP>
1088.506

> <PUBCHEM_SHAPE_VOLUME>
294.3

> <PUBCHEM_COORDINATE_TYPE>
2
5
10

$$$$
