REMARK  Name = 121963
REMARK  7 active torsions:
REMARK  status: ('A' for Active; 'I' for Inactive)
REMARK    1  A    between atoms: C_7  and  O_23
REMARK    2  A    between atoms: C_8  and  C_14
REMARK    3  A    between atoms: C_11  and  C_25
REMARK    4  A    between atoms: C_15  and  C_20
REMARK    5  A    between atoms: C_20  and  O_21
REMARK    6  A    between atoms: C_25  and  O_26
REMARK    7  A    between atoms: O_26  and  C_28
REMARK                            x       y       z     vdW  Elec       q    Type
REMARK                         _______ _______ _______ _____ _____    ______ ____
ROOT
ATOM      1  S   UNL     1       2.982  -1.669   0.544  0.00  0.00    +0.013 S 
ATOM      2  O   UNL     1       3.968  -2.567  -0.031  0.00  0.00    -0.171 OA
ATOM      3  O   UNL     1       3.066  -1.310   1.948  0.00  0.00    -0.171 OA
ATOM      4  O   UNL     1       1.999   2.780   0.760  0.00  0.00    -0.272 OA
ATOM      5  N   UNL     1       1.708   0.498   0.230  0.00  0.00    -0.232 N 
ATOM      6  C   UNL     1       2.805  -0.201  -0.418  0.00  0.00    +0.246 C 
ATOM      7  C   UNL     1       3.665   1.036  -0.102  0.00  0.00    +0.233 C 
ATOM      8  C   UNL     1       0.484  -0.036   0.482  0.00  0.00    +0.106 C 
ATOM      9  C   UNL     1       2.337   1.688   0.366  0.00  0.00    +0.261 C 
ATOM     10  C   UNL     1       1.375  -2.398   0.285  0.00  0.00    +0.180 C 
ATOM     11  C   UNL     1       0.270  -1.372   0.469  0.00  0.00    +0.041 C 
ENDROOT
BRANCH   8  14
ATOM     12  O   UNL     1      -0.735   1.222   2.020  0.00  0.00    -0.269 OA
ATOM     13  N   UNL     1      -1.387   1.367  -0.199  0.00  0.00    -0.267 N 
ATOM     14  C   UNL     1      -0.596   0.905   0.839  0.00  0.00    +0.263 C 
ATOM     15  C   UNL     1      -2.379   2.417  -0.001  0.00  0.00    +0.175 C 
ATOM     16  C   UNL     1      -1.266   1.024  -1.616  0.00  0.00    +0.094 C 
ATOM     17  C   UNL     1      -2.668   2.949  -1.399  0.00  0.00    +0.033 C 
ATOM     18  C   UNL     1      -2.425   1.739  -2.296  0.00  0.00    +0.024 C 
BRANCH  15  20
ATOM     19  O   UNL     1      -3.935   0.617   0.431  0.00  0.00    -0.248 OA
ATOM     20  C   UNL     1      -3.587   1.775   0.612  0.00  0.00    +0.332 C 
BRANCH  20  21
ATOM     21  O   UNL     1      -4.252   2.657   1.397  0.00  0.00    -0.479 OA
ATOM     22  H   UNL     1      -3.932   3.532   1.493  0.00  0.00    +0.295 HD
ENDBRANCH  20  21
ENDBRANCH  15  20
ENDBRANCH   8  14
BRANCH   7  23
ATOM     23  O   UNL     1       4.303   1.728  -1.185  0.00  0.00    -0.341 OA
ATOM     24  C   UNL     1       5.506   1.083  -1.562  0.00  0.00    +0.175 C 
ENDBRANCH   7  23
BRANCH  11  25
ATOM     25  C   UNL     1      -1.077  -2.026   0.657  0.00  0.00    +0.234 C 
BRANCH  25  26
ATOM     26  O   UNL     1      -1.388  -2.795  -0.486  0.00  0.00    -0.444 OA
BRANCH  26  28
ATOM     27  O   UNL     1      -3.401  -3.430   0.454  0.00  0.00    -0.250 OA
ATOM     28  C   UNL     1      -2.590  -3.455  -0.463  0.00  0.00    +0.318 C 
ATOM     29  C   UNL     1      -2.784  -4.225  -1.734  0.00  0.00    +0.121 C 
ENDBRANCH  26  28
ENDBRANCH  25  26
ENDBRANCH  11  25
TORSDOF 7
