REMARK  Name = 121939
REMARK  9 active torsions:
REMARK  status: ('A' for Active; 'I' for Inactive)
REMARK    1  A    between atoms: C_1  and  N_2
REMARK    2  A    between atoms: C_1  and  C_8
REMARK    3  A    between atoms: C_1  and  C_10
REMARK    4  A    between atoms: C_1  and  C_13
REMARK    5  A    between atoms: C_10  and  O_11
REMARK    6  A    between atoms: C_13  and  C_14
REMARK    7  A    between atoms: C_14  and  C_15
REMARK    8  A    between atoms: C_15  and  N_16
REMARK    9  A    between atoms: N_16  and  C_19
REMARK                            x       y       z     vdW  Elec       q    Type
REMARK                         _______ _______ _______ _____ _____    ______ ____
ROOT
ATOM      1  C   UNL     1       1.722   0.303  -0.398  0.00  0.00    +0.105 C 
ENDROOT
BRANCH   1   2
ATOM      2  N   UNL     1       2.200   1.536  -1.028  0.00  0.00    +0.393 N 
ATOM      3  H   UNL     1       1.979   1.516  -2.024  0.00  0.00    -0.088 HD
ATOM      4  H   UNL     1       3.209   1.611  -0.905  0.00  0.00    -0.088 HD
ATOM      5  H   UNL     1       1.743   2.338  -0.594  0.00  0.00    -0.088 HD
ENDBRANCH   1   2
BRANCH   1   8
ATOM      6  F   UNL     1       2.052  -2.046  -0.461  0.00  0.00    -0.200 F 
ATOM      7  F   UNL     1       3.789  -0.789  -0.829  0.00  0.00    -0.200 F 
ATOM      8  C   UNL     1       2.450  -0.884  -1.038  0.00  0.00    +0.311 C 
ENDBRANCH   1   8
BRANCH   1  10
ATOM      9  O   UNL     1       2.595   1.238   1.670  0.00  0.00    -0.252 OA
ATOM     10  C   UNL     1       2.040   0.305   1.099  0.00  0.00    +0.300 C 
BRANCH  10  11
ATOM     11  O   UNL     1       1.610  -0.787   1.778  0.00  0.00    -0.481 OA
ATOM     12  H   UNL     1       1.188  -1.487   1.321  0.00  0.00    +0.295 HD
ENDBRANCH  10  11
ENDBRANCH   1  10
BRANCH   1  13
ATOM     13  C   UNL     1       0.196   0.162  -0.628  0.00  0.00    -0.002 C 
BRANCH  13  14
ATOM     14  C   UNL     1      -0.657   1.314  -0.067  0.00  0.00    +0.025 C 
BRANCH  14  15
ATOM     15  C   UNL     1      -2.140   1.143  -0.387  0.00  0.00    +0.129 C 
BRANCH  15  16
ATOM     16  N   UNL     1      -2.645  -0.090   0.220  0.00  0.00    -0.240 NA
BRANCH  16  19
ATOM     17  N   UNL     1      -4.459  -1.479   0.605  0.00  0.00    -0.370 N 
ATOM     18  N   UNL     1      -4.844   0.414  -0.604  0.00  0.00    -0.370 N 
ATOM     19  C   UNL     1      -3.907  -0.341   0.066  0.00  0.00    +0.189 C 
ATOM     20  H   UNL     1      -3.895  -2.108   1.111  0.00  0.00    +0.159 HD
ATOM     21  H   UNL     1      -5.418  -1.666   0.486  0.00  0.00    +0.159 HD
ATOM     22  H   UNL     1      -4.578   1.257  -1.038  0.00  0.00    +0.159 HD
ATOM     23  H   UNL     1      -5.780   0.111  -0.649  0.00  0.00    +0.159 HD
ENDBRANCH  16  19
ENDBRANCH  15  16
ENDBRANCH  14  15
ENDBRANCH  13  14
ENDBRANCH   1  13
TORSDOF 9
