REMARK  Name = 121991
REMARK  9 active torsions:
REMARK  status: ('A' for Active; 'I' for Inactive)
REMARK    1  A    between atoms: C_2  and  O_15
REMARK    2  A    between atoms: C_3  and  O_17
REMARK    3  A    between atoms: C_4  and  C_19
REMARK    4  A    between atoms: C_5  and  N_6
REMARK    5  A    between atoms: C_9  and  C_14
REMARK    6  A    between atoms: C_19  and  O_20
REMARK    7  A    between atoms: O_20  and  P_21
REMARK    8  A    between atoms: P_21  and  O_23
REMARK    9  A    between atoms: P_21  and  O_25
REMARK                            x       y       z     vdW  Elec       q    Type
REMARK                         _______ _______ _______ _____ _____    ______ ____
ROOT
ATOM      1  O   UNL     1       0.537  -1.253   1.131  0.00  0.00    -0.333 OA
ATOM      2  C   UNL     1       1.188  -2.845  -0.514  0.00  0.00    +0.171 C 
ATOM      3  C   UNL     1      -0.230  -2.392  -0.799  0.00  0.00    +0.187 C 
ATOM      4  C   UNL     1       1.695  -1.754   0.424  0.00  0.00    +0.176 C 
ATOM      5  C   UNL     1      -0.646  -1.833   0.549  0.00  0.00    +0.223 C 
ENDROOT
BRANCH   5   6
ATOM      6  N   UNL     1      -1.736  -0.838   0.386  0.00  0.00    -0.279 N 
ATOM      7  C   UNL     1      -1.424   0.449   0.151  0.00  0.00    +0.126 C 
ATOM      8  C   UNL     1      -3.015  -1.246   0.477  0.00  0.00    +0.063 C 
ATOM      9  C   UNL     1      -2.423   1.399  -0.006  0.00  0.00    +0.077 C 
ATOM     10  C   UNL     1      -4.056  -0.341   0.328  0.00  0.00    +0.016 C 
ATOM     11  C   UNL     1      -3.752   0.995   0.084  0.00  0.00    +0.005 C 
BRANCH   9  14
ATOM     12  O   UNL     1      -0.840   3.141  -0.340  0.00  0.00    -0.241 OA
ATOM     13  O   UNL     1      -3.037   3.660  -0.405  0.00  0.00    -0.241 OA
ATOM     14  C   UNL     1      -2.083   2.805  -0.263  0.00  0.00    +0.385 C 
ENDBRANCH   9  14
ENDBRANCH   5   6
BRANCH   2  15
ATOM     15  O   UNL     1       1.158  -4.084   0.195  0.00  0.00    -0.379 OA
ATOM     16  H   UNL     1       0.836  -4.785  -0.393  0.00  0.00    +0.211 HD
ENDBRANCH   2  15
BRANCH   3  17
ATOM     17  O   UNL     1      -1.073  -3.445  -1.218  0.00  0.00    -0.378 OA
ATOM     18  H   UNL     1      -0.776  -3.775  -2.080  0.00  0.00    +0.211 HD
ENDBRANCH   3  17
BRANCH   4  19
ATOM     19  C   UNL     1       2.348  -0.594  -0.314  0.00  0.00    +0.186 C 
BRANCH  19  20
ATOM     20  O   UNL     1       2.774   0.366   0.637  0.00  0.00    -0.271 OA
BRANCH  20  21
ATOM     21  P   UNL     1       3.505   1.709   0.105  0.00  0.00    +0.473 P 
ATOM     22  O   UNL     1       3.923   2.671   1.179  0.00  0.00    -0.227 OA
BRANCH  21  23
ATOM     23  O   UNL     1       2.472   2.301  -0.989  0.00  0.00    -0.303 OA
ATOM     24  H   UNL     1       2.260   1.612  -1.639  0.00  0.00    +0.222 HD
ENDBRANCH  21  23
BRANCH  21  25
ATOM     25  O   UNL     1       4.713   1.128  -0.799  0.00  0.00    -0.303 OA
ATOM     26  H   UNL     1       4.356   0.519  -1.463  0.00  0.00    +0.222 HD
ENDBRANCH  21  25
ENDBRANCH  20  21
ENDBRANCH  19  20
ENDBRANCH   4  19
TORSDOF 9
