REMARK  Name = 121906
REMARK  9 active torsions:
REMARK  status: ('A' for Active; 'I' for Inactive)
REMARK    1  A    between atoms: CA_1  and  C_8
REMARK    2  A    between atoms: CA_1  and  N_19
REMARK    3  A    between atoms: CA_1  and  CB_29
REMARK    4  A    between atoms: CA_4  and  C_11
REMARK    5  A    between atoms: N_10  and  CA_13
REMARK    6  A    between atoms: CA_13  and  C_15
REMARK    7  A    between atoms: C_15  and  O_16
REMARK    8  A    between atoms: C_20  and  CA_24
REMARK    9  A    between atoms: CB_29  and  CG_32
REMARK                            x       y       z     vdW  Elec       q    Type
REMARK                         _______ _______ _______ _____ _____    ______ ____
ROOT
ATOM      1  CA  UNL     1      -0.944  -0.928  -0.109  0.00  0.00    +0.155 C 
ENDROOT
BRANCH   1   8
ATOM      2  O   UNL     1       0.628   0.748  -0.733  0.00  0.00    -0.273 OA
ATOM      3  N   UNL     1       1.093  -0.477   1.174  0.00  0.00    -0.272 N 
ATOM      4  CA  UNL     1       2.259   0.292   1.587  0.00  0.00    +0.152 C 
ATOM      5  CB  UNL     1       2.506  -0.123   3.032  0.00  0.00    +0.031 C 
ATOM      6  CG  UNL     1       1.972  -1.553   3.087  0.00  0.00    +0.024 C 
ATOM      7  CD  UNL     1       0.772  -1.514   2.153  0.00  0.00    +0.094 C 
ATOM      8  C   UNL     1       0.325  -0.133   0.072  0.00  0.00    +0.244 C 
BRANCH   4  11
ATOM      9  O   UNL     1       3.466  -1.234   0.203  0.00  0.00    -0.273 OA
ATOM     10  N   UNL     1       4.311   0.911   0.519  0.00  0.00    -0.294 N 
ATOM     11  C   ACE A   1       3.392  -0.109   0.691  0.00  0.00    +0.241 C 
ATOM     12  H   UNL     1       4.143   1.774   0.964  0.00  0.00    +0.150 HD
BRANCH  10  13
ATOM     13  CA  UNL     1       5.507   0.772  -0.280  0.00  0.00    +0.200 C 
BRANCH  13  15
ATOM     14  OXT UNL     1       6.181   1.100  -2.568  0.00  0.00    -0.248 OA
ATOM     15  C   UNL     1       5.296   1.155  -1.722  0.00  0.00    +0.334 C 
BRANCH  15  16
ATOM     16  O   UNL     1       4.036   1.567  -1.994  0.00  0.00    -0.479 OA
ATOM     17  H   UNL     1       3.394   1.591  -1.313  0.00  0.00    +0.295 HD
ENDBRANCH  15  16
ENDBRANCH  13  15
ENDBRANCH  10  13
ENDBRANCH   4  11
ENDBRANCH   1   8
BRANCH   1  19
ATOM     18  O   UNL     1      -2.577   0.973   1.355  0.00  0.00    -0.273 OA
ATOM     19  N   UNL     1      -1.864   0.030  -0.651  0.00  0.00    -0.297 N 
ATOM     20  C   UNL     1      -2.609   0.906   0.129  0.00  0.00    +0.241 C 
ATOM     21  H   UNL     1      -1.973   0.069  -1.629  0.00  0.00    +0.150 HD
BRANCH  20  24
ATOM     22  O   UNL     1      -3.979   4.845   1.060  0.00  0.00    -0.275 OA
ATOM     23  N   UNL     1      -4.170   2.662   0.235  0.00  0.00    -0.298 N 
ATOM     24  CA  UNL     1      -3.470   1.815  -0.689  0.00  0.00    +0.149 C 
ATOM     25  C   UNL     1      -2.665   2.786  -1.531  0.00  0.00    +0.039 C 
ATOM     26  C   UNL     1      -2.439   3.987  -0.612  0.00  0.00    +0.087 C 
ATOM     27  C   UNL     1      -3.618   3.935   0.330  0.00  0.00    +0.223 C 
ATOM     28  H   UNL     1      -4.959   2.373   0.747  0.00  0.00    +0.150 HD
ENDBRANCH  20  24
ENDBRANCH   1  19
BRANCH   1  29
ATOM     29  CB  UNL     1      -0.695  -2.116  -1.030  0.00  0.00    +0.071 C 
BRANCH  29  32
ATOM     30  ND1 UNL     1      -1.480  -4.462  -0.521  0.00  0.00    -0.319 N 
ATOM     31  NE2 UNL     1      -3.683  -4.373  -0.788  0.00  0.00    -0.315 N 
ATOM     32  CG  UNL     1      -1.762  -3.174  -0.879  0.00  0.00    +0.040 C 
ATOM     33  CD2 UNL     1      -3.127  -3.144  -1.039  0.00  0.00    +0.069 C 
ATOM     34  CE1 UNL     1      -2.664  -5.145  -0.479  0.00  0.00    +0.182 C 
ATOM     35  HD1 UNL     1      -0.588  -4.831  -0.328  0.00  0.00    +0.148 HD
ATOM     36  HE2 UNL     1      -4.634  -4.623  -0.829  0.00  0.00    +0.148 HD
ENDBRANCH  29  32
ENDBRANCH   1  29
TORSDOF 9
