REMARK  Name = 121947
REMARK  8 active torsions:
REMARK  status: ('A' for Active; 'I' for Inactive)
REMARK    1  A    between atoms: C_1  and  O_7
REMARK    2  A    between atoms: C_2  and  O_9
REMARK    3  A    between atoms: C_3  and  O_15
REMARK    4  A    between atoms: C_5  and  C_12
REMARK    5  A    between atoms: C_12  and  O_13
REMARK    6  A    between atoms: O_15  and  P_16
REMARK    7  A    between atoms: P_16  and  O_18
REMARK    8  A    between atoms: P_16  and  O_20
REMARK                            x       y       z     vdW  Elec       q    Type
REMARK                         _______ _______ _______ _____ _____    ______ ____
ROOT
ATOM      1  C   UNL     1      -0.532   1.181   0.222  0.00  0.00    +0.169 C 
ATOM      2  C   UNL     1       0.725   1.992  -0.104  0.00  0.00    +0.145 C 
ATOM      3  C   UNL     1      -0.511  -0.188  -0.481  0.00  0.00    +0.177 C 
ATOM      4  C   UNL     1       2.009   1.232   0.275  0.00  0.00    +0.064 C 
ATOM      5  C   UNL     1       1.937  -0.239  -0.027  0.00  0.00    +0.054 C 
ATOM      6  C   UNL     1       0.815  -0.886  -0.374  0.00  0.00    +0.008 C 
ENDROOT
BRANCH   1   7
ATOM      7  O   UNL     1      -0.603   1.013   1.639  0.00  0.00    -0.379 OA
ATOM      8  H   UNL     1      -0.615   1.883   2.067  0.00  0.00    +0.211 HD
ENDBRANCH   1   7
BRANCH   2   9
ATOM      9  O   UNL     1       0.733   2.293  -1.498  0.00  0.00    -0.382 OA
ATOM     10  H   UNL     1      -0.079   2.772  -1.730  0.00  0.00    +0.210 HD
ENDBRANCH   2   9
BRANCH   5  12
ATOM     11  O   UNL     1       3.411  -2.001  -0.640  0.00  0.00    -0.245 OA
ATOM     12  C   UNL     1       3.175  -1.020   0.042  0.00  0.00    +0.334 C 
BRANCH  12  13
ATOM     13  O   UNL     1       3.996  -0.485   0.969  0.00  0.00    -0.477 OA
ATOM     14  H   UNL     1       3.729   0.274   1.449  0.00  0.00    +0.295 HD
ENDBRANCH  12  13
ENDBRANCH   5  12
BRANCH   3  15
ATOM     15  O   UNL     1      -1.526  -1.027   0.061  0.00  0.00    -0.269 OA
BRANCH  15  16
ATOM     16  P   UNL     1      -3.049  -0.487   0.057  0.00  0.00    +0.473 P 
ATOM     17  O   UNL     1      -3.275   0.784   0.822  0.00  0.00    -0.227 OA
BRANCH  16  18
ATOM     18  O   UNL     1      -3.911  -1.759   0.559  0.00  0.00    -0.303 OA
ATOM     19  H   UNL     1      -3.700  -2.530   0.010  0.00  0.00    +0.222 HD
ENDBRANCH  16  18
BRANCH  16  20
ATOM     20  O   UNL     1      -3.393  -0.404  -1.521  0.00  0.00    -0.303 OA
ATOM     21  H   UNL     1      -3.218  -1.264  -1.935  0.00  0.00    +0.222 HD
ENDBRANCH  16  20
ENDBRANCH  15  16
ENDBRANCH   3  15
TORSDOF 8
