REMARK  Name = 121994
REMARK  5 active torsions:
REMARK  status: ('A' for Active; 'I' for Inactive)
REMARK    1  A    between atoms: N_1  and  C_5
REMARK    2  A    between atoms: N_1  and  C_17
REMARK    3  A    between atoms: C_8  and  S_13
REMARK    4  A    between atoms: C_20  and  N_24
REMARK    5  A    between atoms: C_25  and  C_28
REMARK                            x       y       z     vdW  Elec       q    Type
REMARK                         _______ _______ _______ _____ _____    ______ ____
ROOT
ATOM      1  N   UNL     1      -0.835   2.299   0.012  0.00  0.00    -0.313 N 
ATOM      2  H   UNL     1      -0.923   3.279   0.009  0.00  0.00    +0.152 HD
ENDROOT
BRANCH   1   5
ATOM      3  C   UNL     1       2.200   0.179   0.367  0.00  0.00    +0.001 C 
ATOM      4  C   UNL     1       3.147   0.953  -0.344  0.00  0.00    +0.001 C 
ATOM      5  C   UNL     1       0.496   1.849  -0.108  0.00  0.00    +0.048 C 
ATOM      6  C   UNL     1       0.878   0.641   0.476  0.00  0.00    +0.015 C 
ATOM      7  C   UNL     1       4.469   0.491  -0.453  0.00  0.00    +0.019 C 
ATOM      8  C   UNL     1       4.851  -0.718   0.131  0.00  0.00    +0.112 C 
ATOM      9  C   UNL     1       2.745   2.167  -0.925  0.00  0.00    +0.001 C 
ATOM     10  C   UNL     1       2.602  -1.035   0.948  0.00  0.00    +0.001 C 
ATOM     11  C   UNL     1       1.428   2.611  -0.807  0.00  0.00    +0.015 C 
ATOM     12  C   UNL     1       3.919  -1.479   0.830  0.00  0.00    +0.019 C 
BRANCH   8  13
ATOM     13  S   UNL     1       6.499  -1.274  -0.016  0.00  0.00    +0.042 S 
ATOM     14  O   UNL     1       6.529  -2.172  -1.382  0.00  0.00    -0.065 OA
ATOM     15  O   UNL     1       7.346  -0.114  -0.252  0.00  0.00    -0.065 OA
ATOM     16  O   UNL     1       6.750  -2.159   1.112  0.00  0.00    -0.065 OA
ENDBRANCH   8  13
ENDBRANCH   1   5
BRANCH   1  17
ATOM     17  C   UNL     1      -2.064   1.621   0.134  0.00  0.00    +0.048 C 
ATOM     18  C   UNL     1      -3.120   2.207   0.833  0.00  0.00    +0.016 C 
ATOM     19  C   UNL     1      -2.227   0.361  -0.445  0.00  0.00    +0.016 C 
ATOM     20  C   UNL     1      -4.498   0.276   0.376  0.00  0.00    +0.050 C 
ATOM     21  C   UNL     1      -4.336   1.535   0.955  0.00  0.00    +0.016 C 
ATOM     22  C   UNL     1      -3.444  -0.311  -0.324  0.00  0.00    +0.016 C 
BRANCH  20  24
ATOM     23  O   UNL     1      -5.351  -2.405  -0.675  0.00  0.00    -0.274 OA
ATOM     24  N   UNL     1      -5.715  -0.397   0.498  0.00  0.00    -0.283 N 
ATOM     25  C   UNL     1      -6.063  -1.657  -0.010  0.00  0.00    +0.237 C 
ATOM     26  H   UNL     1      -6.417   0.072   1.004  0.00  0.00    +0.155 HD
BRANCH  25  28
ATOM     27  I   UNL     1      -8.721  -1.417  -1.262  0.00  0.00    -0.064 I 
ATOM     28  C   UNL     1      -7.486  -2.050   0.332  0.00  0.00    +0.147 C 
ENDBRANCH  25  28
ENDBRANCH  20  24
ENDBRANCH   1  17
TORSDOF 5
