121991
  -OEChem-03292013323D

 36 37  0     1  0  0  0  0  0999 V2000
    3.5052    1.7091    0.1053 P   0  0  0  0  0  0  0  0  0  0  0  0
    0.5374   -1.2533    1.1305 O   0  0  0  0  0  0  0  0  0  0  0  0
    1.1578   -4.0841    0.1954 O   0  0  0  0  0  0  0  0  0  0  0  0
   -1.0732   -3.4451   -1.2176 O   0  0  0  0  0  0  0  0  0  0  0  0
    2.7736    0.3663    0.6375 O   0  0  0  0  0  0  0  0  0  0  0  0
    2.4723    2.3006   -0.9894 O   0  0  0  0  0  0  0  0  0  0  0  0
    4.7133    1.1283   -0.7991 O   0  0  0  0  0  0  0  0  0  0  0  0
    3.9229    2.6710    1.1788 O   0  0  0  0  0  0  0  0  0  0  0  0
   -0.8404    3.1407   -0.3397 O   0  5  0  0  0  0  0  0  0  0  0  0
   -3.0367    3.6605   -0.4049 O   0  0  0  0  0  0  0  0  0  0  0  0
   -1.7362   -0.8381    0.3863 N   0  3  0  0  0  0  0  0  0  0  0  0
    1.1882   -2.8453   -0.5136 C   0  0  1  0  0  0  0  0  0  0  0  0
   -0.2296   -2.3923   -0.7994 C   0  0  2  0  0  0  0  0  0  0  0  0
    1.6953   -1.7545    0.4240 C   0  0  1  0  0  0  0  0  0  0  0  0
   -0.6457   -1.8325    0.5489 C   0  0  1  0  0  0  0  0  0  0  0  0
    2.3480   -0.5938   -0.3136 C   0  0  0  0  0  0  0  0  0  0  0  0
   -1.4238    0.4494    0.1514 C   0  0  0  0  0  0  0  0  0  0  0  0
   -3.0151   -1.2463    0.4766 C   0  0  0  0  0  0  0  0  0  0  0  0
   -2.4231    1.3991   -0.0059 C   0  0  0  0  0  0  0  0  0  0  0  0
   -4.0556   -0.3406    0.3279 C   0  0  0  0  0  0  0  0  0  0  0  0
   -3.7518    0.9954    0.0842 C   0  0  0  0  0  0  0  0  0  0  0  0
   -2.0827    2.8054   -0.2634 C   0  0  0  0  0  0  0  0  0  0  0  0
    1.7884   -2.9906   -1.4162 H   0  0  0  0  0  0  0  0  0  0  0  0
   -0.2322   -1.6151   -1.5718 H   0  0  0  0  0  0  0  0  0  0  0  0
    2.3813   -2.1447    1.1843 H   0  0  0  0  0  0  0  0  0  0  0  0
   -1.0091   -2.6055    1.2375 H   0  0  0  0  0  0  0  0  0  0  0  0
    1.6413   -0.1186   -1.0003 H   0  0  0  0  0  0  0  0  0  0  0  0
    3.2114   -0.9506   -0.8837 H   0  0  0  0  0  0  0  0  0  0  0  0
    2.0777   -4.3217    0.4033 H   0  0  0  0  0  0  0  0  0  0  0  0
   -1.0265   -4.1511   -0.5506 H   0  0  0  0  0  0  0  0  0  0  0  0
   -0.3727    0.6951    0.0810 H   0  0  0  0  0  0  0  0  0  0  0  0
   -3.1884   -2.2993    0.6637 H   0  0  0  0  0  0  0  0  0  0  0  0
   -5.0872   -0.6686    0.3992 H   0  0  0  0  0  0  0  0  0  0  0  0
   -4.5707    1.7000   -0.0318 H   0  0  0  0  0  0  0  0  0  0  0  0
    2.6684    3.1656   -1.4084 H   0  0  0  0  0  0  0  0  0  0  0  0
    5.3722    1.7537   -1.1691 H   0  0  0  0  0  0  0  0  0  0  0  0
  1  5  1  0  0  0  0
  1  6  1  0  0  0  0
  1  7  1  0  0  0  0
  1  8  2  0  0  0  0
  2 14  1  0  0  0  0
  2 15  1  0  0  0  0
  3 12  1  0  0  0  0
  3 29  1  0  0  0  0
  4 13  1  0  0  0  0
  4 30  1  0  0  0  0
  5 16  1  0  0  0  0
  6 35  1  0  0  0  0
  7 36  1  0  0  0  0
  9 22  1  0  0  0  0
 10 22  2  0  0  0  0
 11 15  1  0  0  0  0
 11 17  1  0  0  0  0
 11 18  2  0  0  0  0
 12 13  1  0  0  0  0
 12 14  1  0  0  0  0
 12 23  1  0  0  0  0
 13 15  1  0  0  0  0
 13 24  1  0  0  0  0
 14 16  1  0  0  0  0
 14 25  1  0  0  0  0
 15 26  1  0  0  0  0
 16 27  1  0  0  0  0
 16 28  1  0  0  0  0
 17 19  2  0  0  0  0
 17 31  1  0  0  0  0
 18 20  1  0  0  0  0
 18 32  1  0  0  0  0
 19 21  1  0  0  0  0
 19 22  1  0  0  0  0
 20 21  2  0  0  0  0
 20 33  1  0  0  0  0
 21 34  1  0  0  0  0
M  CHG  2   9  -1  11   1
M  END
> <PUBCHEM_COMPOUND_CID>
121991

> <PUBCHEM_CONFORMER_RMSD>
0.8

> <PUBCHEM_CONFORMER_DIVERSEORDER>
1
42
10
39
45
17
35
27
21
14
23
37
50
6
22
31
16
47
48
41
43
28
33
18
19
13
36
38
8
46
9
51
25
40
30
20
4
34
49
24
26
15
7
12
32
44
29
5
3
11
2

> <PUBCHEM_MMFF94_PARTIAL_CHARGES>
30
1 1.51
10 -0.9
11 -0.21
12 0.28
13 0.28
14 0.28
15 0.77
16 0.28
17 0.21
18 0.21
19 -0.18
2 -0.56
20 -0.15
21 -0.15
22 0.98
29 0.4
3 -0.68
30 0.4
31 0.15
32 0.15
33 0.15
34 0.15
35 0.5
36 0.5
4 -0.68
5 -0.55
6 -0.77
7 -0.77
8 -0.7
9 -0.9

> <PUBCHEM_EFFECTIVE_ROTOR_COUNT>
6

> <PUBCHEM_PHARMACOPHORE_FEATURES>
14
1 10 acceptor
1 2 acceptor
1 3 acceptor
1 3 donor
1 4 acceptor
1 4 donor
1 6 acceptor
1 7 acceptor
1 8 acceptor
1 9 acceptor
3 9 10 22 anion
4 1 6 7 8 anion
5 2 12 13 14 15 rings
6 11 17 18 19 20 21 rings

> <PUBCHEM_HEAVY_ATOM_COUNT>
22

> <PUBCHEM_ATOM_DEF_STEREO_COUNT>
4

> <PUBCHEM_ATOM_UDEF_STEREO_COUNT>
0

> <PUBCHEM_BOND_DEF_STEREO_COUNT>
0

> <PUBCHEM_BOND_UDEF_STEREO_COUNT>
0

> <PUBCHEM_ISOTOPIC_ATOM_COUNT>
0

> <PUBCHEM_COMPONENT_COUNT>
1

> <PUBCHEM_CACTVS_TAUTO_COUNT>
1

> <PUBCHEM_CONFORMER_ID>
0001DC8700000001

> <PUBCHEM_MMFF94_ENERGY>
24.6992

> <PUBCHEM_FEATURE_SELFOVERLAP>
71.162

> <PUBCHEM_SHAPE_FINGERPRINT>
10498660 4 18410007771255026029
10608611 8 18122061992779958851
10616163 171 18335706035256781185
10670039 82 18261405476696144100
10871710 139 17978792633687490822
1100329 8 17618223253399856491
11221954 11 18262806142291790569
11578080 2 16517079615054424247
116883 192 16396340911626600318
12173636 292 18268144438938505566
12403260 363 18265319621673267355
12553582 1 17328594328279427972
12633257 1 17755293479148808952
138480 1 17690279313849058004
14026960 21 18410015416344552091
14223421 5 18263933137647434473
14251757 17 17985852370864975430
14251757 5 17976563890002413244
14466204 15 18265328409772363338
14648413 74 18050569538907370123
14787075 74 17534629510238018075
14790565 3 18267315398903435905
15210252 30 16170892654079537876
17492 54 18265881631345082911
17980427 23 17689679044808874563
19591789 44 18049729812871523691
19930381 70 18410292501917544057
20567600 299 17981876446139800920
20621476 13 17688300192724486876
21524375 3 18411422812771591682
21618674 68 18339079290113016383
21860390 5 17478601317952708029
22113638 7 18119809372332478541
23227448 37 18055070131972938436
23557571 272 17697324276149289272
23558518 356 18187653440560478881
23559900 14 17979907225314701579
238 59 17904448875845065645
350125 39 18338805498289375490
3524813 1 18343021142072165544
44154327 71 18337113465942773597
5939293 188 17760922948749963746
6287921 2 18268160772598749437
7097593 13 17319000642714067267
7364860 26 18195810656743518166
7808743 9 18050285070839919488
7832392 63 17616814336395696963
81228 2 17621591040066580434
9709674 26 18122342376998389623
9981440 41 18334574650687005058

> <PUBCHEM_SHAPE_MULTIPOLES>
398.79
7.01
4.98
0.92
2.17
0.4
0.01
-5.75
-0.31
0.68
0.9
0.35
0.12
0.46

> <PUBCHEM_SHAPE_SELFOVERLAP>
824.416

> <PUBCHEM_SHAPE_VOLUME>
231.2

> <PUBCHEM_COORDINATE_TYPE>
2
5
10

$$$$
