REMARK  Name = 121992
REMARK  10 active torsions:
REMARK  status: ('A' for Active; 'I' for Inactive)
REMARK    1  A    between atoms: C_2  and  O_16
REMARK    2  A    between atoms: C_3  and  O_18
REMARK    3  A    between atoms: C_4  and  C_20
REMARK    4  A    between atoms: C_5  and  N_6
REMARK    5  A    between atoms: C_9  and  C_13
REMARK    6  A    between atoms: C_13  and  O_14
REMARK    7  A    between atoms: C_20  and  O_21
REMARK    8  A    between atoms: O_21  and  P_22
REMARK    9  A    between atoms: P_22  and  O_24
REMARK   10  A    between atoms: P_22  and  O_26
REMARK                            x       y       z     vdW  Elec       q    Type
REMARK                         _______ _______ _______ _____ _____    ______ ____
ROOT
ATOM      1  O   UNL     1       0.498  -1.259   1.131  0.00  0.00    -0.333 OA
ATOM      2  C   UNL     1       1.115  -2.866  -0.511  0.00  0.00    +0.171 C 
ATOM      3  C   UNL     1      -0.293  -2.382  -0.798  0.00  0.00    +0.187 C 
ATOM      4  C   UNL     1       1.645  -1.786   0.426  0.00  0.00    +0.176 C 
ATOM      5  C   UNL     1      -0.697  -1.812   0.549  0.00  0.00    +0.223 C 
ENDROOT
BRANCH   5   6
ATOM      6  N   UNL     1      -1.766  -0.794   0.385  0.00  0.00    -0.279 N 
ATOM      7  C   UNL     1      -1.424   0.486   0.149  0.00  0.00    +0.126 C 
ATOM      8  C   UNL     1      -3.053  -1.173   0.474  0.00  0.00    +0.063 C 
ATOM      9  C   UNL     1      -2.401   1.458  -0.010  0.00  0.00    +0.073 C 
ATOM     10  C   UNL     1      -4.073  -0.244   0.324  0.00  0.00    +0.016 C 
ATOM     11  C   UNL     1      -3.739   1.085   0.079  0.00  0.00    +0.005 C 
BRANCH   9  13
ATOM     12  O   UNL     1      -2.824   3.777  -0.420  0.00  0.00    -0.245 OA
ATOM     13  C   UNL     1      -2.033   2.840  -0.265  0.00  0.00    +0.336 C 
BRANCH  13  14
ATOM     14  O   UNL     1      -0.684   3.019  -0.318  0.00  0.00    -0.477 OA
ATOM     15  H   UNL     1      -0.109   2.289  -0.196  0.00  0.00    +0.295 HD
ENDBRANCH  13  14
ENDBRANCH   9  13
ENDBRANCH   5   6
BRANCH   2  16
ATOM     16  O   UNL     1       1.056  -4.104   0.200  0.00  0.00    -0.379 OA
ATOM     17  H   UNL     1       0.720  -4.798  -0.388  0.00  0.00    +0.211 HD
ENDBRANCH   2  16
BRANCH   3  18
ATOM     18  O   UNL     1      -1.159  -3.417  -1.216  0.00  0.00    -0.378 OA
ATOM     19  H   UNL     1      -0.868  -3.754  -2.078  0.00  0.00    +0.211 HD
ENDBRANCH   3  18
BRANCH   4  20
ATOM     20  C   UNL     1       2.324  -0.641  -0.312  0.00  0.00    +0.186 C 
BRANCH  20  21
ATOM     21  O   UNL     1       2.770   0.311   0.638  0.00  0.00    -0.271 OA
BRANCH  21  22
ATOM     22  P   UNL     1       3.531   1.637   0.105  0.00  0.00    +0.473 P 
ATOM     23  O   UNL     1       3.969   2.590   1.178  0.00  0.00    -0.227 OA
BRANCH  22  24
ATOM     24  O   UNL     1       2.512   2.249  -0.991  0.00  0.00    -0.303 OA
ATOM     25  H   UNL     1       2.286   1.565  -1.640  0.00  0.00    +0.222 HD
ENDBRANCH  22  24
BRANCH  22  26
ATOM     26  O   UNL     1       4.727   1.028  -0.798  0.00  0.00    -0.303 OA
ATOM     27  H   UNL     1       4.356   0.426  -1.462  0.00  0.00    +0.222 HD
ENDBRANCH  22  26
ENDBRANCH  21  22
ENDBRANCH  20  21
ENDBRANCH   4  20
TORSDOF 10
