121901
  -OEChem-03292013323D

 25 25  0     1  0  0  0  0  0999 V2000
    2.9814    2.0713   -0.6103 F   0  0  0  0  0  0  0  0  0  0  0  0
    2.0643   -2.4932    0.4130 O   0  0  0  0  0  0  0  0  0  0  0  0
   -2.1491   -1.2516   -1.3813 O   0  0  0  0  0  0  0  0  0  0  0  0
    3.8299   -0.5317   -0.4588 O   0  0  0  0  0  0  0  0  0  0  0  0
   -3.8557   -1.1748    0.1199 O   0  0  0  0  0  0  0  0  0  0  0  0
   -3.6091    1.5852    0.0922 N   0  0  0  0  0  0  0  0  0  0  0  0
   -1.4490    0.8470    0.9836 C   0  0  0  0  0  0  0  0  0  0  0  0
   -2.4228    0.7782   -0.2007 C   0  0  1  0  0  0  0  0  0  0  0  0
   -0.0355    0.4742    0.5976 C   0  0  0  0  0  0  0  0  0  0  0  0
    0.3636   -0.8490    0.6844 C   0  0  0  0  0  0  0  0  0  0  0  0
    0.8311    1.4639    0.1652 C   0  0  0  0  0  0  0  0  0  0  0  0
    1.6678   -1.1925    0.3286 C   0  0  0  0  0  0  0  0  0  0  0  0
   -2.9058   -0.6395   -0.4340 C   0  0  0  0  0  0  0  0  0  0  0  0
    2.1353    1.1204   -0.1906 C   0  0  0  0  0  0  0  0  0  0  0  0
    2.5537   -0.2079   -0.1088 C   0  0  0  0  0  0  0  0  0  0  0  0
   -1.7857    0.2038    1.8083 H   0  0  0  0  0  0  0  0  0  0  0  0
   -1.4277    1.8648    1.3984 H   0  0  0  0  0  0  0  0  0  0  0  0
   -1.9751    1.1711   -1.1206 H   0  0  0  0  0  0  0  0  0  0  0  0
   -0.3281   -1.6132    1.0287 H   0  0  0  0  0  0  0  0  0  0  0  0
    0.5141    2.5003    0.0959 H   0  0  0  0  0  0  0  0  0  0  0  0
   -4.0723    1.2371    0.9308 H   0  0  0  0  0  0  0  0  0  0  0  0
   -4.2818    1.5049   -0.6692 H   0  0  0  0  0  0  0  0  0  0  0  0
    1.3202   -3.0315    0.7334 H   0  0  0  0  0  0  0  0  0  0  0  0
   -2.4514   -2.1686   -1.5545 H   0  0  0  0  0  0  0  0  0  0  0  0
    4.2895    0.2806   -0.7342 H   0  0  0  0  0  0  0  0  0  0  0  0
  1 14  1  0  0  0  0
  2 12  1  0  0  0  0
  2 23  1  0  0  0  0
  3 13  1  0  0  0  0
  3 24  1  0  0  0  0
  4 15  1  0  0  0  0
  4 25  1  0  0  0  0
  5 13  2  0  0  0  0
  6  8  1  0  0  0  0
  6 21  1  0  0  0  0
  6 22  1  0  0  0  0
  7  8  1  0  0  0  0
  7  9  1  0  0  0  0
  7 16  1  0  0  0  0
  7 17  1  0  0  0  0
  8 13  1  0  0  0  0
  8 18  1  0  0  0  0
  9 10  2  0  0  0  0
  9 11  1  0  0  0  0
 10 12  1  0  0  0  0
 10 19  1  0  0  0  0
 11 14  2  0  0  0  0
 11 20  1  0  0  0  0
 12 15  2  0  0  0  0
 14 15  1  0  0  0  0
M  END
> <PUBCHEM_COMPOUND_CID>
121901

> <PUBCHEM_CONFORMER_RMSD>
0.6

> <PUBCHEM_CONFORMER_DIVERSEORDER>
3
14
10
21
7
20
2
15
12
17
6
9
16
11
22
13
4
8
19
1
18
5

> <PUBCHEM_MMFF94_PARTIAL_CHARGES>
22
1 -0.19
10 -0.15
11 -0.15
12 0.08
13 0.66
14 0.19
15 0.08
19 0.15
2 -0.53
20 0.15
21 0.36
22 0.36
23 0.45
24 0.5
25 0.45
3 -0.65
4 -0.53
5 -0.57
6 -0.99
7 0.14
8 0.33
9 -0.14

> <PUBCHEM_EFFECTIVE_ROTOR_COUNT>
3

> <PUBCHEM_PHARMACOPHORE_FEATURES>
8
1 2 donor
1 3 acceptor
1 4 donor
1 5 acceptor
1 6 cation
1 6 donor
3 3 5 13 anion
6 9 10 11 12 14 15 rings

> <PUBCHEM_HEAVY_ATOM_COUNT>
15

> <PUBCHEM_ATOM_DEF_STEREO_COUNT>
0

> <PUBCHEM_ATOM_UDEF_STEREO_COUNT>
1

> <PUBCHEM_BOND_DEF_STEREO_COUNT>
0

> <PUBCHEM_BOND_UDEF_STEREO_COUNT>
0

> <PUBCHEM_ISOTOPIC_ATOM_COUNT>
0

> <PUBCHEM_COMPONENT_COUNT>
1

> <PUBCHEM_CACTVS_TAUTO_COUNT>
18

> <PUBCHEM_CONFORMER_ID>
0001DC2D00000003

> <PUBCHEM_MMFF94_ENERGY>
26.9395

> <PUBCHEM_FEATURE_SELFOVERLAP>
40.656

> <PUBCHEM_SHAPE_FINGERPRINT>
10062212 137 18410283688470417202
12932764 1 17846212310724921297
14128692 85 18273210893760699064
15375462 189 18201161035365202771
15775835 57 18336270054719940645
16945 1 18196642111025332105
18186145 218 18114177531855978748
18619055 16 18341887442599431169
19422 9 18342179977148343641
20279233 1 15626219091919276421
20645476 183 18341892957416690783
20645477 70 18342455941661109815
21501502 16 18409727348740488241
21634736 98 18413673517421019646
221490 88 18335431187409223370
23402539 116 17603579695489595404
23402655 69 18335986367682403517
23552423 10 18410289198965990971
23559900 14 17704066258297050786
23598291 2 18193555571543569659
25 1 18186524284778106464
25610 137 18263649631325129883
2748010 2 16539339662040518104
2871803 45 18337102488449782111
465052 167 17915464011857117527
58051976 100 18410577245522466805
58051976 378 18194401331981937292
7832392 63 18338233760996955385
90525 40 18131068191301947903
93112 12 18409728426682606781
9939556 21 18339921515772031433

> <PUBCHEM_SHAPE_MULTIPOLES>
272.96
6.17
2
0.88
2.1
0.21
-0.04
0.24
-1.15
-0.65
-0.04
0.2
0.08
-0.68

> <PUBCHEM_SHAPE_SELFOVERLAP>
571.968

> <PUBCHEM_SHAPE_VOLUME>
154.4

> <PUBCHEM_COORDINATE_TYPE>
2
5
10

$$$$
