REMARK  Name = 122044
REMARK  10 active torsions:
REMARK  status: ('A' for Active; 'I' for Inactive)
REMARK    1  A    between atoms: C_4  and  O_22
REMARK    2  A    between atoms: C_5  and  O_31
REMARK    3  A    between atoms: N_7  and  S_9
REMARK    4  A    between atoms: S_9  and  C_15
REMARK    5  A    between atoms: C_12  and  C_18
REMARK    6  A    between atoms: O_22  and  C_23
REMARK    7  A    between atoms: C_26  and  O_29
REMARK    8  A    between atoms: O_31  and  C_32
REMARK    9  A    between atoms: C_32  and  C_33
REMARK   10  A    between atoms: C_33  and  O_34
REMARK                            x       y       z     vdW  Elec       q    Type
REMARK                         _______ _______ _______ _____ _____    ______ ____
ROOT
ATOM      1  N   UNL     1      -0.051   3.069  -0.923  0.00  0.00    -0.229 NA
ATOM      2  N   UNL     1       1.734   1.987  -2.128  0.00  0.00    -0.211 NA
ATOM      3  C   UNL     1       0.436   2.526   0.212  0.00  0.00    +0.171 C 
ATOM      4  C   UNL     1       1.552   1.715   0.257  0.00  0.00    +0.294 C 
ATOM      5  C   UNL     1       2.167   1.478  -0.956  0.00  0.00    +0.247 C 
ATOM      6  C   UNL     1       0.637   2.763  -2.040  0.00  0.00    +0.254 C 
ATOM      7  N   UNL     1      -0.287   2.843   1.414  0.00  0.00    -0.199 N 
ATOM      8  H   UNL     1       0.186   2.998   2.263  0.00  0.00    +0.175 HD
ENDROOT
BRANCH   7   9
ATOM      9  S   UNL     1      -2.004   2.943   1.324  0.00  0.00    +0.075 S 
ATOM     10  O   UNL     1      -2.530   2.933   2.684  0.00  0.00    -0.150 OA
ATOM     11  O   UNL     1      -2.383   4.033   0.433  0.00  0.00    -0.150 OA
BRANCH   9  15
ATOM     12  C   UNL     1      -3.139  -0.990  -0.630  0.00  0.00    -0.023 C 
ATOM     13  C   UNL     1      -3.052  -0.901   0.760  0.00  0.00    -0.003 C 
ATOM     14  C   UNL     1      -2.878   0.132  -1.418  0.00  0.00    -0.003 C 
ATOM     15  C   UNL     1      -2.442   1.430   0.572  0.00  0.00    +0.125 C 
ATOM     16  C   UNL     1      -2.703   0.309   1.361  0.00  0.00    +0.020 C 
ATOM     17  C   UNL     1      -2.530   1.341  -0.817  0.00  0.00    +0.020 C 
BRANCH  12  18
ATOM     18  C   UNL     1      -3.525  -2.322  -1.292  0.00  0.00    +0.019 C 
ATOM     19  C   UNL     1      -3.784  -3.468  -0.288  0.00  0.00    +0.004 C 
ATOM     20  C   UNL     1      -2.387  -2.785  -2.229  0.00  0.00    +0.004 C 
ATOM     21  C   UNL     1      -4.817  -2.138  -2.117  0.00  0.00    +0.004 C 
ENDBRANCH  12  18
ENDBRANCH   9  15
ENDBRANCH   7   9
BRANCH   4  22
ATOM     22  O   UNL     1       2.018   1.184   1.411  0.00  0.00    -0.462 OA
BRANCH  22  23
ATOM     23  C   UNL     1       2.081  -0.199   1.513  0.00  0.00    +0.143 C 
ATOM     24  C   UNL     1       1.005  -0.979   1.089  0.00  0.00    +0.074 C 
ATOM     25  C   UNL     1       3.219  -0.808   2.042  0.00  0.00    +0.037 C 
ATOM     26  C   UNL     1       1.067  -2.369   1.194  0.00  0.00    +0.142 C 
ATOM     27  C   UNL     1       3.281  -2.198   2.147  0.00  0.00    +0.006 C 
ATOM     28  C   UNL     1       2.205  -2.978   1.723  0.00  0.00    +0.037 C 
BRANCH  26  29
ATOM     29  O   UNL     1       0.017  -3.130   0.782  0.00  0.00    -0.471 OA
ATOM     30  C   UNL     1       0.147  -4.544   0.920  0.00  0.00    +0.252 C 
ENDBRANCH  26  29
ENDBRANCH  22  23
ENDBRANCH   4  22
BRANCH   5  31
ATOM     31  O   UNL     1       3.282   0.683  -1.007  0.00  0.00    -0.458 OA
BRANCH  31  32
ATOM     32  C   UNL     1       3.865   0.480  -2.289  0.00  0.00    +0.238 C 
BRANCH  32  33
ATOM     33  C   UNL     1       5.092  -0.398  -2.141  0.00  0.00    +0.185 C 
BRANCH  33  34
ATOM     34  O   UNL     1       4.707  -1.640  -1.563  0.00  0.00    -0.378 OA
ATOM     35  H   UNL     1       5.488  -2.207  -1.466  0.00  0.00    +0.211 HD
ENDBRANCH  33  34
ENDBRANCH  32  33
ENDBRANCH  31  32
ENDBRANCH   5  31
TORSDOF 10
