REMARK  Name = 122092
REMARK  10 active torsions:
REMARK  status: ('A' for Active; 'I' for Inactive)
REMARK    1  A    between atoms: C_2  and  C_22
REMARK    2  A    between atoms: C_3  and  O_18
REMARK    3  A    between atoms: C_4  and  O_20
REMARK    4  A    between atoms: C_5  and  N_6
REMARK    5  A    between atoms: C_22  and  N_23
REMARK    6  A    between atoms: N_23  and  C_26
REMARK    7  A    between atoms: C_26  and  C_27
REMARK    8  A    between atoms: C_27  and  C_28
REMARK    9  A    between atoms: C_28  and  N_29
REMARK   10  A    between atoms: N_29  and  N_31
REMARK                            x       y       z     vdW  Elec       q    Type
REMARK                         _______ _______ _______ _____ _____    ______ ____
ROOT
ATOM      1  O   UNL     1       0.376   1.648  -1.136  0.00  0.00    -0.338 OA
ATOM      2  C   UNL     1       1.731   1.764  -0.643  0.00  0.00    +0.126 C 
ATOM      3  C   UNL     1       1.640   1.723   0.880  0.00  0.00    +0.166 C 
ATOM      4  C   UNL     1       0.395   0.888   1.107  0.00  0.00    +0.187 C 
ATOM      5  C   UNL     1      -0.499   1.364  -0.028  0.00  0.00    +0.225 C 
ENDROOT
BRANCH   5   6
ATOM      6  N   UNL     1      -1.511   0.393  -0.436  0.00  0.00    -0.247 N 
ATOM      7  N   UNL     1      -2.434  -1.335  -1.506  0.00  0.00    -0.242 NA
ATOM      8  N   UNL     1      -3.407   1.111   0.903  0.00  0.00    -0.228 NA
ATOM      9  N   UNL     1      -5.360  -0.297   0.504  0.00  0.00    -0.229 NA
ATOM     10  C   UNL     1      -2.802   0.316   0.007  0.00  0.00    +0.152 C 
ATOM     11  C   UNL     1      -1.340  -0.620  -1.344  0.00  0.00    +0.223 C 
ATOM     12  C   UNL     1      -3.356  -0.761  -0.667  0.00  0.00    +0.140 C 
ATOM     13  C   UNL     1      -4.686  -1.059  -0.391  0.00  0.00    +0.143 C 
ATOM     14  C   UNL     1      -4.688   0.725   1.087  0.00  0.00    +0.253 C 
ATOM     15  N   UNL     1      -5.328  -2.135  -1.028  0.00  0.00    -0.342 N 
ATOM     16  H   UNL     1      -6.270  -2.337  -0.825  0.00  0.00    +0.144 HD
ATOM     17  H   UNL     1      -4.835  -2.687  -1.678  0.00  0.00    +0.144 HD
ENDBRANCH   5   6
BRANCH   3  18
ATOM     18  O   UNL     1       1.420   3.047   1.364  0.00  0.00    -0.380 OA
ATOM     19  H   UNL     1       2.217   3.581   1.219  0.00  0.00    +0.211 HD
ENDBRANCH   3  18
BRANCH   4  20
ATOM     20  O   UNL     1      -0.196   1.108   2.371  0.00  0.00    -0.378 OA
ATOM     21  H   UNL     1       0.402   0.793   3.067  0.00  0.00    +0.211 HD
ENDBRANCH   4  20
BRANCH   2  22
ATOM     22  C   UNL     1       2.552   0.619  -1.220  0.00  0.00    -0.045 C 
BRANCH  22  23
ATOM     23  N   UNL     1       3.892   0.663  -0.694  0.00  0.00    +0.387 N 
ATOM     24  C   UNL     1       4.558   1.928  -1.037  0.00  0.00    -0.101 C 
ATOM     25  H   UNL     1       3.817   0.595   0.321  0.00  0.00    -0.080 HD
BRANCH  23  26
ATOM     26  C   UNL     1       4.695  -0.466  -1.187  0.00  0.00    -0.076 C 
BRANCH  26  27
ATOM     27  C   UNL     1       4.061  -1.815  -0.840  0.00  0.00    -0.004 C 
BRANCH  27  28
ATOM     28  C   UNL     1       3.881  -2.020   0.665  0.00  0.00    +0.082 C 
BRANCH  28  29
ATOM     29  N   UNL     1       3.288  -3.327   0.928  0.00  0.00    -0.249 NA
ATOM     30  H   UNL     1       2.383  -3.395   0.462  0.00  0.00    +0.141 HD
BRANCH  29  31
ATOM     31  N   UNL     1       3.117  -3.464   2.338  0.00  0.00    -0.270 NA
ATOM     32  H   UNL     1       4.025  -3.394   2.799  0.00  0.00    +0.137 HD
ATOM     33  H   UNL     1       2.700  -4.372   2.543  0.00  0.00    +0.137 HD
ENDBRANCH  29  31
ENDBRANCH  28  29
ENDBRANCH  27  28
ENDBRANCH  26  27
ENDBRANCH  23  26
ENDBRANCH  22  23
ENDBRANCH   2  22
TORSDOF 10
