REMARK  Name = 122084
REMARK  11 active torsions:
REMARK  status: ('A' for Active; 'I' for Inactive)
REMARK    1  A    between atoms: C_1  and  C_22
REMARK    2  A    between atoms: C_2  and  S_11
REMARK    3  A    between atoms: C_5  and  O_7
REMARK    4  A    between atoms: C_6  and  O_9
REMARK    5  A    between atoms: S_11  and  C_12
REMARK    6  A    between atoms: C_12  and  C_13
REMARK    7  A    between atoms: C_13  and  N_14
REMARK    8  A    between atoms: C_13  and  C_19
REMARK    9  A    between atoms: C_19  and  O_20
REMARK   10  A    between atoms: C_22  and  C_23
REMARK   11  A    between atoms: C_23  and  N_24
REMARK                            x       y       z     vdW  Elec       q    Type
REMARK                         _______ _______ _______ _____ _____    ______ ____
ROOT
ATOM      1  C   UNK     1       2.332   0.514  -0.429  0.00  0.00    -0.021 C 
ATOM      2  C   UNK     1       0.318  -0.820  -0.378  0.00  0.00    +0.062 C 
ATOM      3  C   UNK     1       0.945   0.416  -0.536  0.00  0.00    +0.005 C 
ATOM      4  C   UNK     1       3.093  -0.625  -0.163  0.00  0.00    +0.035 C 
ATOM      5  C   UNK     1       1.079  -1.958  -0.113  0.00  0.00    +0.173 C 
ATOM      6  C   UNK     1       2.466  -1.861  -0.005  0.00  0.00    +0.168 C 
ENDROOT
BRANCH   5   7
ATOM      7  O   UNK     1       0.487  -3.179   0.044  0.00  0.00    -0.503 OA
ATOM      8  H   UNK     1      -0.444  -3.260  -0.025  0.00  0.00    +0.292 HD
ENDBRANCH   5   7
BRANCH   6   9
ATOM      9  O   UNK     1       3.223  -2.964   0.254  0.00  0.00    -0.503 OA
ATOM     10  H   UNK     1       4.154  -2.887   0.324  0.00  0.00    +0.292 HD
ENDBRANCH   6   9
BRANCH   2  11
ATOM     11  S   UNK     1      -1.462  -0.903  -0.524  0.00  0.00    -0.112 S 
BRANCH  11  12
ATOM     12  C   UNK     1      -1.979   0.226   0.812  0.00  0.00    +0.051 C 
BRANCH  12  13
ATOM     13  C   UNK     1      -3.498   0.370   0.944  0.00  0.00    +0.047 C 
BRANCH  13  14
ATOM     14  N   UNK     1      -4.119  -0.853   1.387  0.00  0.00    +0.389 N 
ATOM     15  H   UNK     1      -3.660  -1.179   2.238  0.00  0.00    -0.088 HD
ATOM     16  H   UNK     1      -4.029  -1.563   0.660  0.00  0.00    -0.088 HD
ATOM     17  H   UNK     1      -5.107  -0.684   1.577  0.00  0.00    -0.088 HD
ENDBRANCH  13  14
BRANCH  13  19
ATOM     18  O   UNK     1      -5.005   0.308  -0.954  0.00  0.00    -0.253 OA
ATOM     19  C   UNK     1      -4.140   0.905  -0.324  0.00  0.00    +0.294 C 
BRANCH  19  20
ATOM     20  O   UNK     1      -3.651   2.109  -0.705  0.00  0.00    -0.482 OA
ATOM     21  H   UNK     1      -2.989   2.530  -0.192  0.00  0.00    +0.295 HD
ENDBRANCH  19  20
ENDBRANCH  13  19
ENDBRANCH  12  13
ENDBRANCH  11  12
ENDBRANCH   2  11
BRANCH   1  22
ATOM     22  C   UNK     1       3.002   1.835  -0.597  0.00  0.00    +0.003 C 
BRANCH  22  23
ATOM     23  C   UNK     1       3.137   2.588   0.734  0.00  0.00    -0.081 C 
BRANCH  23  24
ATOM     24  N   UNK     1       3.771   3.890   0.552  0.00  0.00    +0.381 N 
ATOM     25  H   UNK     1       3.845   4.361   1.453  0.00  0.00    -0.089 HD
ATOM     26  H   UNK     1       3.208   4.456  -0.083  0.00  0.00    -0.089 HD
ATOM     27  H   UNK     1       4.703   3.762   0.158  0.00  0.00    -0.089 HD
ENDBRANCH  23  24
ENDBRANCH  22  23
ENDBRANCH   1  22
TORSDOF 11
