122084
  -OEChem-03292013323D

 34 34  0     1  0  0  0  0  0999 V2000
   -1.4618   -0.9027   -0.5240 S   0  0  0  0  0  0  0  0  0  0  0  0
    0.4873   -3.1785    0.0445 O   0  0  0  0  0  0  0  0  0  0  0  0
    3.2228   -2.9639    0.2540 O   0  0  0  0  0  0  0  0  0  0  0  0
   -3.6508    2.1094   -0.7054 O   0  0  0  0  0  0  0  0  0  0  0  0
   -5.0052    0.3082   -0.9538 O   0  0  0  0  0  0  0  0  0  0  0  0
   -4.1188   -0.8534    1.3874 N   0  0  0  0  0  0  0  0  0  0  0  0
    3.7711    3.8899    0.5519 N   0  0  0  0  0  0  0  0  0  0  0  0
    2.3319    0.5139   -0.4289 C   0  0  0  0  0  0  0  0  0  0  0  0
    3.0025    1.8353   -0.5971 C   0  0  0  0  0  0  0  0  0  0  0  0
    0.3181   -0.8198   -0.3778 C   0  0  0  0  0  0  0  0  0  0  0  0
    0.9445    0.4163   -0.5360 C   0  0  0  0  0  0  0  0  0  0  0  0
   -1.9793    0.2256    0.8121 C   0  0  0  0  0  0  0  0  0  0  0  0
   -3.4975    0.3697    0.9443 C   0  0  1  0  0  0  0  0  0  0  0  0
    3.0927   -0.6247   -0.1632 C   0  0  0  0  0  0  0  0  0  0  0  0
    3.1374    2.5884    0.7339 C   0  0  0  0  0  0  0  0  0  0  0  0
    1.0789   -1.9584   -0.1125 C   0  0  0  0  0  0  0  0  0  0  0  0
    2.4662   -1.8608   -0.0051 C   0  0  0  0  0  0  0  0  0  0  0  0
   -4.1402    0.9053   -0.3244 C   0  0  0  0  0  0  0  0  0  0  0  0
    3.9933    1.6916   -1.0485 H   0  0  0  0  0  0  0  0  0  0  0  0
    2.4389    2.4440   -1.3170 H   0  0  0  0  0  0  0  0  0  0  0  0
    0.3653    1.3108   -0.7543 H   0  0  0  0  0  0  0  0  0  0  0  0
   -1.5555   -0.1377    1.7560 H   0  0  0  0  0  0  0  0  0  0  0  0
   -1.5433    1.2124    0.6241 H   0  0  0  0  0  0  0  0  0  0  0  0
   -3.6976    1.1198    1.7201 H   0  0  0  0  0  0  0  0  0  0  0  0
    4.1743   -0.5547   -0.0763 H   0  0  0  0  0  0  0  0  0  0  0  0
    3.7305    2.0020    1.4450 H   0  0  0  0  0  0  0  0  0  0  0  0
    2.1517    2.7374    1.1895 H   0  0  0  0  0  0  0  0  0  0  0  0
   -3.9763   -1.5904    0.6981 H   0  0  0  0  0  0  0  0  0  0  0  0
   -5.1264   -0.7273    1.4731 H   0  0  0  0  0  0  0  0  0  0  0  0
    3.2280    4.4432   -0.1101 H   0  0  0  0  0  0  0  0  0  0  0  0
    4.6879    3.7649    0.1239 H   0  0  0  0  0  0  0  0  0  0  0  0
   -0.4737   -3.0672   -0.0584 H   0  0  0  0  0  0  0  0  0  0  0  0
    2.6286   -3.7302    0.3336 H   0  0  0  0  0  0  0  0  0  0  0  0
   -4.0731    2.4329   -1.5296 H   0  0  0  0  0  0  0  0  0  0  0  0
  1 10  1  0  0  0  0
  1 12  1  0  0  0  0
  2 16  1  0  0  0  0
  2 32  1  0  0  0  0
  3 17  1  0  0  0  0
  3 33  1  0  0  0  0
  4 18  1  0  0  0  0
  4 34  1  0  0  0  0
  5 18  2  0  0  0  0
  6 13  1  0  0  0  0
  6 28  1  0  0  0  0
  6 29  1  0  0  0  0
  7 15  1  0  0  0  0
  7 30  1  0  0  0  0
  7 31  1  0  0  0  0
  8  9  1  0  0  0  0
  8 11  1  0  0  0  0
  8 14  2  0  0  0  0
  9 15  1  0  0  0  0
  9 19  1  0  0  0  0
  9 20  1  0  0  0  0
 10 11  2  0  0  0  0
 10 16  1  0  0  0  0
 11 21  1  0  0  0  0
 12 13  1  0  0  0  0
 12 22  1  0  0  0  0
 12 23  1  0  0  0  0
 13 18  1  0  0  0  0
 13 24  1  0  0  0  0
 14 17  1  0  0  0  0
 14 25  1  0  0  0  0
 15 26  1  0  0  0  0
 15 27  1  0  0  0  0
 16 17  2  0  0  0  0
M  END
> <PUBCHEM_COMPOUND_CID>
122084

> <PUBCHEM_CONFORMER_RMSD>
0.8

> <PUBCHEM_CONFORMER_DIVERSEORDER>
1
34
25
133
122
131
71
104
46
3
119
30
116
68
95
141
49
55
125
98
50
84
96
103
121
80
115
57
37
10
40
26
12
129
136
107
75
45
59
126
138
60
101
6
143
42
108
118
53
99
24
123
105
27
74
90
72
117
20
82
13
100
63
106
137
11
130
21
36
91
56
140
109
127
120
81
39
113
112
94
86
33
47
128
58
139
88
73
35
15
7
111
14
9
18
134
124
29
85
16
23
44
4
114
66
51
19
65
76
48
69
87
17
142
132
67
38
52
54
93
41
28
22
79
2
64
43
97
31
32
5
102
92
83
89
110
77
135
8
61
70
78
62

> <PUBCHEM_MMFF94_PARTIAL_CHARGES>
27
1 -0.33
10 0.1
11 -0.15
12 0.23
13 0.33
14 -0.15
15 0.27
16 0.08
17 0.08
18 0.66
2 -0.53
21 0.15
25 0.15
28 0.36
29 0.36
3 -0.53
30 0.36
31 0.36
32 0.45
33 0.45
34 0.5
4 -0.65
5 -0.57
6 -0.99
7 -0.99
8 -0.14
9 0.14

> <PUBCHEM_EFFECTIVE_ROTOR_COUNT>
6

> <PUBCHEM_PHARMACOPHORE_FEATURES>
10
1 2 donor
1 3 donor
1 4 acceptor
1 5 acceptor
1 6 cation
1 6 donor
1 7 cation
1 7 donor
3 4 5 18 anion
6 8 10 11 14 16 17 rings

> <PUBCHEM_HEAVY_ATOM_COUNT>
18

> <PUBCHEM_ATOM_DEF_STEREO_COUNT>
1

> <PUBCHEM_ATOM_UDEF_STEREO_COUNT>
0

> <PUBCHEM_BOND_DEF_STEREO_COUNT>
0

> <PUBCHEM_BOND_UDEF_STEREO_COUNT>
0

> <PUBCHEM_ISOTOPIC_ATOM_COUNT>
0

> <PUBCHEM_COMPONENT_COUNT>
1

> <PUBCHEM_CACTVS_TAUTO_COUNT>
18

> <PUBCHEM_CONFORMER_ID>
0001DCE400000001

> <PUBCHEM_MMFF94_ENERGY>
32.2012

> <PUBCHEM_FEATURE_SELFOVERLAP>
50.81

> <PUBCHEM_SHAPE_FINGERPRINT>
10608611 8 18261397706862466901
11471102 20 18335984151542569414
12390115 104 17836383905365800664
12403259 327 16009304434778256352
13134695 92 18193834838917886686
13140716 1 18264487468050028762
13583140 156 18335988592865755367
13965767 371 18115852157360045508
14123255 52 18339642377183871584
14178342 30 17971475358377943354
14251764 38 18338791217893264873
18186145 218 18272384086712523196
192875 21 18128253389731379369
200 152 18199742553917774319
20510252 161 17477207597344999682
20621476 13 18410849958355027901
20645477 70 18336828581036791487
20681677 76 18334298669342477027
21065201 7 16588033381396833763
21401589 2 17698160995623587576
21524375 3 18128541655214941044
21639500 275 18412259510881120949
21864079 5 17774179919581811273
22096605 113 18411417302417981101
22892500 29 18336544910962033919
22943178 12 18040444278324618459
23557571 272 17530977899310003129
23559900 14 18337104545522709291
474 4 18341888649469430192
49207404 50 18260840340092249961
495365 180 18335693923569838581
5104073 3 18334303050409508361
633830 44 17845395317750954177
7471813 234 17986940865210858257
7808743 9 17832711549403758036
84936 182 18272085028377476024
9709674 26 18264213500523391423
9981440 41 18051399966765607010

> <PUBCHEM_SHAPE_MULTIPOLES>
340.84
8.84
3.58
0.97
8.78
0.74
-0.11
4.99
-0.4
-5.3
-0.53
0.7
0.19
0.83

> <PUBCHEM_SHAPE_SELFOVERLAP>
682.997

> <PUBCHEM_SHAPE_VOLUME>
201.6

> <PUBCHEM_COORDINATE_TYPE>
2
5
10

$$$$
