REMARK  Name = 122031
REMARK  5 active torsions:
REMARK  status: ('A' for Active; 'I' for Inactive)
REMARK    1  A    between atoms: C_3  and  O_28
REMARK    2  A    between atoms: C_4  and  N_13
REMARK    3  A    between atoms: C_11  and  C_31
REMARK    4  A    between atoms: N_14  and  C_20
REMARK    5  A    between atoms: N_15  and  C_27
REMARK                            x       y       z     vdW  Elec       q    Type
REMARK                         _______ _______ _______ _____ _____    ______ ____
ROOT
ATOM      1  O   UNL     1      -3.210  -0.723  -1.770  0.00  0.00    -0.480 OA
ATOM      2  C   UNL     1      -2.189  -1.734  -1.853  0.00  0.00    +0.160 C 
ATOM      3  C   UNL     1      -1.694  -2.167  -0.455  0.00  0.00    +0.173 C 
ATOM      4  C   UNL     1      -1.222  -0.988   0.403  0.00  0.00    +0.162 C 
ATOM      5  C   UNL     1      -2.084   0.227   0.180  0.00  0.00    +0.037 C 
ATOM      6  C   UNL     1      -1.053  -1.213  -2.751  0.00  0.00    +0.046 C 
ATOM      7  C   UNL     1      -2.849  -2.924  -2.574  0.00  0.00    +0.046 C 
ATOM      8  C   UNL     1      -3.011   0.285  -0.866  0.00  0.00    +0.136 C 
ATOM      9  C   UNL     1      -1.968   1.326   1.046  0.00  0.00    +0.011 C 
ATOM     10  C   UNL     1      -3.825   1.412  -1.025  0.00  0.00    +0.037 C 
ATOM     11  C   UNL     1      -2.772   2.454   0.877  0.00  0.00    +0.068 C 
ATOM     12  C   UNL     1      -3.702   2.495  -0.157  0.00  0.00    +0.013 C 
ENDROOT
BRANCH   4  13
ATOM     13  N   UNL     1       0.191  -0.711   0.110  0.00  0.00    -0.234 NA
ATOM     14  N   UNL     1       2.449  -1.212   0.734  0.00  0.00    -0.324 N 
ATOM     15  N   UNL     1       0.611  -2.299   1.789  0.00  0.00    -0.263 N 
ATOM     16  C   UNL     1       1.072  -1.360   0.795  0.00  0.00    +0.212 C 
ATOM     17  H   UNL     1       2.966  -1.894   1.223  0.00  0.00    +0.169 HD
ATOM     18  H   UNL     1      -0.280  -2.713   1.730  0.00  0.00    +0.181 HD
BRANCH  14  20
ATOM     19 CL   UNL     1       5.687   2.908  -2.023  0.00  0.00    -0.082 Cl
ATOM     20  C   UNL     1       3.222  -0.229   0.076  0.00  0.00    +0.059 C 
ATOM     21  C   UNL     1       4.557  -0.484  -0.229  0.00  0.00    +0.018 C 
ATOM     22  C   UNL     1       2.646   0.993  -0.266  0.00  0.00    +0.018 C 
ATOM     23  C   UNL     1       5.320   0.486  -0.879  0.00  0.00    +0.013 C 
ATOM     24  C   UNL     1       3.409   1.963  -0.916  0.00  0.00    +0.013 C 
ATOM     25  C   UNL     1       4.746   1.710  -1.222  0.00  0.00    +0.058 C 
ENDBRANCH  14  20
BRANCH  15  27
ATOM     26  N   UNL     1       2.167  -2.839   3.674  0.00  0.00    -0.171 NA
ATOM     27  C   UNL     1       1.450  -2.586   2.797  0.00  0.00    +0.184 C 
ENDBRANCH  15  27
ENDBRANCH   4  13
BRANCH   3  28
ATOM     28  O   UNL     1      -2.764  -2.819   0.241  0.00  0.00    -0.379 OA
ATOM     29  H   UNL     1      -3.080  -3.571  -0.283  0.00  0.00    +0.211 HD
ENDBRANCH   3  28
BRANCH  11  31
ATOM     30  N   UNL     1      -2.539   4.465   2.493  0.00  0.00    -0.191 NA
ATOM     31  C   UNL     1      -2.643   3.563   1.768  0.00  0.00    +0.100 C 
ENDBRANCH  11  31
TORSDOF 5
