REMARK  Name = 122038
REMARK  3 active torsions:
REMARK  status: ('A' for Active; 'I' for Inactive)
REMARK    1  A    between atoms: C_16  and  N_26
REMARK    2  A    between atoms: C_22  and  O_31
REMARK    3  A    between atoms: C_23  and  O_33
REMARK                            x       y       z     vdW  Elec       q    Type
REMARK                         _______ _______ _______ _____ _____    ______ ____
ROOT
ATOM      1  O   UNL     1       1.089  -0.163   2.082  0.00  0.00    -0.440 OA
ATOM      2  O   UNL     1       3.630   0.070  -1.096  0.00  0.00    -0.454 OA
ATOM      3  O   UNL     1      -0.672  -0.270   3.581  0.00  0.00    -0.245 OA
ATOM      4  C   UNL     1       1.280  -0.053   0.636  0.00  0.00    +0.198 C 
ATOM      5  C   UNL     1      -0.132  -0.011   0.148  0.00  0.00    +0.028 C 
ATOM      6  C   UNL     1       2.041   1.228   0.355  0.00  0.00    +0.056 C 
ATOM      7  C   UNL     1       2.032  -1.282   0.164  0.00  0.00    +0.056 C 
ATOM      8  C   UNL     1      -1.001  -0.089   1.221  0.00  0.00    +0.077 C 
ATOM      9  C   UNL     1       3.148   1.210  -0.501  0.00  0.00    +0.148 C 
ATOM     10  C   UNL     1       3.140  -1.144  -0.679  0.00  0.00    +0.148 C 
ATOM     11  C   UNL     1      -0.232  -0.186   2.452  0.00  0.00    +0.342 C 
ATOM     12  C   UNL     1      -0.627   0.089  -1.143  0.00  0.00    +0.001 C 
ATOM     13  C   UNL     1       1.646   2.458   0.910  0.00  0.00    +0.006 C 
ATOM     14  C   UNL     1       1.628  -2.580   0.527  0.00  0.00    +0.006 C 
ATOM     15  C   UNL     1      -2.376  -0.073   1.074  0.00  0.00    +0.022 C 
ATOM     16  C   UNL     1      -2.881   0.028  -0.223  0.00  0.00    +0.061 C 
ATOM     17  C   UNL     1      -2.013   0.108  -1.324  0.00  0.00    +0.015 C 
ATOM     18  C   UNL     1       3.837   2.390  -0.804  0.00  0.00    +0.074 C 
ATOM     19  C   UNL     1       3.821  -2.269  -1.157  0.00  0.00    +0.074 C 
ATOM     20  C   UNL     1       2.337   3.634   0.614  0.00  0.00    +0.037 C 
ATOM     21  C   UNL     1       2.312  -3.702   0.056  0.00  0.00    +0.037 C 
ATOM     22  C   UNL     1       3.432   3.599  -0.245  0.00  0.00    +0.137 C 
ATOM     23  C   UNL     1       3.408  -3.546  -0.787  0.00  0.00    +0.137 C 
ENDROOT
BRANCH  16  26
ATOM     24  O   UNL     1      -4.514   1.393  -2.380  0.00  0.00    -0.269 OA
ATOM     25  O   UNL     1      -5.112  -1.279   1.358  0.00  0.00    -0.269 OA
ATOM     26  N   UNL     1      -4.298   0.049  -0.434  0.00  0.00    -0.201 N 
ATOM     27  C   UNL     1      -4.938   0.697  -1.472  0.00  0.00    +0.259 C 
ATOM     28  C   UNL     1      -5.232  -0.575   0.369  0.00  0.00    +0.259 C 
ATOM     29  C   UNL     1      -6.377   0.452  -1.303  0.00  0.00    +0.063 C 
ATOM     30  C   UNL     1      -6.551  -0.287  -0.212  0.00  0.00    +0.063 C 
ENDBRANCH  16  26
BRANCH  22  31
ATOM     31  O   UNL     1       4.105   4.745  -0.538  0.00  0.00    -0.505 OA
ATOM     32  H   UNL     1       4.841   4.721  -1.117  0.00  0.00    +0.292 HD
ENDBRANCH  22  31
BRANCH  23  33
ATOM     33  O   UNL     1       4.073  -4.639  -1.250  0.00  0.00    -0.505 OA
ATOM     34  H   UNL     1       4.810  -4.533  -1.818  0.00  0.00    +0.292 HD
ENDBRANCH  23  33
TORSDOF 3
