REMARK  Name = 122088
REMARK  3 active torsions:
REMARK  status: ('A' for Active; 'I' for Inactive)
REMARK    1  A    between atoms: N_1  and  C_15
REMARK    2  A    between atoms: C_18  and  C_19
REMARK    3  A    between atoms: C_19  and  O_20
REMARK                            x       y       z     vdW  Elec       q    Type
REMARK                         _______ _______ _______ _____ _____    ______ ____
ROOT
ATOM      1  N   UNL     1      -0.072   0.293  -0.057  0.00  0.00    -0.238 N 
ATOM      2  N   UNL     1       1.163   2.131   0.235  0.00  0.00    -0.240 NA
ATOM      3  N   UNL     1       1.696  -1.364  -0.243  0.00  0.00    -0.311 NA
ATOM      4  N   UNL     1       3.901  -0.340  -0.038  0.00  0.00    -0.312 NA
ATOM      5  N   UNL     1       3.650  -2.645  -0.368  0.00  0.00    -0.283 N 
ATOM      6  C   UNL     1       1.234  -0.115  -0.079  0.00  0.00    +0.221 C 
ATOM      7  C   UNL     1      -0.059   1.652   0.134  0.00  0.00    +0.224 C 
ATOM      8  C   UNL     1       1.981   1.038   0.104  0.00  0.00    +0.167 C 
ATOM      9  C   UNL     1       3.365   0.894   0.122  0.00  0.00    +0.212 C 
ATOM     10  C   UNL     1       3.046  -1.377  -0.208  0.00  0.00    +0.199 C 
ATOM     11  H   UNL     1       3.089  -3.445  -0.497  0.00  0.00    +0.156 HD
ATOM     12  H   UNL     1       4.630  -2.729  -0.352  0.00  0.00    +0.156 HD
ATOM     13  N   UNL     1       4.200   2.010   0.303  0.00  0.00    -0.331 N 
ATOM     14  H   UNL     1       5.178   1.896   0.314  0.00  0.00    +0.145 HD
ATOM     15  H   UNL     1       3.808   2.905   0.419  0.00  0.00    +0.145 HD
ENDROOT
BRANCH   1  18
ATOM     16  F   UNL     1      -3.338  -2.469   0.040  0.00  0.00    -0.234 F 
ATOM     17  O   UNL     1      -2.291   0.186  -0.888  0.00  0.00    -0.335 OA
ATOM     18  C   UNL     1      -1.255  -0.545  -0.209  0.00  0.00    +0.198 C 
ATOM     19  C   UNL     1      -1.853  -1.030   1.103  0.00  0.00    +0.089 C 
ATOM     20  C   UNL     1      -3.284  -1.275   0.698  0.00  0.00    +0.195 C 
ATOM     21  C   UNL     1      -3.563  -0.169  -0.307  0.00  0.00    +0.179 C 
BRANCH  21  22
ATOM     22  C   UNL     1      -4.154   1.077   0.334  0.00  0.00    +0.170 C 
BRANCH  22  23
ATOM     23  O   UNL     1      -4.368   2.050  -0.674  0.00  0.00    -0.379 OA
ATOM     24  H   UNL     1      -4.745   2.850  -0.277  0.00  0.00    +0.211 HD
ENDBRANCH  22  23
ENDBRANCH  21  22
ENDBRANCH   1  18
TORSDOF 3
