REMARK  Name = 122021
REMARK  15 active torsions:
REMARK  status: ('A' for Active; 'I' for Inactive)
REMARK    1  A    between atoms: N_3  and  N_8
REMARK    2  A    between atoms: N_4  and  C_30
REMARK    3  A    between atoms: C_5  and  C_20
REMARK    4  A    between atoms: N_8  and  C_10
REMARK    5  A    between atoms: C_10  and  C_11
REMARK    6  A    between atoms: C_11  and  C_12
REMARK    7  A    between atoms: C_11  and  O_18
REMARK    8  A    between atoms: C_20  and  C_21
REMARK    9  A    between atoms: C_21  and  C_22
REMARK   10  A    between atoms: C_22  and  C_23
REMARK   11  A    between atoms: C_23  and  C_24
REMARK   12  A    between atoms: C_24  and  C_25
REMARK   13  A    between atoms: C_25  and  C_27
REMARK   14  A    between atoms: C_27  and  O_28
REMARK   15  A    between atoms: C_30  and  C_31
REMARK                            x       y       z     vdW  Elec       q    Type
REMARK                         _______ _______ _______ _____ _____    ______ ____
ROOT
ATOM      1  O   UNL     1      -0.999   1.754   2.818  0.00  0.00    -0.273 OA
ATOM      2  O   UNL     1       0.297   2.406  -1.555  0.00  0.00    -0.251 OA
ATOM      3  N   UNL     1       1.207   1.172   0.224  0.00  0.00    -0.201 N 
ATOM      4  N   UNL     1      -0.668   2.306   0.572  0.00  0.00    -0.207 N 
ATOM      5  C   UNL     1       0.926   0.895   1.607  0.00  0.00    +0.170 C 
ATOM      6  C   UNL     1      -0.365   1.694   1.772  0.00  0.00    +0.252 C 
ATOM      7  C   UNL     1       0.278   2.009  -0.397  0.00  0.00    +0.327 C 
ENDROOT
BRANCH   3   8
ATOM      8  N   UNL     1       2.300   0.657  -0.432  0.00  0.00    -0.223 NA
ATOM      9  H   UNL     1       2.068   0.519  -1.415  0.00  0.00    +0.145 HD
BRANCH   8  10
ATOM     10  C   UNL     1       3.427   1.573  -0.326  0.00  0.00    +0.117 C 
BRANCH  10  11
ATOM     11  C   UNL     1       4.652   1.071  -1.093  0.00  0.00    +0.128 C 
BRANCH  11  12
ATOM     12  C   UNL     1       5.133  -0.300  -0.623  0.00  0.00    +0.028 C 
ATOM     13  C   UNL     1       5.526  -0.257   0.860  0.00  0.00    +0.002 C 
ATOM     14  C   UNL     1       6.306  -0.788  -1.485  0.00  0.00    +0.002 C 
ATOM     15  C   UNL     1       6.061  -1.604   1.341  0.00  0.00    +0.000 C 
ATOM     16  C   UNL     1       6.839  -2.135  -1.000  0.00  0.00    +0.000 C 
ATOM     17  C   UNL     1       7.220  -2.090   0.476  0.00  0.00    +0.000 C 
ENDBRANCH  11  12
BRANCH  11  18
ATOM     18  O   UNL     1       4.312   0.959  -2.475  0.00  0.00    -0.383 OA
ATOM     19  H   UNL     1       5.082   0.641  -2.972  0.00  0.00    +0.210 HD
ENDBRANCH  11  18
ENDBRANCH  10  11
ENDBRANCH   8  10
ENDBRANCH   3   8
BRANCH   5  20
ATOM     20  C   UNL     1       0.701  -0.579   1.903  0.00  0.00    +0.031 C 
BRANCH  20  21
ATOM     21  C   UNL     1      -0.312  -1.196   0.938  0.00  0.00    +0.002 C 
BRANCH  21  22
ATOM     22  C   UNL     1      -0.562  -2.670   1.265  0.00  0.00    +0.000 C 
BRANCH  22  23
ATOM     23  C   UNL     1      -1.565  -3.342   0.323  0.00  0.00    +0.001 C 
BRANCH  23  24
ATOM     24  C   UNL     1      -2.975  -2.744   0.313  0.00  0.00    +0.012 C 
BRANCH  24  25
ATOM     25  C   UNL     1      -3.946  -3.488  -0.602  0.00  0.00    +0.109 C 
BRANCH  25  27
ATOM     26  O   UNL     1      -5.829  -2.274   0.351  0.00  0.00    -0.250 OA
ATOM     27  C   UNL     1      -5.321  -2.860  -0.595  0.00  0.00    +0.314 C 
BRANCH  27  28
ATOM     28  O   UNL     1      -5.945  -3.019  -1.791  0.00  0.00    -0.480 OA
ATOM     29  H   UNL     1      -5.516  -3.476  -2.487  0.00  0.00    +0.295 HD
ENDBRANCH  27  28
ENDBRANCH  25  27
ENDBRANCH  24  25
ENDBRANCH  23  24
ENDBRANCH  22  23
ENDBRANCH  21  22
ENDBRANCH  20  21
ENDBRANCH   5  20
BRANCH   4  30
ATOM     30  C   UNL     1      -1.825   3.150   0.353  0.00  0.00    +0.129 C 
BRANCH  30  31
ATOM     31  C   UNL     1      -3.028   2.355  -0.067  0.00  0.00    -0.002 C 
ATOM     32  C   UNL     1      -3.270   2.119  -1.420  0.00  0.00    -0.003 C 
ATOM     33  C   UNL     1      -3.903   1.853   0.896  0.00  0.00    -0.003 C 
ATOM     34  C   UNL     1      -4.388   1.381  -1.811  0.00  0.00    -0.000 C 
ATOM     35  C   UNL     1      -5.021   1.115   0.506  0.00  0.00    -0.000 C 
ATOM     36  C   UNL     1      -5.263   0.879  -0.848  0.00  0.00    -0.000 C 
ENDBRANCH  30  31
ENDBRANCH   4  30
TORSDOF 15
