REMARK  Name = 122057
REMARK  7 active torsions:
REMARK  status: ('A' for Active; 'I' for Inactive)
REMARK    1  A    between atoms: CA_1  and  C_8
REMARK    2  A    between atoms: CA_1  and  N_14
REMARK    3  A    between atoms: CA_1  and  CB_24
REMARK    4  A    between atoms: CA_4  and  C_10
REMARK    5  A    between atoms: C_10  and  O_11
REMARK    6  A    between atoms: C_15  and  CA_19
REMARK    7  A    between atoms: CB_24  and  CG_27
REMARK                            x       y       z     vdW  Elec       q    Type
REMARK                         _______ _______ _______ _____ _____    ______ ____
ROOT
ATOM      1  CA  UNL     1       0.369   0.717   0.087  0.00  0.00    +0.151 C 
ENDROOT
BRANCH   1   8
ATOM      2  O   UNL     1       0.088  -1.209   1.458  0.00  0.00    -0.273 OA
ATOM      3  N   UNL     1       1.482  -1.414  -0.377  0.00  0.00    -0.270 N 
ATOM      4  CA  UNL     1       1.708  -2.849  -0.256  0.00  0.00    +0.175 C 
ATOM      5  CB  UNL     1       2.311  -3.261  -1.593  0.00  0.00    +0.033 C 
ATOM      6  CD  UNL     1       2.136  -0.877  -1.568  0.00  0.00    +0.094 C 
ATOM      7  CG  UNL     1       3.037  -2.001  -2.059  0.00  0.00    +0.024 C 
ATOM      8  C   UNL     1       0.622  -0.722   0.461  0.00  0.00    +0.244 C 
BRANCH   4  10
ATOM      9  OXT UNL     1       3.536  -2.254   1.210  0.00  0.00    -0.248 OA
ATOM     10  C   UNL     1       2.672  -3.050   0.875  0.00  0.00    +0.332 C 
BRANCH  10  11
ATOM     11  O   UNL     1       2.458  -4.244   1.480  0.00  0.00    -0.479 OA
ATOM     12  H   UNL     1       1.777  -4.809   1.172  0.00  0.00    +0.295 HD
ENDBRANCH  10  11
ENDBRANCH   4  10
ENDBRANCH   1   8
BRANCH   1  14
ATOM     13  O   UNL     1      -2.016   0.138  -1.464  0.00  0.00    -0.273 OA
ATOM     14  N   UNL     1      -0.994   0.946   0.467  0.00  0.00    -0.297 N 
ATOM     15  C   UNL     1      -2.081   0.636  -0.343  0.00  0.00    +0.241 C 
ATOM     16  H   UNL     1      -1.170   1.345   1.350  0.00  0.00    +0.150 HD
BRANCH  15  19
ATOM     17  O   UNL     1      -5.883  -1.214  -0.955  0.00  0.00    -0.275 OA
ATOM     18  N   UNL     1      -4.415   0.581  -0.630  0.00  0.00    -0.298 N 
ATOM     19  CA  UNL     1      -3.390   0.954   0.305  0.00  0.00    +0.149 C 
ATOM     20  C   UNL     1      -3.672   0.085   1.516  0.00  0.00    +0.039 C 
ATOM     21  C   UNL     1      -4.366  -1.150   0.942  0.00  0.00    +0.087 C 
ATOM     22  C   UNL     1      -5.016  -0.634  -0.319  0.00  0.00    +0.223 C 
ATOM     23  H   UNL     1      -4.665   1.128  -1.409  0.00  0.00    +0.150 HD
ENDBRANCH  15  19
ENDBRANCH   1  14
BRANCH   1  24
ATOM     24  CB  UNL     1       1.346   1.632   0.808  0.00  0.00    +0.059 C 
BRANCH  24  27
ATOM     25  ND1 UNL     1       1.481   3.323  -0.976  0.00  0.00    -0.246 NA
ATOM     26  NE2 UNL     1       2.878   4.608   0.298  0.00  0.00    -0.225 NA
ATOM     27  CG  UNL     1       1.134   3.094   0.441  0.00  0.00    +0.148 C 
ATOM     28  CD2 UNL     1       2.118   3.985   1.126  0.00  0.00    +0.098 C 
ATOM     29  CE1 UNL     1       2.456   4.179  -0.933  0.00  0.00    +0.194 C 
ENDBRANCH  24  27
ENDBRANCH   1  24
TORSDOF 7
