REMARK  Name = 122071
REMARK  7 active torsions:
REMARK  status: ('A' for Active; 'I' for Inactive)
REMARK    1  A    between atoms: N_3  and  C_24
REMARK    2  A    between atoms: N_4  and  C_27
REMARK    3  A    between atoms: C_11  and  C_14
REMARK    4  A    between atoms: C_19  and  C_21
REMARK    5  A    between atoms: C_21  and  O_22
REMARK    6  A    between atoms: C_24  and  C_25
REMARK    7  A    between atoms: C_27  and  C_28
REMARK                            x       y       z     vdW  Elec       q    Type
REMARK                         _______ _______ _______ _____ _____    ______ ____
ROOT
ATOM      1  O   UNL     1       4.596   1.217   0.632  0.00  0.00    -0.246 OA
ATOM      2  O   UNL     1       2.394  -2.880  -0.013  0.00  0.00    -0.265 OA
ATOM      3  N   UNL     1       2.272   1.224   0.505  0.00  0.00    -0.269 N 
ATOM      4  N   UNL     1       3.523  -0.840   0.310  0.00  0.00    -0.248 N 
ATOM      5  N   UNL     1      -0.128  -1.286   0.052  0.00  0.00    -0.310 N 
ATOM      6  N   UNL     1      -0.165   0.925   0.333  0.00  0.00    -0.301 N 
ATOM      7  C   UNL     1       1.123   0.462   0.344  0.00  0.00    +0.132 A 
ATOM      8  C   UNL     1       1.174  -0.895   0.173  0.00  0.00    +0.133 A 
ATOM      9  C   UNL     1       3.539   0.590   0.493  0.00  0.00    +0.335 A 
ATOM     10  C   UNL     1       2.377  -1.662   0.142  0.00  0.00    +0.280 A 
ATOM     11  C   UNL     1      -0.896  -0.155   0.154  0.00  0.00    +0.169 C 
ATOM     12  H   UNL     1      -0.454  -2.205  -0.084  0.00  0.00    +0.149 HD
ATOM     13  H   UNL     1      -0.474   1.854   0.434  0.00  0.00    +0.150 HD
ENDROOT
BRANCH  11  14
ATOM     14  C   UNL     1      -2.336  -0.201   0.070  0.00  0.00    +0.014 C 
ATOM     15  C   UNL     1      -3.039   0.891  -0.439  0.00  0.00    -0.001 C 
ATOM     16  C   UNL     1      -3.024  -1.337   0.497  0.00  0.00    -0.001 C 
ATOM     17  C   UNL     1      -4.431   0.847  -0.520  0.00  0.00    +0.006 C 
ATOM     18  C   UNL     1      -4.416  -1.381   0.415  0.00  0.00    +0.006 C 
ATOM     19  C   UNL     1      -5.120  -0.289  -0.093  0.00  0.00    +0.075 C 
BRANCH  19  21
ATOM     20  O   UNL     1      -7.278  -1.286   0.169  0.00  0.00    -0.245 OA
ATOM     21  C   UNL     1      -6.571  -0.335  -0.179  0.00  0.00    +0.338 C 
BRANCH  21  22
ATOM     22  O   UNL     1      -7.098   0.808  -0.695  0.00  0.00    -0.477 OA
ATOM     23  H   UNL     1      -6.534   1.512  -0.950  0.00  0.00    +0.295 HD
ENDBRANCH  21  22
ENDBRANCH  19  21
ENDBRANCH  11  14
BRANCH   3  24
ATOM     24  C   UNL     1       2.176   2.668   0.685  0.00  0.00    +0.112 C 
BRANCH  24  25
ATOM     25  C   UNL     1       2.214   3.422  -0.638  0.00  0.00    +0.025 C 
ATOM     26  C   UNL     1       2.136   4.931  -0.458  0.00  0.00    +0.002 C 
ENDBRANCH  24  25
ENDBRANCH   3  24
BRANCH   4  27
ATOM     27  C   UNL     1       4.818  -1.513   0.296  0.00  0.00    +0.114 C 
BRANCH  27  28
ATOM     28  C   UNL     1       5.410  -1.602  -1.105  0.00  0.00    +0.025 C 
ATOM     29  C   UNL     1       6.751  -2.322  -1.131  0.00  0.00    +0.002 C 
ENDBRANCH  27  28
ENDBRANCH   4  27
TORSDOF 7
