REMARK  Name = 122023
REMARK  11 active torsions:
REMARK  status: ('A' for Active; 'I' for Inactive)
REMARK    1  A    between atoms: O_1  and  C_2
REMARK    2  A    between atoms: O_1  and  C_15
REMARK    3  A    between atoms: C_3  and  C_13
REMARK    4  A    between atoms: C_6  and  C_9
REMARK    5  A    between atoms: C_7  and  O_11
REMARK    6  A    between atoms: C_15  and  C_16
REMARK    7  A    between atoms: C_16  and  C_17
REMARK    8  A    between atoms: C_17  and  C_18
REMARK    9  A    between atoms: C_18  and  C_19
REMARK   10  A    between atoms: C_19  and  C_20
REMARK   11  A    between atoms: C_20  and  C_27
REMARK                            x       y       z     vdW  Elec       q    Type
REMARK                         _______ _______ _______ _____ _____    ______ ____
ROOT
ATOM      1  O   UNL     1       1.671   0.485   1.328  0.00  0.00    -0.476 OA
ENDROOT
BRANCH   1   2
ATOM      2  C   UNL     1       2.923   0.285   0.809  0.00  0.00    +0.138 C 
ATOM      3  C   UNL     1       3.456  -1.000   0.706  0.00  0.00    +0.012 C 
ATOM      4  C   UNL     1       3.667   1.385   0.381  0.00  0.00    +0.073 C 
ATOM      5  C   UNL     1       4.732  -1.185   0.175  0.00  0.00    +0.005 C 
ATOM      6  C   UNL     1       5.476  -0.085  -0.253  0.00  0.00    +0.068 C 
ATOM      7  C   UNL     1       4.944   1.200  -0.150  0.00  0.00    +0.139 C 
BRANCH   6   9
ATOM      8  O   UNL     1       7.282   0.464  -1.667  0.00  0.00    -0.291 OA
ATOM      9  C   UNL     1       6.806  -0.300  -0.806  0.00  0.00    +0.176 C 
ATOM     10  C   UNL     1       7.651  -1.478  -0.335  0.00  0.00    +0.077 C 
ENDBRANCH   6   9
BRANCH   7  11
ATOM     11  O   UNL     1       5.654   2.286  -0.564  0.00  0.00    -0.505 OA
ATOM     12  H   UNL     1       5.285   3.144  -0.489  0.00  0.00    +0.292 HD
ENDBRANCH   7  11
BRANCH   3  13
ATOM     13  C   UNL     1       2.674  -2.188   1.158  0.00  0.00    +0.029 C 
ATOM     14  C   UNL     1       1.814  -2.775   0.042  0.00  0.00    +0.005 C 
ENDBRANCH   3  13
ENDBRANCH   1   2
BRANCH   1  15
ATOM     15  C   UNL     1       0.716   1.105   0.478  0.00  0.00    +0.205 C 
BRANCH  15  16
ATOM     16  C   UNL     1      -0.675   0.618   0.862  0.00  0.00    +0.047 C 
BRANCH  16  17
ATOM     17  C   UNL     1      -1.752   1.237  -0.028  0.00  0.00    +0.004 C 
BRANCH  17  18
ATOM     18  C   UNL     1      -3.174   0.800   0.341  0.00  0.00    +0.001 C 
BRANCH  18  19
ATOM     19  C   UNL     1      -4.257   1.492  -0.502  0.00  0.00    +0.014 C 
BRANCH  19  20
ATOM     20  C   UNL     1      -5.730   1.139  -0.110  0.00  0.00    +0.077 C 
ATOM     21  C   UNL     1      -6.675   1.980  -1.010  0.00  0.00    +0.015 C 
ATOM     22  C   UNL     1      -5.985   1.622   1.339  0.00  0.00    +0.015 C 
BRANCH  20  27
ATOM     23  N   UNL     1      -5.868  -0.967  -1.502  0.00  0.00    -0.114 NA
ATOM     24  N   UNL     1      -6.470  -1.177   0.670  0.00  0.00    -0.091 NA
ATOM     25  N   UNL     1      -6.245  -2.207  -1.158  0.00  0.00    -0.140 N 
ATOM     26  N   UNL     1      -6.610  -2.377   0.121  0.00  0.00    -0.022 NA
ATOM     27  C   UNL     1      -6.026  -0.358  -0.324  0.00  0.00    +0.048 C 
ATOM     28  H   UNL     1      -6.254  -2.948  -1.806  0.00  0.00    +0.197 HD
ENDBRANCH  20  27
ENDBRANCH  19  20
ENDBRANCH  18  19
ENDBRANCH  17  18
ENDBRANCH  16  17
ENDBRANCH  15  16
ENDBRANCH   1  15
TORSDOF 11
