122031
  -OEChem-03292013323D

 46 48  0     1  0  0  0  0  0999 V2000
    5.6868    2.9078   -2.0228 Cl  0  0  0  0  0  0  0  0  0  0  0  0
   -3.2102   -0.7225   -1.7702 O   0  0  0  0  0  0  0  0  0  0  0  0
   -2.7641   -2.8193    0.2415 O   0  0  0  0  0  0  0  0  0  0  0  0
    0.1905   -0.7111    0.1098 N   0  0  0  0  0  0  0  0  0  0  0  0
    2.4494   -1.2122    0.7344 N   0  0  0  0  0  0  0  0  0  0  0  0
    0.6112   -2.2993    1.7889 N   0  0  0  0  0  0  0  0  0  0  0  0
   -2.5387    4.4654    2.4932 N   0  0  0  0  0  0  0  0  0  0  0  0
    2.1674   -2.8387    3.6736 N   0  0  0  0  0  0  0  0  0  0  0  0
   -2.1891   -1.7340   -1.8532 C   0  0  0  0  0  0  0  0  0  0  0  0
   -1.6942   -2.1667   -0.4547 C   0  0  1  0  0  0  0  0  0  0  0  0
   -1.2224   -0.9877    0.4034 C   0  0  2  0  0  0  0  0  0  0  0  0
   -2.0841    0.2266    0.1805 C   0  0  0  0  0  0  0  0  0  0  0  0
   -1.0530   -1.2134   -2.7510 C   0  0  0  0  0  0  0  0  0  0  0  0
   -2.8493   -2.9237   -2.5743 C   0  0  0  0  0  0  0  0  0  0  0  0
   -3.0111    0.2855   -0.8657 C   0  0  0  0  0  0  0  0  0  0  0  0
   -1.9684    1.3257    1.0463 C   0  0  0  0  0  0  0  0  0  0  0  0
   -3.8245    1.4119   -1.0254 C   0  0  0  0  0  0  0  0  0  0  0  0
   -2.7719    2.4537    0.8774 C   0  0  0  0  0  0  0  0  0  0  0  0
   -3.7024    2.4952   -0.1570 C   0  0  0  0  0  0  0  0  0  0  0  0
    1.0720   -1.3597    0.7948 C   0  0  0  0  0  0  0  0  0  0  0  0
   -2.6433    3.5632    1.7685 C   0  0  0  0  0  0  0  0  0  0  0  0
    3.2219   -0.2292    0.0762 C   0  0  0  0  0  0  0  0  0  0  0  0
    4.5574   -0.4844   -0.2291 C   0  0  0  0  0  0  0  0  0  0  0  0
    2.6460    0.9929   -0.2660 C   0  0  0  0  0  0  0  0  0  0  0  0
    1.4499   -2.5858    2.7974 C   0  0  0  0  0  0  0  0  0  0  0  0
    5.3199    0.4862   -0.8788 C   0  0  0  0  0  0  0  0  0  0  0  0
    3.4087    1.9633   -0.9157 C   0  0  0  0  0  0  0  0  0  0  0  0
    4.7456    1.7101   -1.2222 C   0  0  0  0  0  0  0  0  0  0  0  0
   -0.9056   -2.9210   -0.5584 H   0  0  0  0  0  0  0  0  0  0  0  0
   -1.4061   -1.2025    1.4639 H   0  0  0  0  0  0  0  0  0  0  0  0
   -0.6206   -0.2812   -2.3753 H   0  0  0  0  0  0  0  0  0  0  0  0
   -0.2516   -1.9529   -2.8497 H   0  0  0  0  0  0  0  0  0  0  0  0
   -1.4297   -0.9783   -3.7536 H   0  0  0  0  0  0  0  0  0  0  0  0
   -3.7487   -3.2632   -2.0485 H   0  0  0  0  0  0  0  0  0  0  0  0
   -3.1833   -2.6346   -3.5779 H   0  0  0  0  0  0  0  0  0  0  0  0
   -2.1594   -3.7684   -2.6708 H   0  0  0  0  0  0  0  0  0  0  0  0
   -1.2462    1.2904    1.8605 H   0  0  0  0  0  0  0  0  0  0  0  0
   -3.5096   -2.1983    0.3018 H   0  0  0  0  0  0  0  0  0  0  0  0
   -4.5527    1.4535   -1.8315 H   0  0  0  0  0  0  0  0  0  0  0  0
   -4.3398    3.3643   -0.3010 H   0  0  0  0  0  0  0  0  0  0  0  0
    3.0187   -1.9649    1.1124 H   0  0  0  0  0  0  0  0  0  0  0  0
   -0.3252   -2.6823    1.7670 H   0  0  0  0  0  0  0  0  0  0  0  0
    5.0171   -1.4341    0.0322 H   0  0  0  0  0  0  0  0  0  0  0  0
    1.6221    1.2476   -0.0157 H   0  0  0  0  0  0  0  0  0  0  0  0
    6.3606    0.2750   -1.1113 H   0  0  0  0  0  0  0  0  0  0  0  0
    2.9505    2.9157   -1.1703 H   0  0  0  0  0  0  0  0  0  0  0  0
  1 28  1  0  0  0  0
  2  9  1  0  0  0  0
  2 15  1  0  0  0  0
  3 10  1  0  0  0  0
  3 38  1  0  0  0  0
  4 11  1  0  0  0  0
  4 20  2  0  0  0  0
  5 20  1  0  0  0  0
  5 22  1  0  0  0  0
  5 41  1  0  0  0  0
  6 20  1  0  0  0  0
  6 25  1  0  0  0  0
  6 42  1  0  0  0  0
  7 21  3  0  0  0  0
  8 25  3  0  0  0  0
  9 10  1  0  0  0  0
  9 13  1  0  0  0  0
  9 14  1  0  0  0  0
 10 11  1  0  0  0  0
 10 29  1  0  0  0  0
 11 12  1  0  0  0  0
 11 30  1  0  0  0  0
 12 15  2  0  0  0  0
 12 16  1  0  0  0  0
 13 31  1  0  0  0  0
 13 32  1  0  0  0  0
 13 33  1  0  0  0  0
 14 34  1  0  0  0  0
 14 35  1  0  0  0  0
 14 36  1  0  0  0  0
 15 17  1  0  0  0  0
 16 18  2  0  0  0  0
 16 37  1  0  0  0  0
 17 19  2  0  0  0  0
 17 39  1  0  0  0  0
 18 19  1  0  0  0  0
 18 21  1  0  0  0  0
 19 40  1  0  0  0  0
 22 23  2  0  0  0  0
 22 24  1  0  0  0  0
 23 26  1  0  0  0  0
 23 43  1  0  0  0  0
 24 27  2  0  0  0  0
 24 44  1  0  0  0  0
 26 28  2  0  0  0  0
 26 45  1  0  0  0  0
 27 28  1  0  0  0  0
 27 46  1  0  0  0  0
M  END
> <PUBCHEM_COMPOUND_CID>
122031

> <PUBCHEM_CONFORMER_RMSD>
0.8

> <PUBCHEM_CONFORMER_DIVERSEORDER>
1
20
9
25
5
26
10
18
19
22
4
15
3
23
12
7
16
24
11
21
13
14
6
17
8
2

> <PUBCHEM_MMFF94_PARTIAL_CHARGES>
36
1 -0.18
10 0.28
11 0.39
12 -0.14
15 0.08
16 -0.15
17 -0.15
18 0.07
19 -0.15
2 -0.36
20 0.55
21 0.48
22 0.1
23 -0.15
24 -0.15
25 0.62
26 -0.15
27 -0.15
28 0.18
3 -0.68
37 0.15
38 0.4
39 0.15
4 -0.7
40 0.15
41 0.4
42 0.4
43 0.15
44 0.15
45 0.15
46 0.15
5 -0.55
6 -0.51
7 -0.56
8 -0.56
9 0.28

> <PUBCHEM_EFFECTIVE_ROTOR_COUNT>
4.8

> <PUBCHEM_PHARMACOPHORE_FEATURES>
12
1 2 acceptor
1 3 acceptor
1 3 donor
1 5 donor
1 6 donor
1 7 acceptor
1 8 acceptor
3 9 13 14 hydrophobe
4 4 5 6 20 cation
6 12 15 16 17 18 19 rings
6 2 9 10 11 12 15 rings
6 22 23 24 26 27 28 rings

> <PUBCHEM_HEAVY_ATOM_COUNT>
28

> <PUBCHEM_ATOM_DEF_STEREO_COUNT>
2

> <PUBCHEM_ATOM_UDEF_STEREO_COUNT>
0

> <PUBCHEM_BOND_DEF_STEREO_COUNT>
0

> <PUBCHEM_BOND_UDEF_STEREO_COUNT>
0

> <PUBCHEM_ISOTOPIC_ATOM_COUNT>
0

> <PUBCHEM_COMPONENT_COUNT>
1

> <PUBCHEM_CACTVS_TAUTO_COUNT>
3

> <PUBCHEM_CONFORMER_ID>
0001DCAF00000001

> <PUBCHEM_MMFF94_ENERGY>
103.1742

> <PUBCHEM_FEATURE_SELFOVERLAP>
60.96

> <PUBCHEM_SHAPE_FINGERPRINT>
10906281 52 18127977413389408753
11049842 53 17628912327071222014
11640471 11 18337106757214400241
12363563 72 13398637151797101246
12788726 201 18341880905991795343
13583140 156 17677622947344815633
14187579 7 18129669737198187860
14713325 29 18058751189465357199
15064981 113 17774441552057794724
15163728 17 17700989742625814221
15297060 5 17200517303774454992
15475509 8 17345742119122704879
15842332 3 18191281845674516179
16991981 162 18130798870724430197
19319366 153 18261962859707084128
20511986 3 18338782430548062456
20693207 138 15984805060853011487
21987440 362 15761878786421732456
22122407 14 17463412716072614541
22907989 373 18201994439430255005
22956985 138 14003550383526513610
25265897 201 17771101308277322956
283562 15 17678463192898079978
312425 83 17844553092292783412
38570 142 18117583780920520668
469060 322 15647625599785800147
474 4 18040995116269629568
50150288 127 18339374002094778667
5895379 119 18058156242406312458
633830 44 18187086144295384782
7288768 16 17749966551802967536

> <PUBCHEM_SHAPE_MULTIPOLES>
541.45
9.87
4.63
2.91
13.97
2.63
1.3
7.17
-5.23
-3.31
2.58
-0.12
-1.86
-5.69

> <PUBCHEM_SHAPE_SELFOVERLAP>
1155.483

> <PUBCHEM_SHAPE_VOLUME>
297

> <PUBCHEM_COORDINATE_TYPE>
2
5
10

$$$$
