REMARK  Name = 122010
REMARK  15 active torsions:
REMARK  status: ('A' for Active; 'I' for Inactive)
REMARK    1  A    between atoms: C_1  and  S_2
REMARK    2  A    between atoms: C_1  and  C_19
REMARK    3  A    between atoms: S_2  and  C_5
REMARK    4  A    between atoms: C_8  and  C_12
REMARK    5  A    between atoms: C_12  and  C_13
REMARK    6  A    between atoms: C_13  and  C_14
REMARK    7  A    between atoms: C_14  and  C_16
REMARK    8  A    between atoms: C_16  and  O_17
REMARK    9  A    between atoms: C_19  and  C_20
REMARK   10  A    between atoms: C_20  and  O_21
REMARK   11  A    between atoms: O_21  and  C_23
REMARK   12  A    between atoms: C_22  and  C_33
REMARK   13  A    between atoms: C_24  and  O_31
REMARK   14  A    between atoms: C_25  and  C_29
REMARK   15  A    between atoms: C_33  and  C_34
REMARK                            x       y       z     vdW  Elec       q    Type
REMARK                         _______ _______ _______ _____ _____    ______ ____
ROOT
ATOM      1  C   UNL     1       0.442  -2.506   0.027  0.00  0.00    +0.160 C 
ENDROOT
BRANCH   1   2
ATOM      2  S   UNL     1      -1.001  -3.434  -0.385  0.00  0.00    +0.009 S 
ATOM      3  O   UNL     1      -1.116  -4.552   0.536  0.00  0.00    -0.169 OA
ATOM      4  O   UNL     1      -0.985  -3.667  -1.819  0.00  0.00    -0.169 OA
BRANCH   2   5
ATOM      5  C   UNL     1      -2.336  -2.332  -0.028  0.00  0.00    +0.106 C 
ATOM      6  C   UNL     1      -2.913  -2.323   1.243  0.00  0.00    +0.018 C 
ATOM      7  C   UNL     1      -2.815  -1.472  -1.016  0.00  0.00    +0.018 C 
ATOM      8  C   UNL     1      -4.446  -0.595   0.536  0.00  0.00    +0.035 C 
ATOM      9  C   UNL     1      -3.967  -1.455   1.524  0.00  0.00    +0.004 C 
ATOM     10  C   UNL     1      -3.869  -0.603  -0.734  0.00  0.00    +0.004 C 
BRANCH   8  12
ATOM     11  O   UNL     1      -6.070   0.330   1.962  0.00  0.00    -0.291 OA
ATOM     12  C   UNL     1      -5.545   0.310   0.830  0.00  0.00    +0.174 C 
BRANCH  12  13
ATOM     13  C   UNL     1      -6.074   1.259  -0.262  0.00  0.00    +0.081 C 
BRANCH  13  14
ATOM     14  C   UNL     1      -7.247   2.116   0.197  0.00  0.00    +0.117 C 
BRANCH  14  16
ATOM     15  O   UNL     1      -7.242   3.029  -2.038  0.00  0.00    -0.250 OA
ATOM     16  C   UNL     1      -7.723   3.017  -0.913  0.00  0.00    +0.314 C 
BRANCH  16  17
ATOM     17  O   UNL     1      -8.740   3.827  -0.526  0.00  0.00    -0.480 OA
ATOM     18  H   UNL     1      -9.072   3.777   0.349  0.00  0.00    +0.295 HD
ENDBRANCH  16  17
ENDBRANCH  14  16
ENDBRANCH  13  14
ENDBRANCH  12  13
ENDBRANCH   8  12
ENDBRANCH   2   5
ENDBRANCH   1   2
BRANCH   1  19
ATOM     19  C   UNL     1       1.707  -3.309  -0.221  0.00  0.00    +0.073 C 
BRANCH  19  20
ATOM     20  C   UNL     1       2.956  -2.507   0.113  0.00  0.00    +0.207 C 
BRANCH  20  21
ATOM     21  O   UNL     1       2.994  -1.352  -0.714  0.00  0.00    -0.476 OA
BRANCH  21  23
ATOM     22  C   UNL     1       3.844   0.830  -0.164  0.00  0.00    +0.045 C 
ATOM     23  C   UNL     1       4.052  -0.498  -0.535  0.00  0.00    +0.137 C 
ATOM     24  C   UNL     1       4.932   1.684   0.012  0.00  0.00    +0.135 C 
ATOM     25  C   UNL     1       6.230   1.209  -0.183  0.00  0.00    +0.068 C 
ATOM     26  C   UNL     1       5.349  -0.973  -0.730  0.00  0.00    +0.037 C 
ATOM     27  C   UNL     1       6.438  -0.119  -0.554  0.00  0.00    +0.009 C 
BRANCH  25  29
ATOM     28  O   UNL     1       7.308   3.307  -0.220  0.00  0.00    -0.291 OA
ATOM     29  C   UNL     1       7.382   2.082  -0.004  0.00  0.00    +0.176 C 
ATOM     30  C   UNL     1       8.715   1.506   0.456  0.00  0.00    +0.077 C 
ENDBRANCH  25  29
BRANCH  24  31
ATOM     31  O   UNL     1       4.727   2.983   0.374  0.00  0.00    -0.506 OA
ATOM     32  H   UNL     1       3.855   3.301   0.505  0.00  0.00    +0.292 HD
ENDBRANCH  24  31
BRANCH  22  33
ATOM     33  C   UNL     1       2.452   1.337   0.042  0.00  0.00    +0.033 C 
BRANCH  33  34
ATOM     34  C   UNL     1       1.982   1.161   1.491  0.00  0.00    +0.005 C 
ATOM     35  C   UNL     1       0.579   1.709   1.701  0.00  0.00    +0.000 C 
ENDBRANCH  33  34
ENDBRANCH  22  33
ENDBRANCH  21  23
ENDBRANCH  20  21
ENDBRANCH  19  20
ENDBRANCH   1  19
TORSDOF 15
