122193982
  -OEChem-03292013293D

 48 51  0     0  0  0  0  0  0999 V2000
    3.1295   -3.2365    0.2748 O   0  0  0  0  0  0  0  0  0  0  0  0
    6.0719    1.9535   -0.0060 O   0  0  0  0  0  0  0  0  0  0  0  0
    5.2263    0.1562    1.0991 O   0  0  0  0  0  0  0  0  0  0  0  0
   -3.8865   -0.3495    2.8842 O   0  0  0  0  0  0  0  0  0  0  0  0
   -2.5336   -0.5577   -0.2437 N   0  0  0  0  0  0  0  0  0  0  0  0
    0.4104    0.5130   -0.8612 N   0  0  0  0  0  0  0  0  0  0  0  0
    2.8380   -0.5117   -0.0600 N   0  0  0  0  0  0  0  0  0  0  0  0
   -2.9975    1.6996    2.3651 N   0  0  0  0  0  0  0  0  0  0  0  0
   -0.4980   -1.6805   -0.9211 C   0  0  0  0  0  0  0  0  0  0  0  0
    0.5655   -0.8098   -0.6930 C   0  0  0  0  0  0  0  0  0  0  0  0
   -1.8294   -1.1530   -1.3563 C   0  0  0  0  0  0  0  0  0  0  0  0
    1.7984   -1.3301   -0.2865 C   0  0  0  0  0  0  0  0  0  0  0  0
   -0.3566   -3.0566   -0.7525 C   0  0  0  0  0  0  0  0  0  0  0  0
    2.6829    0.8111   -0.2279 C   0  0  0  0  0  0  0  0  0  0  0  0
    1.9336   -2.7069   -0.1198 C   0  0  0  0  0  0  0  0  0  0  0  0
    1.4501    1.3315   -0.6349 C   0  0  0  0  0  0  0  0  0  0  0  0
    0.8661   -3.5727   -0.3500 C   0  0  0  0  0  0  0  0  0  0  0  0
   -3.8066   -0.0206   -0.3395 C   0  0  0  0  0  0  0  0  0  0  0  0
    3.7463    1.6820    0.0010 C   0  0  0  0  0  0  0  0  0  0  0  0
    1.3151    2.7081   -0.8024 C   0  0  0  0  0  0  0  0  0  0  0  0
   -4.4327    0.5410    0.7732 C   0  0  0  0  0  0  0  0  0  0  0  0
    3.6046    3.0581   -0.1679 C   0  0  0  0  0  0  0  0  0  0  0  0
    2.3824    3.5740   -0.5719 C   0  0  0  0  0  0  0  0  0  0  0  0
   -4.4628   -0.0459   -1.5701 C   0  0  0  0  0  0  0  0  0  0  0  0
   -5.7148    1.0773    0.6553 C   0  0  0  0  0  0  0  0  0  0  0  0
   -5.7450    0.4905   -1.6881 C   0  0  0  0  0  0  0  0  0  0  0  0
    5.0456    1.1732    0.4260 C   0  0  0  0  0  0  0  0  0  0  0  0
   -6.3711    1.0522   -0.5753 C   0  0  0  0  0  0  0  0  0  0  0  0
   -3.7737    0.5837    2.0727 C   0  0  0  0  0  0  0  0  0  0  0  0
    3.3418   -3.3735    1.6768 C   0  0  0  0  0  0  0  0  0  0  0  0
   -1.6807   -0.4234   -2.1630 H   0  0  0  0  0  0  0  0  0  0  0  0
   -2.4216   -1.9730   -1.7831 H   0  0  0  0  0  0  0  0  0  0  0  0
   -1.1878   -3.7336   -0.9282 H   0  0  0  0  0  0  0  0  0  0  0  0
   -2.0713   -0.5296    0.6583 H   0  0  0  0  0  0  0  0  0  0  0  0
    0.9843   -4.6442   -0.2169 H   0  0  0  0  0  0  0  0  0  0  0  0
    0.3604    3.1244   -1.1179 H   0  0  0  0  0  0  0  0  0  0  0  0
    4.4205    3.7502    0.0209 H   0  0  0  0  0  0  0  0  0  0  0  0
    2.2553    4.6439   -0.7046 H   0  0  0  0  0  0  0  0  0  0  0  0
   -4.0173   -0.4692   -2.4651 H   0  0  0  0  0  0  0  0  0  0  0  0
   -6.2137    1.5177    1.5150 H   0  0  0  0  0  0  0  0  0  0  0  0
   -6.2563    0.4718   -2.6462 H   0  0  0  0  0  0  0  0  0  0  0  0
   -7.3694    1.4699   -0.6672 H   0  0  0  0  0  0  0  0  0  0  0  0
    4.3385   -3.7951    1.8329 H   0  0  0  0  0  0  0  0  0  0  0  0
    3.2937   -2.3991    2.1733 H   0  0  0  0  0  0  0  0  0  0  0  0
    2.6028   -4.0534    2.1125 H   0  0  0  0  0  0  0  0  0  0  0  0
   -2.8878    2.4669    1.7097 H   0  0  0  0  0  0  0  0  0  0  0  0
   -2.5109    1.7790    3.2518 H   0  0  0  0  0  0  0  0  0  0  0  0
    6.9423    1.6056    0.2834 H   0  0  0  0  0  0  0  0  0  0  0  0
  1 15  1  0  0  0  0
  1 30  1  0  0  0  0
  2 27  1  0  0  0  0
  2 48  1  0  0  0  0
  3 27  2  0  0  0  0
  4 29  2  0  0  0  0
  5 11  1  0  0  0  0
  5 18  1  0  0  0  0
  5 34  1  0  0  0  0
  6 10  2  0  0  0  0
  6 16  1  0  0  0  0
  7 12  2  0  0  0  0
  7 14  1  0  0  0  0
  8 29  1  0  0  0  0
  8 46  1  0  0  0  0
  8 47  1  0  0  0  0
  9 10  1  0  0  0  0
  9 11  1  0  0  0  0
  9 13  2  0  0  0  0
 10 12  1  0  0  0  0
 11 31  1  0  0  0  0
 11 32  1  0  0  0  0
 12 15  1  0  0  0  0
 13 17  1  0  0  0  0
 13 33  1  0  0  0  0
 14 16  1  0  0  0  0
 14 19  2  0  0  0  0
 15 17  2  0  0  0  0
 16 20  2  0  0  0  0
 17 35  1  0  0  0  0
 18 21  1  0  0  0  0
 18 24  2  0  0  0  0
 19 22  1  0  0  0  0
 19 27  1  0  0  0  0
 20 23  1  0  0  0  0
 20 36  1  0  0  0  0
 21 25  2  0  0  0  0
 21 29  1  0  0  0  0
 22 23  2  0  0  0  0
 22 37  1  0  0  0  0
 23 38  1  0  0  0  0
 24 26  1  0  0  0  0
 24 39  1  0  0  0  0
 25 28  1  0  0  0  0
 25 40  1  0  0  0  0
 26 28  2  0  0  0  0
 26 41  1  0  0  0  0
 28 42  1  0  0  0  0
 30 43  1  0  0  0  0
 30 44  1  0  0  0  0
 30 45  1  0  0  0  0
M  END
> <PUBCHEM_COMPOUND_CID>
122193982

> <PUBCHEM_CONFORMER_RMSD>
0.8

> <PUBCHEM_CONFORMER_DIVERSEORDER>
1
4
29
51
34
11
41
27
14
37
30
17
48
32
43
50
23
12
10
31
42
33
20
22
52
55
35
9
54
45
18
36
25
28
49
5
38
24
2
21
8
26
16
53
19
15
56
46
40
44
13
6
7
57
47
3
39

> <PUBCHEM_MMFF94_PARTIAL_CHARGES>
43
1 -0.36
10 0.31
11 0.51
12 0.31
13 -0.15
14 0.31
15 0.08
16 0.31
17 -0.15
18 0.1
19 0.09
2 -0.65
20 -0.15
21 0.09
22 -0.15
23 -0.15
24 -0.15
25 -0.15
26 -0.15
27 0.63
28 -0.15
29 0.54
3 -0.57
30 0.28
33 0.15
34 0.4
35 0.15
36 0.15
37 0.15
38 0.15
39 0.15
4 -0.57
40 0.15
41 0.15
42 0.15
46 0.37
47 0.37
48 0.5
5 -0.87
6 -0.62
7 -0.62
8 -0.8
9 -0.14

> <PUBCHEM_EFFECTIVE_ROTOR_COUNT>
6

> <PUBCHEM_PHARMACOPHORE_FEATURES>
14
1 1 acceptor
1 2 acceptor
1 3 acceptor
1 4 acceptor
1 5 cation
1 5 donor
1 6 acceptor
1 7 acceptor
1 8 donor
3 2 3 27 anion
6 14 16 19 20 22 23 rings
6 18 21 24 25 26 28 rings
6 6 7 10 12 14 16 rings
6 9 10 12 13 15 17 rings

> <PUBCHEM_HEAVY_ATOM_COUNT>
30

> <PUBCHEM_ATOM_DEF_STEREO_COUNT>
0

> <PUBCHEM_ATOM_UDEF_STEREO_COUNT>
0

> <PUBCHEM_BOND_DEF_STEREO_COUNT>
0

> <PUBCHEM_BOND_UDEF_STEREO_COUNT>
0

> <PUBCHEM_ISOTOPIC_ATOM_COUNT>
0

> <PUBCHEM_COMPONENT_COUNT>
1

> <PUBCHEM_CACTVS_TAUTO_COUNT>
7

> <PUBCHEM_CONFORMER_ID>
0748883E00000001

> <PUBCHEM_MMFF94_ENERGY>
122.9512

> <PUBCHEM_FEATURE_SELFOVERLAP>
71.193

> <PUBCHEM_SHAPE_FINGERPRINT>
10411042 1 17906164054251116230
10906281 52 18194126438024246028
1100329 8 18268143339648592588
12128747 34 16589406610804995945
12166972 35 18200304404306930747
12633257 1 15719390676934453389
12788726 201 17132120105132528409
13140716 1 18191579972755839524
13583140 156 18186528717538011419
13631057 29 18057031627243948151
14739800 52 17417227914841404098
14790565 3 18263645241958978124
15420108 30 18271229608568800662
15475509 35 16661198118666068034
15475509 8 17843984554571241526
20157964 124 18410570666091330165
20511986 3 17845925252554892041
20739085 24 18339366245304654958
21033648 144 18408597055388323991
21033650 10 15912231804493919337
21298829 104 18343582911321465433
2132832 1 18127968603662177977
22122407 14 18196100945937807697
23569917 315 18271527592978168119
23845131 108 18261670471678026667
25147074 1 18200572779311999687
283562 15 17689145038582616871
335352 9 18338509837906163732
469060 322 17975143346912491227
474 4 18413107273269971247
6328613 192 18196657513448975620
6523845 18 17978266990046921093

> <PUBCHEM_SHAPE_MULTIPOLES>
573.98
13.07
4.17
1.71
10.44
1.87
1.2
-7.54
1.94
-6.42
-0.12
2.57
0.05
-1.44

> <PUBCHEM_SHAPE_SELFOVERLAP>
1283.49

> <PUBCHEM_SHAPE_VOLUME>
303.3

> <PUBCHEM_COORDINATE_TYPE>
2
5
10

$$$$
