122173030
  -OEChem-03292013293D

 55 58  0     0  0  0  0  0  0999 V2000
    0.0654   -3.0052    2.2170 F   0  0  0  0  0  0  0  0  0  0  0  0
    0.8822   -4.0925   -2.3350 F   0  0  0  0  0  0  0  0  0  0  0  0
    4.8656    5.6597    0.3647 F   0  0  0  0  0  0  0  0  0  0  0  0
    3.2615   -3.8838   -0.6947 O   0  0  0  0  0  0  0  0  0  0  0  0
    1.4730   -2.4665   -0.1370 N   0  0  0  0  0  0  0  0  0  0  0  0
   -0.2717   -0.8382    0.3577 N   0  0  0  0  0  0  0  0  0  0  0  0
    0.2463    1.4997    0.5785 N   0  0  0  0  0  0  0  0  0  0  0  0
   -1.9518    0.7293    0.8314 N   0  0  0  0  0  0  0  0  0  0  0  0
   -4.6864    1.2983    0.1885 N   0  0  0  0  0  0  0  0  0  0  0  0
   -6.2756    2.8501   -0.5554 N   0  0  0  0  0  0  0  0  0  0  0  0
   -6.7214    1.7324    1.3784 N   0  0  0  0  0  0  0  0  0  0  0  0
   -5.4917    3.1940   -1.7182 N   0  3  0  0  0  0  0  0  0  0  0  0
    1.9801   -0.1006    0.0776 C   0  0  0  0  0  0  0  0  0  0  0  0
    1.0348   -1.1194    0.1266 C   0  0  0  0  0  0  0  0  0  0  0  0
    1.5301    1.1895    0.3188 C   0  0  0  0  0  0  0  0  0  0  0  0
    2.3938    2.3525    0.3114 C   0  0  0  0  0  0  0  0  0  0  0  0
    3.3675   -0.3735   -0.2438 C   0  0  0  0  0  0  0  0  0  0  0  0
    0.4996   -3.5213   -0.0607 C   0  0  0  0  0  0  0  0  0  0  0  0
    2.8037   -2.7612   -0.4756 C   0  0  0  0  0  0  0  0  0  0  0  0
    2.6151    3.0771   -0.8599 C   0  0  0  0  0  0  0  0  0  0  0  0
   -0.5910    0.4521    0.5774 C   0  0  0  0  0  0  0  0  0  0  0  0
    3.7551   -1.6189   -0.5189 C   0  0  0  0  0  0  0  0  0  0  0  0
    3.0077    2.7451    1.5009 C   0  0  0  0  0  0  0  0  0  0  0  0
   -2.9575   -0.2861    0.8615 C   0  0  0  0  0  0  0  0  0  0  0  0
    3.4504    4.1941   -0.8417 C   0  0  0  0  0  0  0  0  0  0  0  0
   -0.1806   -3.7568    1.1342 C   0  0  0  0  0  0  0  0  0  0  0  0
    0.2352   -4.3095   -1.1808 C   0  0  0  0  0  0  0  0  0  0  0  0
    1.9745    2.6865   -2.1533 C   0  0  0  0  0  0  0  0  0  0  0  0
    3.8432    3.8620    1.5190 C   0  0  0  0  0  0  0  0  0  0  0  0
    4.0645    4.5865    0.3477 C   0  0  0  0  0  0  0  0  0  0  0  0
   -4.3084    0.3176    1.2094 C   0  0  0  0  0  0  0  0  0  0  0  0
   -1.1253   -4.7805    1.2090 C   0  0  0  0  0  0  0  0  0  0  0  0
   -0.7096   -5.3332   -1.1061 C   0  0  0  0  0  0  0  0  0  0  0  0
   -1.3899   -5.5684    0.0888 C   0  0  0  0  0  0  0  0  0  0  0  0
   -5.8209    1.9057    0.3479 C   0  0  0  0  0  0  0  0  0  0  0  0
   -4.8674    3.4834   -2.6653 C   0  5  0  0  0  0  0  0  0  0  0  0
    4.0988    0.4251   -0.2784 H   0  0  0  0  0  0  0  0  0  0  0  0
    4.7879   -1.8371   -0.7684 H   0  0  0  0  0  0  0  0  0  0  0  0
    2.8461    2.1924    2.4234 H   0  0  0  0  0  0  0  0  0  0  0  0
   -2.1944    1.7009    0.9882 H   0  0  0  0  0  0  0  0  0  0  0  0
   -2.7084   -1.0473    1.6103 H   0  0  0  0  0  0  0  0  0  0  0  0
   -3.0199   -0.7818   -0.1149 H   0  0  0  0  0  0  0  0  0  0  0  0
    3.6348    4.7706   -1.7443 H   0  0  0  0  0  0  0  0  0  0  0  0
    2.3264    1.7022   -2.4784 H   0  0  0  0  0  0  0  0  0  0  0  0
    0.8837    2.6714   -2.0586 H   0  0  0  0  0  0  0  0  0  0  0  0
    2.2139    3.3949   -2.9542 H   0  0  0  0  0  0  0  0  0  0  0  0
    4.3213    4.1680    2.4448 H   0  0  0  0  0  0  0  0  0  0  0  0
   -5.0504   -0.4885    1.2557 H   0  0  0  0  0  0  0  0  0  0  0  0
   -4.2486    0.7978    2.1943 H   0  0  0  0  0  0  0  0  0  0  0  0
   -1.6550   -4.9632    2.1392 H   0  0  0  0  0  0  0  0  0  0  0  0
   -0.9154   -5.9465   -1.9783 H   0  0  0  0  0  0  0  0  0  0  0  0
   -2.1257   -6.3652    0.1468 H   0  0  0  0  0  0  0  0  0  0  0  0
   -7.1694    3.3052   -0.3977 H   0  0  0  0  0  0  0  0  0  0  0  0
   -6.5585    1.0784    2.1355 H   0  0  0  0  0  0  0  0  0  0  0  0
   -7.5869    2.2604    1.4111 H   0  0  0  0  0  0  0  0  0  0  0  0
  1 26  1  0  0  0  0
  2 27  1  0  0  0  0
  3 30  1  0  0  0  0
  4 19  2  0  0  0  0
  5 14  1  0  0  0  0
  5 18  1  0  0  0  0
  5 19  1  0  0  0  0
  6 14  2  0  0  0  0
  6 21  1  0  0  0  0
  7 15  1  0  0  0  0
  7 21  2  0  0  0  0
  8 21  1  0  0  0  0
  8 24  1  0  0  0  0
  8 40  1  0  0  0  0
  9 31  1  0  0  0  0
  9 35  2  0  0  0  0
 10 12  1  0  0  0  0
 10 35  1  0  0  0  0
 10 53  1  0  0  0  0
 11 35  1  0  0  0  0
 11 54  1  0  0  0  0
 11 55  1  0  0  0  0
 12 36  3  0  0  0  0
 13 14  1  0  0  0  0
 13 15  2  0  0  0  0
 13 17  1  0  0  0  0
 15 16  1  0  0  0  0
 16 20  2  0  0  0  0
 16 23  1  0  0  0  0
 17 22  2  0  0  0  0
 17 37  1  0  0  0  0
 18 26  2  0  0  0  0
 18 27  1  0  0  0  0
 19 22  1  0  0  0  0
 20 25  1  0  0  0  0
 20 28  1  0  0  0  0
 22 38  1  0  0  0  0
 23 29  2  0  0  0  0
 23 39  1  0  0  0  0
 24 31  1  0  0  0  0
 24 41  1  0  0  0  0
 24 42  1  0  0  0  0
 25 30  2  0  0  0  0
 25 43  1  0  0  0  0
 26 32  1  0  0  0  0
 27 33  2  0  0  0  0
 28 44  1  0  0  0  0
 28 45  1  0  0  0  0
 28 46  1  0  0  0  0
 29 30  1  0  0  0  0
 29 47  1  0  0  0  0
 31 48  1  0  0  0  0
 31 49  1  0  0  0  0
 32 34  2  0  0  0  0
 32 50  1  0  0  0  0
 33 34  1  0  0  0  0
 33 51  1  0  0  0  0
 34 52  1  0  0  0  0
M  CHG  2  12   1  36  -1
M  END
> <PUBCHEM_COMPOUND_CID>
122173030

> <PUBCHEM_CONFORMER_RMSD>
1

> <PUBCHEM_CONFORMER_DIVERSEORDER>
1
31
47
62
100
49
67
90
84
53
106
91
6
26
78
87
86
30
89
9
50
52
55
57
104
66
59
97
46
34
35
72
42
98
16
12
8
36
80
65
33
69
44
13
29
79
68
88
56
5
48
45
76
14
4
92
71
83
32
24
37
54
58
38
61
102
93
77
15
82
25
10
39
101
74
70
43
75
60
95
27
73
11
63
51
99
105
85
19
20
94
81
17
96
21
103
22
23
7
41
40
28
64
2
18
3

> <PUBCHEM_MMFF94_PARTIAL_CHARGES>
47
1 -0.19
10 -0.45
11 -0.85
12 0.37
13 0.03
14 0.43
15 0.31
17 -0.18
18 0.12
19 0.62
2 -0.19
20 -0.14
21 0.72
22 -0.14
23 -0.15
24 0.37
25 -0.15
26 0.19
27 0.19
28 0.14
29 -0.15
3 -0.19
30 0.19
31 0.25
32 -0.15
33 -0.15
34 -0.15
35 0.55
36 -0.37
37 0.15
38 0.15
39 0.15
4 -0.57
40 0.4
43 0.15
47 0.15
5 -0.29
50 0.15
51 0.15
52 0.15
53 0.4
54 0.4
55 0.4
6 -0.62
7 -0.62
8 -0.87
9 -0.7

> <PUBCHEM_EFFECTIVE_ROTOR_COUNT>
7

> <PUBCHEM_PHARMACOPHORE_FEATURES>
10
1 10 donor
1 11 donor
1 4 acceptor
1 8 donor
4 6 7 8 21 cation
4 9 10 11 35 cation
6 16 20 23 25 29 30 rings
6 18 26 27 32 33 34 rings
6 5 13 14 17 19 22 rings
6 6 7 13 14 15 21 rings

> <PUBCHEM_HEAVY_ATOM_COUNT>
36

> <PUBCHEM_ATOM_DEF_STEREO_COUNT>
0

> <PUBCHEM_ATOM_UDEF_STEREO_COUNT>
0

> <PUBCHEM_BOND_DEF_STEREO_COUNT>
0

> <PUBCHEM_BOND_UDEF_STEREO_COUNT>
0

> <PUBCHEM_ISOTOPIC_ATOM_COUNT>
0

> <PUBCHEM_COMPONENT_COUNT>
1

> <PUBCHEM_CACTVS_TAUTO_COUNT>
99

> <PUBCHEM_CONFORMER_ID>
0748366600000001

> <PUBCHEM_MMFF94_ENERGY>
122.6033

> <PUBCHEM_FEATURE_SELFOVERLAP>
50.832

> <PUBCHEM_SHAPE_FINGERPRINT>
102385 1 18267870669371020282
10675989 125 18341622460366346153
12608794 3 18192964141925681076
12788726 201 17400631019017274258
13140716 1 18195814183660865218
14294032 229 17906751541209618801
15420108 30 18193831768417514816
15439362 3 18412267259303472352
15484559 13 18269282270159203230
15664445 248 18052544274501710466
15927050 60 18197786698588320942
16988056 13 18120650240913774709
19427546 62 18411423933789483705
21857420 4 17613718119957050141
23559900 14 18338517409648786713
23929065 36 17479162515665409304
376196 1 18335140899428309251
3882209 13 16097959845024410291
653340 110 17693944398468704096

> <PUBCHEM_SHAPE_MULTIPOLES>
673.32
10.79
10.02
1.77
5.37
0.78
0.69
-18.45
-1.65
-14.22
3.96
-0.75
-0.95
1.53

> <PUBCHEM_SHAPE_SELFOVERLAP>
1470.033

> <PUBCHEM_SHAPE_VOLUME>
363.1

> <PUBCHEM_COORDINATE_TYPE>
2
5
10

$$$$
