REMARK  Name = 122185
REMARK  11 active torsions:
REMARK  status: ('A' for Active; 'I' for Inactive)
REMARK    1  A    between atoms: N_2  and  C_21
REMARK    2  A    between atoms: C_3  and  C_5
REMARK    3  A    between atoms: C_5  and  N_6
REMARK    4  A    between atoms: C_5  and  C_10
REMARK    5  A    between atoms: C_10  and  C_11
REMARK    6  A    between atoms: C_11  and  C_12
REMARK    7  A    between atoms: C_12  and  N_13
REMARK    8  A    between atoms: N_13  and  C_16
REMARK    9  A    between atoms: C_21  and  C_24
REMARK   10  A    between atoms: C_21  and  C_27
REMARK   11  A    between atoms: C_27  and  C_28
REMARK                            x       y       z     vdW  Elec       q    Type
REMARK                         _______ _______ _______ _____ _____    ______ ____
ROOT
ATOM      1  O   UNL     1      -1.983  -1.645   1.878  0.00  0.00    -0.277 OA
ATOM      2  N   UNL     1      -1.918  -0.758  -0.264  0.00  0.00    -0.300 N 
ATOM      3  C   UNL     1      -1.693  -1.743   0.687  0.00  0.00    +0.202 C 
ATOM      4  H   UNL     1      -1.651  -0.925  -1.197  0.00  0.00    +0.150 HD
ENDROOT
BRANCH   3   5
ATOM      5  C   UNL     1      -1.005  -2.973   0.103  0.00  0.00    +0.013 C 
BRANCH   5   6
ATOM      6  N   UNL     1      -1.952  -3.532  -0.863  0.00  0.00    +0.387 N 
ATOM      7  H   UNL     1      -1.548  -4.365  -1.292  0.00  0.00    -0.089 HD
ATOM      8  H   UNL     1      -2.150  -2.840  -1.585  0.00  0.00    -0.089 HD
ATOM      9  H   UNL     1      -2.818  -3.782  -0.385  0.00  0.00    -0.089 HD
ENDBRANCH   5   6
BRANCH   5  10
ATOM     10  C   UNL     1       0.321  -2.631  -0.593  0.00  0.00    -0.011 C 
BRANCH  10  11
ATOM     11  C   UNL     1       1.319  -1.969   0.367  0.00  0.00    +0.025 C 
BRANCH  11  12
ATOM     12  C   UNL     1       2.633  -1.608  -0.319  0.00  0.00    +0.129 C 
BRANCH  12  13
ATOM     13  N   UNL     1       3.536  -0.964   0.637  0.00  0.00    -0.240 NA
BRANCH  13  16
ATOM     14  N   UNL     1       5.193  -0.743  -1.087  0.00  0.00    -0.370 N 
ATOM     15  N   UNL     1       5.602   0.012   1.024  0.00  0.00    -0.370 N 
ATOM     16  C   UNL     1       4.697  -0.599   0.189  0.00  0.00    +0.189 C 
ATOM     17  H   UNL     1       4.643  -1.167  -1.785  0.00  0.00    +0.159 HD
ATOM     18  H   UNL     1       6.099  -0.421  -1.302  0.00  0.00    +0.159 HD
ATOM     19  H   UNL     1       5.370   0.175   1.967  0.00  0.00    +0.159 HD
ATOM     20  H   UNL     1       6.482   0.287   0.679  0.00  0.00    +0.159 HD
ENDBRANCH  13  16
ENDBRANCH  12  13
ENDBRANCH  11  12
ENDBRANCH  10  11
ENDBRANCH   5  10
ENDBRANCH   3   5
BRANCH   2  21
ATOM     21  C   UNL     1      -2.531   0.505   0.073  0.00  0.00    +0.153 C 
BRANCH  21  24
ATOM     22  O   UNL     1      -4.585  -0.422  -0.837  0.00  0.00    -0.274 OA
ATOM     23  N   UNL     1      -4.723   1.001   0.962  0.00  0.00    -0.327 N 
ATOM     24  C   UNL     1      -4.037   0.309  -0.015  0.00  0.00    +0.238 C 
ATOM     25  H   UNL     1      -5.706   0.949   1.003  0.00  0.00    +0.145 HD
ATOM     26  H   UNL     1      -4.231   1.546   1.617  0.00  0.00    +0.145 HD
ENDBRANCH  21  24
BRANCH  21  27
ATOM     27  C   UNL     1      -2.084   1.634  -0.863  0.00  0.00    +0.055 C 
BRANCH  27  28
ATOM     28  C   UNL     1      -0.723   2.182  -0.508  0.00  0.00    -0.020 C 
ATOM     29  C   UNL     1       0.423   1.624  -1.076  0.00  0.00    -0.004 C 
ATOM     30  C   UNL     1      -0.611   3.245   0.388  0.00  0.00    -0.004 C 
ATOM     31  C   UNL     1       1.681   2.130  -0.748  0.00  0.00    -0.000 C 
ATOM     32  C   UNL     1       0.647   3.751   0.715  0.00  0.00    -0.000 C 
ATOM     33  C   UNL     1       1.793   3.194   0.148  0.00  0.00    -0.000 C 
ENDBRANCH  27  28
ENDBRANCH  21  27
ENDBRANCH   2  21
TORSDOF 11
