REMARK  Name = 122171
REMARK  9 active torsions:
REMARK  status: ('A' for Active; 'I' for Inactive)
REMARK    1  A    between atoms: N_3  and  C_19
REMARK    2  A    between atoms: C_19  and  C_20
REMARK    3  A    between atoms: C_20  and  O_21
REMARK    4  A    between atoms: C_20  and  C_23
REMARK    5  A    between atoms: C_23  and  O_24
REMARK    6  A    between atoms: C_23  and  C_26
REMARK    7  A    between atoms: C_26  and  O_27
REMARK    8  A    between atoms: C_26  and  C_29
REMARK    9  A    between atoms: C_29  and  O_30
REMARK                            x       y       z     vdW  Elec       q    Type
REMARK                         _______ _______ _______ _____ _____    ______ ____
ROOT
ATOM      1  O   UNL     1       4.588   1.716  -1.052  0.00  0.00    -0.206 OA
ATOM      2  O   UNL     1       1.401   4.563   0.577  0.00  0.00    -0.174 OA
ATOM      3  N   UNL     1       0.398   0.170   0.674  0.00  0.00    -0.269 N 
ATOM      4  N   UNL     1       2.942  -0.322  -0.486  0.00  0.00    -0.388 NA
ATOM      5  N   UNL     1       1.018   2.484   0.582  0.00  0.00    -0.289 NA
ATOM      6  N   UNL     1       3.096   3.283  -0.270  0.00  0.00    -0.230 NA
ATOM      7  C   UNL     1       0.794  -1.157   0.395  0.00  0.00    +0.150 C 
ATOM      8  C   UNL     1       1.253   1.222   0.380  0.00  0.00    +0.242 C 
ATOM      9  C   UNL     1       2.064  -1.377  -0.182  0.00  0.00    +0.132 C 
ATOM     10  C   UNL     1      -0.012  -2.280   0.662  0.00  0.00    -0.004 C 
ATOM     11  C   UNL     1       2.577   0.890  -0.230  0.00  0.00    +0.270 C 
ATOM     12  C   UNL     1       0.425  -3.574   0.368  0.00  0.00    -0.028 C 
ATOM     13  C   UNL     1       1.676  -3.776  -0.199  0.00  0.00    -0.024 C 
ATOM     14  C   UNL     1       2.492  -2.682  -0.473  0.00  0.00    +0.025 C 
ATOM     15  C   UNL     1      -0.474  -4.728   0.673  0.00  0.00    +0.030 C 
ATOM     16  C   UNL     1       3.509   2.009  -0.553  0.00  0.00    +0.251 C 
ATOM     17  C   UNL     1       2.166  -5.148  -0.523  0.00  0.00    +0.031 C 
ATOM     18  C   UNL     1       1.924   3.479   0.261  0.00  0.00    +0.367 C 
ENDROOT
BRANCH   3  19
ATOM     19  C   UNL     1      -0.917   0.393   1.270  0.00  0.00    +0.126 C 
BRANCH  19  20
ATOM     20  C   UNL     1      -1.968   0.576   0.170  0.00  0.00    +0.159 C 
BRANCH  20  21
ATOM     21  O   UNL     1      -1.587   1.687  -0.643  0.00  0.00    -0.380 OA
ATOM     22  H   UNL     1      -0.697   1.536  -1.000  0.00  0.00    +0.211 HD
ENDBRANCH  20  21
BRANCH  20  23
ATOM     23  C   UNL     1      -3.382   0.820   0.734  0.00  0.00    +0.168 C 
BRANCH  23  24
ATOM     24  O   UNL     1      -3.763  -0.275   1.565  0.00  0.00    -0.379 OA
ATOM     25  H   UNL     1      -3.100  -0.399   2.262  0.00  0.00    +0.211 HD
ENDBRANCH  23  24
BRANCH  23  26
ATOM     26  C   UNL     1      -4.447   0.999  -0.365  0.00  0.00    +0.169 C 
BRANCH  26  27
ATOM     27  O   UNL     1      -5.723   1.195   0.249  0.00  0.00    -0.379 OA
ATOM     28  H   UNL     1      -5.682   1.962   0.841  0.00  0.00    +0.211 HD
ENDBRANCH  26  27
BRANCH  26  29
ATOM     29  C   UNL     1      -4.536  -0.213  -1.291  0.00  0.00    +0.169 C 
BRANCH  29  30
ATOM     30  O   UNL     1      -5.514   0.047  -2.293  0.00  0.00    -0.379 OA
ATOM     31  H   UNL     1      -5.579  -0.717  -2.887  0.00  0.00    +0.211 HD
ENDBRANCH  29  30
ENDBRANCH  26  29
ENDBRANCH  23  26
ENDBRANCH  20  23
ENDBRANCH  19  20
ENDBRANCH   3  19
TORSDOF 9
