REMARK  Name = 122184
REMARK  15 active torsions:
REMARK  status: ('A' for Active; 'I' for Inactive)
REMARK    1  A    between atoms: N_1  and  C_4
REMARK    2  A    between atoms: N_1  and  C_23
REMARK    3  A    between atoms: C_4  and  C_6
REMARK    4  A    between atoms: C_4  and  C_16
REMARK    5  A    between atoms: C_6  and  O_7
REMARK    6  A    between atoms: O_7  and  C_8
REMARK    7  A    between atoms: C_8  and  C_11
REMARK    8  A    between atoms: C_16  and  C_17
REMARK    9  A    between atoms: C_23  and  C_26
REMARK   10  A    between atoms: C_23  and  C_34
REMARK   11  A    between atoms: N_25  and  C_28
REMARK   12  A    between atoms: C_28  and  C_29
REMARK   13  A    between atoms: C_29  and  C_31
REMARK   14  A    between atoms: C_31  and  O_32
REMARK   15  A    between atoms: C_34  and  C_35
REMARK                            x       y       z     vdW  Elec       q    Type
REMARK                         _______ _______ _______ _____ _____    ______ ____
ROOT
ATOM      1  N   UNL     1       1.461   1.074  -1.974  0.00  0.00    +0.399 N 
ATOM      2  H   UNL     1       1.638   2.079  -1.975  0.00  0.00    -0.083 HD
ATOM      3  H   UNL     1       1.625   0.685  -2.902  0.00  0.00    -0.083 HD
ENDROOT
BRANCH   1   4
ATOM      4  C   UNL     1       0.065   0.833  -1.602  0.00  0.00    +0.045 C 
BRANCH   4   6
ATOM      5  O   UNL     1       0.155  -1.074  -3.118  0.00  0.00    -0.252 OA
ATOM      6  C   UNL     1      -0.291  -0.557  -2.102  0.00  0.00    +0.297 C 
BRANCH   6   7
ATOM      7  O   UNL     1      -1.161  -1.155  -1.227  0.00  0.00    -0.447 OA
BRANCH   7   8
ATOM      8  C   UNL     1      -1.558  -2.479  -1.552  0.00  0.00    +0.240 C 
BRANCH   8  11
ATOM      9  O   UNL     1      -3.615  -2.086  -0.338  0.00  0.00    -0.330 OA
ATOM     10  O   UNL     1      -3.066  -3.027   1.744  0.00  0.00    -0.332 OA
ATOM     11  C   UNL     1      -2.512  -2.983  -0.489  0.00  0.00    +0.191 C 
ATOM     12  C   UNL     1      -4.051  -2.272   1.019  0.00  0.00    +0.188 C 
ATOM     13  C   UNL     1      -1.916  -3.027   0.897  0.00  0.00    +0.178 C 
ATOM     14  C   UNL     1      -4.217  -0.904   1.668  0.00  0.00    +0.061 C 
ATOM     15  C   UNL     1      -5.361  -3.050   1.024  0.00  0.00    +0.061 C 
ENDBRANCH   8  11
ENDBRANCH   7   8
ENDBRANCH   6   7
ENDBRANCH   4   6
BRANCH   4  16
ATOM     16  C   UNL     1      -0.831   1.898  -2.249  0.00  0.00    +0.016 C 
BRANCH  16  17
ATOM     17  C   UNL     1      -2.169   2.042  -1.564  0.00  0.00    -0.024 C 
ATOM     18  C   UNL     1      -3.253   1.270  -1.982  0.00  0.00    -0.004 C 
ATOM     19  C   UNL     1      -2.322   2.947  -0.513  0.00  0.00    -0.004 C 
ATOM     20  C   UNL     1      -4.489   1.402  -1.349  0.00  0.00    -0.000 C 
ATOM     21  C   UNL     1      -3.558   3.079   0.120  0.00  0.00    -0.000 C 
ATOM     22  C   UNL     1      -4.642   2.307  -0.298  0.00  0.00    -0.000 C 
ENDBRANCH  16  17
ENDBRANCH   4  16
ENDBRANCH   1   4
BRANCH   1  23
ATOM     23  C   UNL     1       2.362   0.431  -1.031  0.00  0.00    +0.022 C 
BRANCH  23  26
ATOM     24  O   UNL     1       2.889   2.488   0.137  0.00  0.00    -0.277 OA
ATOM     25  N   UNL     1       1.988   0.726   1.346  0.00  0.00    -0.305 N 
ATOM     26  C   UNL     1       2.443   1.342   0.190  0.00  0.00    +0.203 C 
ATOM     27  H   UNL     1       1.648  -0.197   1.292  0.00  0.00    +0.149 HD
BRANCH  25  28
ATOM     28  C   UNL     1       1.996   1.393   2.626  0.00  0.00    +0.101 C 
BRANCH  28  29
ATOM     29  C   UNL     1       0.700   2.151   2.885  0.00  0.00    +0.131 C 
BRANCH  29  31
ATOM     30  O   UNL     1      -0.514   0.046   2.693  0.00  0.00    -0.250 OA
ATOM     31  C   UNL     1      -0.517   1.251   2.901  0.00  0.00    +0.316 C 
BRANCH  31  32
ATOM     32  O   UNL     1      -1.646   1.951   3.189  0.00  0.00    -0.480 OA
ATOM     33  H   UNL     1      -1.599   2.874   3.341  0.00  0.00    +0.295 HD
ENDBRANCH  31  32
ENDBRANCH  29  31
ENDBRANCH  28  29
ENDBRANCH  25  28
ENDBRANCH  23  26
BRANCH  23  34
ATOM     34  C   UNL     1       3.747   0.253  -1.670  0.00  0.00    +0.014 C 
BRANCH  34  35
ATOM     35  C   UNL     1       4.735  -0.422  -0.749  0.00  0.00    -0.024 C 
ATOM     36  C   UNL     1       5.528   0.345   0.106  0.00  0.00    -0.004 C 
ATOM     37  C   UNL     1       4.855  -1.812  -0.751  0.00  0.00    -0.004 C 
ATOM     38  C   UNL     1       6.440  -0.278   0.957  0.00  0.00    -0.000 C 
ATOM     39  C   UNL     1       5.767  -2.434   0.101  0.00  0.00    -0.000 C 
ATOM     40  C   UNL     1       6.560  -1.668   0.955  0.00  0.00    -0.000 C 
ENDBRANCH  34  35
ENDBRANCH  23  34
ENDBRANCH   1  23
TORSDOF 15
