122196035
  -OEChem-03292013293D

 59 62  0     1  0  0  0  0  0999 V2000
   -1.6664    1.2412    0.2207 O   0  0  0  0  0  0  0  0  0  0  0  0
    2.0418   -0.5588   -1.7939 O   0  0  0  0  0  0  0  0  0  0  0  0
    2.3079    0.2721    1.7627 O   0  0  0  0  0  0  0  0  0  0  0  0
    0.6019    1.6930   -1.1590 O   0  0  0  0  0  0  0  0  0  0  0  0
   -1.7849   -2.3824    1.1991 O   0  0  0  0  0  0  0  0  0  0  0  0
    3.1449    2.5537   -0.2972 O   0  0  0  0  0  0  0  0  0  0  0  0
    5.6116   -1.3946    0.6030 O   0  0  0  0  0  0  0  0  0  0  0  0
   -5.4082   -0.4711   -0.2683 O   0  0  0  0  0  0  0  0  0  0  0  0
   -4.5135   -2.5469   -0.3102 O   0  0  0  0  0  0  0  0  0  0  0  0
    2.0701   -0.8467   -0.3875 C   0  0  1  0  0  0  0  0  0  0  0  0
   -0.5127   -0.8846   -0.2547 C   0  0  2  0  0  0  0  0  0  0  0  0
    2.0585    0.5009    0.3755 C   0  0  1  0  0  0  0  0  0  0  0  0
    0.7963   -1.7062   -0.0422 C   0  0  1  0  0  0  0  0  0  0  0  0
   -0.5227    0.4274    0.5788 C   0  0  1  0  0  0  0  0  0  0  0  0
    0.7273    1.2720    0.2070 C   0  0  2  0  0  0  0  0  0  0  0  0
    3.3536   -1.6460   -0.0835 C   0  0  0  0  0  0  0  0  0  0  0  0
   -1.8241   -1.6675   -0.0315 C   0  0  2  0  0  0  0  0  0  0  0  0
    3.2571    1.3470   -0.0654 C   0  0  0  0  0  0  0  0  0  0  0  0
    4.6185    0.6595   -0.1734 C   0  0  0  0  0  0  0  0  0  0  0  0
    0.7460   -3.0183   -0.8490 C   0  0  0  0  0  0  0  0  0  0  0  0
   -0.6004    0.2242    2.1077 C   0  0  0  0  0  0  0  0  0  0  0  0
    4.6015   -0.8252    0.1771 C   0  0  0  0  0  0  0  0  0  0  0  0
   -3.0072   -0.7366   -0.0468 C   0  0  0  0  0  0  0  0  0  0  0  0
   -2.8754    0.5981    0.0367 C   0  0  0  0  0  0  0  0  0  0  0  0
    5.5703    1.3846    0.7941 C   0  0  0  0  0  0  0  0  0  0  0  0
    5.1372    0.7979   -1.6096 C   0  0  0  0  0  0  0  0  0  0  0  0
   -4.0238    1.4869   -0.0465 C   0  0  0  0  0  0  0  0  0  0  0  0
   -4.3530   -1.3341   -0.2199 C   0  0  0  0  0  0  0  0  0  0  0  0
   -5.2431    0.9341   -0.1854 C   0  0  0  0  0  0  0  0  0  0  0  0
   -3.7570    2.9672    0.0135 C   0  0  0  0  0  0  0  0  0  0  0  0
   -6.5518    1.6592   -0.2516 C   0  0  0  0  0  0  0  0  0  0  0  0
   -0.5428   -0.5904   -1.3161 H   0  0  0  0  0  0  0  0  0  0  0  0
    0.8620   -1.9938    1.0146 H   0  0  0  0  0  0  0  0  0  0  0  0
    0.7257    2.1883    0.8119 H   0  0  0  0  0  0  0  0  0  0  0  0
    3.5987   -2.3182   -0.9140 H   0  0  0  0  0  0  0  0  0  0  0  0
    3.2063   -2.2491    0.8213 H   0  0  0  0  0  0  0  0  0  0  0  0
   -1.9331   -2.4016   -0.8389 H   0  0  0  0  0  0  0  0  0  0  0  0
    0.5497   -2.8321   -1.9098 H   0  0  0  0  0  0  0  0  0  0  0  0
    1.6793   -3.5822   -0.7678 H   0  0  0  0  0  0  0  0  0  0  0  0
   -0.0413   -3.6805   -0.4755 H   0  0  0  0  0  0  0  0  0  0  0  0
   -0.4296    1.1747    2.6273 H   0  0  0  0  0  0  0  0  0  0  0  0
    0.1196   -0.5037    2.4857 H   0  0  0  0  0  0  0  0  0  0  0  0
   -1.5950   -0.1012    2.4302 H   0  0  0  0  0  0  0  0  0  0  0  0
    2.1924   -1.3836   -2.2845 H   0  0  0  0  0  0  0  0  0  0  0  0
    2.2329    1.1224    2.2288 H   0  0  0  0  0  0  0  0  0  0  0  0
    1.2878    2.3599   -1.3295 H   0  0  0  0  0  0  0  0  0  0  0  0
    5.2194    1.8491   -1.9081 H   0  0  0  0  0  0  0  0  0  0  0  0
    5.6234    2.4585    0.5812 H   0  0  0  0  0  0  0  0  0  0  0  0
    6.5902    0.9878    0.7330 H   0  0  0  0  0  0  0  0  0  0  0  0
    5.2338    1.2719    1.8316 H   0  0  0  0  0  0  0  0  0  0  0  0
    4.4708    0.3074   -2.3269 H   0  0  0  0  0  0  0  0  0  0  0  0
    6.1265    0.3392   -1.7208 H   0  0  0  0  0  0  0  0  0  0  0  0
   -2.6017   -2.9058    1.2664 H   0  0  0  0  0  0  0  0  0  0  0  0
   -3.0171    3.2566   -0.7418 H   0  0  0  0  0  0  0  0  0  0  0  0
   -3.3739    3.2468    1.0010 H   0  0  0  0  0  0  0  0  0  0  0  0
   -4.6434    3.5757   -0.1802 H   0  0  0  0  0  0  0  0  0  0  0  0
   -6.8882    1.7331   -1.2903 H   0  0  0  0  0  0  0  0  0  0  0  0
   -6.5112    2.6633    0.1765 H   0  0  0  0  0  0  0  0  0  0  0  0
   -7.3135    1.1110    0.3139 H   0  0  0  0  0  0  0  0  0  0  0  0
  1 14  1  0  0  0  0
  1 24  1  0  0  0  0
  2 10  1  0  0  0  0
  2 44  1  0  0  0  0
  3 12  1  0  0  0  0
  3 45  1  0  0  0  0
  4 15  1  0  0  0  0
  4 46  1  0  0  0  0
  5 17  1  0  0  0  0
  5 53  1  0  0  0  0
  6 18  2  0  0  0  0
  7 22  2  0  0  0  0
  8 28  1  0  0  0  0
  8 29  1  0  0  0  0
  9 28  2  0  0  0  0
 10 12  1  0  0  0  0
 10 13  1  0  0  0  0
 10 16  1  0  0  0  0
 11 13  1  0  0  0  0
 11 14  1  0  0  0  0
 11 17  1  0  0  0  0
 11 32  1  0  0  0  0
 12 15  1  0  0  0  0
 12 18  1  0  0  0  0
 13 20  1  0  0  0  0
 13 33  1  0  0  0  0
 14 15  1  0  0  0  0
 14 21  1  0  0  0  0
 15 34  1  0  0  0  0
 16 22  1  0  0  0  0
 16 35  1  0  0  0  0
 16 36  1  0  0  0  0
 17 23  1  0  0  0  0
 17 37  1  0  0  0  0
 18 19  1  0  0  0  0
 19 22  1  0  0  0  0
 19 25  1  0  0  0  0
 19 26  1  0  0  0  0
 20 38  1  0  0  0  0
 20 39  1  0  0  0  0
 20 40  1  0  0  0  0
 21 41  1  0  0  0  0
 21 42  1  0  0  0  0
 21 43  1  0  0  0  0
 23 24  2  0  0  0  0
 23 28  1  0  0  0  0
 24 27  1  0  0  0  0
 25 48  1  0  0  0  0
 25 49  1  0  0  0  0
 25 50  1  0  0  0  0
 26 47  1  0  0  0  0
 26 51  1  0  0  0  0
 26 52  1  0  0  0  0
 27 29  2  0  0  0  0
 27 30  1  0  0  0  0
 29 31  1  0  0  0  0
 30 54  1  0  0  0  0
 30 55  1  0  0  0  0
 30 56  1  0  0  0  0
 31 57  1  0  0  0  0
 31 58  1  0  0  0  0
 31 59  1  0  0  0  0
M  END
> <PUBCHEM_COMPOUND_CID>
122196035

> <PUBCHEM_CONFORMER_RMSD>
0.6

> <PUBCHEM_CONFORMER_DIVERSEORDER>
1

> <PUBCHEM_MMFF94_PARTIAL_CHARGES>
29
1 -0.36
10 0.28
12 0.34
14 0.28
15 0.28
16 0.06
17 0.42
18 0.45
19 0.12
2 -0.68
22 0.45
23 -0.12
24 0.08
27 -0.14
28 0.71
29 -0.06
3 -0.68
30 0.14
31 0.14
4 -0.68
44 0.4
45 0.4
46 0.4
5 -0.68
53 0.4
6 -0.57
7 -0.57
8 -0.23
9 -0.57

> <PUBCHEM_EFFECTIVE_ROTOR_COUNT>
1.2

> <PUBCHEM_PHARMACOPHORE_FEATURES>
17
1 1 acceptor
1 2 acceptor
1 2 donor
1 3 acceptor
1 3 donor
1 4 acceptor
1 4 donor
1 5 acceptor
1 5 donor
1 6 acceptor
1 7 acceptor
1 9 acceptor
3 19 25 26 hydrophobe
6 1 11 14 17 23 24 rings
6 10 11 12 13 14 15 rings
6 10 12 16 18 19 22 rings
6 8 23 24 27 28 29 rings

> <PUBCHEM_HEAVY_ATOM_COUNT>
31

> <PUBCHEM_ATOM_DEF_STEREO_COUNT>
7

> <PUBCHEM_ATOM_UDEF_STEREO_COUNT>
0

> <PUBCHEM_BOND_DEF_STEREO_COUNT>
0

> <PUBCHEM_BOND_UDEF_STEREO_COUNT>
0

> <PUBCHEM_ISOTOPIC_ATOM_COUNT>
0

> <PUBCHEM_COMPONENT_COUNT>
1

> <PUBCHEM_CACTVS_TAUTO_COUNT>
6

> <PUBCHEM_CONFORMER_ID>
0748904300000001

> <PUBCHEM_MMFF94_ENERGY>
108.3404

> <PUBCHEM_FEATURE_SELFOVERLAP>
86.359

> <PUBCHEM_SHAPE_FINGERPRINT>
10863032 1 18335985354539301730
10906281 52 18337410269768442517
11370993 70 18412825784970430671
11578080 2 16808120317520866135
11796584 16 18060139851097306518
12011746 2 18272378577023798222
12107183 9 17831855750824291482
12236239 1 17821447954561211945
12403259 415 17988358277416898633
12788726 201 18059862705579824305
13224815 77 17917719018998015971
13402501 40 18413387639807749553
13583140 156 17240488009346342809
13782708 43 17560234859953734855
13911987 19 17060341863355172540
14790565 3 18411702071207203452
15183329 4 18410858737330893300
15196674 1 18411698798442305782
15788980 27 18187087247410590976
1601671 61 18408321098964546572
17349148 13 18411983580538377700
17980427 23 17822016461796172212
18608769 82 18411140260617841867
18681886 176 18340764952986532920
200 152 17632860840734727499
20511986 3 18338220613948646343
20715895 44 18411417272142317365
21033648 144 18114454677500699229
21033648 29 18059281175613165544
21236236 1 18412261761982222963
21267235 1 18410863169679250419
21279426 13 18340770351364551326
21421861 104 17677318412963311402
22182313 1 18197805308339009206
22393880 68 18342465815637988094
23402539 116 18408599275543270629
23559900 14 18342735191475411267
3004659 81 18335984177982091194
335352 9 18410575046752399526
34797466 226 17418097637107972180
350125 39 18412262843612459041
3680242 22 18264490589921541074
4017518 198 17775569720203475726
4073 2 18113903796473860354
4214541 1 18410855447644446389
4340502 62 18343019969371656300
474 4 17530972414009220053
5104073 3 18410575089031997563
5283173 99 18411699855226040697
59755656 215 18341049627877169101
59755656 520 16950565476383278443
9709674 26 18411989061101764039
9981440 41 18335422387206168875

> <PUBCHEM_SHAPE_MULTIPOLES>
585.14
12.89
2.78
1.16
3.96
0.52
0.19
-3.97
-1.32
1.28
-0.29
-0.84
-0.03
0.04

> <PUBCHEM_SHAPE_SELFOVERLAP>
1279.009

> <PUBCHEM_SHAPE_VOLUME>
313.9

> <PUBCHEM_COORDINATE_TYPE>
2
5
10

$$$$
