REMARK  Name = 122193982
REMARK  7 active torsions:
REMARK  status: ('A' for Active; 'I' for Inactive)
REMARK    1  A    between atoms: C_3  and  C_21
REMARK    2  A    between atoms: C_8  and  O_15
REMARK    3  A    between atoms: C_11  and  C_18
REMARK    4  A    between atoms: C_18  and  O_19
REMARK    5  A    between atoms: C_21  and  N_22
REMARK    6  A    between atoms: N_22  and  C_24
REMARK    7  A    between atoms: C_25  and  C_32
REMARK                            x       y       z     vdW  Elec       q    Type
REMARK                         _______ _______ _______ _____ _____    ______ ____
ROOT
ATOM      1  N   UNL     1       0.410   0.513  -0.861  0.00  0.00    -0.397 NA
ATOM      2  N   UNL     1       2.838  -0.512  -0.060  0.00  0.00    -0.393 NA
ATOM      3  C   UNL     1      -0.498  -1.681  -0.921  0.00  0.00    +0.030 C 
ATOM      4  C   UNL     1       0.566  -0.810  -0.693  0.00  0.00    +0.161 C 
ATOM      5  C   UNL     1       1.798  -1.330  -0.286  0.00  0.00    +0.194 C 
ATOM      6  C   UNL     1      -0.357  -3.057  -0.752  0.00  0.00    +0.003 C 
ATOM      7  C   UNL     1       2.683   0.811  -0.228  0.00  0.00    +0.167 C 
ATOM      8  C   UNL     1       1.934  -2.707  -0.120  0.00  0.00    +0.171 C 
ATOM      9  C   UNL     1       1.450   1.331  -0.635  0.00  0.00    +0.161 C 
ATOM     10  C   UNL     1       0.866  -3.573  -0.350  0.00  0.00    +0.039 C 
ATOM     11  C   UNL     1       3.746   1.682   0.001  0.00  0.00    +0.107 C 
ATOM     12  C   UNL     1       1.315   2.708  -0.802  0.00  0.00    +0.035 C 
ATOM     13  C   UNL     1       3.605   3.058  -0.168  0.00  0.00    +0.009 C 
ATOM     14  C   UNL     1       2.382   3.574  -0.572  0.00  0.00    +0.003 C 
ENDROOT
BRANCH   8  15
ATOM     15  O   UNL     1       3.130  -3.236   0.275  0.00  0.00    -0.469 OA
ATOM     16  C   UNL     1       3.342  -3.373   1.677  0.00  0.00    +0.253 C 
ENDBRANCH   8  15
BRANCH  11  18
ATOM     17  O   UNL     1       5.226   0.156   1.099  0.00  0.00    -0.245 OA
ATOM     18  C   UNL     1       5.046   1.173   0.426  0.00  0.00    +0.341 C 
BRANCH  18  19
ATOM     19  O   UNL     1       6.072   1.954  -0.006  0.00  0.00    -0.477 OA
ATOM     20  H   UNL     1       5.896   2.720  -0.516  0.00  0.00    +0.295 HD
ENDBRANCH  18  19
ENDBRANCH  11  18
BRANCH   3  21
ATOM     21  C   UNL     1      -1.829  -1.153  -1.356  0.00  0.00    +0.117 C 
BRANCH  21  22
ATOM     22  N   UNL     1      -2.534  -0.558  -0.244  0.00  0.00    -0.329 N 
ATOM     23  H   UNL     1      -2.083  -0.533   0.631  0.00  0.00    +0.147 HD
BRANCH  22  24
ATOM     24  C   UNL     1      -3.807  -0.021  -0.340  0.00  0.00    +0.049 C 
ATOM     25  C   UNL     1      -4.433   0.541   0.773  0.00  0.00    +0.066 C 
ATOM     26  C   UNL     1      -4.463  -0.046  -1.570  0.00  0.00    +0.014 C 
ATOM     27  C   UNL     1      -5.715   1.077   0.655  0.00  0.00    +0.006 C 
ATOM     28  C   UNL     1      -5.745   0.490  -1.688  0.00  0.00    +0.001 C 
ATOM     29  C   UNL     1      -6.371   1.052  -0.575  0.00  0.00    +0.000 C 
BRANCH  25  32
ATOM     30  O   UNL     1      -3.886  -0.349   2.884  0.00  0.00    -0.270 OA
ATOM     31  N   UNL     1      -2.998   1.700   2.365  0.00  0.00    -0.325 N 
ATOM     32  C   UNL     1      -3.774   0.584   2.073  0.00  0.00    +0.244 C 
ATOM     33  H   UNL     1      -2.537   1.765   3.233  0.00  0.00    +0.145 HD
ATOM     34  H   UNL     1      -2.909   2.424   1.705  0.00  0.00    +0.145 HD
ENDBRANCH  25  32
ENDBRANCH  22  24
ENDBRANCH  21  22
ENDBRANCH   3  21
TORSDOF 7
