REMARK  Name = 122186907
REMARK  10 active torsions:
REMARK  status: ('A' for Active; 'I' for Inactive)
REMARK    1  A    between atoms: C_6  and  C_26
REMARK    2  A    between atoms: C_9  and  O_22
REMARK    3  A    between atoms: C_11  and  O_20
REMARK    4  A    between atoms: C_14  and  C_31
REMARK    5  A    between atoms: O_22  and  C_24
REMARK    6  A    between atoms: C_26  and  O_27
REMARK    7  A    between atoms: O_27  and  C_29
REMARK    8  A    between atoms: C_31  and  C_32
REMARK    9  A    between atoms: C_32  and  O_33
REMARK   10  A    between atoms: O_33  and  C_35
REMARK                            x       y       z     vdW  Elec       q    Type
REMARK                         _______ _______ _______ _____ _____    ______ ____
ROOT
ATOM      1  O   UNL     1      -1.942  -0.264   0.864  0.00  0.00    -0.363 OA
ATOM      2  O   UNL     1      -1.092   2.526  -1.143  0.00  0.00    -0.292 OA
ATOM      3  C   UNL     1       0.513  -0.315   1.379  0.00  0.00    +0.027 C 
ATOM      4  C   UNL     1      -0.914   0.403   1.648  0.00  0.00    +0.099 C 
ATOM      5  C   UNL     1       0.881  -0.156  -0.164  0.00  0.00    +0.055 C 
ATOM      6  C   UNL     1       2.090  -1.024  -0.714  0.00  0.00    +0.069 C 
ATOM      7  C   UNL     1       0.435  -1.842   1.676  0.00  0.00    +0.005 C 
ATOM      8  C   UNL     1      -0.837   1.903   1.188  0.00  0.00    +0.086 C 
ATOM      9  C   UNL     1       0.897   1.314  -0.633  0.00  0.00    +0.225 C 
ATOM     10  C   UNL     1      -1.402   0.292   3.108  0.00  0.00    +0.030 C 
ATOM     11  C   UNL     1       1.956  -2.502  -0.241  0.00  0.00    +0.114 C 
ATOM     12  C   UNL     1       1.669  -2.637   1.250  0.00  0.00    +0.029 C 
ATOM     13  C   UNL     1       1.555   0.290   2.357  0.00  0.00    +0.002 C 
ATOM     14  C   UNL     1      -3.058  -0.657   1.690  0.00  0.00    +0.096 C 
ATOM     15  C   UNL     1      -2.900   0.089   3.006  0.00  0.00    +0.030 C 
ATOM     16  C   UNL     1      -0.420   1.964  -0.278  0.00  0.00    +0.192 C 
ATOM     17  C   UNL     1       2.064  -1.015  -2.269  0.00  0.00    +0.006 C 
ATOM     18  C   UNL     1      -2.086   2.763   1.387  0.00  0.00    +0.010 C 
ATOM     19  C   UNL     1      -3.028  -2.174   1.907  0.00  0.00    +0.030 C 
ENDROOT
BRANCH  11  20
ATOM     20  O   UNL     1       0.936  -3.197  -0.964  0.00  0.00    -0.384 OA
ATOM     21  H   UNL     1       1.104  -3.120  -1.916  0.00  0.00    +0.210 HD
ENDBRANCH  11  20
BRANCH   9  22
ATOM     22  O   UNL     1       1.929   2.083  -0.055  0.00  0.00    -0.445 OA
BRANCH  22  24
ATOM     23  O   UNL     1       1.946   3.491  -1.886  0.00  0.00    -0.250 OA
ATOM     24  C   UNL     1       2.370   3.155  -0.788  0.00  0.00    +0.318 C 
ATOM     25  C   UNL     1       3.461   3.874  -0.054  0.00  0.00    +0.121 C 
ENDBRANCH  22  24
ENDBRANCH   9  22
BRANCH   6  26
ATOM     26  C   UNL     1       3.490  -0.503  -0.322  0.00  0.00    +0.211 C 
BRANCH  26  27
ATOM     27  O   UNL     1       4.447  -1.381  -0.872  0.00  0.00    -0.448 OA
BRANCH  27  29
ATOM     28  O   UNL     1       6.162  -0.118   0.023  0.00  0.00    -0.250 OA
ATOM     29  C   UNL     1       5.762  -1.076  -0.626  0.00  0.00    +0.318 C 
ATOM     30  C   UNL     1       6.660  -2.089  -1.268  0.00  0.00    +0.121 C 
ENDBRANCH  27  29
ENDBRANCH  26  27
ENDBRANCH   6  26
BRANCH  14  31
ATOM     31  C   UNL     1      -4.355  -0.300   0.964  0.00  0.00    +0.075 C 
BRANCH  31  32
ATOM     32  C   UNL     1      -4.296  -0.689  -0.501  0.00  0.00    +0.211 C 
BRANCH  32  33
ATOM     33  O   UNL     1      -5.521  -0.316  -1.116  0.00  0.00    -0.448 OA
BRANCH  33  35
ATOM     34  O   UNL     1      -4.777  -1.139  -3.143  0.00  0.00    -0.250 OA
ATOM     35  C   UNL     1      -5.630  -0.600  -2.450  0.00  0.00    +0.318 C 
ATOM     36  C   UNL     1      -6.966  -0.153  -2.960  0.00  0.00    +0.121 C 
ENDBRANCH  33  35
ENDBRANCH  32  33
ENDBRANCH  31  32
ENDBRANCH  14  31
TORSDOF 10
