122173269
  -OEChem-03292013293D

 76 81  0     1  0  0  0  0  0999 V2000
    2.0120   -0.9697    2.6560 O   0  0  0  0  0  0  0  0  0  0  0  0
    0.4994   -1.6748   -1.5420 O   0  0  0  0  0  0  0  0  0  0  0  0
   -1.3711    3.1074   -0.7361 O   0  0  0  0  0  0  0  0  0  0  0  0
    4.0229    1.7127   -1.6559 O   0  0  0  0  0  0  0  0  0  0  0  0
    4.4050    1.0753    1.3520 O   0  0  0  0  0  0  0  0  0  0  0  0
    2.6934   -2.6080    0.1471 O   0  0  0  0  0  0  0  0  0  0  0  0
    4.7620   -0.7696   -1.0656 O   0  0  0  0  0  0  0  0  0  0  0  0
   -3.4862    1.6219   -1.7671 O   0  0  0  0  0  0  0  0  0  0  0  0
   -4.6141   -1.5029   -1.2171 O   0  0  0  0  0  0  0  0  0  0  0  0
   -1.8846   -0.4626    1.9363 N   0  0  1  0  0  0  0  0  0  0  0  0
   -0.6232    1.0392    0.2996 C   0  0  2  0  0  0  0  0  0  0  0  0
   -1.1692   -0.0326   -0.7682 C   0  0  1  0  0  0  0  0  0  0  0  0
    0.9140    1.6007    0.1950 C   0  0  1  0  0  0  0  0  0  0  0  0
   -0.5803    0.0509    1.4855 C   0  0  2  0  0  0  0  0  0  0  0  0
    0.4244   -0.9705    0.7908 C   0  0  2  0  0  0  0  0  0  0  0  0
    1.9533    1.0004    1.2417 C   0  0  1  0  0  0  0  0  0  0  0  0
    1.8574   -0.5941    1.2795 C   0  0  1  0  0  0  0  0  0  0  0  0
   -0.3764   -1.3839   -0.4681 C   0  0  2  0  0  0  0  0  0  0  0  0
   -2.6854   -0.3044   -0.4748 C   0  0  1  0  0  0  0  0  0  0  0  0
   -1.5388    2.2837    0.4274 C   0  0  2  0  0  0  0  0  0  0  0  0
    1.6753    1.4634   -1.1484 C   0  0  0  0  0  0  0  0  0  0  0  0
    3.1352    1.0367   -0.7771 C   0  0  2  0  0  0  0  0  0  0  0  0
    3.2659    1.5397    0.6590 C   0  0  2  0  0  0  0  0  0  0  0  0
    3.0053   -1.2524    0.4728 C   0  0  2  0  0  0  0  0  0  0  0  0
   -2.8007   -0.9947    0.9202 C   0  0  0  0  0  0  0  0  0  0  0  0
   -3.5185    1.0033   -0.4795 C   0  0  1  0  0  0  0  0  0  0  0  0
    3.3697   -0.5011   -0.8383 C   0  0  2  0  0  0  0  0  0  0  0  0
   -3.0341    2.0203    0.5470 C   0  0  0  0  0  0  0  0  0  0  0  0
   -3.2677   -1.2540   -1.5496 C   0  0  0  0  0  0  0  0  0  0  0  0
   -1.7943   -1.3360    3.1001 C   0  0  0  0  0  0  0  0  0  0  0  0
   -0.1324   -2.4739   -2.5357 C   0  0  0  0  0  0  0  0  0  0  0  0
   -3.1505   -1.5105    3.7623 C   0  0  0  0  0  0  0  0  0  0  0  0
   -1.6676    4.4614   -0.4466 C   0  0  0  0  0  0  0  0  0  0  0  0
    4.9433   -2.0473   -1.6479 C   0  0  0  0  0  0  0  0  0  0  0  0
   -5.2434   -2.3739   -2.1540 C   0  0  0  0  0  0  0  0  0  0  0  0
   -1.0220    0.3267   -1.7921 H   0  0  0  0  0  0  0  0  0  0  0  0
    0.8836    2.6766    0.4234 H   0  0  0  0  0  0  0  0  0  0  0  0
   -0.1516    0.5430    2.3645 H   0  0  0  0  0  0  0  0  0  0  0  0
    0.3071   -1.9020    1.3713 H   0  0  0  0  0  0  0  0  0  0  0  0
    1.7969    1.4214    2.2425 H   0  0  0  0  0  0  0  0  0  0  0  0
   -0.9862   -2.2656   -0.2622 H   0  0  0  0  0  0  0  0  0  0  0  0
   -1.2200    2.8402    1.3200 H   0  0  0  0  0  0  0  0  0  0  0  0
    1.2210    0.7463   -1.8328 H   0  0  0  0  0  0  0  0  0  0  0  0
    1.6619    2.4284   -1.6703 H   0  0  0  0  0  0  0  0  0  0  0  0
    3.2973    2.6363    0.6881 H   0  0  0  0  0  0  0  0  0  0  0  0
    3.8979   -1.3246    1.1073 H   0  0  0  0  0  0  0  0  0  0  0  0
   -3.8325   -0.8715    1.2745 H   0  0  0  0  0  0  0  0  0  0  0  0
   -2.6664   -2.0793    0.8223 H   0  0  0  0  0  0  0  0  0  0  0  0
   -4.5720    0.7851   -0.2661 H   0  0  0  0  0  0  0  0  0  0  0  0
    2.8122   -0.8897   -1.6966 H   0  0  0  0  0  0  0  0  0  0  0  0
   -3.2599    1.6610    1.5568 H   0  0  0  0  0  0  0  0  0  0  0  0
   -3.6221    2.9357    0.4352 H   0  0  0  0  0  0  0  0  0  0  0  0
   -2.7395   -2.2108   -1.5708 H   0  0  0  0  0  0  0  0  0  0  0  0
   -3.2011   -0.8056   -2.5480 H   0  0  0  0  0  0  0  0  0  0  0  0
    2.8671   -0.6256    2.9660 H   0  0  0  0  0  0  0  0  0  0  0  0
   -1.3817   -2.3181    2.8415 H   0  0  0  0  0  0  0  0  0  0  0  0
   -1.1224   -0.8922    3.8451 H   0  0  0  0  0  0  0  0  0  0  0  0
    3.9096    2.6700   -1.5295 H   0  0  0  0  0  0  0  0  0  0  0  0
    4.3133    1.3476    2.2809 H   0  0  0  0  0  0  0  0  0  0  0  0
    2.4857   -3.0661    0.9794 H   0  0  0  0  0  0  0  0  0  0  0  0
   -4.0587    2.4071   -1.7330 H   0  0  0  0  0  0  0  0  0  0  0  0
    0.6217   -2.7356   -3.2835 H   0  0  0  0  0  0  0  0  0  0  0  0
   -0.9216   -1.9106   -3.0390 H   0  0  0  0  0  0  0  0  0  0  0  0
   -0.5247   -3.4019   -2.1089 H   0  0  0  0  0  0  0  0  0  0  0  0
   -3.8326   -2.1186    3.1599 H   0  0  0  0  0  0  0  0  0  0  0  0
   -3.0285   -2.0244    4.7221 H   0  0  0  0  0  0  0  0  0  0  0  0
   -3.6261   -0.5446    3.9646 H   0  0  0  0  0  0  0  0  0  0  0  0
   -1.3967    5.0542   -1.3256 H   0  0  0  0  0  0  0  0  0  0  0  0
   -1.0713    4.8291    0.3947 H   0  0  0  0  0  0  0  0  0  0  0  0
   -2.7304    4.6293   -0.2614 H   0  0  0  0  0  0  0  0  0  0  0  0
    4.2690   -2.2217   -2.4924 H   0  0  0  0  0  0  0  0  0  0  0  0
    4.8501   -2.8416   -0.9039 H   0  0  0  0  0  0  0  0  0  0  0  0
    5.9676   -2.0922   -2.0310 H   0  0  0  0  0  0  0  0  0  0  0  0
   -6.2804   -2.5215   -1.8414 H   0  0  0  0  0  0  0  0  0  0  0  0
   -4.7400   -3.3454   -2.1702 H   0  0  0  0  0  0  0  0  0  0  0  0
   -5.2378   -1.9276   -3.1531 H   0  0  0  0  0  0  0  0  0  0  0  0
  1 17  1  0  0  0  0
  1 55  1  0  0  0  0
  2 18  1  0  0  0  0
  2 31  1  0  0  0  0
  3 20  1  0  0  0  0
  3 33  1  0  0  0  0
  4 22  1  0  0  0  0
  4 58  1  0  0  0  0
  5 23  1  0  0  0  0
  5 59  1  0  0  0  0
  6 24  1  0  0  0  0
  6 60  1  0  0  0  0
  7 27  1  0  0  0  0
  7 34  1  0  0  0  0
  8 26  1  0  0  0  0
  8 61  1  0  0  0  0
  9 29  1  0  0  0  0
  9 35  1  0  0  0  0
 10 14  1  0  0  0  0
 10 25  1  0  0  0  0
 10 30  1  0  0  0  0
 11 12  1  0  0  0  0
 11 13  1  0  0  0  0
 11 14  1  0  0  0  0
 11 20  1  0  0  0  0
 12 18  1  0  0  0  0
 12 19  1  0  0  0  0
 12 36  1  0  0  0  0
 13 16  1  0  0  0  0
 13 21  1  0  0  0  0
 13 37  1  0  0  0  0
 14 15  1  0  0  0  0
 14 38  1  0  0  0  0
 15 17  1  0  0  0  0
 15 18  1  0  0  0  0
 15 39  1  0  0  0  0
 16 17  1  0  0  0  0
 16 23  1  0  0  0  0
 16 40  1  0  0  0  0
 17 24  1  0  0  0  0
 18 41  1  0  0  0  0
 19 25  1  0  0  0  0
 19 26  1  0  0  0  0
 19 29  1  0  0  0  0
 20 28  1  0  0  0  0
 20 42  1  0  0  0  0
 21 22  1  0  0  0  0
 21 43  1  0  0  0  0
 21 44  1  0  0  0  0
 22 23  1  0  0  0  0
 22 27  1  0  0  0  0
 23 45  1  0  0  0  0
 24 27  1  0  0  0  0
 24 46  1  0  0  0  0
 25 47  1  0  0  0  0
 25 48  1  0  0  0  0
 26 28  1  0  0  0  0
 26 49  1  0  0  0  0
 27 50  1  0  0  0  0
 28 51  1  0  0  0  0
 28 52  1  0  0  0  0
 29 53  1  0  0  0  0
 29 54  1  0  0  0  0
 30 32  1  0  0  0  0
 30 56  1  0  0  0  0
 30 57  1  0  0  0  0
 31 62  1  0  0  0  0
 31 63  1  0  0  0  0
 31 64  1  0  0  0  0
 32 65  1  0  0  0  0
 32 66  1  0  0  0  0
 32 67  1  0  0  0  0
 33 68  1  0  0  0  0
 33 69  1  0  0  0  0
 33 70  1  0  0  0  0
 34 71  1  0  0  0  0
 34 72  1  0  0  0  0
 34 73  1  0  0  0  0
 35 74  1  0  0  0  0
 35 75  1  0  0  0  0
 35 76  1  0  0  0  0
M  END
> <PUBCHEM_COMPOUND_CID>
122173269

> <PUBCHEM_CONFORMER_RMSD>
1

> <PUBCHEM_CONFORMER_DIVERSEORDER>
1

> <PUBCHEM_MMFF94_PARTIAL_CHARGES>
31
1 -0.68
10 -0.81
14 0.27
17 0.28
18 0.28
2 -0.56
20 0.28
22 0.28
23 0.28
24 0.28
25 0.27
26 0.28
27 0.28
29 0.28
3 -0.56
30 0.27
31 0.28
33 0.28
34 0.28
35 0.28
4 -0.68
5 -0.68
55 0.4
58 0.4
59 0.4
6 -0.68
60 0.4
61 0.4
7 -0.56
8 -0.68
9 -0.56

> <PUBCHEM_EFFECTIVE_ROTOR_COUNT>
8

> <PUBCHEM_PHARMACOPHORE_FEATURES>
19
1 1 acceptor
1 1 donor
1 10 cation
1 2 acceptor
1 3 acceptor
1 4 acceptor
1 4 donor
1 5 acceptor
1 5 donor
1 6 acceptor
1 6 donor
1 7 acceptor
1 8 acceptor
1 8 donor
1 9 acceptor
6 11 12 19 20 26 28 rings
8 10 11 12 14 15 18 19 25 rings
8 11 12 13 14 15 16 17 18 rings
8 13 16 17 21 22 23 24 27 rings

> <PUBCHEM_HEAVY_ATOM_COUNT>
35

> <PUBCHEM_ATOM_DEF_STEREO_COUNT>
11

> <PUBCHEM_ATOM_UDEF_STEREO_COUNT>
4

> <PUBCHEM_BOND_DEF_STEREO_COUNT>
0

> <PUBCHEM_BOND_UDEF_STEREO_COUNT>
0

> <PUBCHEM_ISOTOPIC_ATOM_COUNT>
0

> <PUBCHEM_COMPONENT_COUNT>
1

> <PUBCHEM_CACTVS_TAUTO_COUNT>
1

> <PUBCHEM_CONFORMER_ID>
0748375500000001

> <PUBCHEM_MMFF94_ENERGY>
234.2945

> <PUBCHEM_FEATURE_SELFOVERLAP>
97.885

> <PUBCHEM_SHAPE_FINGERPRINT>
10764073 3 17259392836196261649
10863032 1 18272362044998596724
11578080 2 16083330227902498933
12156800 1 15677919189319008452
12422481 6 17912678776197452995
12788726 201 18188477021945888073
13224815 77 18410292514480497904
13911987 19 17973168619127578668
14787075 74 16811824902558957426
15219462 58 18113904814618486218
15420108 30 16606843572658576265
15664445 248 17982439700808884900
16945 1 18264500644550607672
17349148 13 17895458281113115384
20691752 17 18270971248884075842
20775438 99 17405399579388453287
21033650 10 18187641354037295725
22182313 1 18042420178087003352
22393880 68 18341607067044567558
22907989 373 17969523617526868237
23419403 2 17262495718207705497
23558518 356 18116708517571633665
23559900 14 18059845126605572752
2818148 4 17058960795188798046
469060 322 18051696847394694050
70251023 43 18413107277143094623

> <PUBCHEM_SHAPE_MULTIPOLES>
662.48
8.34
3.38
2.74
2.43
2.22
2.17
-3.18
-3.12
-1.45
-1.74
-2.04
-1.73
0.24

> <PUBCHEM_SHAPE_SELFOVERLAP>
1434.197

> <PUBCHEM_SHAPE_VOLUME>
358.3

> <PUBCHEM_COORDINATE_TYPE>
2
5
10

$$$$
