REMARK  Name = 122196035
REMARK  4 active torsions:
REMARK  status: ('A' for Active; 'I' for Inactive)
REMARK    1  A    between atoms: C_6  and  O_28
REMARK    2  A    between atoms: C_8  and  O_30
REMARK    3  A    between atoms: C_11  and  O_32
REMARK    4  A    between atoms: C_13  and  O_34
REMARK                            x       y       z     vdW  Elec       q    Type
REMARK                         _______ _______ _______ _____ _____    ______ ____
ROOT
ATOM      1  O   UNL     1      -1.666   1.241   0.221  0.00  0.00    -0.480 OA
ATOM      2  O   UNL     1       3.145   2.554  -0.297  0.00  0.00    -0.293 OA
ATOM      3  O   UNL     1       5.612  -1.395   0.603  0.00  0.00    -0.296 OA
ATOM      4  O   UNL     1      -5.408  -0.471  -0.268  0.00  0.00    -0.426 OA
ATOM      5  O   UNL     1      -4.513  -2.547  -0.310  0.00  0.00    -0.245 OA
ATOM      6  C   UNL     1       2.070  -0.847  -0.388  0.00  0.00    +0.126 C 
ATOM      7  C   UNL     1      -0.513  -0.885  -0.255  0.00  0.00    +0.073 C 
ATOM      8  C   UNL     1       2.058   0.501   0.376  0.00  0.00    +0.190 C 
ATOM      9  C   UNL     1       0.796  -1.706  -0.042  0.00  0.00    +0.034 C 
ATOM     10  C   UNL     1      -0.523   0.427   0.579  0.00  0.00    +0.163 C 
ATOM     11  C   UNL     1       0.727   1.272   0.207  0.00  0.00    +0.180 C 
ATOM     12  C   UNL     1       3.354  -1.646  -0.084  0.00  0.00    +0.095 C 
ATOM     13  C   UNL     1      -1.824  -1.667  -0.032  0.00  0.00    +0.145 C 
ATOM     14  C   UNL     1       3.257   1.347  -0.065  0.00  0.00    +0.185 C 
ATOM     15  C   UNL     1       4.619   0.659  -0.173  0.00  0.00    +0.105 C 
ATOM     16  C   UNL     1       0.746  -3.018  -0.849  0.00  0.00    +0.003 C 
ATOM     17  C   UNL     1      -0.600   0.224   2.108  0.00  0.00    +0.046 C 
ATOM     18  C   UNL     1       4.601  -0.825   0.177  0.00  0.00    +0.159 C 
ATOM     19  C   UNL     1      -3.007  -0.737  -0.047  0.00  0.00    +0.114 A 
ATOM     20  C   UNL     1      -2.875   0.598   0.037  0.00  0.00    +0.141 A 
ATOM     21  C   UNL     1       5.570   1.385   0.794  0.00  0.00    +0.015 C 
ATOM     22  C   UNL     1       5.137   0.798  -1.610  0.00  0.00    +0.015 C 
ATOM     23  C   UNL     1      -4.024   1.487  -0.046  0.00  0.00    +0.042 A 
ATOM     24  C   UNL     1      -4.353  -1.334  -0.220  0.00  0.00    +0.347 A 
ATOM     25  C   UNL     1      -5.243   0.934  -0.185  0.00  0.00    +0.126 A 
ATOM     26  C   UNL     1      -3.757   2.967   0.013  0.00  0.00    +0.037 C 
ATOM     27  C   UNL     1      -6.552   1.659  -0.252  0.00  0.00    +0.072 C 
ENDROOT
BRANCH   6  28
ATOM     28  O   UNL     1       2.042  -0.559  -1.794  0.00  0.00    -0.384 OA
ATOM     29  H   UNL     1       1.240  -0.055  -2.005  0.00  0.00    +0.210 HD
ENDBRANCH   6  28
BRANCH   8  30
ATOM     30  O   UNL     1       2.308   0.272   1.763  0.00  0.00    -0.376 OA
ATOM     31  H   UNL     1       1.591  -0.264   2.136  0.00  0.00    +0.211 HD
ENDBRANCH   8  30
BRANCH  11  32
ATOM     32  O   UNL     1       0.602   1.693  -1.159  0.00  0.00    -0.378 OA
ATOM     33  H   UNL     1       1.376   2.222  -1.407  0.00  0.00    +0.211 HD
ENDBRANCH  11  32
BRANCH  13  34
ATOM     34  O   UNL     1      -1.785  -2.382   1.199  0.00  0.00    -0.380 OA
ATOM     35  H   UNL     1      -1.021  -2.980   1.202  0.00  0.00    +0.211 HD
ENDBRANCH  13  34
TORSDOF 4
