REMARK  Name = 122177428
REMARK  6 active torsions:
REMARK  status: ('A' for Active; 'I' for Inactive)
REMARK    1  A    between atoms: C_9  and  O_25
REMARK    2  A    between atoms: C_14  and  O_27
REMARK    3  A    between atoms: C_15  and  C_33
REMARK    4  A    between atoms: C_21  and  O_29
REMARK    5  A    between atoms: C_23  and  O_31
REMARK    6  A    between atoms: C_33  and  C_35
REMARK                            x       y       z     vdW  Elec       q    Type
REMARK                         _______ _______ _______ _____ _____    ______ ____
ROOT
ATOM      1  O   UNL     1      -3.532   2.506   0.314  0.00  0.00    -0.286 OA
ATOM      2  O   UNL     1      -2.099  -2.603  -0.309  0.00  0.00    -0.287 OA
ATOM      3  C   UNL     1       0.556   1.627  -0.045  0.00  0.00    +0.012 C 
ATOM      4  C   UNL     1       1.601   2.716   0.025  0.00  0.00    +0.034 C 
ATOM      5  C   UNL     1       0.961   0.279  -0.181  0.00  0.00    +0.002 C 
ATOM      6  C   UNL     1       2.801   2.393  -0.865  0.00  0.00    +0.031 C 
ATOM      7  C   UNL     1       2.408  -0.036  -0.284  0.00  0.00    +0.030 C 
ATOM      8  C   UNL     1       3.319   0.999  -0.605  0.00  0.00    -0.019 C 
ATOM      9  C   UNL     1      -0.800   1.962   0.083  0.00  0.00    +0.133 C 
ATOM     10  C   UNL     1      -1.779   0.966   0.044  0.00  0.00    +0.075 C 
ATOM     11  C   UNL     1      -1.402  -0.365  -0.116  0.00  0.00    +0.045 C 
ATOM     12  C   UNL     1      -0.044  -0.704  -0.228  0.00  0.00    +0.003 C 
ATOM     13  C   UNL     1       4.690   0.733  -0.737  0.00  0.00    -0.008 C 
ATOM     14  C   UNL     1       2.934  -1.321  -0.064  0.00  0.00    +0.133 C 
ATOM     15  C   UNL     1       5.180  -0.551  -0.522  0.00  0.00    -0.012 C 
ATOM     16  C   UNL     1      -3.204   1.335   0.170  0.00  0.00    +0.202 C 
ATOM     17  C   UNL     1      -2.426  -1.431  -0.168  0.00  0.00    +0.196 C 
ATOM     18  C   UNL     1       4.304  -1.575  -0.181  0.00  0.00    +0.033 C 
ATOM     19  C   UNL     1      -4.227   0.272   0.118  0.00  0.00    +0.076 C 
ATOM     20  C   UNL     1      -3.852  -1.063  -0.045  0.00  0.00    +0.048 C 
ATOM     21  C   UNL     1      -5.581   0.608   0.234  0.00  0.00    +0.140 C 
ATOM     22  C   UNL     1      -4.831  -2.063  -0.093  0.00  0.00    +0.040 C 
ATOM     23  C   UNL     1      -6.179  -1.724   0.022  0.00  0.00    +0.137 C 
ATOM     24  C   UNL     1      -6.553  -0.392   0.186  0.00  0.00    +0.073 C 
ENDROOT
BRANCH   9  25
ATOM     25  O   UNL     1      -1.130   3.277   0.253  0.00  0.00    -0.506 OA
ATOM     26  H   UNL     1      -0.457   3.929   0.276  0.00  0.00    +0.292 HD
ENDBRANCH   9  25
BRANCH  14  27
ATOM     27  O   UNL     1       2.186  -2.381   0.363  0.00  0.00    -0.506 OA
ATOM     28  H   UNL     1       1.260  -2.289   0.467  0.00  0.00    +0.292 HD
ENDBRANCH  14  27
BRANCH  21  29
ATOM     29  O   UNL     1      -6.018   1.889   0.395  0.00  0.00    -0.505 OA
ATOM     30  H   UNL     1      -5.401   2.593   0.433  0.00  0.00    +0.292 HD
ENDBRANCH  21  29
BRANCH  23  31
ATOM     31  O   UNL     1      -7.131  -2.696  -0.024  0.00  0.00    -0.505 OA
ATOM     32  H   UNL     1      -6.880  -3.593  -0.134  0.00  0.00    +0.292 HD
ENDBRANCH  23  31
BRANCH  15  33
ATOM     33  C   UNL     1       6.639  -0.827  -0.652  0.00  0.00    +0.091 C 
BRANCH  33  35
ATOM     34  O   UNL     1       6.878  -0.344   1.706  0.00  0.00    -0.296 OA
ATOM     35  C   UNL     1       7.420  -0.642   0.643  0.00  0.00    +0.155 C 
ATOM     36  C   UNL     1       8.911  -0.843   0.565  0.00  0.00    +0.073 C 
ENDBRANCH  33  35
ENDBRANCH  15  33
TORSDOF 6
