REMARK  Name = 122107
REMARK  4 active torsions:
REMARK  status: ('A' for Active; 'I' for Inactive)
REMARK    1  A    between atoms: C_2  and  N_15
REMARK    2  A    between atoms: C_4  and  C_19
REMARK    3  A    between atoms: C_5  and  N_8
REMARK    4  A    between atoms: C_19  and  O_20
REMARK                            x       y       z     vdW  Elec       q    Type
REMARK                         _______ _______ _______ _____ _____    ______ ____
ROOT
ATOM      1  O   UNL     1      -1.471  -0.226   0.986  0.00  0.00    -0.339 OA
ATOM      2  C   UNL     1      -2.843   0.745  -0.701  0.00  0.00    -0.031 C 
ATOM      3  C   UNL     1      -1.397   1.107  -0.981  0.00  0.00    +0.032 C 
ATOM      4  C   UNL     1      -2.695  -0.438   0.256  0.00  0.00    +0.127 C 
ATOM      5  C   UNL     1      -0.707   0.801   0.337  0.00  0.00    +0.197 C 
ENDROOT
BRANCH   5   8
ATOM      6  O   UNL     1       1.553   2.490   0.424  0.00  0.00    -0.252 OA
ATOM      7  O   UNL     1       4.435  -1.029  -0.318  0.00  0.00    -0.270 OA
ATOM      8  N   UNL     1       0.646   0.352   0.170  0.00  0.00    -0.219 N 
ATOM      9  N   UNL     1       2.986   0.737   0.054  0.00  0.00    -0.236 N 
ATOM     10  C   UNL     1       1.708   1.283   0.231  0.00  0.00    +0.315 C 
ATOM     11  C   UNL     1       0.906  -0.994  -0.050  0.00  0.00    +0.076 C 
ATOM     12  C   UNL     1       2.130  -1.500  -0.216  0.00  0.00    +0.074 C 
ATOM     13  C   UNL     1       3.297  -0.596  -0.168  0.00  0.00    +0.254 C 
ATOM     14  H   UNL     1       3.743   1.365   0.091  0.00  0.00    +0.159 HD
ENDBRANCH   5   8
BRANCH   2  15
ATOM     15  N   UNL     1      -3.540   1.847  -0.033  0.00  0.00    +0.384 N 
ATOM     16  H   UNL     1      -3.634   2.631  -0.679  0.00  0.00    -0.089 HD
ATOM     17  H   UNL     1      -3.005   2.142   0.784  0.00  0.00    -0.089 HD
ATOM     18  H   UNL     1      -4.466   1.535   0.260  0.00  0.00    -0.089 HD
ENDBRANCH   2  15
BRANCH   4  19
ATOM     19  C   UNL     1      -2.576  -1.772  -0.474  0.00  0.00    +0.164 C 
BRANCH  19  20
ATOM     20  O   UNL     1      -2.432  -2.808   0.484  0.00  0.00    -0.380 OA
ATOM     21  H   UNL     1      -2.356  -3.661   0.029  0.00  0.00    +0.211 HD
ENDBRANCH  19  20
ENDBRANCH   4  19
TORSDOF 4
