REMARK  Name = 122165
REMARK  10 active torsions:
REMARK  status: ('A' for Active; 'I' for Inactive)
REMARK    1  A    between atoms: CA_1  and  C_8
REMARK    2  A    between atoms: CA_1  and  N_14
REMARK    3  A    between atoms: CA_1  and  CB_27
REMARK    4  A    between atoms: CA_4  and  C_10
REMARK    5  A    between atoms: C_10  and  O_11
REMARK    6  A    between atoms: C_15  and  C_18
REMARK    7  A    between atoms: C_19  and  C_22
REMARK    8  A    between atoms: N_21  and  C_24
REMARK    9  A    between atoms: C_24  and  C_25
REMARK   10  A    between atoms: CB_27  and  CG1_29
REMARK                            x       y       z     vdW  Elec       q    Type
REMARK                         _______ _______ _______ _____ _____    ______ ____
ROOT
ATOM      1  CA  UNL     1      -0.184   1.392   0.370  0.00  0.00    +0.149 C 
ENDROOT
BRANCH   1   8
ATOM      2  O   UNL     1      -0.801   0.070  -1.512  0.00  0.00    -0.273 OA
ATOM      3  N   UNL     1      -1.960  -0.292   0.458  0.00  0.00    -0.270 N 
ATOM      4  CA  UNL     1      -2.720  -1.445  -0.005  0.00  0.00    +0.175 C 
ATOM      5  CB  UNL     1      -3.283  -2.074   1.264  0.00  0.00    +0.033 C 
ATOM      6  CD  UNL     1      -2.228  -0.016   1.867  0.00  0.00    +0.094 C 
ATOM      7  CG  UNL     1      -3.426  -0.888   2.215  0.00  0.00    +0.024 C 
ATOM      8  C   UNL     1      -1.000   0.330  -0.324  0.00  0.00    +0.244 C 
BRANCH   4  10
ATOM      9  OXT UNL     1      -4.339   0.168  -0.795  0.00  0.00    -0.248 OA
ATOM     10  C   UNL     1      -3.807  -0.927  -0.899  0.00  0.00    +0.332 C 
BRANCH  10  11
ATOM     11  O   UNL     1      -4.126  -1.844  -1.845  0.00  0.00    -0.479 OA
ATOM     12  H   UNL     1      -3.678  -2.667  -1.870  0.00  0.00    +0.295 HD
ENDBRANCH  10  11
ENDBRANCH   4  10
ENDBRANCH   1   8
BRANCH   1  14
ATOM     13  O   UNL     1       2.345   1.764   1.756  0.00  0.00    -0.272 OA
ATOM     14  N   UNL     1       1.136   1.303  -0.182  0.00  0.00    -0.296 N 
ATOM     15  C   ACE A   0       2.292   1.498   0.561  0.00  0.00    +0.253 C 
ATOM     16  H   UNL     1       1.228   1.093  -1.139  0.00  0.00    +0.150 HD
BRANCH  15  18
ATOM     17  O   UNL     1       3.412   0.623  -1.441  0.00  0.00    -0.335 OA
ATOM     18  C   UNL     1       3.558   1.355  -0.217  0.00  0.00    +0.227 C 
ATOM     19  C   UNL     1       4.198   0.011  -0.411  0.00  0.00    +0.227 C 
BRANCH  19  22
ATOM     20  O   UNL     1       3.471  -1.298   1.373  0.00  0.00    -0.272 OA
ATOM     21  N   UNL     1       3.148  -2.102  -0.788  0.00  0.00    -0.302 N 
ATOM     22  C   UNL     1       3.572  -1.188   0.157  0.00  0.00    +0.253 C 
ATOM     23  H   UNL     1       3.289  -1.893  -1.740  0.00  0.00    +0.150 HD
BRANCH  21  24
ATOM     24  C   UNL     1       2.508  -3.352  -0.447  0.00  0.00    +0.089 C 
BRANCH  24  25
ATOM     25  C   UNL     1       0.992  -3.222  -0.357  0.00  0.00    +0.021 C 
ATOM     26  C   UNL     1       0.311  -4.529   0.023  0.00  0.00    +0.002 C 
ENDBRANCH  24  25
ENDBRANCH  21  24
ENDBRANCH  19  22
ENDBRANCH  15  18
ENDBRANCH   1  14
BRANCH   1  27
ATOM     27  CB  UNL     1      -0.835   2.780   0.240  0.00  0.00    +0.027 C 
ATOM     28  CG2 UNL     1      -0.357   3.680   1.387  0.00  0.00    +0.002 C 
BRANCH  27  29
ATOM     29  CG1 UNL     1      -0.583   3.436  -1.136  0.00  0.00    +0.002 C 
ATOM     30  CD1 UNL     1      -1.296   4.770  -1.314  0.00  0.00    +0.000 C 
ENDBRANCH  27  29
ENDBRANCH   1  27
TORSDOF 10
