REMARK  Name = 122177434
REMARK  4 active torsions:
REMARK  status: ('A' for Active; 'I' for Inactive)
REMARK    1  A    between atoms: C_4  and  O_19
REMARK    2  A    between atoms: C_4  and  C_21
REMARK    3  A    between atoms: C_6  and  C_16
REMARK    4  A    between atoms: C_21  and  C_27
REMARK                            x       y       z     vdW  Elec       q    Type
REMARK                         _______ _______ _______ _____ _____    ______ ____
ROOT
ATOM      1  O   UNL     1      -4.088  -2.309  -1.548  0.00  0.00    -0.277 OA
ATOM      2  N   UNL     1      -3.181  -0.547  -0.287  0.00  0.00    -0.279 N 
ATOM      3  N   UNL     1      -1.375  -1.556   0.608  0.00  0.00    +0.405 N 
ATOM      4  C   UNL     1      -1.700   1.057   0.645  0.00  0.00    +0.109 C 
ATOM      5  C   UNL     1      -2.233  -0.391   0.782  0.00  0.00    +0.052 C 
ATOM      6  C   UNL     1      -2.252  -2.615   0.041  0.00  0.00    +0.020 C 
ATOM      7  C   UNL     1      -2.790   1.671  -0.223  0.00  0.00    +0.015 C 
ATOM      8  C   UNL     1      -3.604   0.672  -0.779  0.00  0.00    +0.050 C 
ATOM      9  C   UNL     1      -3.325  -1.842  -0.720  0.00  0.00    +0.208 C 
ATOM     10  C   UNL     1      -2.986   2.998  -0.564  0.00  0.00    -0.001 C 
ATOM     11  C   UNL     1      -4.590   0.949  -1.704  0.00  0.00    +0.015 C 
ATOM     12  C   UNL     1      -4.002   3.304  -1.474  0.00  0.00    -0.000 C 
ATOM     13  C   UNL     1      -4.793   2.288  -2.042  0.00  0.00    +0.001 C 
ATOM     14  H   UNL     1      -0.993  -1.853   1.506  0.00  0.00    -0.081 HD
ATOM     15  H   UNL     1      -0.583  -1.355  -0.001  0.00  0.00    -0.081 HD
ENDROOT
BRANCH   6  16
ATOM     16  C   UNL     1      -2.871  -3.499   1.114  0.00  0.00    -0.011 C 
ATOM     17  C   UNL     1      -1.788  -4.243   1.895  0.00  0.00    -0.002 C 
ATOM     18  C   UNL     1      -3.858  -4.490   0.497  0.00  0.00    -0.002 C 
ENDBRANCH   6  16
BRANCH   4  19
ATOM     19  O   UNL     1      -1.690   1.694   1.914  0.00  0.00    -0.383 OA
ATOM     20  H   UNL     1      -0.996   1.303   2.467  0.00  0.00    +0.211 HD
ENDBRANCH   4  19
BRANCH   4  21
ATOM     21  C   UNL     1      -0.334   1.174  -0.005  0.00  0.00    +0.060 C 
BRANCH  21  27
ATOM     22  O   UNL     1       0.391   2.606   2.769  0.00  0.00    -0.273 OA
ATOM     23  O   UNL     1       1.469  -1.737   0.815  0.00  0.00    -0.274 OA
ATOM     24  N   UNL     1       2.033   0.497   0.415  0.00  0.00    -0.229 N 
ATOM     25  N   UNL     1       2.063   3.067   1.259  0.00  0.00    -0.298 N 
ATOM     26  N   UNL     1       4.039   1.027  -0.750  0.00  0.00    -0.393 NA
ATOM     27  C   UNL     1       0.786   1.000   1.015  0.00  0.00    +0.160 C 
ATOM     28  C   UNL     1       1.068   2.274   1.798  0.00  0.00    +0.241 C 
ATOM     29  C   UNL     1       2.942   1.387  -0.162  0.00  0.00    +0.184 C 
ATOM     30  C   UNL     1       2.551   2.855  -0.091  0.00  0.00    +0.139 C 
ATOM     31  C   UNL     1       2.242  -0.888   0.379  0.00  0.00    +0.242 C 
ATOM     32  C   UNL     1       3.702   3.802  -0.404  0.00  0.00    +0.030 C 
ATOM     33  C   UNL     1       3.506  -1.314  -0.259  0.00  0.00    +0.151 C 
ATOM     34  C   UNL     1       4.350  -0.338  -0.797  0.00  0.00    +0.123 C 
ATOM     35  C   UNL     1       3.846  -2.670  -0.325  0.00  0.00    -0.010 C 
ATOM     36  C   UNL     1       5.545  -0.739  -1.405  0.00  0.00    +0.028 C 
ATOM     37  C   UNL     1       5.040  -3.054  -0.934  0.00  0.00    -0.004 C 
ATOM     38  C   UNL     1       5.889  -2.090  -1.474  0.00  0.00    +0.002 C 
ATOM     39  H   UNL     1       2.450   3.790   1.803  0.00  0.00    +0.150 HD
ENDBRANCH  21  27
ENDBRANCH   4  21
TORSDOF 4
