122172972
  -OEChem-03292013293D

 56 60  0     1  0  0  0  0  0999 V2000
   -8.2520   -1.1592   -0.3965 S   0  0  0  0  0  0  0  0  0  0  0  0
   -4.2188   -0.8121    1.8115 O   0  0  0  0  0  0  0  0  0  0  0  0
   -6.9549   -0.2179   -0.0635 O   0  0  0  0  0  0  0  0  0  0  0  0
   -8.5853   -1.0046   -1.8008 O   0  0  0  0  0  0  0  0  0  0  0  0
   -7.9799   -2.4787    0.1439 O   0  0  0  0  0  0  0  0  0  0  0  0
   -0.9650    0.6076    0.1872 N   0  0  0  0  0  0  0  0  0  0  0  0
    3.6508    0.1650   -0.1184 N   0  0  0  0  0  0  0  0  0  0  0  0
    0.2041    2.4926   -0.7581 N   0  0  0  0  0  0  0  0  0  0  0  0
    2.6128    2.1570   -0.8721 N   0  0  0  0  0  0  0  0  0  0  0  0
   -9.5175   -0.4684    0.5315 N   0  0  0  0  0  0  0  0  0  0  0  0
   -2.3742    1.1475    0.1037 C   0  0  1  0  0  0  0  0  0  0  0  0
   -4.6868    0.5224   -0.1863 C   0  0  2  0  0  0  0  0  0  0  0  0
   -3.2968    0.2911   -0.7798 C   0  0  0  0  0  0  0  0  0  0  0  0
   -4.4134    0.5088    1.3197 C   0  0  2  0  0  0  0  0  0  0  0  0
   -3.0987    1.2794    1.4641 C   0  0  0  0  0  0  0  0  0  0  0  0
   -5.7041   -0.4995   -0.6684 C   0  0  0  0  0  0  0  0  0  0  0  0
    0.1676    1.2616   -0.2192 C   0  0  0  0  0  0  0  0  0  0  0  0
   -0.6277   -0.6245    0.6863 C   0  0  0  0  0  0  0  0  0  0  0  0
    1.2537    0.4301    0.0252 C   0  0  0  0  0  0  0  0  0  0  0  0
    4.9810    0.6108   -0.4557 C   0  0  1  0  0  0  0  0  0  0  0  0
    0.7412   -0.7619    0.5980 C   0  0  0  0  0  0  0  0  0  0  0  0
    5.5694    1.4863    0.6668 C   0  0  0  0  0  0  0  0  0  0  0  0
    2.5097    0.9238   -0.3248 C   0  0  0  0  0  0  0  0  0  0  0  0
    5.9401   -0.5408   -0.4597 C   0  0  0  0  0  0  0  0  0  0  0  0
    6.2941    0.5397    1.6396 C   0  0  0  0  0  0  0  0  0  0  0  0
    6.6892   -0.5751    0.7235 C   0  0  0  0  0  0  0  0  0  0  0  0
    6.1137   -1.5039   -1.4408 C   0  0  0  0  0  0  0  0  0  0  0  0
    1.4691    2.8555   -1.0523 C   0  0  0  0  0  0  0  0  0  0  0  0
    7.6181   -1.5761    0.9528 C   0  0  0  0  0  0  0  0  0  0  0  0
    7.0572   -2.5101   -1.2229 C   0  0  0  0  0  0  0  0  0  0  0  0
    7.8034   -2.5463   -0.0344 C   0  0  0  0  0  0  0  0  0  0  0  0
   -2.2783    2.1470   -0.3384 H   0  0  0  0  0  0  0  0  0  0  0  0
   -5.0328    1.5293   -0.4593 H   0  0  0  0  0  0  0  0  0  0  0  0
   -3.0283   -0.7713   -0.7425 H   0  0  0  0  0  0  0  0  0  0  0  0
   -3.2453    0.6027   -1.8286 H   0  0  0  0  0  0  0  0  0  0  0  0
   -5.2258    0.9694    1.8907 H   0  0  0  0  0  0  0  0  0  0  0  0
   -3.3172    2.3406    1.6354 H   0  0  0  0  0  0  0  0  0  0  0  0
   -2.4919    0.9245    2.3034 H   0  0  0  0  0  0  0  0  0  0  0  0
   -5.3979   -1.5206   -0.4158 H   0  0  0  0  0  0  0  0  0  0  0  0
   -5.8100   -0.4356   -1.7572 H   0  0  0  0  0  0  0  0  0  0  0  0
   -1.3804   -1.3021    1.0655 H   0  0  0  0  0  0  0  0  0  0  0  0
   -4.0235   -0.7450    2.7617 H   0  0  0  0  0  0  0  0  0  0  0  0
    5.0081    1.1328   -1.4194 H   0  0  0  0  0  0  0  0  0  0  0  0
    1.3026   -1.6300    0.9152 H   0  0  0  0  0  0  0  0  0  0  0  0
    4.8309    2.1104    1.1809 H   0  0  0  0  0  0  0  0  0  0  0  0
    6.3132    2.1670    0.2281 H   0  0  0  0  0  0  0  0  0  0  0  0
    5.6124    0.1692    2.4121 H   0  0  0  0  0  0  0  0  0  0  0  0
    7.1565    1.0278    2.1020 H   0  0  0  0  0  0  0  0  0  0  0  0
    3.5399   -0.7336    0.3391 H   0  0  0  0  0  0  0  0  0  0  0  0
    5.5324   -1.4832   -2.3565 H   0  0  0  0  0  0  0  0  0  0  0  0
    1.5861    3.8398   -1.4927 H   0  0  0  0  0  0  0  0  0  0  0  0
    8.1892   -1.6118    1.8743 H   0  0  0  0  0  0  0  0  0  0  0  0
    7.2129   -3.2761   -1.9778 H   0  0  0  0  0  0  0  0  0  0  0  0
    8.5288   -3.3406    0.1196 H   0  0  0  0  0  0  0  0  0  0  0  0
   -9.4385   -0.5536    1.5530 H   0  0  0  0  0  0  0  0  0  0  0  0
   -9.8476    0.4606    0.2401 H   0  0  0  0  0  0  0  0  0  0  0  0
  1  3  1  0  0  0  0
  1  4  2  0  0  0  0
  1  5  2  0  0  0  0
  1 10  1  0  0  0  0
  2 14  1  0  0  0  0
  2 42  1  0  0  0  0
  3 16  1  0  0  0  0
  6 11  1  0  0  0  0
  6 17  1  0  0  0  0
  6 18  1  0  0  0  0
  7 20  1  0  0  0  0
  7 23  1  0  0  0  0
  7 49  1  0  0  0  0
  8 17  2  0  0  0  0
  8 28  1  0  0  0  0
  9 23  1  0  0  0  0
  9 28  2  0  0  0  0
 10 55  1  0  0  0  0
 10 56  1  0  0  0  0
 11 13  1  0  0  0  0
 11 15  1  0  0  0  0
 11 32  1  0  0  0  0
 12 13  1  0  0  0  0
 12 14  1  0  0  0  0
 12 16  1  0  0  0  0
 12 33  1  0  0  0  0
 13 34  1  0  0  0  0
 13 35  1  0  0  0  0
 14 15  1  0  0  0  0
 14 36  1  0  0  0  0
 15 37  1  0  0  0  0
 15 38  1  0  0  0  0
 16 39  1  0  0  0  0
 16 40  1  0  0  0  0
 17 19  1  0  0  0  0
 18 21  2  0  0  0  0
 18 41  1  0  0  0  0
 19 21  1  0  0  0  0
 19 23  2  0  0  0  0
 20 22  1  0  0  0  0
 20 24  1  0  0  0  0
 20 43  1  0  0  0  0
 21 44  1  0  0  0  0
 22 25  1  0  0  0  0
 22 45  1  0  0  0  0
 22 46  1  0  0  0  0
 24 26  1  0  0  0  0
 24 27  2  0  0  0  0
 25 26  1  0  0  0  0
 25 47  1  0  0  0  0
 25 48  1  0  0  0  0
 26 29  2  0  0  0  0
 27 30  1  0  0  0  0
 27 50  1  0  0  0  0
 28 51  1  0  0  0  0
 29 31  1  0  0  0  0
 29 52  1  0  0  0  0
 30 31  2  0  0  0  0
 30 53  1  0  0  0  0
 31 54  1  0  0  0  0
M  END
> <PUBCHEM_COMPOUND_CID>
122172972

> <PUBCHEM_CONFORMER_RMSD>
1

> <PUBCHEM_CONFORMER_DIVERSEORDER>
1
119
104
45
53
100
117
120
96
79
88
101
106
28
72
113
52
110
70
54
86
115
15
107
39
7
19
109
77
111
78
60
22
29
71
102
116
122
59
85
31
90
46
94
125
62
123
35
118
114
37
95
63
73
40
48
61
82
20
47
43
112
99
50
87
93
67
91
6
24
76
65
97
34
66
98
74
41
64
105
69
57
16
92
124
18
23
55
27
32
103
10
51
58
56
42
36
38
80
14
13
75
44
81
17
108
9
83
49
68
33
25
121
21
12
8
89
5
84
26
30
4
3
11
2

> <PUBCHEM_MMFF94_PARTIAL_CHARGES>
37
1 1.62
10 -0.98
11 0.26
14 0.28
16 0.28
17 0.11
18 -0.3
2 -0.68
20 0.51
21 -0.15
23 0.41
24 -0.14
25 0.14
26 -0.14
27 -0.15
28 0.47
29 -0.15
3 -0.46
30 -0.15
31 -0.15
4 -0.65
41 0.15
42 0.4
44 0.15
49 0.4
5 -0.65
50 0.15
51 0.15
52 0.15
53 0.15
54 0.15
55 0.42
56 0.42
6 0.05
7 -0.87
8 -0.57
9 -0.62

> <PUBCHEM_EFFECTIVE_ROTOR_COUNT>
7.6

> <PUBCHEM_PHARMACOPHORE_FEATURES>
14
1 10 donor
1 2 acceptor
1 2 donor
1 4 acceptor
1 5 acceptor
1 7 cation
1 7 donor
3 6 8 17 cation
3 8 9 28 cation
5 11 12 13 14 15 rings
5 20 22 24 25 26 rings
5 6 17 18 19 21 rings
6 24 26 27 29 30 31 rings
6 8 9 17 19 23 28 rings

> <PUBCHEM_HEAVY_ATOM_COUNT>
31

> <PUBCHEM_ATOM_DEF_STEREO_COUNT>
4

> <PUBCHEM_ATOM_UDEF_STEREO_COUNT>
0

> <PUBCHEM_BOND_DEF_STEREO_COUNT>
0

> <PUBCHEM_BOND_UDEF_STEREO_COUNT>
0

> <PUBCHEM_ISOTOPIC_ATOM_COUNT>
0

> <PUBCHEM_COMPONENT_COUNT>
1

> <PUBCHEM_CACTVS_TAUTO_COUNT>
20

> <PUBCHEM_CONFORMER_ID>
0748362C00000001

> <PUBCHEM_MMFF94_ENERGY>
73.3758

> <PUBCHEM_FEATURE_SELFOVERLAP>
71.426

> <PUBCHEM_SHAPE_FINGERPRINT>
10 15 13398630550063063109
11135926 11 18410570687804160383
11386260 185 16588309435565759188
11672396 43 18335146431662814259
11991303 11 16081377391919523339
12120059 9 17676200308464146802
12236239 1 18202286900759624689
12539765 74 11386359327293799537
13073987 5 14907634354476585645
13533116 47 18060421288521572272
13617811 41 17530684282613578110
13668630 136 18407758140515895799
13692114 37 18343579651462646774
13782708 43 17531822362224843777
13862211 1 18333452015414119032
13947934 56 18201440247817424833
14117953 113 17023178349784719391
14216079 64 18408603639446476926
14251764 18 11959735975862323009
14617042 71 10231744613762190210
15183329 4 14851606553439968500
15198563 99 16660926557021983676
15347590 135 14405189452100877135
15392192 104 17775284993751027678
16991971 28 18334296469881579491
1754908 1 16630526254488964995
1818759 1 18408890641946085147
18603816 31 17346024676573891503
195137 175 11386368141077938395
2026 5 18337953385363424886
21130935 74 17986674775751383842
21267235 1 18334859415914573389
21424621 283 9367348145621607716
21521721 280 9871746893019130164
21682296 61 18335990783256664016
21792961 116 16950564341836750049
21895431 317 18335976472263097882
22224240 67 11959729374128824501
23522609 53 17977421320363172572
23559900 14 17604435222647001985
23569917 315 18412550907127966095
23569943 247 18051136895793234274
23576562 1 16299246759503866311
249057 25 18130239223975575313
249057 3 17967532411181138995
3004659 81 17240771666741030052
3178227 256 13254793546971834282
335352 9 18113621209100294804
3383291 50 18334577953369610802
3711267 37 8069751836234312887
4340502 62 15913329074908305596
4403749 210 10735871782309677373
504579 68 15502097453337179262
5080951 261 14979658993748079629
5283156 175 18201721756441424761
5758199 1 10231753388100170837
59682541 35 12679459811799299103
59682541 52 14129056998653214800
59755656 215 17967815995108449434
6081469 158 17312817187303986605
6328613 192 11746937581405970375
9689198 14 8070026683685413025
9831232 110 18129670669500750638
9937071 3 18343023316090715751
9953998 17 13398626169845462957
9962374 69 18411694405735072174

> <PUBCHEM_SHAPE_MULTIPOLES>
593.43
28.4
2.41
1.35
29.15
0.01
-0.14
-22.65
0.66
-2.55
0.7
-0.09
-0.03
0.12

> <PUBCHEM_SHAPE_SELFOVERLAP>
1284.088

> <PUBCHEM_SHAPE_VOLUME>
327.7

> <PUBCHEM_COORDINATE_TYPE>
2
5
10

$$$$
