REMARK  Name = 122104
REMARK  10 active torsions:
REMARK  status: ('A' for Active; 'I' for Inactive)
REMARK    1  A    between atoms: C_1  and  N_3
REMARK    2  A    between atoms: C_1  and  C_18
REMARK    3  A    between atoms: C_1  and  C_27
REMARK    4  A    between atoms: C_4  and  C_8
REMARK    5  A    between atoms: C_12  and  C_14
REMARK    6  A    between atoms: C_14  and  O_15
REMARK    7  A    between atoms: C_18  and  O_19
REMARK    8  A    between atoms: O_19  and  C_20
REMARK    9  A    between atoms: C_20  and  C_21
REMARK   10  A    between atoms: C_27  and  C_28
REMARK                            x       y       z     vdW  Elec       q    Type
REMARK                         _______ _______ _______ _____ _____    ______ ____
ROOT
ATOM      1  C   UNL     1      -0.604   0.989   1.894  0.00  0.00    +0.176 C 
ENDROOT
BRANCH   1   3
ATOM      2  O   UNL     1       2.035  -0.211   2.050  0.00  0.00    -0.273 OA
ATOM      3  N   UNL     1       0.022   0.116   0.927  0.00  0.00    -0.295 N 
ATOM      4  C   UNL     1       1.292  -0.409   1.092  0.00  0.00    +0.241 C 
ATOM      5  H   UNL     1      -0.479  -0.116   0.112  0.00  0.00    +0.150 HD
BRANCH   4   8
ATOM      6  O   UNL     1       3.298   0.868  -1.192  0.00  0.00    -0.263 OA
ATOM      7  N   UNL     1       3.138  -1.228  -0.161  0.00  0.00    -0.264 N 
ATOM      8  C   UNL     1       1.689  -1.302  -0.045  0.00  0.00    +0.152 C 
ATOM      9  C   UNL     1       1.400  -2.768   0.256  0.00  0.00    +0.031 C 
ATOM     10  C   UNL     1       2.657  -3.235   0.988  0.00  0.00    +0.024 C 
ATOM     11  C   UNL     1       3.771  -2.459   0.302  0.00  0.00    +0.094 C 
ATOM     12  C   UNL     1       3.779  -0.180  -0.786  0.00  0.00    +0.325 C 
BRANCH  12  14
ATOM     13  O   UNL     1       5.686  -0.873  -1.986  0.00  0.00    -0.240 OA
ATOM     14  C   UNL     1       5.239  -0.358  -0.980  0.00  0.00    +0.396 C 
BRANCH  14  15
ATOM     15  O   UNL     1       5.868   0.136   0.101  0.00  0.00    -0.438 OA
ATOM     16  C   UNL     1       7.295   0.044   0.068  0.00  0.00    +0.256 C 
ENDBRANCH  14  15
ENDBRANCH  12  14
ENDBRANCH   4   8
ENDBRANCH   1   3
BRANCH   1  18
ATOM     17  O   UNL     1      -2.811   1.341   2.812  0.00  0.00    -0.248 OA
ATOM     18  C   UNL     1      -2.108   0.768   1.986  0.00  0.00    +0.336 C 
BRANCH  18  19
ATOM     19  O   UNL     1      -2.552  -0.137   1.069  0.00  0.00    -0.442 OA
BRANCH  19  20
ATOM     20  C   UNL     1      -3.955  -0.416   1.101  0.00  0.00    +0.235 C 
BRANCH  20  21
ATOM     21  C   UNL     1      -4.278  -1.425   0.038  0.00  0.00    +0.021 C 
ATOM     22  C   UNL     1      -4.624  -0.999  -1.244  0.00  0.00    -0.001 C 
ATOM     23  C   UNL     1      -4.232  -2.787   0.331  0.00  0.00    -0.001 C 
ATOM     24  C   UNL     1      -4.924  -1.935  -2.233  0.00  0.00    -0.000 C 
ATOM     25  C   UNL     1      -4.532  -3.724  -0.658  0.00  0.00    -0.000 C 
ATOM     26  C   UNL     1      -4.878  -3.298  -1.940  0.00  0.00    -0.000 C 
ENDBRANCH  20  21
ENDBRANCH  19  20
ENDBRANCH  18  19
ENDBRANCH   1  18
BRANCH   1  27
ATOM     27  C   UNL     1      -0.254   2.461   1.627  0.00  0.00    +0.057 C 
BRANCH  27  28
ATOM     28  C   UNL     1      -0.765   3.003   0.311  0.00  0.00    -0.020 C 
ATOM     29  C   UNL     1      -2.026   3.595   0.244  0.00  0.00    -0.004 C 
ATOM     30  C   UNL     1       0.025   2.911  -0.835  0.00  0.00    -0.004 C 
ATOM     31  C   UNL     1      -2.497   4.095  -0.970  0.00  0.00    -0.000 C 
ATOM     32  C   UNL     1      -0.447   3.411  -2.049  0.00  0.00    -0.000 C 
ATOM     33  C   UNL     1      -1.708   4.003  -2.116  0.00  0.00    -0.000 C 
ENDBRANCH  27  28
ENDBRANCH   1  27
TORSDOF 10
