REMARK  Name = 122111
REMARK  4 active torsions:
REMARK  status: ('A' for Active; 'I' for Inactive)
REMARK    1  A    between atoms: N_2  and  C_13
REMARK    2  A    between atoms: C_12  and  O_16
REMARK    3  A    between atoms: C_15  and  C_18
REMARK    4  A    between atoms: C_18  and  O_19
REMARK                            x       y       z     vdW  Elec       q    Type
REMARK                         _______ _______ _______ _____ _____    ______ ____
ROOT
ATOM      1  O   UNL     1       1.729  -2.258  -0.773  0.00  0.00    -0.193 OA
ATOM      2  N   UNL     1       0.619  -0.302  -0.259  0.00  0.00    -0.178 N 
ATOM      3  N   UNL     1       3.022  -0.475  -0.227  0.00  0.00    -0.306 NA
ATOM      4  N   UNL     1       4.341   1.356   0.335  0.00  0.00    -0.332 N 
ATOM      5  C   UNL     1       0.726   1.025   0.121  0.00  0.00    +0.083 C 
ATOM      6  C   UNL     1       1.792  -1.074  -0.437  0.00  0.00    +0.276 C 
ATOM      7  C   UNL     1       1.900   1.620   0.329  0.00  0.00    +0.065 C 
ATOM      8  C   UNL     1       3.109   0.779   0.131  0.00  0.00    +0.193 C 
ATOM      9  H   UNL     1       5.161   0.824   0.211  0.00  0.00    +0.145 HD
ATOM     10  H   UNL     1       4.404   2.301   0.605  0.00  0.00    +0.145 HD
ENDROOT
BRANCH   2  13
ATOM     11  O   UNL     1      -1.568   0.156  -0.969  0.00  0.00    -0.335 OA
ATOM     12  C   UNL     1      -1.342  -1.385   0.805  0.00  0.00    +0.161 C 
ATOM     13  C   UNL     1      -0.688  -0.854  -0.458  0.00  0.00    +0.234 C 
ATOM     14  C   UNL     1      -2.807  -1.333   0.429  0.00  0.00    +0.066 C 
ATOM     15  C   UNL     1      -2.895  -0.105  -0.477  0.00  0.00    +0.149 C 
BRANCH  12  16
ATOM     16  O   UNL     1      -1.104  -0.507   1.900  0.00  0.00    -0.380 OA
ATOM     17  H   UNL     1      -0.165  -0.539   2.142  0.00  0.00    +0.211 HD
ENDBRANCH  12  16
BRANCH  15  18
ATOM     18  C   UNL     1      -3.401   1.140   0.236  0.00  0.00    +0.167 C 
BRANCH  18  19
ATOM     19  O   UNL     1      -3.434   2.217  -0.687  0.00  0.00    -0.379 OA
ATOM     20  H   UNL     1      -3.755   3.016  -0.241  0.00  0.00    +0.211 HD
ENDBRANCH  18  19
ENDBRANCH  15  18
ENDBRANCH   2  13
TORSDOF 4
