REMARK  Name = 122193981
REMARK  6 active torsions:
REMARK  status: ('A' for Active; 'I' for Inactive)
REMARK    1  A    between atoms: C_3  and  C_22
REMARK    2  A    between atoms: C_9  and  O_20
REMARK    3  A    between atoms: C_11  and  C_17
REMARK    4  A    between atoms: C_22  and  N_23
REMARK    5  A    between atoms: N_23  and  C_25
REMARK    6  A    between atoms: C_26  and  C_33
REMARK                            x       y       z     vdW  Elec       q    Type
REMARK                         _______ _______ _______ _____ _____    ______ ____
ROOT
ATOM      1  N   UNL     1       0.407   0.503  -0.884  0.00  0.00    -0.397 NA
ATOM      2  N   UNL     1       2.845  -0.487  -0.071  0.00  0.00    -0.393 NA
ATOM      3  C   UNL     1      -0.486  -1.697  -0.893  0.00  0.00    +0.030 C 
ATOM      4  C   UNL     1       0.572  -0.815  -0.688  0.00  0.00    +0.161 C 
ATOM      5  C   UNL     1       1.810  -1.318  -0.276  0.00  0.00    +0.194 C 
ATOM      6  C   UNL     1       2.679   0.831  -0.266  0.00  0.00    +0.165 C 
ATOM      7  C   UNL     1      -0.335  -3.068  -0.695  0.00  0.00    +0.003 C 
ATOM      8  C   UNL     1       1.441   1.333  -0.679  0.00  0.00    +0.161 C 
ATOM      9  C   UNL     1       1.956  -2.689  -0.080  0.00  0.00    +0.171 C 
ATOM     10  C   UNL     1       0.893  -3.567  -0.287  0.00  0.00    +0.039 C 
ATOM     11  C   UNL     1       3.738   1.714  -0.061  0.00  0.00    +0.085 C 
ATOM     12  C   UNL     1       1.296   2.705  -0.876  0.00  0.00    +0.035 C 
ATOM     13  C   UNL     1       3.586   3.085  -0.258  0.00  0.00    +0.007 C 
ATOM     14  C   UNL     1       2.358   3.583  -0.668  0.00  0.00    +0.003 C 
ENDROOT
BRANCH  11  17
ATOM     15  O   UNL     1       5.916   0.908  -0.454  0.00  0.00    -0.270 OA
ATOM     16  N   UNL     1       5.279   1.139   1.737  0.00  0.00    -0.325 N 
ATOM     17  C   UNL     1       5.042   1.223   0.370  0.00  0.00    +0.245 C 
ATOM     18  H   UNL     1       6.147   0.813   2.067  0.00  0.00    +0.145 HD
ATOM     19  H   UNL     1       4.578   1.406   2.375  0.00  0.00    +0.145 HD
ENDBRANCH  11  17
BRANCH   9  20
ATOM     20  O   UNL     1       3.157  -3.202   0.321  0.00  0.00    -0.469 OA
ATOM     21  C   UNL     1       3.376  -3.308   1.725  0.00  0.00    +0.253 C 
ENDBRANCH   9  20
BRANCH   3  22
ATOM     22  C   UNL     1      -1.823  -1.189  -1.334  0.00  0.00    +0.117 C 
BRANCH  22  23
ATOM     23  N   UNL     1      -2.527  -0.575  -0.231  0.00  0.00    -0.329 N 
ATOM     24  H   UNL     1      -2.074  -0.528   0.641  0.00  0.00    +0.147 HD
BRANCH  23  25
ATOM     25  C   UNL     1      -3.804  -0.049  -0.333  0.00  0.00    +0.049 C 
ATOM     26  C   UNL     1      -4.430   0.532   0.770  0.00  0.00    +0.066 C 
ATOM     27  C   UNL     1      -4.465  -0.105  -1.560  0.00  0.00    +0.014 C 
ATOM     28  C   UNL     1      -5.716   1.057   0.646  0.00  0.00    +0.006 C 
ATOM     29  C   UNL     1      -5.752   0.420  -1.685  0.00  0.00    +0.001 C 
ATOM     30  C   UNL     1      -6.377   1.001  -0.581  0.00  0.00    +0.000 C 
BRANCH  26  33
ATOM     31  O   UNL     1      -3.869  -0.309   2.897  0.00  0.00    -0.270 OA
ATOM     32  N   UNL     1      -2.997   1.735   2.331  0.00  0.00    -0.325 N 
ATOM     33  C   UNL     1      -3.766   0.608   2.065  0.00  0.00    +0.244 C 
ATOM     34  H   UNL     1      -2.533   1.822   3.195  0.00  0.00    +0.145 HD
ATOM     35  H   UNL     1      -2.916   2.446   1.654  0.00  0.00    +0.145 HD
ENDBRANCH  26  33
ENDBRANCH  23  25
ENDBRANCH  22  23
ENDBRANCH   3  22
TORSDOF 6
