122170
  -OEChem-03292013323D

 44 47  0     1  0  0  0  0  0999 V2000
    2.5851    0.9436    1.1228 O   0  0  0  0  0  0  0  0  0  0  0  0
    4.6721   -0.2661   -1.5422 O   0  0  0  0  0  0  0  0  0  0  0  0
    5.3007    1.8362    0.0612 O   0  0  0  0  0  0  0  0  0  0  0  0
    0.8216    3.1205    1.0073 O   0  0  0  0  0  0  0  0  0  0  0  0
    2.2380   -1.2397    0.2607 N   0  0  0  0  0  0  0  0  0  0  0  0
    1.4839   -3.3343    0.1121 N   0  0  0  0  0  0  0  0  0  0  0  0
    0.1316   -0.0331    0.1631 N   0  0  0  0  0  0  0  0  0  0  0  0
   -1.7593   -1.5625   -0.0413 N   0  0  0  0  0  0  0  0  0  0  0  0
   -2.0672    0.7581    0.0424 N   0  0  0  0  0  0  0  0  0  0  0  0
   -1.4869   -3.9385   -0.1269 N   0  0  0  0  0  0  0  0  0  0  0  0
    3.6116    0.4611   -0.9562 C   0  0  1  0  0  0  0  0  0  0  0  0
    3.1852   -0.1333    0.3775 C   0  0  1  0  0  0  0  0  0  0  0  0
    4.0094    1.8655   -0.5470 C   0  0  1  0  0  0  0  0  0  0  0  0
    2.9710    2.2001    0.5191 C   0  0  1  0  0  0  0  0  0  0  0  0
    1.7245    2.8605   -0.0531 C   0  0  0  0  0  0  0  0  0  0  0  0
    0.8772   -1.1483    0.1670 C   0  0  0  0  0  0  0  0  0  0  0  0
    2.5528   -2.5735    0.2227 C   0  0  0  0  0  0  0  0  0  0  0  0
    0.4295   -2.4566    0.0763 C   0  0  0  0  0  0  0  0  0  0  0  0
   -0.9447   -2.6451   -0.0308 C   0  0  0  0  0  0  0  0  0  0  0  0
   -1.1791   -0.3419    0.0549 C   0  0  0  0  0  0  0  0  0  0  0  0
   -3.4672    0.8483   -0.0528 C   0  0  0  0  0  0  0  0  0  0  0  0
   -4.0594    1.9644   -0.6488 C   0  0  0  0  0  0  0  0  0  0  0  0
   -4.2723   -0.1779    0.4474 C   0  0  0  0  0  0  0  0  0  0  0  0
   -5.4482    2.0539   -0.7441 C   0  0  0  0  0  0  0  0  0  0  0  0
   -5.6610   -0.0886    0.3521 C   0  0  0  0  0  0  0  0  0  0  0  0
   -6.2489    1.0273   -0.2436 C   0  0  0  0  0  0  0  0  0  0  0  0
    2.7751    0.4929   -1.6639 H   0  0  0  0  0  0  0  0  0  0  0  0
    4.0372   -0.5109    0.9567 H   0  0  0  0  0  0  0  0  0  0  0  0
    4.0494    2.5674   -1.3848 H   0  0  0  0  0  0  0  0  0  0  0  0
    3.3844    2.8193    1.3232 H   0  0  0  0  0  0  0  0  0  0  0  0
    1.2154    2.2305   -0.7877 H   0  0  0  0  0  0  0  0  0  0  0  0
    1.9737    3.8133   -0.5298 H   0  0  0  0  0  0  0  0  0  0  0  0
    5.4270   -0.2431   -0.9297 H   0  0  0  0  0  0  0  0  0  0  0  0
    5.5042    2.7413    0.3529 H   0  0  0  0  0  0  0  0  0  0  0  0
    3.5731   -2.9277    0.2779 H   0  0  0  0  0  0  0  0  0  0  0  0
    0.6011    2.2676    1.4194 H   0  0  0  0  0  0  0  0  0  0  0  0
   -1.5813    1.6479   -0.0196 H   0  0  0  0  0  0  0  0  0  0  0  0
   -0.8814   -4.7481   -0.1188 H   0  0  0  0  0  0  0  0  0  0  0  0
   -2.4889   -4.0489   -0.2029 H   0  0  0  0  0  0  0  0  0  0  0  0
   -3.4470    2.7713   -1.0436 H   0  0  0  0  0  0  0  0  0  0  0  0
   -3.8636   -1.0417    0.9611 H   0  0  0  0  0  0  0  0  0  0  0  0
   -5.9060    2.9228   -1.2075 H   0  0  0  0  0  0  0  0  0  0  0  0
   -6.2856   -0.8825    0.7514 H   0  0  0  0  0  0  0  0  0  0  0  0
   -7.3303    1.0979   -0.3154 H   0  0  0  0  0  0  0  0  0  0  0  0
  1 12  1  0  0  0  0
  1 14  1  0  0  0  0
  2 11  1  0  0  0  0
  2 33  1  0  0  0  0
  3 13  1  0  0  0  0
  3 34  1  0  0  0  0
  4 15  1  0  0  0  0
  4 36  1  0  0  0  0
  5 12  1  0  0  0  0
  5 16  1  0  0  0  0
  5 17  1  0  0  0  0
  6 17  2  0  0  0  0
  6 18  1  0  0  0  0
  7 16  2  0  0  0  0
  7 20  1  0  0  0  0
  8 19  1  0  0  0  0
  8 20  2  0  0  0  0
  9 20  1  0  0  0  0
  9 21  1  0  0  0  0
  9 37  1  0  0  0  0
 10 19  1  0  0  0  0
 10 38  1  0  0  0  0
 10 39  1  0  0  0  0
 11 12  1  0  0  0  0
 11 13  1  0  0  0  0
 11 27  1  0  0  0  0
 12 28  1  0  0  0  0
 13 14  1  0  0  0  0
 13 29  1  0  0  0  0
 14 15  1  0  0  0  0
 14 30  1  0  0  0  0
 15 31  1  0  0  0  0
 15 32  1  0  0  0  0
 16 18  1  0  0  0  0
 17 35  1  0  0  0  0
 18 19  2  0  0  0  0
 21 22  2  0  0  0  0
 21 23  1  0  0  0  0
 22 24  1  0  0  0  0
 22 40  1  0  0  0  0
 23 25  2  0  0  0  0
 23 41  1  0  0  0  0
 24 26  2  0  0  0  0
 24 42  1  0  0  0  0
 25 26  1  0  0  0  0
 25 43  1  0  0  0  0
 26 44  1  0  0  0  0
M  END
> <PUBCHEM_COMPOUND_CID>
122170

> <PUBCHEM_CONFORMER_RMSD>
0.8

> <PUBCHEM_CONFORMER_DIVERSEORDER>
5
32
50
72
15
33
42
10
68
79
97
11
106
9
76
80
12
61
38
34
64
58
30
93
20
77
2
52
91
102
70
28
89
18
27
51
67
66
48
23
71
16
85
105
41
94
62
74
39
44
26
92
29
49
47
55
81
13
43
98
17
90
36
60
88
54
40
57
46
56
4
35
53
101
95
8
19
59
87
75
103
25
73
7
82
37
14
21
45
104
3
65
96
83
84
31
86
69
99
100
1
22
24
78
63
6

> <PUBCHEM_MMFF94_PARTIAL_CHARGES>
38
1 -0.56
10 -0.9
11 0.28
12 0.54
13 0.28
14 0.28
15 0.28
16 0.11
17 0.04
18 0.23
19 0.41
2 -0.68
20 0.72
21 0.1
22 -0.15
23 -0.15
24 -0.15
25 -0.15
26 -0.15
3 -0.68
33 0.4
34 0.4
35 0.15
36 0.4
37 0.4
38 0.4
39 0.4
4 -0.68
40 0.15
41 0.15
42 0.15
43 0.15
44 0.15
5 0.05
6 -0.57
7 -0.57
8 -0.62
9 -0.6

> <PUBCHEM_EFFECTIVE_ROTOR_COUNT>
5

> <PUBCHEM_PHARMACOPHORE_FEATURES>
16
1 1 acceptor
1 10 cation
1 10 donor
1 2 acceptor
1 2 donor
1 3 acceptor
1 3 donor
1 4 acceptor
1 4 donor
1 9 donor
3 5 6 17 cation
4 7 8 9 20 cation
5 1 11 12 13 14 rings
5 5 6 16 17 18 rings
6 21 22 23 24 25 26 rings
6 7 8 16 18 19 20 rings

> <PUBCHEM_HEAVY_ATOM_COUNT>
26

> <PUBCHEM_ATOM_DEF_STEREO_COUNT>
3

> <PUBCHEM_ATOM_UDEF_STEREO_COUNT>
1

> <PUBCHEM_BOND_DEF_STEREO_COUNT>
0

> <PUBCHEM_BOND_UDEF_STEREO_COUNT>
0

> <PUBCHEM_ISOTOPIC_ATOM_COUNT>
0

> <PUBCHEM_COMPONENT_COUNT>
1

> <PUBCHEM_CACTVS_TAUTO_COUNT>
9

> <PUBCHEM_CONFORMER_ID>
0001DD3A00000005

> <PUBCHEM_MMFF94_ENERGY>
77.6874

> <PUBCHEM_FEATURE_SELFOVERLAP>
81.348

> <PUBCHEM_SHAPE_FINGERPRINT>
10165383 225 18261398853682318340
10411042 1 17689996730571299402
10693767 8 17987799579734951534
1100329 8 18337104571482930386
11595378 159 15647329685471951357
11796584 16 12967123883380361141
12730499 353 18408893923121465635
12769317 202 18410565163568498837
12838862 33 18339342141996136728
13140716 1 18267575999932393144
13402501 40 18408040710562132533
138480 1 17978226054529214027
13878862 14 18044914828278802181
13965767 371 18042665330494006584
14528608 73 18411979153065425261
14790565 3 18410581690671751789
14931854 50 18271254841406628204
14955137 171 17973151838801642874
15210252 30 18186810192541674324
15322687 12 18411697694778350153
15961568 22 17530971258795231381
1601671 61 18334013886782389324
17844677 252 18267588997115399073
17980427 23 17984384570002833146
18681886 176 18196643000121388875
20465049 17 18410023125969058518
21033648 29 18411411843557402409
22289505 5 18338232648441995005
23227448 37 18340768264305825079
23558518 356 17757829309708386032
23559900 14 18048869702942691243
3298306 158 18410572890425583021
335352 9 18410293593356059350
350125 39 18263361395806346078
474 4 18411415077614294515
5104073 3 18187651233326857097
513532 50 17988921133429659062
53794403 172 18120376707521686901
59755656 215 18408323281230043149
7808743 9 18263644146425468172
9777508 108 18194399116021691627

> <PUBCHEM_SHAPE_MULTIPOLES>
481.7
11.76
4.06
0.86
12.51
2.09
-0.09
-7.92
-1.88
-1.8
0.16
-0.45
-0.27
0.6

> <PUBCHEM_SHAPE_SELFOVERLAP>
1056.982

> <PUBCHEM_SHAPE_VOLUME>
255.8

> <PUBCHEM_COORDINATE_TYPE>
2
5
10

$$$$
