122107
  -OEChem-03292013323D

 29 30  0     1  0  0  0  0  0999 V2000
   -1.4712   -0.2256    0.9863 O   0  0  0  0  0  0  0  0  0  0  0  0
   -2.4321   -2.8078    0.4843 O   0  0  0  0  0  0  0  0  0  0  0  0
    1.5526    2.4903    0.4244 O   0  0  0  0  0  0  0  0  0  0  0  0
    4.4352   -1.0288   -0.3181 O   0  0  0  0  0  0  0  0  0  0  0  0
    0.6458    0.3524    0.1704 N   0  0  0  0  0  0  0  0  0  0  0  0
   -3.5399    1.8470   -0.0333 N   0  0  0  0  0  0  0  0  0  0  0  0
    2.9865    0.7367    0.0538 N   0  0  0  0  0  0  0  0  0  0  0  0
   -2.8428    0.7453   -0.7013 C   0  0  1  0  0  0  0  0  0  0  0  0
   -1.3968    1.1072   -0.9813 C   0  0  0  0  0  0  0  0  0  0  0  0
   -2.6948   -0.4376    0.2557 C   0  0  1  0  0  0  0  0  0  0  0  0
   -0.7065    0.8006    0.3372 C   0  0  1  0  0  0  0  0  0  0  0  0
   -2.5762   -1.7723   -0.4743 C   0  0  0  0  0  0  0  0  0  0  0  0
    1.7082    1.2827    0.2307 C   0  0  0  0  0  0  0  0  0  0  0  0
    0.9058   -0.9941   -0.0497 C   0  0  0  0  0  0  0  0  0  0  0  0
    2.1296   -1.4997   -0.2165 C   0  0  0  0  0  0  0  0  0  0  0  0
    3.2966   -0.5960   -0.1683 C   0  0  0  0  0  0  0  0  0  0  0  0
   -3.3921    0.4885   -1.6127 H   0  0  0  0  0  0  0  0  0  0  0  0
   -1.0137    0.4691   -1.7880 H   0  0  0  0  0  0  0  0  0  0  0  0
   -1.2433    2.1429   -1.3031 H   0  0  0  0  0  0  0  0  0  0  0  0
   -3.5104   -0.4986    0.9861 H   0  0  0  0  0  0  0  0  0  0  0  0
   -0.7293    1.6814    0.9899 H   0  0  0  0  0  0  0  0  0  0  0  0
   -1.7271   -1.8145   -1.1594 H   0  0  0  0  0  0  0  0  0  0  0  0
   -3.4805   -1.9738   -1.0583 H   0  0  0  0  0  0  0  0  0  0  0  0
   -4.5002    1.5706    0.1668 H   0  0  0  0  0  0  0  0  0  0  0  0
   -3.5956    2.6460   -0.6636 H   0  0  0  0  0  0  0  0  0  0  0  0
    0.0708   -1.6755   -0.0758 H   0  0  0  0  0  0  0  0  0  0  0  0
   -3.2230   -2.7998    1.0499 H   0  0  0  0  0  0  0  0  0  0  0  0
    3.7667    1.3866    0.0931 H   0  0  0  0  0  0  0  0  0  0  0  0
    2.2964   -2.5571   -0.3816 H   0  0  0  0  0  0  0  0  0  0  0  0
  1 10  1  0  0  0  0
  1 11  1  0  0  0  0
  2 12  1  0  0  0  0
  2 27  1  0  0  0  0
  3 13  2  0  0  0  0
  4 16  2  0  0  0  0
  5 11  1  0  0  0  0
  5 13  1  0  0  0  0
  5 14  1  0  0  0  0
  6  8  1  0  0  0  0
  6 24  1  0  0  0  0
  6 25  1  0  0  0  0
  7 13  1  0  0  0  0
  7 16  1  0  0  0  0
  7 28  1  0  0  0  0
  8  9  1  0  0  0  0
  8 10  1  0  0  0  0
  8 17  1  0  0  0  0
  9 11  1  0  0  0  0
  9 18  1  0  0  0  0
  9 19  1  0  0  0  0
 10 12  1  0  0  0  0
 10 20  1  0  0  0  0
 11 21  1  0  0  0  0
 12 22  1  0  0  0  0
 12 23  1  0  0  0  0
 14 15  2  0  0  0  0
 14 26  1  0  0  0  0
 15 16  1  0  0  0  0
 15 29  1  0  0  0  0
M  END
> <PUBCHEM_COMPOUND_CID>
122107

> <PUBCHEM_CONFORMER_RMSD>
0.6

> <PUBCHEM_CONFORMER_DIVERSEORDER>
2
8
9
12
6
10
3
7
11
5
1
4

> <PUBCHEM_MMFF94_PARTIAL_CHARGES>
21
1 -0.56
10 0.28
11 0.58
12 0.28
13 0.69
14 -0.04
15 -0.14
16 0.62
2 -0.68
24 0.36
25 0.36
26 0.15
27 0.4
28 0.37
29 0.15
3 -0.57
4 -0.57
5 -0.47
6 -0.99
7 -0.49
8 0.27

> <PUBCHEM_EFFECTIVE_ROTOR_COUNT>
3

> <PUBCHEM_PHARMACOPHORE_FEATURES>
10
1 1 acceptor
1 2 acceptor
1 2 donor
1 3 acceptor
1 4 acceptor
1 6 cation
1 6 donor
1 7 donor
5 1 8 9 10 11 rings
6 5 7 13 14 15 16 rings

> <PUBCHEM_HEAVY_ATOM_COUNT>
16

> <PUBCHEM_ATOM_DEF_STEREO_COUNT>
3

> <PUBCHEM_ATOM_UDEF_STEREO_COUNT>
0

> <PUBCHEM_BOND_DEF_STEREO_COUNT>
0

> <PUBCHEM_BOND_UDEF_STEREO_COUNT>
0

> <PUBCHEM_ISOTOPIC_ATOM_COUNT>
0

> <PUBCHEM_COMPONENT_COUNT>
1

> <PUBCHEM_CACTVS_TAUTO_COUNT>
3

> <PUBCHEM_CONFORMER_ID>
0001DCFB00000002

> <PUBCHEM_MMFF94_ENERGY>
34.3434

> <PUBCHEM_FEATURE_SELFOVERLAP>
50.751

> <PUBCHEM_SHAPE_FINGERPRINT>
10608611 8 18410569617222874393
11132069 177 18411695474617627738
12032990 46 18342745087755411414
12500047 106 18335697200566497685
12932764 1 17676476229341345513
13296908 3 18413669127806180834
14115302 16 18335149643607352708
14965852 173 18411136948148114405
15219456 202 18410290341216535416
15375462 6 18122061167655601668
15775835 57 18114182969369062411
16945 1 18336532825029745977
18186145 218 18266446634250907309
19107657 46 18411981334550349254
200 152 17846207843652815959
20201158 50 18339078185842210670
21501502 16 18336265738087910493
221490 88 18338521966429758674
23402539 116 18129935690399980653
23559900 14 18341039817565326864
25 1 18191863418874619061
2748010 2 18339354296288607124
2871803 45 18263353853923343767
3312278 4 18341615888807068898
5493415 88 18413387657261607210
58051976 378 18123468551387747460
6333449 129 18334010571462814509
69090 78 18409162178531600485
7364860 26 18271522125805896840
74978 22 18412260627546471473
81228 2 17968938738066207537
8809292 202 18408044013254586274
93112 12 18410570686743317901
9709674 26 18340201998558744215

> <PUBCHEM_SHAPE_MULTIPOLES>
290.85
6.36
2.34
0.79
2.7
0.41
0.04
0.99
0.63
-0.96
-0.17
-0.29
-0.03
0.54

> <PUBCHEM_SHAPE_SELFOVERLAP>
609.275

> <PUBCHEM_SHAPE_VOLUME>
164.2

> <PUBCHEM_COORDINATE_TYPE>
2
5
10

$$$$
