REMARK  Name = 122173247
REMARK  4 active torsions:
REMARK  status: ('A' for Active; 'I' for Inactive)
REMARK    1  A    between atoms: C_12  and  C_24
REMARK    2  A    between atoms: C_13  and  O_28
REMARK    3  A    between atoms: C_16  and  O_30
REMARK    4  A    between atoms: C_18  and  O_32
REMARK                            x       y       z     vdW  Elec       q    Type
REMARK                         _______ _______ _______ _____ _____    ______ ____
ROOT
ATOM      1  O   UNL     1       0.380   1.772   0.870  0.00  0.00    -0.312 OA
ATOM      2  O   UNL     1       0.306   0.019  -2.179  0.00  0.00    -0.448 OA
ATOM      3  O   UNL     1      -1.920   1.937   1.623  0.00  0.00    -0.423 OA
ATOM      4  O   UNL     1       3.424  -1.192   1.618  0.00  0.00    -0.450 OA
ATOM      5  O   UNL     1       1.280   2.117  -2.188  0.00  0.00    -0.247 OA
ATOM      6  O   UNL     1      -3.715   2.534   0.320  0.00  0.00    -0.247 OA
ATOM      7  O   UNL     1       5.207  -1.656   0.264  0.00  0.00    -0.250 OA
ATOM      8  C   UNL     1       0.291  -0.363   0.047  0.00  0.00    +0.086 C 
ATOM      9  C   UNL     1      -1.149   0.130   0.321  0.00  0.00    +0.108 C 
ATOM     10  C   UNL     1       1.061   0.904  -0.071  0.00  0.00    +0.214 C 
ATOM     11  C   UNL     1       0.171  -1.077  -1.254  0.00  0.00    +0.198 C 
ATOM     12  C   UNL     1      -1.830  -1.229   0.256  0.00  0.00    +0.039 C 
ATOM     13  C   UNL     1       2.482   0.609   0.420  0.00  0.00    +0.167 C 
ATOM     14  C   UNL     1       1.025  -1.211   1.127  0.00  0.00    +0.053 C 
ATOM     15  C   UNL     1      -0.801   1.071   1.437  0.00  0.00    +0.294 C 
ATOM     16  C   UNL     1      -1.240  -1.740  -1.118  0.00  0.00    +0.151 C 
ATOM     17  C   UNL     1       2.249  -0.386   1.544  0.00  0.00    +0.197 C 
ATOM     18  C   UNL     1      -1.880   1.198  -0.578  0.00  0.00    +0.216 C 
ATOM     19  C   UNL     1       0.933   1.114  -1.583  0.00  0.00    +0.344 C 
ATOM     20  C   UNL     1       3.456  -0.140  -0.495  0.00  0.00    +0.130 C 
ATOM     21  C   UNL     1      -2.648   1.961   0.467  0.00  0.00    +0.346 C 
ATOM     22  C   UNL     1       4.157  -1.067   0.472  0.00  0.00    +0.319 C 
ATOM     23  C   UNL     1       4.456   0.734  -1.237  0.00  0.00    +0.014 C 
ENDROOT
BRANCH  12  24
ATOM     24  C   UNL     1      -3.344  -1.326   0.375  0.00  0.00    +0.003 C 
ATOM     25  C   UNL     1      -3.721  -2.263   1.538  0.00  0.00    +0.000 C 
ATOM     26  C   UNL     1      -3.941   0.069   0.641  0.00  0.00    +0.000 C 
ATOM     27  C   UNL     1      -3.939  -1.884  -0.931  0.00  0.00    +0.000 C 
ENDBRANCH  12  24
BRANCH  13  28
ATOM     28  O   UNL     1       3.086   1.782   0.950  0.00  0.00    -0.380 OA
ATOM     29  H   UNL     1       2.453   2.240   1.525  0.00  0.00    +0.211 HD
ENDBRANCH  13  28
BRANCH  16  30
ATOM     30  O   UNL     1      -1.118  -3.155  -1.051  0.00  0.00    -0.381 OA
ATOM     31  H   UNL     1      -0.756  -3.489  -1.887  0.00  0.00    +0.210 HD
ENDBRANCH  16  30
BRANCH  18  32
ATOM     32  O   UNL     1      -2.716   0.738  -1.605  0.00  0.00    -0.374 OA
ATOM     33  H   UNL     1      -2.188   0.252  -2.258  0.00  0.00    +0.211 HD
ENDBRANCH  18  32
TORSDOF 4
