REMARK  Name = 122189255
REMARK  6 active torsions:
REMARK  status: ('A' for Active; 'I' for Inactive)
REMARK    1  A    between atoms: C_7  and  S_12
REMARK    2  A    between atoms: C_10  and  C_26
REMARK    3  A    between atoms: S_12  and  N_18
REMARK    4  A    between atoms: N_15  and  C_22
REMARK    5  A    between atoms: C_26  and  C_27
REMARK    6  A    between atoms: C_30  and  O_33
REMARK                            x       y       z     vdW  Elec       q    Type
REMARK                         _______ _______ _______ _____ _____    ______ ____
ROOT
ATOM      1  O   UNL     1       3.235  -2.128  -0.840  0.00  0.00    -0.274 OA
ATOM      2  N   UNL     1       1.090  -1.603  -0.157  0.00  0.00    -0.235 N 
ATOM      3  C   UNL     1      -1.193  -1.393   0.249  0.00  0.00    +0.018 C 
ATOM      4  C   UNL     1       0.130  -0.827   0.645  0.00  0.00    +0.072 C 
ATOM      5  C   UNL     1       0.424  -2.598  -1.005  0.00  0.00    +0.072 C 
ATOM      6  C   UNL     1      -1.024  -2.410  -0.699  0.00  0.00    +0.017 C 
ATOM      7  C   UNL     1      -3.555  -1.714   0.173  0.00  0.00    +0.125 C 
ATOM      8  C   UNL     1      -2.453  -1.034   0.695  0.00  0.00    +0.022 C 
ATOM      9  C   UNL     1      -2.110  -3.089  -1.222  0.00  0.00    +0.003 C 
ATOM     10  C   UNL     1       2.467  -1.454  -0.151  0.00  0.00    +0.238 C 
ATOM     11  C   UNL     1      -3.385  -2.734  -0.778  0.00  0.00    +0.020 C 
ENDROOT
BRANCH   7  12
ATOM     12  S   UNL     1      -5.164  -1.292   0.708  0.00  0.00    +0.075 S 
ATOM     13  O   UNL     1      -6.022  -2.451   0.493  0.00  0.00    -0.150 OA
ATOM     14  O   UNL     1      -5.075  -0.723   2.047  0.00  0.00    -0.150 OA
BRANCH  12  18
ATOM     15  N   UNL     1      -3.376   2.571  -0.313  0.00  0.00    -0.133 N 
ATOM     16  N   UNL     1      -4.024   1.613   0.370  0.00  0.00    -0.143 NA
ATOM     17  N   UNL     1      -3.600   2.679  -1.633  0.00  0.00    -0.157 NA
ATOM     18  N   UNL     1      -5.629  -0.067  -0.410  0.00  0.00    -0.196 N 
ATOM     19  C   UNL     1      -4.737   1.044  -0.606  0.00  0.00    +0.187 C 
ATOM     20  C   UNL     1      -4.480   1.692  -1.823  0.00  0.00    +0.156 C 
ATOM     21  H   UNL     1      -6.480  -0.126  -0.902  0.00  0.00    +0.175 HD
BRANCH  15  22
ATOM     22  C   UNL     1      -2.370   3.549   0.421  0.00  0.00    +0.116 C 
ATOM     23  C   UNL     1      -1.445   2.980   1.538  0.00  0.00    +0.024 C 
ATOM     24  C   UNL     1      -1.053   3.961  -0.304  0.00  0.00    +0.024 C 
ATOM     25  C   UNL     1      -0.383   3.999   1.083  0.00  0.00    +0.004 C 
ENDBRANCH  15  22
ENDBRANCH  12  18
ENDBRANCH   7  12
BRANCH  10  26
ATOM     26  C   UNL     1       3.001  -0.390   0.773  0.00  0.00    +0.112 C 
BRANCH  26  27
ATOM     27  C   UNL     1       4.491  -0.294   0.663  0.00  0.00    -0.010 C 
ATOM     28  C   UNL     1       5.067   0.572  -0.267  0.00  0.00    +0.033 C 
ATOM     29  C   UNL     1       5.303  -1.072   1.489  0.00  0.00    -0.004 C 
ATOM     30  C   UNL     1       6.455   0.661  -0.370  0.00  0.00    +0.138 C 
ATOM     31  C   UNL     1       6.691  -0.983   1.385  0.00  0.00    +0.003 C 
ATOM     32  C   UNL     1       7.267  -0.116   0.456  0.00  0.00    +0.037 C 
BRANCH  30  33
ATOM     33  O   UNL     1       7.017   1.506  -1.278  0.00  0.00    -0.471 OA
ATOM     34  C   UNL     1       8.442   1.546  -1.331  0.00  0.00    +0.252 C 
ENDBRANCH  30  33
ENDBRANCH  26  27
ENDBRANCH  10  26
TORSDOF 6
