REMARK  Name = 122173089
REMARK  6 active torsions:
REMARK  status: ('A' for Active; 'I' for Inactive)
REMARK    1  A    between atoms: N_1  and  C1*_20
REMARK    2  A    between atoms: N_5  and  C_12
REMARK    3  A    between atoms: C2*_19  and  O2*_23
REMARK    4  A    between atoms: C3*_21  and  O3*_25
REMARK    5  A    between atoms: C4*_22  and  C5*_27
REMARK    6  A    between atoms: C5*_27  and  O5*_28
REMARK                            x       y       z     vdW  Elec       q    Type
REMARK                         _______ _______ _______ _____ _____    ______ ____
ROOT
ATOM      1  N   UNL     1      -1.458   0.855   0.164  0.00  0.00    -0.236 N 
ATOM      2  N   UNL     1      -1.667   3.066  -0.029  0.00  0.00    -0.240 NA
ATOM      3  N   UNL     1       0.961   0.656   0.078  0.00  0.00    -0.311 NA
ATOM      4  N   UNL     1       2.022   2.840  -0.168  0.00  0.00    -0.311 NA
ATOM      5  N   UNL     1       3.288   0.873  -0.042  0.00  0.00    -0.238 N 
ATOM      6  C   UNL     1      -0.188   1.347   0.064  0.00  0.00    +0.221 C 
ATOM      7  C   UNL     1      -2.311   1.925   0.103  0.00  0.00    +0.224 C 
ATOM      8  C   UNL     1      -0.340   2.720  -0.055  0.00  0.00    +0.167 C 
ATOM      9  C   UNL     1       0.824   3.473  -0.174  0.00  0.00    +0.212 C 
ATOM     10  C   UNL     1       2.016   1.491  -0.044  0.00  0.00    +0.206 C 
ATOM     11  H   UNL     1       4.036   1.506  -0.133  0.00  0.00    +0.166 HD
ATOM     12  N   UNL     1       0.765   4.872  -0.300  0.00  0.00    -0.331 N 
ATOM     13  H   UNL     1       1.595   5.394  -0.383  0.00  0.00    +0.145 HD
ATOM     14  H   UNL     1      -0.107   5.329  -0.304  0.00  0.00    +0.145 HD
ENDROOT
BRANCH   5  15
ATOM     15  C   UNL     1       3.692  -0.470   0.063  0.00  0.00    +0.058 C 
ATOM     16  C   UNL     1       4.920  -0.784   0.646  0.00  0.00    +0.015 C 
ATOM     17  C   UNL     1       2.866  -1.486  -0.415  0.00  0.00    +0.015 C 
ATOM     18  C   UNL     1       5.322  -2.116   0.750  0.00  0.00    +0.001 C 
ATOM     19  C   UNL     1       3.267  -2.818  -0.310  0.00  0.00    +0.001 C 
ATOM     20  C   UNL     1       4.495  -3.133   0.272  0.00  0.00    +0.000 C 
ENDBRANCH   5  15
BRANCH   1  23
ATOM     21  O4* UNL     1      -3.070  -0.733   1.085  0.00  0.00    -0.333 OA
ATOM     22  C2* UNL     1      -2.133  -1.276  -1.023  0.00  0.00    +0.187 C 
ATOM     23  C1* UNL     1      -1.859  -0.595   0.313  0.00  0.00    +0.226 C 
ATOM     24  C3* UNL     1      -3.104  -2.373  -0.633  0.00  0.00    +0.171 C 
ATOM     25  C4* UNL     1      -3.934  -1.703   0.454  0.00  0.00    +0.175 C 
BRANCH  22  26
ATOM     26  O2* UNL     1      -0.951  -1.774  -1.616  0.00  0.00    -0.378 OA
ATOM     27  H2* UNL     1      -0.367  -1.034  -1.845  0.00  0.00    +0.211 HD
ENDBRANCH  22  26
BRANCH  24  28
ATOM     28  O3* UNL     1      -2.410  -3.490  -0.076  0.00  0.00    -0.379 OA
ATOM     29  H3* UNL     1      -1.881  -3.918  -0.767  0.00  0.00    +0.211 HD
ENDBRANCH  24  28
BRANCH  25  30
ATOM     30  C5* UNL     1      -5.152  -0.971  -0.094  0.00  0.00    +0.169 C 
BRANCH  30  31
ATOM     31  O5* UNL     1      -5.860  -0.395   0.989  0.00  0.00    -0.379 OA
ATOM     32  H5* UNL     1      -6.639   0.075   0.653  0.00  0.00    +0.211 HD
ENDBRANCH  30  31
ENDBRANCH  25  30
ENDBRANCH   1  23
TORSDOF 6
