REMARK  Name = 122164958
REMARK  5 active torsions:
REMARK  status: ('A' for Active; 'I' for Inactive)
REMARK    1  A    between atoms: N_1  and  C1*_15
REMARK    2  A    between atoms: C2*_14  and  O2*_18
REMARK    3  A    between atoms: C3*_16  and  O3*_20
REMARK    4  A    between atoms: C4*_17  and  C5*_22
REMARK    5  A    between atoms: C5*_22  and  O5*_23
REMARK                            x       y       z     vdW  Elec       q    Type
REMARK                         _______ _______ _______ _____ _____    ______ ____
ROOT
ATOM      1  N   UNL     1       0.038   0.319  -0.158  0.00  0.00    -0.247 N 
ATOM      2  N   UNL     1      -1.319   2.017   0.366  0.00  0.00    -0.242 NA
ATOM      3  N   UNL     1      -1.571  -1.454  -0.524  0.00  0.00    -0.232 NA
ATOM      4  N   UNL     1      -3.823  -0.608  -0.144  0.00  0.00    -0.270 N 
ATOM      5  N   UNL     1      -4.203   1.749   0.459  0.00  0.00    -0.284 NA
ATOM      6  C   UNL     1      -1.231  -0.180  -0.210  0.00  0.00    +0.152 C 
ATOM      7  C   UNL     1      -0.068   1.642   0.192  0.00  0.00    +0.223 C 
ATOM      8  C   UNL     1      -2.045   0.886   0.118  0.00  0.00    +0.140 C 
ATOM      9  C   UNL     1      -3.483   0.723   0.162  0.00  0.00    +0.145 C 
ATOM     10  C   UNL     1      -2.868  -1.589  -0.473  0.00  0.00    +0.223 C 
ATOM     11  C   UNL     1      -5.239  -0.982  -0.141  0.00  0.00    +0.115 C 
ATOM     12  H   UNL     1      -5.183   1.668   0.497  0.00  0.00    +0.188 HD
ENDROOT
BRANCH   1  15
ATOM     13  O4* UNL     1       2.327   0.440  -1.000  0.00  0.00    -0.333 OA
ATOM     14  C2* UNL     1       1.946  -1.021   0.826  0.00  0.00    +0.187 C 
ATOM     15  C1* UNL     1       1.323  -0.426  -0.432  0.00  0.00    +0.225 C 
ATOM     16  C3* UNL     1       3.416  -1.084   0.461  0.00  0.00    +0.171 C 
ATOM     17  C4* UNL     1       3.601   0.180  -0.369  0.00  0.00    +0.175 C 
BRANCH  14  18
ATOM     18  O2* UNL     1       1.403  -2.288   1.138  0.00  0.00    -0.378 OA
ATOM     19  H2* UNL     1       0.465  -2.191   1.363  0.00  0.00    +0.211 HD
ENDBRANCH  14  18
BRANCH  16  20
ATOM     20  O3* UNL     1       3.688  -2.226  -0.352  0.00  0.00    -0.379 OA
ATOM     21  H3* UNL     1       3.571  -3.032   0.174  0.00  0.00    +0.211 HD
ENDBRANCH  16  20
BRANCH  17  22
ATOM     22  C5* UNL     1       3.974   1.394   0.471  0.00  0.00    +0.169 C 
BRANCH  22  23
ATOM     23  O5* UNL     1       4.133   2.509  -0.389  0.00  0.00    -0.379 OA
ATOM     24  H5* UNL     1       4.371   3.290   0.134  0.00  0.00    +0.211 HD
ENDBRANCH  22  23
ENDBRANCH  17  22
ENDBRANCH   1  15
TORSDOF 5
