REMARK  Name = 122173030
REMARK  7 active torsions:
REMARK  status: ('A' for Active; 'I' for Inactive)
REMARK    1  A    between atoms: N_2  and  C_16
REMARK    2  A    between atoms: N_5  and  C_30
REMARK    3  A    between atoms: C_8  and  C_23
REMARK    4  A    between atoms: C_30  and  C_31
REMARK    5  A    between atoms: C_31  and  N_32
REMARK    6  A    between atoms: N_32  and  C_35
REMARK    7  A    between atoms: N_33  and  N_39
REMARK                            x       y       z     vdW  Elec       q    Type
REMARK                         _______ _______ _______ _____ _____    ______ ____
ROOT
ATOM      1  O   UNL     1       3.261  -3.884  -0.695  0.00  0.00    -0.269 OA
ATOM      2  N   UNL     1       1.473  -2.466  -0.137  0.00  0.00    -0.206 N 
ATOM      3  N   UNL     1      -0.272  -0.838   0.358  0.00  0.00    -0.316 NA
ATOM      4  N   UNL     1       0.246   1.500   0.579  0.00  0.00    -0.332 NA
ATOM      5  N   UNL     1      -1.952   0.729   0.831  0.00  0.00    -0.257 N 
ATOM      6  C   UNL     1       1.980  -0.101   0.078  0.00  0.00    +0.144 C 
ATOM      7  C   UNL     1       1.035  -1.119   0.127  0.00  0.00    +0.194 C 
ATOM      8  C   UNL     1       1.530   1.190   0.319  0.00  0.00    +0.134 C 
ATOM      9  C   UNL     1       3.368  -0.373  -0.244  0.00  0.00    -0.006 C 
ATOM     10  C   UNL     1       2.804  -2.761  -0.476  0.00  0.00    +0.258 C 
ATOM     11  C   UNL     1      -0.591   0.452   0.577  0.00  0.00    +0.200 C 
ATOM     12  C   UNL     1       3.755  -1.619  -0.519  0.00  0.00    +0.055 C 
ATOM     13  H   UNL     1      -2.220   1.662   0.995  0.00  0.00    +0.160 HD
ENDROOT
BRANCH   2  16
ATOM     14  F   UNL     1       0.065  -3.005   2.217  0.00  0.00    -0.203 F 
ATOM     15  F   UNL     1       0.882  -4.093  -2.335  0.00  0.00    -0.203 F 
ATOM     16  C   UNL     1       0.500  -3.521  -0.061  0.00  0.00    +0.115 C 
ATOM     17  C   UNL     1      -0.181  -3.757   1.134  0.00  0.00    +0.156 C 
ATOM     18  C   UNL     1       0.235  -4.309  -1.181  0.00  0.00    +0.156 C 
ATOM     19  C   UNL     1      -1.125  -4.780   1.209  0.00  0.00    +0.031 C 
ATOM     20  C   UNL     1      -0.710  -5.333  -1.106  0.00  0.00    +0.031 C 
ATOM     21  C   UNL     1      -1.390  -5.568   0.089  0.00  0.00    +0.005 C 
ENDBRANCH   2  16
BRANCH   8  23
ATOM     22  F   UNL     1       4.866   5.660   0.365  0.00  0.00    -0.204 F 
ATOM     23  C   UNL     1       2.394   2.353   0.311  0.00  0.00    +0.023 C 
ATOM     24  C   UNL     1       2.615   3.077  -0.860  0.00  0.00    -0.017 C 
ATOM     25  C   UNL     1       3.008   2.745   1.501  0.00  0.00    +0.004 C 
ATOM     26  C   UNL     1       3.450   4.194  -0.842  0.00  0.00    +0.025 C 
ATOM     27  C   UNL     1       1.974   2.687  -2.153  0.00  0.00    +0.031 C 
ATOM     28  C   UNL     1       3.843   3.862   1.519  0.00  0.00    +0.030 C 
ATOM     29  C   UNL     1       4.064   4.587   0.348  0.00  0.00    +0.140 C 
ENDBRANCH   8  23
BRANCH   5  30
ATOM     30  C   UNL     1      -2.958  -0.286   0.862  0.00  0.00    +0.125 C 
BRANCH  30  31
ATOM     31  C   UNL     1      -4.308   0.318   1.209  0.00  0.00    +0.151 C 
BRANCH  31  32
ATOM     32  N   UNL     1      -4.686   1.298   0.189  0.00  0.00    -0.236 NA
BRANCH  32  35
ATOM     33  N   UNL     1      -6.276   2.850  -0.555  0.00  0.00    -0.193 N 
ATOM     34  N   UNL     1      -6.721   1.732   1.378  0.00  0.00    -0.368 N 
ATOM     35  C   UNL     1      -5.821   1.906   0.348  0.00  0.00    +0.221 C 
ATOM     36  H   UNL     1      -7.142   3.292  -0.404  0.00  0.00    +0.206 HD
ATOM     37  H   UNL     1      -6.529   1.088   2.098  0.00  0.00    +0.159 HD
ATOM     38  H   UNL     1      -7.557   2.253   1.395  0.00  0.00    +0.159 HD
BRANCH  33  39
ATOM     39  N   UNL     1      -5.492   3.194  -1.718  0.00  0.00    -0.265 NA
ATOM     40  C   UNL     1      -4.867   3.483  -2.665  0.00  0.00    +0.162 C 
ENDBRANCH  33  39
ENDBRANCH  32  35
ENDBRANCH  31  32
ENDBRANCH  30  31
ENDBRANCH   5  30
TORSDOF 7
