122104
  -OEChem-03292013323D

 58 60  0     1  0  0  0  0  0999 V2000
    2.0346   -0.2111    2.0499 O   0  0  0  0  0  0  0  0  0  0  0  0
    3.2979    0.8682   -1.1919 O   0  0  0  0  0  0  0  0  0  0  0  0
   -2.5518   -0.1366    1.0693 O   0  0  0  0  0  0  0  0  0  0  0  0
    5.8676    0.1359    0.1010 O   0  0  0  0  0  0  0  0  0  0  0  0
    5.6863   -0.8729   -1.9861 O   0  0  0  0  0  0  0  0  0  0  0  0
   -2.8114    1.3414    2.8118 O   0  0  0  0  0  0  0  0  0  0  0  0
    3.1376   -1.2279   -0.1612 N   0  0  0  0  0  0  0  0  0  0  0  0
    0.0219    0.1164    0.9271 N   0  0  0  0  0  0  0  0  0  0  0  0
    1.6887   -1.3015   -0.0451 C   0  0  1  0  0  0  0  0  0  0  0  0
    1.4004   -2.7676    0.2560 C   0  0  0  0  0  0  0  0  0  0  0  0
    2.6569   -3.2348    0.9877 C   0  0  0  0  0  0  0  0  0  0  0  0
    3.7712   -2.4588    0.3022 C   0  0  0  0  0  0  0  0  0  0  0  0
    1.2920   -0.4089    1.0918 C   0  0  0  0  0  0  0  0  0  0  0  0
    3.7794   -0.1799   -0.7861 C   0  0  0  0  0  0  0  0  0  0  0  0
   -0.6040    0.9893    1.8938 C   0  0  1  0  0  0  0  0  0  0  0  0
   -0.2538    2.4607    1.6270 C   0  0  0  0  0  0  0  0  0  0  0  0
    5.2388   -0.3583   -0.9804 C   0  0  0  0  0  0  0  0  0  0  0  0
   -2.1081    0.7684    1.9860 C   0  0  0  0  0  0  0  0  0  0  0  0
   -0.7648    3.0030    0.3113 C   0  0  0  0  0  0  0  0  0  0  0  0
   -2.0260    3.5953    0.2436 C   0  0  0  0  0  0  0  0  0  0  0  0
    0.0248    2.9108   -0.8349 C   0  0  0  0  0  0  0  0  0  0  0  0
   -3.9551   -0.4165    1.1014 C   0  0  0  0  0  0  0  0  0  0  0  0
   -2.4973    4.0953   -0.9703 C   0  0  0  0  0  0  0  0  0  0  0  0
   -0.4466    3.4110   -2.0488 C   0  0  0  0  0  0  0  0  0  0  0  0
   -1.7075    4.0031   -2.1165 C   0  0  0  0  0  0  0  0  0  0  0  0
   -4.2780   -1.4245    0.0379 C   0  0  0  0  0  0  0  0  0  0  0  0
    7.2948    0.0439    0.0682 C   0  0  0  0  0  0  0  0  0  0  0  0
   -4.6240   -0.9985   -1.2445 C   0  0  0  0  0  0  0  0  0  0  0  0
   -4.2317   -2.7874    0.3312 C   0  0  0  0  0  0  0  0  0  0  0  0
   -4.9240   -1.9354   -2.2335 C   0  0  0  0  0  0  0  0  0  0  0  0
   -4.5316   -3.7242   -0.6578 C   0  0  0  0  0  0  0  0  0  0  0  0
   -4.8777   -3.2981   -1.9402 C   0  0  0  0  0  0  0  0  0  0  0  0
    1.2256   -0.9661   -0.9797 H   0  0  0  0  0  0  0  0  0  0  0  0
    1.3007   -3.3262   -0.6827 H   0  0  0  0  0  0  0  0  0  0  0  0
    0.4938   -2.9268    0.8476 H   0  0  0  0  0  0  0  0  0  0  0  0
    2.5984   -2.9554    2.0463 H   0  0  0  0  0  0  0  0  0  0  0  0
    2.8036   -4.3171    0.9323 H   0  0  0  0  0  0  0  0  0  0  0  0
    4.1486   -2.9958   -0.5750 H   0  0  0  0  0  0  0  0  0  0  0  0
    4.6072   -2.2378    0.9719 H   0  0  0  0  0  0  0  0  0  0  0  0
   -0.5052   -0.1149    0.0898 H   0  0  0  0  0  0  0  0  0  0  0  0
   -0.2041    0.7117    2.8776 H   0  0  0  0  0  0  0  0  0  0  0  0
   -0.6506    3.0848    2.4390 H   0  0  0  0  0  0  0  0  0  0  0  0
    0.8357    2.5950    1.6647 H   0  0  0  0  0  0  0  0  0  0  0  0
   -2.6507    3.6789    1.1285 H   0  0  0  0  0  0  0  0  0  0  0  0
    1.0096    2.4544   -0.7953 H   0  0  0  0  0  0  0  0  0  0  0  0
   -4.5207    0.5080    0.9306 H   0  0  0  0  0  0  0  0  0  0  0  0
   -4.2329   -0.8061    2.0887 H   0  0  0  0  0  0  0  0  0  0  0  0
   -3.4789    4.5571   -1.0230 H   0  0  0  0  0  0  0  0  0  0  0  0
    0.1685    3.3395   -2.9410 H   0  0  0  0  0  0  0  0  0  0  0  0
   -2.0745    4.3926   -3.0615 H   0  0  0  0  0  0  0  0  0  0  0  0
    7.6052   -1.0040    0.0126 H   0  0  0  0  0  0  0  0  0  0  0  0
    7.6918    0.6095   -0.7803 H   0  0  0  0  0  0  0  0  0  0  0  0
    7.6853    0.4772    0.9928 H   0  0  0  0  0  0  0  0  0  0  0  0
   -4.6607    0.0606   -1.4860 H   0  0  0  0  0  0  0  0  0  0  0  0
   -3.9610   -3.1317    1.3258 H   0  0  0  0  0  0  0  0  0  0  0  0
   -5.1926   -1.6038   -3.2322 H   0  0  0  0  0  0  0  0  0  0  0  0
   -4.4947   -4.7855   -0.4298 H   0  0  0  0  0  0  0  0  0  0  0  0
   -5.1108   -4.0276   -2.7103 H   0  0  0  0  0  0  0  0  0  0  0  0
  1 13  2  0  0  0  0
  2 14  2  0  0  0  0
  3 18  1  0  0  0  0
  3 22  1  0  0  0  0
  4 17  1  0  0  0  0
  4 27  1  0  0  0  0
  5 17  2  0  0  0  0
  6 18  2  0  0  0  0
  7  9  1  0  0  0  0
  7 12  1  0  0  0  0
  7 14  1  0  0  0  0
  8 13  1  0  0  0  0
  8 15  1  0  0  0  0
  8 40  1  0  0  0  0
  9 10  1  0  0  0  0
  9 13  1  0  0  0  0
  9 33  1  0  0  0  0
 10 11  1  0  0  0  0
 10 34  1  0  0  0  0
 10 35  1  0  0  0  0
 11 12  1  0  0  0  0
 11 36  1  0  0  0  0
 11 37  1  0  0  0  0
 12 38  1  0  0  0  0
 12 39  1  0  0  0  0
 14 17  1  0  0  0  0
 15 16  1  0  0  0  0
 15 18  1  0  0  0  0
 15 41  1  0  0  0  0
 16 19  1  0  0  0  0
 16 42  1  0  0  0  0
 16 43  1  0  0  0  0
 19 20  2  0  0  0  0
 19 21  1  0  0  0  0
 20 23  1  0  0  0  0
 20 44  1  0  0  0  0
 21 24  2  0  0  0  0
 21 45  1  0  0  0  0
 22 26  1  0  0  0  0
 22 46  1  0  0  0  0
 22 47  1  0  0  0  0
 23 25  2  0  0  0  0
 23 48  1  0  0  0  0
 24 25  1  0  0  0  0
 24 49  1  0  0  0  0
 25 50  1  0  0  0  0
 26 28  2  0  0  0  0
 26 29  1  0  0  0  0
 27 51  1  0  0  0  0
 27 52  1  0  0  0  0
 27 53  1  0  0  0  0
 28 30  1  0  0  0  0
 28 54  1  0  0  0  0
 29 31  2  0  0  0  0
 29 55  1  0  0  0  0
 30 32  2  0  0  0  0
 30 56  1  0  0  0  0
 31 32  1  0  0  0  0
 31 57  1  0  0  0  0
 32 58  1  0  0  0  0
M  END
> <PUBCHEM_COMPOUND_CID>
122104

> <PUBCHEM_CONFORMER_RMSD>
1.2

> <PUBCHEM_CONFORMER_DIVERSEORDER>
1
160
181
216
151
24
167
133
9
220
226
13
176
59
222
114
126
23
30
136
232
182
194
233
153
107
186
173
188
163
69
14
101
97
87
2
157
62
103
66
164
132
86
227
166
234
237
218
223
37
193
221
122
201
20
91
156
165
73
113
54
38
175
128
104
116
106
210
84
130
149
31
76
209
26
29
51
177
123
12
205
19
93
140
94
197
82
81
4
137
55
199
32
52
212
115
229
18
112
80
214
228
25
39
74
60
207
3
22
169
185
42
134
215
217
154
225
135
46
35
158
36
179
89
50
170
178
111
139
189
33
11
206
17
147
138
117
187
162
77
70
196
168
224
79
6
68
120
63
47
67
61
171
235
15
174
96
72
108
85
99
143
48
161
125
142
98
219
78
198
53
230
21
88
195
40
41
45
102
71
203
43
213
121
190
5
64
192
110
56
204
16
191
28
131
34
100
148
83
146
129
105
127
200
58
184
65
144
211
208
7
141
183
231
90
236
75
119
118
150
202
155
92
124
95
109
49
57
8
44
152
27
180
145
159
10
172

> <PUBCHEM_MMFF94_PARTIAL_CHARGES>
41
1 -0.57
12 0.3
13 0.57
14 0.63
15 0.36
16 0.14
17 0.72
18 0.66
19 -0.14
2 -0.57
20 -0.15
21 -0.15
22 0.42
23 -0.15
24 -0.15
25 -0.15
26 -0.14
27 0.28
28 -0.15
29 -0.15
3 -0.43
30 -0.15
31 -0.15
32 -0.15
4 -0.43
40 0.37
44 0.15
45 0.15
48 0.15
49 0.15
5 -0.57
50 0.15
54 0.15
55 0.15
56 0.15
57 0.15
58 0.15
6 -0.57
7 -0.66
8 -0.73
9 0.36

> <PUBCHEM_EFFECTIVE_ROTOR_COUNT>
13

> <PUBCHEM_PHARMACOPHORE_FEATURES>
8
1 1 acceptor
1 2 acceptor
1 5 acceptor
1 6 acceptor
1 8 donor
5 7 9 10 11 12 rings
6 19 20 21 23 24 25 rings
6 26 28 29 30 31 32 rings

> <PUBCHEM_HEAVY_ATOM_COUNT>
32

> <PUBCHEM_ATOM_DEF_STEREO_COUNT>
2

> <PUBCHEM_ATOM_UDEF_STEREO_COUNT>
0

> <PUBCHEM_BOND_DEF_STEREO_COUNT>
0

> <PUBCHEM_BOND_UDEF_STEREO_COUNT>
0

> <PUBCHEM_ISOTOPIC_ATOM_COUNT>
0

> <PUBCHEM_COMPONENT_COUNT>
1

> <PUBCHEM_CACTVS_TAUTO_COUNT>
2

> <PUBCHEM_CONFORMER_ID>
0001DCF800000001

> <PUBCHEM_MMFF94_ENERGY>
73.2434

> <PUBCHEM_FEATURE_SELFOVERLAP>
40.599

> <PUBCHEM_SHAPE_FINGERPRINT>
11315621 246 18201174160701136326
11421498 54 18334288773406141190
11477941 20 18189353332845107924
11578080 2 18198889349568744000
1200032 147 13263496121987816231
12539765 74 16482210717468635441
12788726 201 18115578258694595497
12977781 61 17622674866252252531
13911987 19 17533246229946629398
14251757 17 15357981196130698855
14251757 5 18263352613115106405
14537116 161 17754694405438473423
14950920 106 10807639117455586935
15274700 242 17822571591041305323
15276724 80 18116160961334953905
15444296 7 18041573429865200261
17686467 74 18269274729008611696
20775530 9 18272079557164218643
21304303 282 16588860157927129097
21344244 246 17904765831451467533
21716022 299 17910403015462862461
23559900 14 17978496857382762199
26353 1 18261384573084850581
3380486 145 18191605076344624840
4017518 198 16684825318299714251
4280585 95 18337102475137307091
4353968 344 18335419025053559630
46194498 28 17681822244745755679
469060 322 18334859415846092484
5081480 168 17895468250433666933
66674814 147 18264772245075777522

> <PUBCHEM_SHAPE_MULTIPOLES>
613.37
12.65
5.68
2.29
13.77
3.52
0.2
-11.61
-5.66
-6.5
-2.45
-1.67
0.91
-1.7

> <PUBCHEM_SHAPE_SELFOVERLAP>
1298.412

> <PUBCHEM_SHAPE_VOLUME>
341.6

> <PUBCHEM_COORDINATE_TYPE>
2
5
10

$$$$
