122189255
  -OEChem-03292013293D

 58 62  0     0  0  0  0  0  0999 V2000
   -5.1644   -1.2920    0.7084 S   0  0  0  0  0  0  0  0  0  0  0  0
   -6.0216   -2.4512    0.4931 O   0  0  0  0  0  0  0  0  0  0  0  0
   -5.0750   -0.7227    2.0470 O   0  0  0  0  0  0  0  0  0  0  0  0
    3.2347   -2.1277   -0.8403 O   0  0  0  0  0  0  0  0  0  0  0  0
    7.0166    1.5056   -1.2776 O   0  0  0  0  0  0  0  0  0  0  0  0
   -3.3764    2.5706   -0.3134 N   0  0  0  0  0  0  0  0  0  0  0  0
    1.0903   -1.6025   -0.1565 N   0  0  0  0  0  0  0  0  0  0  0  0
   -4.0236    1.6126    0.3696 N   0  0  0  0  0  0  0  0  0  0  0  0
   -3.6002    2.6792   -1.6329 N   0  0  0  0  0  0  0  0  0  0  0  0
   -5.6289   -0.0672   -0.4105 N   0  0  0  0  0  0  0  0  0  0  0  0
   -2.3705    3.5492    0.4207 C   0  0  0  0  0  0  0  0  0  0  0  0
   -1.4450    2.9801    1.5381 C   0  0  0  0  0  0  0  0  0  0  0  0
   -1.0533    3.9607   -0.3038 C   0  0  0  0  0  0  0  0  0  0  0  0
   -0.3830    3.9989    1.0825 C   0  0  0  0  0  0  0  0  0  0  0  0
   -1.1933   -1.3932    0.2486 C   0  0  0  0  0  0  0  0  0  0  0  0
    0.1298   -0.8268    0.6452 C   0  0  0  0  0  0  0  0  0  0  0  0
    0.4243   -2.5981   -1.0052 C   0  0  0  0  0  0  0  0  0  0  0  0
   -1.0238   -2.4102   -0.6993 C   0  0  0  0  0  0  0  0  0  0  0  0
   -4.7375    1.0443   -0.6062 C   0  0  0  0  0  0  0  0  0  0  0  0
   -3.5554   -1.7137    0.1733 C   0  0  0  0  0  0  0  0  0  0  0  0
   -2.4526   -1.0337    0.6948 C   0  0  0  0  0  0  0  0  0  0  0  0
   -4.4803    1.6921   -1.8226 C   0  0  0  0  0  0  0  0  0  0  0  0
   -2.1099   -3.0894   -1.2216 C   0  0  0  0  0  0  0  0  0  0  0  0
    2.4667   -1.4545   -0.1513 C   0  0  0  0  0  0  0  0  0  0  0  0
   -3.3855   -2.7336   -0.7776 C   0  0  0  0  0  0  0  0  0  0  0  0
    3.0011   -0.3902    0.7733 C   0  0  0  0  0  0  0  0  0  0  0  0
    4.4908   -0.2944    0.6628 C   0  0  0  0  0  0  0  0  0  0  0  0
    5.0669    0.5719   -0.2665 C   0  0  0  0  0  0  0  0  0  0  0  0
    5.3031   -1.0718    1.4886 C   0  0  0  0  0  0  0  0  0  0  0  0
    6.4551    0.6610   -0.3699 C   0  0  0  0  0  0  0  0  0  0  0  0
    6.6913   -0.9830    1.3848 C   0  0  0  0  0  0  0  0  0  0  0  0
    7.2674   -0.1164    0.4558 C   0  0  0  0  0  0  0  0  0  0  0  0
    8.4419    1.5463   -1.3314 C   0  0  0  0  0  0  0  0  0  0  0  0
   -2.9490    4.4203    0.7615 H   0  0  0  0  0  0  0  0  0  0  0  0
   -1.0847    4.9131   -0.8393 H   0  0  0  0  0  0  0  0  0  0  0  0
   -1.1471    1.9373    1.3909 H   0  0  0  0  0  0  0  0  0  0  0  0
   -1.8084    3.1039    2.5615 H   0  0  0  0  0  0  0  0  0  0  0  0
   -0.6458    3.1901   -0.9689 H   0  0  0  0  0  0  0  0  0  0  0  0
   -0.4583    4.9706    1.5838 H   0  0  0  0  0  0  0  0  0  0  0  0
    0.6536    3.6554    1.1203 H   0  0  0  0  0  0  0  0  0  0  0  0
    0.2172    0.2293    0.3766 H   0  0  0  0  0  0  0  0  0  0  0  0
    0.3403   -0.9799    1.7073 H   0  0  0  0  0  0  0  0  0  0  0  0
    0.7813   -3.5948   -0.7287 H   0  0  0  0  0  0  0  0  0  0  0  0
    0.6587   -2.3845   -2.0524 H   0  0  0  0  0  0  0  0  0  0  0  0
   -2.5519   -0.2657    1.4529 H   0  0  0  0  0  0  0  0  0  0  0  0
   -4.8741    1.5043   -2.8105 H   0  0  0  0  0  0  0  0  0  0  0  0
   -1.9805   -3.8758   -1.9571 H   0  0  0  0  0  0  0  0  0  0  0  0
   -6.1592   -0.3690   -1.2382 H   0  0  0  0  0  0  0  0  0  0  0  0
   -4.2420   -3.2593   -1.1915 H   0  0  0  0  0  0  0  0  0  0  0  0
    2.7160   -0.6271    1.8049 H   0  0  0  0  0  0  0  0  0  0  0  0
    2.5473    0.5760    0.5240 H   0  0  0  0  0  0  0  0  0  0  0  0
    4.4396    1.1790   -0.9146 H   0  0  0  0  0  0  0  0  0  0  0  0
    4.8666   -1.7520    2.2151 H   0  0  0  0  0  0  0  0  0  0  0  0
    7.3228   -1.5893    2.0278 H   0  0  0  0  0  0  0  0  0  0  0  0
    8.3515   -0.0970    0.4281 H   0  0  0  0  0  0  0  0  0  0  0  0
    8.7156    2.2692   -2.1069 H   0  0  0  0  0  0  0  0  0  0  0  0
    8.8609    0.5802   -1.6327 H   0  0  0  0  0  0  0  0  0  0  0  0
    8.8699    1.9092   -0.3907 H   0  0  0  0  0  0  0  0  0  0  0  0
  1  2  2  0  0  0  0
  1  3  2  0  0  0  0
  1 10  1  0  0  0  0
  1 20  1  0  0  0  0
  4 24  2  0  0  0  0
  5 30  1  0  0  0  0
  5 33  1  0  0  0  0
  6  8  1  0  0  0  0
  6  9  1  0  0  0  0
  6 11  1  0  0  0  0
  7 16  1  0  0  0  0
  7 17  1  0  0  0  0
  7 24  1  0  0  0  0
  8 19  2  0  0  0  0
  9 22  2  0  0  0  0
 10 19  1  0  0  0  0
 10 48  1  0  0  0  0
 11 12  1  0  0  0  0
 11 13  1  0  0  0  0
 11 34  1  0  0  0  0
 12 14  1  0  0  0  0
 12 36  1  0  0  0  0
 12 37  1  0  0  0  0
 13 14  1  0  0  0  0
 13 35  1  0  0  0  0
 13 38  1  0  0  0  0
 14 39  1  0  0  0  0
 14 40  1  0  0  0  0
 15 16  1  0  0  0  0
 15 18  2  0  0  0  0
 15 21  1  0  0  0  0
 16 41  1  0  0  0  0
 16 42  1  0  0  0  0
 17 18  1  0  0  0  0
 17 43  1  0  0  0  0
 17 44  1  0  0  0  0
 18 23  1  0  0  0  0
 19 22  1  0  0  0  0
 20 21  2  0  0  0  0
 20 25  1  0  0  0  0
 21 45  1  0  0  0  0
 22 46  1  0  0  0  0
 23 25  2  0  0  0  0
 23 47  1  0  0  0  0
 24 26  1  0  0  0  0
 25 49  1  0  0  0  0
 26 27  1  0  0  0  0
 26 50  1  0  0  0  0
 26 51  1  0  0  0  0
 27 28  2  0  0  0  0
 27 29  1  0  0  0  0
 28 30  1  0  0  0  0
 28 52  1  0  0  0  0
 29 31  2  0  0  0  0
 29 53  1  0  0  0  0
 30 32  2  0  0  0  0
 31 32  1  0  0  0  0
 31 54  1  0  0  0  0
 32 55  1  0  0  0  0
 33 56  1  0  0  0  0
 33 57  1  0  0  0  0
 33 58  1  0  0  0  0
M  END
> <PUBCHEM_COMPOUND_CID>
122189255

> <PUBCHEM_CONFORMER_RMSD>
1.4

> <PUBCHEM_CONFORMER_DIVERSEORDER>
1
154
96
99
119
82
13
79
94
134
25
85
106
6
152
101
159
108
83
56
24
54
75
74
10
116
7
151
43
37
80
117
111
89
126
125
155
162
12
55
15
104
19
112
163
91
144
20
81
72
8
145
93
52
133
51
98
120
35
153
50
3
148
67
140
53
48
31
128
29
5
143
139
157
17
40
76
44
142
18
60
39
70
66
90
132
36
64
27
138
150
23
78
123
88
16
11
14
103
147
77
160
121
141
87
95
92
114
42
149
47
136
115
4
33
131
161
34
102
105
137
46
113
109
135
158
9
38
86
107
156
73
30
58
124
49
127
57
65
122
45
146
130
22
41
110
2
84
118
59
97
21
61
63
71
69
68
32
129
26
28
62
100

> <PUBCHEM_MMFF94_PARTIAL_CHARGES>
39
1 1.45
10 -0.7
11 0.09
15 -0.14
16 0.44
17 0.44
18 -0.14
19 0.43
2 -0.65
20 -0.01
21 -0.15
22 0.14
23 -0.15
24 0.57
25 -0.15
26 0.2
27 -0.14
28 -0.15
29 -0.15
3 -0.65
30 0.08
31 -0.15
32 -0.15
33 0.28
4 -0.57
45 0.15
46 0.15
47 0.15
48 0.42
49 0.15
5 -0.36
52 0.15
53 0.15
54 0.15
55 0.15
6 0.75
7 -0.66
8 -0.71
9 -0.71

> <PUBCHEM_EFFECTIVE_ROTOR_COUNT>
9.4

> <PUBCHEM_PHARMACOPHORE_FEATURES>
12
1 10 donor
1 2 acceptor
1 3 acceptor
1 4 acceptor
1 5 acceptor
1 8 acceptor
1 9 acceptor
4 11 12 13 14 rings
5 6 8 9 19 22 rings
5 7 15 16 17 18 rings
6 15 18 20 21 23 25 rings
6 27 28 29 30 31 32 rings

> <PUBCHEM_HEAVY_ATOM_COUNT>
33

> <PUBCHEM_ATOM_DEF_STEREO_COUNT>
0

> <PUBCHEM_ATOM_UDEF_STEREO_COUNT>
0

> <PUBCHEM_BOND_DEF_STEREO_COUNT>
0

> <PUBCHEM_BOND_UDEF_STEREO_COUNT>
0

> <PUBCHEM_ISOTOPIC_ATOM_COUNT>
0

> <PUBCHEM_COMPONENT_COUNT>
1

> <PUBCHEM_CACTVS_TAUTO_COUNT>
10

> <PUBCHEM_CONFORMER_ID>
074875C700000001

> <PUBCHEM_MMFF94_ENERGY>
85.6764

> <PUBCHEM_FEATURE_SELFOVERLAP>
61.052

> <PUBCHEM_SHAPE_FINGERPRINT>
10 15 18334017215471941979
100830 39 18338229367703743536
10290309 65 18201159853880866695
10454371 7 18412270541032935764
10670039 82 18342749490292010140
10675989 125 16822760151684354197
12596602 18 17530963579366890178
12788726 201 18409164403029332834
13692115 27 17842832501828213982
13911987 19 18341319004057393245
13947920 24 18342452587201993985
14294032 229 18200609016146020904
14747282 125 17985273125584210348
14856354 85 18339080526505344846
15183329 4 18271806848030934814
15347590 135 18113627793802878883
15575132 122 18411140260116441414
15604295 49 18198900504706671616
15876981 60 18263080071153738431
15961568 22 18411987961473741132
15968369 153 18059560439241641120
18336668 15 18187085087485523421
19611394 137 18045793539854620315
20101258 96 18049443935638562371
21792964 463 17749402468558786492
21796203 349 18121528935920465297
22122407 14 17823147864358110132
22956985 138 17032214351138198459
24771293 8 18130515142086803641
4197921 191 18334855000825161186
445580 37 18410018728270518788
48014 12 18260840293207040492
5372103 7 17244399934637992805
550186 7 18131068182590597068
57527585 21 17985244298001518573
6036956 94 18191866725952893373
6700243 42 17699036146823517750

> <PUBCHEM_SHAPE_MULTIPOLES>
634.59
18.83
4.71
1.48
35.27
4.1
0.01
1.64
-1.5
-5.66
-0.44
0
0.32
-0.64

> <PUBCHEM_SHAPE_SELFOVERLAP>
1360.062

> <PUBCHEM_SHAPE_VOLUME>
352.6

> <PUBCHEM_COORDINATE_TYPE>
2
5
10

$$$$
