122148
  -OEChem-03292013323D

 47 48  0     1  0  0  0  0  0999 V2000
    0.2943   -0.8237    1.4427 O   0  0  0  0  0  0  0  0  0  0  0  0
    3.4033   -1.5016    1.4351 O   0  0  0  0  0  0  0  0  0  0  0  0
   -2.0554   -0.1535   -1.5202 O   0  0  0  0  0  0  0  0  0  0  0  0
   -5.7678   -1.6702   -0.5404 O   0  0  0  0  0  0  0  0  0  0  0  0
    1.7355    5.5721   -0.4731 O   0  0  0  0  0  0  0  0  0  0  0  0
    2.9332    4.1952    0.8772 O   0  0  0  0  0  0  0  0  0  0  0  0
    1.5948   -1.2509   -0.4235 N   0  0  0  0  0  0  0  0  0  0  0  0
   -1.0043    1.0456    0.1778 N   0  0  0  0  0  0  0  0  0  0  0  0
   -4.4352    0.2535   -0.6168 N   0  0  0  0  0  0  0  0  0  0  0  0
    3.3956   -3.8025    1.4305 N   0  0  0  0  0  0  0  0  0  0  0  0
    1.9341   -2.6255   -0.0790 C   0  0  1  0  0  0  0  0  0  0  0  0
    2.4901   -3.2216   -1.3669 C   0  0  0  0  0  0  0  0  0  0  0  0
    2.1389   -0.8854   -1.7289 C   0  0  0  0  0  0  0  0  0  0  0  0
    3.0920   -2.0162   -2.0851 C   0  0  0  0  0  0  0  0  0  0  0  0
    0.3525    0.8519   -0.2478 C   0  0  2  0  0  0  0  0  0  0  0  0
    0.7337   -0.4818    0.3435 C   0  0  0  0  0  0  0  0  0  0  0  0
   -3.3974    0.8536    0.1730 C   0  0  1  0  0  0  0  0  0  0  0  0
    1.2999    1.9341    0.2607 C   0  0  0  0  0  0  0  0  0  0  0  0
    2.9723   -2.5670    1.0009 C   0  0  0  0  0  0  0  0  0  0  0  0
   -3.5440    0.1882    1.5282 C   0  0  0  0  0  0  0  0  0  0  0  0
   -2.1018    0.5243   -0.4969 C   0  0  0  0  0  0  0  0  0  0  0  0
   -4.1641   -1.1732    1.2153 C   0  0  0  0  0  0  0  0  0  0  0  0
    1.0183    3.3125   -0.3440 C   0  0  0  0  0  0  0  0  0  0  0  0
   -4.9186   -0.9298   -0.0688 C   0  0  0  0  0  0  0  0  0  0  0  0
    1.9999    4.3718    0.1067 C   0  0  0  0  0  0  0  0  0  0  0  0
    1.0529   -3.1587    0.2938 H   0  0  0  0  0  0  0  0  0  0  0  0
    3.2233   -4.0206   -1.2270 H   0  0  0  0  0  0  0  0  0  0  0  0
    1.6660   -3.6220   -1.9706 H   0  0  0  0  0  0  0  0  0  0  0  0
    2.6359    0.0871   -1.6943 H   0  0  0  0  0  0  0  0  0  0  0  0
    1.3093   -0.8436   -2.4431 H   0  0  0  0  0  0  0  0  0  0  0  0
    3.1843   -2.1646   -3.1645 H   0  0  0  0  0  0  0  0  0  0  0  0
    4.0903   -1.8057   -1.6832 H   0  0  0  0  0  0  0  0  0  0  0  0
    0.3502    0.8251   -1.3402 H   0  0  0  0  0  0  0  0  0  0  0  0
   -3.5386    1.9378    0.2098 H   0  0  0  0  0  0  0  0  0  0  0  0
    1.2389    2.0052    1.3555 H   0  0  0  0  0  0  0  0  0  0  0  0
    2.3381    1.6537    0.0426 H   0  0  0  0  0  0  0  0  0  0  0  0
   -2.6172    0.0893    2.1005 H   0  0  0  0  0  0  0  0  0  0  0  0
   -4.2496    0.7642    2.1408 H   0  0  0  0  0  0  0  0  0  0  0  0
   -1.1615    1.5627    1.0383 H   0  0  0  0  0  0  0  0  0  0  0  0
   -4.8377   -1.5050    2.0090 H   0  0  0  0  0  0  0  0  0  0  0  0
   -3.3947   -1.9301    1.0334 H   0  0  0  0  0  0  0  0  0  0  0  0
   -4.7582    0.6278   -1.5037 H   0  0  0  0  0  0  0  0  0  0  0  0
    0.0142    3.6461   -0.0601 H   0  0  0  0  0  0  0  0  0  0  0  0
    1.0746    3.2485   -1.4366 H   0  0  0  0  0  0  0  0  0  0  0  0
    4.1024   -3.8892    2.1533 H   0  0  0  0  0  0  0  0  0  0  0  0
    3.0138   -4.6676    1.0617 H   0  0  0  0  0  0  0  0  0  0  0  0
    2.3744    6.2618   -0.1928 H   0  0  0  0  0  0  0  0  0  0  0  0
  1 16  2  0  0  0  0
  2 19  2  0  0  0  0
  3 21  2  0  0  0  0
  4 24  2  0  0  0  0
  5 25  1  0  0  0  0
  5 47  1  0  0  0  0
  6 25  2  0  0  0  0
  7 11  1  0  0  0  0
  7 13  1  0  0  0  0
  7 16  1  0  0  0  0
  8 15  1  0  0  0  0
  8 21  1  0  0  0  0
  8 39  1  0  0  0  0
  9 17  1  0  0  0  0
  9 24  1  0  0  0  0
  9 42  1  0  0  0  0
 10 19  1  0  0  0  0
 10 45  1  0  0  0  0
 10 46  1  0  0  0  0
 11 12  1  0  0  0  0
 11 19  1  0  0  0  0
 11 26  1  0  0  0  0
 12 14  1  0  0  0  0
 12 27  1  0  0  0  0
 12 28  1  0  0  0  0
 13 14  1  0  0  0  0
 13 29  1  0  0  0  0
 13 30  1  0  0  0  0
 14 31  1  0  0  0  0
 14 32  1  0  0  0  0
 15 16  1  0  0  0  0
 15 18  1  0  0  0  0
 15 33  1  0  0  0  0
 17 20  1  0  0  0  0
 17 21  1  0  0  0  0
 17 34  1  0  0  0  0
 18 23  1  0  0  0  0
 18 35  1  0  0  0  0
 18 36  1  0  0  0  0
 20 22  1  0  0  0  0
 20 37  1  0  0  0  0
 20 38  1  0  0  0  0
 22 24  1  0  0  0  0
 22 40  1  0  0  0  0
 22 41  1  0  0  0  0
 23 25  1  0  0  0  0
 23 43  1  0  0  0  0
 23 44  1  0  0  0  0
M  END
> <PUBCHEM_COMPOUND_CID>
122148

> <PUBCHEM_CONFORMER_RMSD>
1

> <PUBCHEM_CONFORMER_DIVERSEORDER>
1
82
49
15
31
75
84
33
37
73
8
39
22
77
68
76
30
53
23
63
61
74
55
38
57
52
18
58
43
67
87
59
60
70
42
66
26
28
71
11
79
88
44
10
20
29
9
56
3
36
7
62
69
48
27
41
64
80
86
24
14
13
19
46
17
12
16
6
45
32
78
54
35
5
25
51
40
65
50
72
4
2
34
21
85
83
47
81

> <PUBCHEM_MMFF94_PARTIAL_CHARGES>
26
1 -0.57
10 -0.8
11 0.36
13 0.3
15 0.36
16 0.57
17 0.36
19 0.57
2 -0.57
21 0.57
22 0.06
23 0.06
24 0.57
25 0.66
3 -0.57
39 0.37
4 -0.57
42 0.37
45 0.37
46 0.37
47 0.5
5 -0.65
6 -0.57
7 -0.66
8 -0.73
9 -0.73

> <PUBCHEM_EFFECTIVE_ROTOR_COUNT>
10.8

> <PUBCHEM_PHARMACOPHORE_FEATURES>
12
1 1 acceptor
1 10 donor
1 2 acceptor
1 3 acceptor
1 4 acceptor
1 5 acceptor
1 6 acceptor
1 8 donor
1 9 donor
3 5 6 25 anion
5 7 11 12 13 14 rings
5 9 17 20 22 24 rings

> <PUBCHEM_HEAVY_ATOM_COUNT>
25

> <PUBCHEM_ATOM_DEF_STEREO_COUNT>
3

> <PUBCHEM_ATOM_UDEF_STEREO_COUNT>
0

> <PUBCHEM_BOND_DEF_STEREO_COUNT>
0

> <PUBCHEM_BOND_UDEF_STEREO_COUNT>
0

> <PUBCHEM_ISOTOPIC_ATOM_COUNT>
0

> <PUBCHEM_COMPONENT_COUNT>
1

> <PUBCHEM_CACTVS_TAUTO_COUNT>
12

> <PUBCHEM_CONFORMER_ID>
0001DD2400000001

> <PUBCHEM_MMFF94_ENERGY>
55.1304

> <PUBCHEM_FEATURE_SELFOVERLAP>
60.958

> <PUBCHEM_SHAPE_FINGERPRINT>
11056379 131 17690004431953628118
11578080 2 17604414207155544429
11991303 11 17469333990104875956
12160290 23 17178856838881598696
12363563 72 18265336105784136131
12553582 1 18194697977147199131
12707595 3 18336835190954322167
12788726 201 17686639943119388448
12892183 10 16199860653765780059
13681431 1 18342460313705955256
13955234 65 18337113483497313065
14251757 5 17760944938998837573
1813 80 18271245993430567343
18186145 218 11964260426928655463
18785283 64 18337951319736732864
20600515 1 18054498119617748697
21049683 118 17409064238320832265
21304303 282 16748436476717620508
2255824 54 18342181114966712581
23366157 5 18336272322605506853
23557571 272 17834385727575779510
23559900 14 18409440380869877601
23598288 3 17253172834282224424
463206 1 18042969779314769971
59755656 520 17762051442849559452
621550 5 17057256449740482326
633830 44 11819576817258904947
6669772 16 18194687205754485788
6673363 416 18196105361665484814
6786 2 17834972136450784628
81228 2 17621599410868305688
9841814 1 18410580560862529995

> <PUBCHEM_SHAPE_MULTIPOLES>
459.35
8.67
5.89
1.56
12.89
9.98
0.11
-7.23
-0.28
-8.71
-0.32
-0.98
-1.15
0.02

> <PUBCHEM_SHAPE_SELFOVERLAP>
953.961

> <PUBCHEM_SHAPE_VOLUME>
261.8

> <PUBCHEM_COORDINATE_TYPE>
2
5
10

$$$$
