REMARK  Name = 122148
REMARK  8 active torsions:
REMARK  status: ('A' for Active; 'I' for Inactive)
REMARK    1  A    between atoms: C_1  and  C_8
REMARK    2  A    between atoms: C_1  and  N_15
REMARK    3  A    between atoms: C_1  and  C_25
REMARK    4  A    between atoms: C_4  and  C_11
REMARK    5  A    between atoms: C_16  and  C_20
REMARK    6  A    between atoms: C_25  and  C_26
REMARK    7  A    between atoms: C_26  and  C_28
REMARK    8  A    between atoms: C_28  and  O_29
REMARK                            x       y       z     vdW  Elec       q    Type
REMARK                         _______ _______ _______ _____ _____    ______ ____
ROOT
ATOM      1  C   UNL     1       0.352   0.852  -0.248  0.00  0.00    +0.149 C 
ENDROOT
BRANCH   1   8
ATOM      2  O   UNL     1       0.294  -0.824   1.443  0.00  0.00    -0.273 OA
ATOM      3  N   UNL     1       1.595  -1.251  -0.423  0.00  0.00    -0.272 N 
ATOM      4  C   UNL     1       1.934  -2.626  -0.079  0.00  0.00    +0.152 C 
ATOM      5  C   UNL     1       2.490  -3.222  -1.367  0.00  0.00    +0.031 C 
ATOM      6  C   UNL     1       2.139  -0.885  -1.729  0.00  0.00    +0.094 C 
ATOM      7  C   UNL     1       3.092  -2.016  -2.085  0.00  0.00    +0.024 C 
ATOM      8  C   UNL     1       0.734  -0.482   0.344  0.00  0.00    +0.244 C 
BRANCH   4  11
ATOM      9  O   UNL     1       3.403  -1.502   1.435  0.00  0.00    -0.274 OA
ATOM     10  N   UNL     1       3.396  -3.803   1.431  0.00  0.00    -0.327 N 
ATOM     11  C   UNL     1       2.972  -2.567   1.001  0.00  0.00    +0.237 C 
ATOM     12  H   UNL     1       4.077  -3.871   2.138  0.00  0.00    +0.145 HD
ATOM     13  H   UNL     1       3.018  -4.619   1.031  0.00  0.00    +0.145 HD
ENDBRANCH   4  11
ENDBRANCH   1   8
BRANCH   1  15
ATOM     14  O   UNL     1      -2.055  -0.153  -1.520  0.00  0.00    -0.273 OA
ATOM     15  N   UNL     1      -1.004   1.046   0.178  0.00  0.00    -0.297 N 
ATOM     16  C   UNL     1      -2.102   0.524  -0.497  0.00  0.00    +0.241 C 
ATOM     17  H   UNL     1      -1.166   1.576   0.991  0.00  0.00    +0.150 HD
BRANCH  16  20
ATOM     18  O   UNL     1      -5.768  -1.670  -0.540  0.00  0.00    -0.275 OA
ATOM     19  N   UNL     1      -4.435   0.254  -0.617  0.00  0.00    -0.298 N 
ATOM     20  C   UNL     1      -3.397   0.854   0.173  0.00  0.00    +0.149 C 
ATOM     21  C   UNL     1      -3.544   0.188   1.528  0.00  0.00    +0.039 C 
ATOM     22  C   UNL     1      -4.164  -1.173   1.215  0.00  0.00    +0.087 C 
ATOM     23  C   UNL     1      -4.919  -0.930  -0.069  0.00  0.00    +0.223 C 
ATOM     24  H   UNL     1      -4.770   0.639  -1.458  0.00  0.00    +0.150 HD
ENDBRANCH  16  20
ENDBRANCH   1  15
BRANCH   1  25
ATOM     25  C   UNL     1       1.300   1.934   0.261  0.00  0.00    +0.041 C 
BRANCH  25  26
ATOM     26  C   UNL     1       1.018   3.313  -0.344  0.00  0.00    +0.112 C 
BRANCH  26  28
ATOM     27  O   UNL     1       2.933   4.195   0.877  0.00  0.00    -0.250 OA
ATOM     28  C   UNL     1       2.000   4.372   0.107  0.00  0.00    +0.314 C 
BRANCH  28  29
ATOM     29  O   UNL     1       1.736   5.572  -0.473  0.00  0.00    -0.480 OA
ATOM     30  H   UNL     1       1.009   5.660  -1.058  0.00  0.00    +0.295 HD
ENDBRANCH  28  29
ENDBRANCH  26  28
ENDBRANCH  25  26
ENDBRANCH   1  25
TORSDOF 8
