REMARK  Name = 122179189
REMARK  9 active torsions:
REMARK  status: ('A' for Active; 'I' for Inactive)
REMARK    1  A    between atoms: CA_1  and  N_3
REMARK    2  A    between atoms: CA_1  and  C_12
REMARK    3  A    between atoms: CA_1  and  CB_15
REMARK    4  A    between atoms: C_4  and  C_8
REMARK    5  A    between atoms: C_12  and  O_13
REMARK    6  A    between atoms: CB_15  and  CG_16
REMARK    7  A    between atoms: CG_16  and  CD_17
REMARK    8  A    between atoms: CD_17  and  NE_18
REMARK    9  A    between atoms: NE_18  and  CZ_21
REMARK                            x       y       z     vdW  Elec       q    Type
REMARK                         _______ _______ _______ _____ _____    ______ ____
ROOT
ATOM      1  CA  UNL     1      -0.672   1.827   0.583  0.00  0.00    +0.171 C 
ENDROOT
BRANCH   1   3
ATOM      2  O   UNL     1      -2.802   0.104   1.544  0.00  0.00    -0.275 OA
ATOM      3  N   UNL     1      -1.495   0.935  -0.194  0.00  0.00    -0.297 N 
ATOM      4  C   ACE A   0      -2.494   0.147   0.356  0.00  0.00    +0.224 C 
ATOM      5  H   UNL     1      -1.340   0.883  -1.165  0.00  0.00    +0.150 HD
BRANCH   4   8
ATOM      6  S   UNL     1      -1.932  -3.039  -0.385  0.00  0.00    -0.082 S 
ATOM      7  S   UNL     1      -3.648  -2.943   0.730  0.00  0.00    -0.082 S 
ATOM      8  C   UNL     1      -3.216  -0.671  -0.681  0.00  0.00    +0.100 C 
ATOM      9  C   UNL     1      -2.265  -1.598  -1.437  0.00  0.00    +0.079 C 
ATOM     10  C   UNL     1      -4.360  -1.480  -0.072  0.00  0.00    +0.079 C 
ENDBRANCH   4   8
ENDBRANCH   1   3
BRANCH   1  12
ATOM     11  OXT UNL     1       0.224   4.047   0.127  0.00  0.00    -0.248 OA
ATOM     12  C   UNL     1      -0.360   3.045  -0.266  0.00  0.00    +0.332 C 
BRANCH  12  13
ATOM     13  O   UNL     1      -0.773   2.888  -1.550  0.00  0.00    -0.479 OA
ATOM     14  H   UNL     1      -1.216   2.103  -1.807  0.00  0.00    +0.295 HD
ENDBRANCH  12  13
ENDBRANCH   1  12
BRANCH   1  15
ATOM     15  CB  UNL     1       0.594   1.145   1.111  0.00  0.00    +0.033 C 
BRANCH  15  16
ATOM     16  CG  UNL     1       1.524   0.609   0.016  0.00  0.00    +0.029 C 
BRANCH  16  17
ATOM     17  CD  UNL     1       2.737  -0.092   0.618  0.00  0.00    +0.129 C 
BRANCH  17  18
ATOM     18  NE  UNL     1       3.588  -0.588  -0.465  0.00  0.00    -0.240 NA
BRANCH  18  21
ATOM     19  NH1 UNL     1       5.142  -1.441   1.156  0.00  0.00    -0.370 N 
ATOM     20  NH2 UNL     1       5.531  -1.694  -1.075  0.00  0.00    -0.370 N 
ATOM     21  CZ  UNL     1       4.678  -1.198  -0.117  0.00  0.00    +0.189 C 
ATOM     22 HH11 UNL     1       4.623  -1.136   1.936  0.00  0.00    +0.159 HD
ATOM     23 HH12 UNL     1       5.992  -1.919   1.288  0.00  0.00    +0.159 HD
ATOM     24 HH21 UNL     1       5.315  -1.587  -2.030  0.00  0.00    +0.159 HD
ATOM     25 HH22 UNL     1       6.357  -2.157  -0.807  0.00  0.00    +0.159 HD
ENDBRANCH  18  21
ENDBRANCH  17  18
ENDBRANCH  16  17
ENDBRANCH  15  16
ENDBRANCH   1  15
TORSDOF 9
