122179189
  -OEChem-03292013293D

 37 37  0     1  0  0  0  0  0999 V2000
   -1.9320   -3.0386   -0.3851 S   0  0  0  0  0  0  0  0  0  0  0  0
   -3.6485   -2.9434    0.7304 S   0  0  0  0  0  0  0  0  0  0  0  0
   -2.8019    0.1042    1.5445 O   0  0  0  0  0  0  0  0  0  0  0  0
   -0.7728    2.8878   -1.5505 O   0  0  0  0  0  0  0  0  0  0  0  0
    0.2237    4.0472    0.1268 O   0  0  0  0  0  0  0  0  0  0  0  0
   -1.4946    0.9348   -0.1942 N   0  0  0  0  0  0  0  0  0  0  0  0
    3.5876   -0.5883   -0.4648 N   0  0  0  0  0  0  0  0  0  0  0  0
    5.1418   -1.4409    1.1563 N   0  0  0  0  0  0  0  0  0  0  0  0
    5.5309   -1.6941   -1.0754 N   0  0  0  0  0  0  0  0  0  0  0  0
   -3.2159   -0.6714   -0.6813 C   0  0  0  0  0  0  0  0  0  0  0  0
   -0.6716    1.8266    0.5830 C   0  0  1  0  0  0  0  0  0  0  0  0
    0.5937    1.1448    1.1114 C   0  0  0  0  0  0  0  0  0  0  0  0
   -2.2649   -1.5983   -1.4370 C   0  0  0  0  0  0  0  0  0  0  0  0
   -4.3602   -1.4802   -0.0721 C   0  0  0  0  0  0  0  0  0  0  0  0
   -2.4938    0.1466    0.3563 C   0  0  0  0  0  0  0  0  0  0  0  0
    1.5235    0.6086    0.0164 C   0  0  0  0  0  0  0  0  0  0  0  0
    2.7368   -0.0922    0.6182 C   0  0  0  0  0  0  0  0  0  0  0  0
   -0.3597    3.0449   -0.2656 C   0  0  0  0  0  0  0  0  0  0  0  0
    4.6780   -1.1981   -0.1175 C   0  0  0  0  0  0  0  0  0  0  0  0
   -3.6444    0.0511   -1.3893 H   0  0  0  0  0  0  0  0  0  0  0  0
   -1.2724    2.1792    1.4300 H   0  0  0  0  0  0  0  0  0  0  0  0
    1.1519    1.8577    1.7315 H   0  0  0  0  0  0  0  0  0  0  0  0
    0.3021    0.3147    1.7676 H   0  0  0  0  0  0  0  0  0  0  0  0
   -2.7426   -1.9575   -2.3553 H   0  0  0  0  0  0  0  0  0  0  0  0
   -1.3153   -1.1394   -1.7223 H   0  0  0  0  0  0  0  0  0  0  0  0
   -4.9504   -0.9084    0.6507 H   0  0  0  0  0  0  0  0  0  0  0  0
   -5.0414   -1.8238   -0.8582 H   0  0  0  0  0  0  0  0  0  0  0  0
    1.8609    1.4284   -0.6290 H   0  0  0  0  0  0  0  0  0  0  0  0
    0.9838   -0.0969   -0.6268 H   0  0  0  0  0  0  0  0  0  0  0  0
   -1.3446    0.9116   -1.1985 H   0  0  0  0  0  0  0  0  0  0  0  0
    2.3989   -0.9251    1.2467 H   0  0  0  0  0  0  0  0  0  0  0  0
    3.2904    0.6195    1.2428 H   0  0  0  0  0  0  0  0  0  0  0  0
   -0.5545    3.6687   -2.1026 H   0  0  0  0  0  0  0  0  0  0  0  0
    4.6350   -1.1440    1.9824 H   0  0  0  0  0  0  0  0  0  0  0  0
    5.3247   -1.5927   -2.0632 H   0  0  0  0  0  0  0  0  0  0  0  0
    6.3884   -2.1741   -0.8248 H   0  0  0  0  0  0  0  0  0  0  0  0
    6.0163   -1.9317    1.3091 H   0  0  0  0  0  0  0  0  0  0  0  0
  1  2  1  0  0  0  0
  1 13  1  0  0  0  0
  2 14  1  0  0  0  0
  3 15  2  0  0  0  0
  4 18  1  0  0  0  0
  4 33  1  0  0  0  0
  5 18  2  0  0  0  0
  6 11  1  0  0  0  0
  6 15  1  0  0  0  0
  6 30  1  0  0  0  0
  7 17  1  0  0  0  0
  7 19  2  0  0  0  0
  8 19  1  0  0  0  0
  8 34  1  0  0  0  0
  8 37  1  0  0  0  0
  9 19  1  0  0  0  0
  9 35  1  0  0  0  0
  9 36  1  0  0  0  0
 10 13  1  0  0  0  0
 10 14  1  0  0  0  0
 10 15  1  0  0  0  0
 10 20  1  0  0  0  0
 11 12  1  0  0  0  0
 11 18  1  0  0  0  0
 11 21  1  0  0  0  0
 12 16  1  0  0  0  0
 12 22  1  0  0  0  0
 12 23  1  0  0  0  0
 13 24  1  0  0  0  0
 13 25  1  0  0  0  0
 14 26  1  0  0  0  0
 14 27  1  0  0  0  0
 16 17  1  0  0  0  0
 16 28  1  0  0  0  0
 16 29  1  0  0  0  0
 17 31  1  0  0  0  0
 17 32  1  0  0  0  0
M  END
> <PUBCHEM_COMPOUND_CID>
122179189

> <PUBCHEM_CONFORMER_RMSD>
1

> <PUBCHEM_CONFORMER_DIVERSEORDER>
1
78
48
72
101
108
52
71
65
36
38
25
53
95
87
2
89
69
22
16
47
56
104
49
94
97
64
107
55
93
76
23
37
80
77
61
106
14
96
21
110
13
109
75
58
32
105
28
68
51
62
35
73
92
30
74
91
100
99
85
19
67
84
45
111
102
54
41
5
12
59
98
8
3
7
86
42
17
81
6
24
46
83
27
40
15
9
88
103
11
10
44
63
79
39
82
57
18
20
26
90
50
29
66
43
31
60
33
70
34
4

> <PUBCHEM_MMFF94_PARTIAL_CHARGES>
23
1 -0.23
10 0.06
11 0.36
13 0.23
14 0.23
15 0.57
17 0.25
18 0.66
19 0.55
2 -0.23
3 -0.57
30 0.37
33 0.5
34 0.4
35 0.4
36 0.4
37 0.4
4 -0.65
5 -0.57
6 -0.73
7 -0.7
8 -0.85
9 -0.85

> <PUBCHEM_EFFECTIVE_ROTOR_COUNT>
9

> <PUBCHEM_PHARMACOPHORE_FEATURES>
9
1 3 acceptor
1 4 acceptor
1 5 acceptor
1 6 donor
1 8 donor
1 9 donor
3 4 5 18 anion
4 7 8 9 19 cation
5 1 2 10 13 14 rings

> <PUBCHEM_HEAVY_ATOM_COUNT>
19

> <PUBCHEM_ATOM_DEF_STEREO_COUNT>
1

> <PUBCHEM_ATOM_UDEF_STEREO_COUNT>
0

> <PUBCHEM_BOND_DEF_STEREO_COUNT>
0

> <PUBCHEM_BOND_UDEF_STEREO_COUNT>
0

> <PUBCHEM_ISOTOPIC_ATOM_COUNT>
0

> <PUBCHEM_COMPONENT_COUNT>
1

> <PUBCHEM_CACTVS_TAUTO_COUNT>
6

> <PUBCHEM_CONFORMER_ID>
07484E7500000001

> <PUBCHEM_MMFF94_ENERGY>
35.8094

> <PUBCHEM_FEATURE_SELFOVERLAP>
45.785

> <PUBCHEM_SHAPE_FINGERPRINT>
11056379 131 18267593399351233244
11069576 57 17336726286082021767
12523318 42 18124010383530196394
12553582 1 18409158905133843298
12596602 18 13614231603384710606
13257819 37 17826787032776236477
13533116 47 17766276853920275195
14251731 5 18411982494096398138
14251751 93 18193274083972510114
1813 80 18338807796070667596
20291156 8 18338515343189229114
20403669 9 18343864420188182326
20600515 1 18129676213676281513
20645477 70 17832124393172314495
23559900 14 18194673990023785419
23598288 3 18043836219645458037
43658 37 8827481876105505082
56633871 153 18059019496442500071

> <PUBCHEM_SHAPE_MULTIPOLES>
361.18
9.39
4.21
1.22
11.09
2.97
-0.06
-11.22
0.09
-0.27
-0.59
-0.15
-0.04
0.3

> <PUBCHEM_SHAPE_SELFOVERLAP>
692.76

> <PUBCHEM_SHAPE_VOLUME>
222.4

> <PUBCHEM_COORDINATE_TYPE>
2
5
10

$$$$
