REMARK  Name = 122172972
REMARK  7 active torsions:
REMARK  status: ('A' for Active; 'I' for Inactive)
REMARK    1  A    between atoms: N_1  and  C_10
REMARK    2  A    between atoms: C_11  and  C_17
REMARK    3  A    between atoms: C_13  and  O_15
REMARK    4  A    between atoms: C_17  and  O_18
REMARK    5  A    between atoms: O_18  and  S_19
REMARK    6  A    between atoms: S_19  and  N_22
REMARK    7  A    between atoms: N_25  and  C_27
REMARK                            x       y       z     vdW  Elec       q    Type
REMARK                         _______ _______ _______ _____ _____    ______ ____
ROOT
ATOM      1  N   UNL     1      -0.965   0.608   0.187  0.00  0.00    -0.276 N 
ATOM      2  N   UNL     1       0.204   2.493  -0.758  0.00  0.00    -0.233 NA
ATOM      3  N   UNL     1       2.613   2.157  -0.872  0.00  0.00    -0.233 NA
ATOM      4  C   UNL     1       0.168   1.262  -0.219  0.00  0.00    +0.120 C 
ATOM      5  C   UNL     1      -0.628  -0.625   0.686  0.00  0.00    +0.062 C 
ATOM      6  C   UNL     1       1.254   0.430   0.025  0.00  0.00    +0.131 C 
ATOM      7  C   UNL     1       0.741  -0.762   0.598  0.00  0.00    +0.004 C 
ATOM      8  C   UNL     1       2.510   0.924  -0.325  0.00  0.00    +0.113 C 
ATOM      9  C   UNL     1       1.469   2.856  -1.052  0.00  0.00    +0.252 C 
ATOM     10  N   UNL     1       3.651   0.165  -0.118  0.00  0.00    -0.319 N 
ATOM     11  H   UNL     1       3.548  -0.729   0.281  0.00  0.00    +0.148 HD
ENDROOT
BRANCH  10  12
ATOM     12  C   UNL     1       4.981   0.611  -0.456  0.00  0.00    +0.093 C 
ATOM     13  C   UNL     1       5.569   1.486   0.667  0.00  0.00    +0.029 C 
ATOM     14  C   UNL     1       5.940  -0.541  -0.460  0.00  0.00    -0.008 C 
ATOM     15  C   UNL     1       6.294   0.540   1.640  0.00  0.00    +0.028 C 
ATOM     16  C   UNL     1       6.689  -0.575   0.724  0.00  0.00    -0.025 C 
ATOM     17  C   UNL     1       6.114  -1.504  -1.441  0.00  0.00    -0.003 C 
ATOM     18  C   UNL     1       7.618  -1.576   0.953  0.00  0.00    -0.005 C 
ATOM     19  C   UNL     1       7.057  -2.510  -1.223  0.00  0.00    -0.000 C 
ATOM     20  C   UNL     1       7.803  -2.546  -0.034  0.00  0.00    -0.000 C 
ENDBRANCH  10  12
BRANCH   1  21
ATOM     21  C   UNL     1      -2.374   1.147   0.104  0.00  0.00    +0.081 C 
ATOM     22  C   UNL     1      -4.687   0.522  -0.186  0.00  0.00    +0.061 C 
ATOM     23  C   UNL     1      -3.297   0.291  -0.780  0.00  0.00    +0.025 C 
ATOM     24  C   UNL     1      -4.413   0.509   1.320  0.00  0.00    +0.115 C 
ATOM     25  C   UNL     1      -3.099   1.279   1.464  0.00  0.00    +0.049 C 
BRANCH  24  26
ATOM     26  O   UNL     1      -4.219  -0.812   1.812  0.00  0.00    -0.384 OA
ATOM     27  H   UNL     1      -5.045  -1.314   1.727  0.00  0.00    +0.210 HD
ENDBRANCH  24  26
BRANCH  22  28
ATOM     28  C   UNL     1      -5.704  -0.499  -0.668  0.00  0.00    +0.176 C 
BRANCH  28  29
ATOM     29  O   UNL     1      -6.955  -0.218  -0.064  0.00  0.00    -0.230 OA
BRANCH  29  30
ATOM     30  S   UNL     1      -8.252  -1.159  -0.397  0.00  0.00    +0.045 S 
ATOM     31  O   UNL     1      -8.585  -1.005  -1.801  0.00  0.00    -0.056 OA
ATOM     32  O   UNL     1      -7.980  -2.479   0.144  0.00  0.00    -0.056 OA
BRANCH  30  33
ATOM     33  N   UNL     1      -9.518  -0.468   0.531  0.00  0.00    -0.204 NA
ATOM     34  H   UNL     1      -9.732   0.463   0.174  0.00  0.00    +0.144 HD
ATOM     35  H   UNL     1      -9.226  -0.400   1.506  0.00  0.00    +0.144 HD
ENDBRANCH  30  33
ENDBRANCH  29  30
ENDBRANCH  28  29
ENDBRANCH  22  28
ENDBRANCH   1  21
TORSDOF 7
