REMARK  Name = 122114
REMARK  5 active torsions:
REMARK  status: ('A' for Active; 'I' for Inactive)
REMARK    1  A    between atoms: C_2  and  C_13
REMARK    2  A    between atoms: C_3  and  C_23
REMARK    3  A    between atoms: C_4  and  N_21
REMARK    4  A    between atoms: C_23  and  O_24
REMARK    5  A    between atoms: O_24  and  C_25
REMARK                            x       y       z     vdW  Elec       q    Type
REMARK                         _______ _______ _______ _____ _____    ______ ____
ROOT
ATOM      1  N   UNL     1       1.871   2.009   1.255  0.00  0.00    -0.332 N 
ATOM      2  C   UNL     1       0.703   0.513  -0.871  0.00  0.00    +0.029 C 
ATOM      3  C   UNL     1      -0.052   1.594  -0.079  0.00  0.00    +0.073 C 
ATOM      4  C   UNL     1       2.159   0.444  -0.461  0.00  0.00    +0.152 C 
ATOM      5  C   UNL     1       0.544   2.270   0.933  0.00  0.00    +0.098 C 
ATOM      6  C   UNL     1       2.699   1.143   0.555  0.00  0.00    +0.045 C 
ATOM      7  C   UNL     1      -0.116   3.319   1.787  0.00  0.00    +0.026 C 
ATOM      8  C   UNL     1       4.127   1.105   1.026  0.00  0.00    +0.049 C 
ATOM      9  H   UNL     1       2.251   2.472   2.037  0.00  0.00    +0.147 HD
ENDROOT
BRANCH   2  13
ATOM     10  O   UNL     1      -0.045  -2.115   2.627  0.00  0.00    -0.242 OA
ATOM     11  N   UNL     1       0.333  -1.098   1.767  0.00  0.00    -0.048 NA
ATOM     12  N   UNL     1      -0.700  -3.136   1.962  0.00  0.00    -0.048 NA
ATOM     13  C   UNL     1       0.039  -0.820  -0.681  0.00  0.00    +0.024 C 
ATOM     14  C   UNL     1      -0.082  -1.474   0.551  0.00  0.00    +0.143 A 
ATOM     15  C   UNL     1      -0.512  -1.498  -1.774  0.00  0.00    +0.002 C 
ATOM     16  C   UNL     1      -0.739  -2.769   0.674  0.00  0.00    +0.143 A 
ATOM     17  C   UNL     1      -1.152  -2.760  -1.654  0.00  0.00    +0.002 C 
ATOM     18  C   UNL     1      -1.290  -3.442  -0.431  0.00  0.00    +0.024 C 
ENDBRANCH   2  13
BRANCH   4  21
ATOM     19  O   UNL     1       3.153  -1.549  -0.918  0.00  0.00    -0.126 OA
ATOM     20  O   UNL     1       3.502   0.152  -2.272  0.00  0.00    -0.126 OA
ATOM     21  N   UNL     1       2.995  -0.374  -1.273  0.00  0.00    +0.059 N 
ENDBRANCH   4  21
BRANCH   3  23
ATOM     22  O   UNL     1      -1.676   2.710  -1.396  0.00  0.00    -0.245 OA
ATOM     23  C   UNL     1      -1.421   1.898  -0.526  0.00  0.00    +0.339 C 
BRANCH  23  24
ATOM     24  O   UNL     1      -2.283   1.133   0.186  0.00  0.00    -0.449 OA
BRANCH  24  25
ATOM     25  C   UNL     1      -3.666   1.316  -0.137  0.00  0.00    +0.169 C 
ATOM     26  C   UNL     1      -3.881   1.007  -1.610  0.00  0.00    +0.047 C 
ATOM     27  C   UNL     1      -4.511   0.423   0.759  0.00  0.00    +0.047 C 
ENDBRANCH  24  25
ENDBRANCH  23  24
ENDBRANCH   3  23
TORSDOF 5
