REMARK  Name = 122113
REMARK  7 active torsions:
REMARK  status: ('A' for Active; 'I' for Inactive)
REMARK    1  A    between atoms: C_4  and  C_17
REMARK    2  A    between atoms: C_5  and  C_8
REMARK    3  A    between atoms: C_7  and  C_20
REMARK    4  A    between atoms: C_9  and  O_14
REMARK    5  A    between atoms: C_17  and  O_18
REMARK    6  A    between atoms: C_20  and  C_21
REMARK    7  A    between atoms: C_21  and  S_22
REMARK                            x       y       z     vdW  Elec       q    Type
REMARK                         _______ _______ _______ _____ _____    ______ ____
ROOT
ATOM      1  S   UNL     1      -0.653   2.604  -0.191  0.00  0.00    -0.114 S 
ATOM      2  O   UNL     1       0.372  -1.677   1.163  0.00  0.00    -0.275 OA
ATOM      3  N   UNL     1       0.669   0.305  -0.011  0.00  0.00    -0.259 N 
ATOM      4  C   UNL     1       1.501   1.209  -0.814  0.00  0.00    +0.186 C 
ATOM      5  C   UNL     1      -0.599   0.894   0.448  0.00  0.00    +0.150 C 
ATOM      6  C   UNL     1       0.631   2.298  -1.427  0.00  0.00    +0.091 C 
ATOM      7  C   UNL     1       1.046  -0.973   0.407  0.00  0.00    +0.228 C 
ENDROOT
BRANCH   5   8
ATOM      8  C   UNL     1      -1.831   0.126   0.011  0.00  0.00    +0.040 C 
ATOM      9  C   UNL     1      -2.986   0.128   0.792  0.00  0.00    +0.132 C 
ATOM     10  C   UNL     1      -1.800  -0.588  -1.187  0.00  0.00    +0.001 C 
ATOM     11  C   UNL     1      -4.111  -0.584   0.375  0.00  0.00    +0.036 C 
ATOM     12  C   UNL     1      -2.925  -1.301  -1.603  0.00  0.00    -0.000 C 
ATOM     13  C   UNL     1      -4.080  -1.299  -0.822  0.00  0.00    +0.003 C 
BRANCH   9  14
ATOM     14  O   UNL     1      -3.034   0.820   1.965  0.00  0.00    -0.506 OA
ATOM     15  H   UNL     1      -2.284   1.302   2.255  0.00  0.00    +0.292 HD
ENDBRANCH   9  14
ENDBRANCH   5   8
BRANCH   4  17
ATOM     16  O   UNL     1       2.359   2.048   1.290  0.00  0.00    -0.248 OA
ATOM     17  C   UNL     1       2.527   1.818   0.102  0.00  0.00    +0.333 C 
BRANCH  17  18
ATOM     18  O   UNL     1       3.673   2.084  -0.572  0.00  0.00    -0.479 OA
ATOM     19  H   UNL     1       3.737   1.883  -1.485  0.00  0.00    +0.295 HD
ENDBRANCH  17  18
ENDBRANCH   4  17
BRANCH   7  20
ATOM     20  C   UNL     1       2.356  -1.494  -0.130  0.00  0.00    +0.097 C 
BRANCH  20  21
ATOM     21  C   UNL     1       2.646  -2.885   0.400  0.00  0.00    +0.063 C 
BRANCH  21  22
ATOM     22  S   UNL     1       4.238  -3.534  -0.195  0.00  0.00    -0.167 S 
ATOM     23  H   UNL     1       4.439  -4.779   0.313  0.00  0.00    +0.102 HD
ENDBRANCH  21  22
ENDBRANCH  20  21
ENDBRANCH   7  20
TORSDOF 7
