122111
  -OEChem-03292013323D

 29 30  0     1  0  0  0  0  0999 V2000
   -1.5683    0.1564   -0.9691 O   0  0  0  0  0  0  0  0  0  0  0  0
   -1.1039   -0.5072    1.9003 O   0  0  0  0  0  0  0  0  0  0  0  0
   -3.4336    2.2168   -0.6874 O   0  0  0  0  0  0  0  0  0  0  0  0
    1.7291   -2.2584   -0.7729 O   0  0  0  0  0  0  0  0  0  0  0  0
    0.6188   -0.3021   -0.2585 N   0  0  0  0  0  0  0  0  0  0  0  0
    3.0222   -0.4747   -0.2269 N   0  0  0  0  0  0  0  0  0  0  0  0
    4.3415    1.3561    0.3351 N   0  0  0  0  0  0  0  0  0  0  0  0
   -1.3423   -1.3848    0.8048 C   0  0  2  0  0  0  0  0  0  0  0  0
   -0.6883   -0.8538   -0.4583 C   0  0  1  0  0  0  0  0  0  0  0  0
   -2.8067   -1.3331    0.4293 C   0  0  0  0  0  0  0  0  0  0  0  0
   -2.8953   -0.1055   -0.4766 C   0  0  1  0  0  0  0  0  0  0  0  0
   -3.4005    1.1402    0.2361 C   0  0  0  0  0  0  0  0  0  0  0  0
    0.7263    1.0251    0.1211 C   0  0  0  0  0  0  0  0  0  0  0  0
    1.7922   -1.0743   -0.4372 C   0  0  0  0  0  0  0  0  0  0  0  0
    1.8996    1.6196    0.3293 C   0  0  0  0  0  0  0  0  0  0  0  0
    3.1093    0.7795    0.1311 C   0  0  0  0  0  0  0  0  0  0  0  0
   -1.0027   -2.3862    1.0849 H   0  0  0  0  0  0  0  0  0  0  0  0
   -0.6430   -1.6481   -1.2141 H   0  0  0  0  0  0  0  0  0  0  0  0
   -3.0644   -2.2249   -0.1550 H   0  0  0  0  0  0  0  0  0  0  0  0
   -3.4842   -1.2771    1.2867 H   0  0  0  0  0  0  0  0  0  0  0  0
   -3.5318   -0.3092   -1.3454 H   0  0  0  0  0  0  0  0  0  0  0  0
   -2.7465    1.4355    1.0620 H   0  0  0  0  0  0  0  0  0  0  0  0
   -4.4115    0.9894    0.6258 H   0  0  0  0  0  0  0  0  0  0  0  0
   -0.1656   -0.5940    2.1404 H   0  0  0  0  0  0  0  0  0  0  0  0
   -0.1861    1.5916    0.2674 H   0  0  0  0  0  0  0  0  0  0  0  0
    1.9931    2.6538    0.6326 H   0  0  0  0  0  0  0  0  0  0  0  0
   -2.5312    2.3366   -1.0295 H   0  0  0  0  0  0  0  0  0  0  0  0
    5.1938    0.8201    0.2118 H   0  0  0  0  0  0  0  0  0  0  0  0
    4.4418    2.3266    0.6138 H   0  0  0  0  0  0  0  0  0  0  0  0
  1  9  1  0  0  0  0
  1 11  1  0  0  0  0
  2  8  1  0  0  0  0
  2 24  1  0  0  0  0
  3 12  1  0  0  0  0
  3 27  1  0  0  0  0
  4 14  2  0  0  0  0
  5  9  1  0  0  0  0
  5 13  1  0  0  0  0
  5 14  1  0  0  0  0
  6 14  1  0  0  0  0
  6 16  2  0  0  0  0
  7 16  1  0  0  0  0
  7 28  1  0  0  0  0
  7 29  1  0  0  0  0
  8  9  1  0  0  0  0
  8 10  1  0  0  0  0
  8 17  1  0  0  0  0
  9 18  1  0  0  0  0
 10 11  1  0  0  0  0
 10 19  1  0  0  0  0
 10 20  1  0  0  0  0
 11 12  1  0  0  0  0
 11 21  1  0  0  0  0
 12 22  1  0  0  0  0
 12 23  1  0  0  0  0
 13 15  2  0  0  0  0
 13 25  1  0  0  0  0
 15 16  1  0  0  0  0
 15 26  1  0  0  0  0
M  END
> <PUBCHEM_COMPOUND_CID>
122111

> <PUBCHEM_CONFORMER_RMSD>
0.6

> <PUBCHEM_CONFORMER_DIVERSEORDER>
1
7
8
3
6
2
5
4

> <PUBCHEM_MMFF94_PARTIAL_CHARGES>
21
1 -0.56
11 0.28
12 0.28
13 -0.04
14 0.84
15 -0.14
16 0.49
2 -0.68
24 0.4
25 0.15
26 0.15
27 0.4
28 0.4
29 0.4
3 -0.68
4 -0.57
5 -0.47
6 -0.66
7 -0.85
8 0.28
9 0.58

> <PUBCHEM_EFFECTIVE_ROTOR_COUNT>
3

> <PUBCHEM_PHARMACOPHORE_FEATURES>
10
1 1 acceptor
1 2 acceptor
1 2 donor
1 3 acceptor
1 3 donor
1 4 acceptor
1 6 donor
1 7 donor
5 1 8 9 10 11 rings
6 5 6 13 14 15 16 rings

> <PUBCHEM_HEAVY_ATOM_COUNT>
16

> <PUBCHEM_ATOM_DEF_STEREO_COUNT>
3

> <PUBCHEM_ATOM_UDEF_STEREO_COUNT>
0

> <PUBCHEM_BOND_DEF_STEREO_COUNT>
0

> <PUBCHEM_BOND_UDEF_STEREO_COUNT>
0

> <PUBCHEM_ISOTOPIC_ATOM_COUNT>
0

> <PUBCHEM_COMPONENT_COUNT>
1

> <PUBCHEM_CACTVS_TAUTO_COUNT>
3

> <PUBCHEM_CONFORMER_ID>
0001DCFF00000001

> <PUBCHEM_MMFF94_ENERGY>
45.7996

> <PUBCHEM_FEATURE_SELFOVERLAP>
50.798

> <PUBCHEM_SHAPE_FINGERPRINT>
10608611 8 18410572898651566253
10922523 26 18410578361971130285
11471102 20 18342735204566061108
124424 183 18114170969546708250
12491281 212 18271250426127084289
12654215 9 18342738486226971780
13571099 52 18407760322058712151
13581323 91 16226046712380278210
15219456 202 18410296908258350310
15279308 16 18408605885128673867
15442244 35 17983580701873162616
15775835 57 17917713551541506428
16945 1 18265343991264742975
18186145 218 18271531875323227199
19049666 15 18262525796960238843
200 152 17845931952598125639
20201158 50 18410293622655874054
20645464 45 18040996271563233923
20645477 56 18407763629637197733
20645477 70 17846783962266293086
20653085 51 18341055108165572923
21501502 16 18408316687864276463
23402539 116 18189888902440038695
23402655 69 18201710726865539541
23493267 7 18186803612629787592
23557571 272 18115871982892024291
23559900 14 18267300937906584734
25 1 18339641148606628901
2748010 2 18340218417970647638
276578 36 16878507808882461137
305870 269 18041552534379137203
63268167 104 18060707212282678130
69090 78 18411697691042376487
77492 1 16845298241139295758
8030462 33 15051739663684750687

> <PUBCHEM_SHAPE_MULTIPOLES>
290.85
6.37
2
0.99
1.69
0.14
0.28
2.71
-0.02
-0.28
-0.2
-0.41
-0.16
0.9

> <PUBCHEM_SHAPE_SELFOVERLAP>
611.746

> <PUBCHEM_SHAPE_VOLUME>
162.7

> <PUBCHEM_COORDINATE_TYPE>
2
5
10

$$$$
