REMARK  Name = 122177640
REMARK  10 active torsions:
REMARK  status: ('A' for Active; 'I' for Inactive)
REMARK    1  A    between atoms: C_1  and  O_18
REMARK    2  A    between atoms: C_2  and  C_15
REMARK    3  A    between atoms: C_3  and  O_10
REMARK    4  A    between atoms: C_4  and  N_9
REMARK    5  A    between atoms: C_5  and  O_12
REMARK    6  A    between atoms: C_15  and  O_16
REMARK    7  A    between atoms: O_18  and  C_19
REMARK    8  A    between atoms: C_20  and  C_29
REMARK    9  A    between atoms: C_23  and  O_26
REMARK   10  A    between atoms: C_29  and  O_30
REMARK                            x       y       z     vdW  Elec       q    Type
REMARK                         _______ _______ _______ _____ _____    ______ ____
ROOT
ATOM      1  C   UNL     1      -0.561  -0.293  -0.371  0.00  0.00    +0.187 C 
ATOM      2  C   UNL     1      -1.821   0.284  -0.212  0.00  0.00    +0.138 C 
ATOM      3  C   UNL     1      -0.371  -1.644  -0.079  0.00  0.00    +0.176 C 
ATOM      4  C   UNL     1      -2.891  -0.489   0.238  0.00  0.00    +0.186 C 
ATOM      5  C   UNL     1      -2.701  -1.840   0.529  0.00  0.00    +0.159 C 
ATOM      6  C   UNL     1      -1.442  -2.418   0.371  0.00  0.00    +0.078 C 
ENDROOT
BRANCH   4   9
ATOM      7  O   UNL     1      -4.481   0.596   1.507  0.00  0.00    -0.126 OA
ATOM      8  O   UNL     1      -4.977   0.076  -0.567  0.00  0.00    -0.126 OA
ATOM      9  N   UNL     1      -4.183   0.091   0.401  0.00  0.00    +0.061 N 
ENDBRANCH   4   9
BRANCH   3  10
ATOM     10  O   UNL     1       0.853  -2.222  -0.230  0.00  0.00    -0.468 OA
ATOM     11  C   UNL     1       0.960  -3.607   0.090  0.00  0.00    +0.253 C 
ENDBRANCH   3  10
BRANCH   5  12
ATOM     12  O   UNL     1      -3.730  -2.619   0.970  0.00  0.00    -0.504 OA
ATOM     13  H   UNL     1      -4.584  -2.248   1.083  0.00  0.00    +0.292 HD
ENDBRANCH   5  12
BRANCH   2  15
ATOM     14  O   UNL     1      -2.382   2.546   0.291  0.00  0.00    -0.245 OA
ATOM     15  C   UNL     1      -2.002   1.700  -0.524  0.00  0.00    +0.346 C 
BRANCH  15  16
ATOM     16  O   UNL     1      -1.698   1.964  -1.829  0.00  0.00    -0.441 OA
ATOM     17  C   UNL     1      -1.837   3.323  -2.257  0.00  0.00    +0.256 C 
ENDBRANCH  15  16
ENDBRANCH   2  15
BRANCH   1  18
ATOM     18  O   UNL     1       0.492   0.454  -0.811  0.00  0.00    -0.450 OA
BRANCH  18  19
ATOM     19  C   UNL     1       1.591   0.564   0.022  0.00  0.00    +0.154 C 
ATOM     20  C   UNL     1       2.849   0.123  -0.390  0.00  0.00    +0.143 C 
ATOM     21  C   UNL     1       2.524   1.247   2.143  0.00  0.00    -0.016 C 
ATOM     22  C   UNL     1       1.429   1.126   1.288  0.00  0.00    +0.034 C 
ATOM     23  C   UNL     1       3.945   0.244   0.466  0.00  0.00    +0.143 C 
ATOM     24  C   UNL     1       3.782   0.806   1.732  0.00  0.00    +0.033 C 
ATOM     25  C   UNL     1       2.351   1.848   3.497  0.00  0.00    +0.031 C 
BRANCH  23  26
ATOM     26  O   UNL     1       5.182  -0.181   0.084  0.00  0.00    -0.505 OA
ATOM     27  H   UNL     1       5.307  -0.560  -0.764  0.00  0.00    +0.292 HD
ENDBRANCH  23  26
BRANCH  20  29
ATOM     28  O   UNL     1       3.423  -1.609  -1.938  0.00  0.00    -0.245 OA
ATOM     29  C   UNL     1       3.019  -0.465  -1.713  0.00  0.00    +0.344 C 
BRANCH  29  30
ATOM     30  O   UNL     1       2.679   0.396  -2.709  0.00  0.00    -0.477 OA
ATOM     31  H   UNL     1       2.376   1.258  -2.500  0.00  0.00    +0.295 HD
ENDBRANCH  29  30
ENDBRANCH  20  29
ENDBRANCH  18  19
ENDBRANCH   1  18
TORSDOF 10
