REMARK  Name = 122147
REMARK  5 active torsions:
REMARK  status: ('A' for Active; 'I' for Inactive)
REMARK    1  A    between atoms: C_5  and  N_18
REMARK    2  A    between atoms: C_11  and  S_12
REMARK    3  A    between atoms: S_12  and  N_15
REMARK    4  A    between atoms: N_18  and  C_21
REMARK    5  A    between atoms: C_21  and  C_22
REMARK                            x       y       z     vdW  Elec       q    Type
REMARK                         _______ _______ _______ _____ _____    ______ ____
ROOT
ATOM      1  S   UNL     1      -0.154  -2.641  -0.326  0.00  0.00    +0.014 S 
ATOM      2  S   UNL     1       2.324  -1.024  -0.482  0.00  0.00    -0.049 S 
ATOM      3  O   UNL     1      -0.106  -2.835  -1.759  0.00  0.00    -0.168 OA
ATOM      4  O   UNL     1       0.388  -3.592   0.621  0.00  0.00    -0.168 OA
ATOM      5  C   UNL     1      -1.183   0.119   1.124  0.00  0.00    -0.035 C 
ATOM      6  C   UNL     1      -1.844  -1.260   1.366  0.00  0.00    +0.009 C 
ATOM      7  C   UNL     1       0.226  -0.002   0.616  0.00  0.00    -0.017 C 
ATOM      8  C   UNL     1      -1.821  -2.203   0.158  0.00  0.00    +0.155 C 
ATOM      9  C   UNL     1       0.699  -1.135  -0.010  0.00  0.00    +0.130 C 
ATOM     10  C   UNL     1       1.254   0.989   0.705  0.00  0.00    +0.022 C 
ATOM     11  C   UNL     1       2.440   0.566   0.143  0.00  0.00    +0.152 C 
ENDROOT
BRANCH  11  12
ATOM     12  S   UNL     1       4.016   1.319  -0.049  0.00  0.00    +0.063 S 
ATOM     13  O   UNL     1       4.155   2.338   0.978  0.00  0.00    -0.153 OA
ATOM     14  O   UNL     1       5.008   0.265  -0.172  0.00  0.00    -0.153 OA
BRANCH  12  15
ATOM     15  N   UNL     1       3.820   2.078  -1.565  0.00  0.00    -0.203 NA
ATOM     16  H   UNL     1       4.679   2.568  -1.814  0.00  0.00    +0.144 HD
ATOM     17  H   UNL     1       3.050   2.745  -1.514  0.00  0.00    +0.144 HD
ENDBRANCH  12  15
ENDBRANCH  11  12
BRANCH   5  18
ATOM     18  N   UNL     1      -1.944   0.927   0.170  0.00  0.00    +0.388 N 
ATOM     19  H   UNL     1      -1.926   0.472  -0.743  0.00  0.00    -0.084 HD
ATOM     20  H   UNL     1      -1.520   1.853   0.112  0.00  0.00    -0.084 HD
BRANCH  18  21
ATOM     21  C   UNL     1      -3.324   1.071   0.604  0.00  0.00    -0.081 C 
BRANCH  21  22
ATOM     22  C   UNL     1      -4.180   1.855  -0.406  0.00  0.00    -0.021 C 
ATOM     23  C   UNL     1      -4.141   1.156  -1.768  0.00  0.00    -0.002 C 
ATOM     24  C   UNL     1      -5.632   2.011   0.052  0.00  0.00    -0.002 C 
ENDBRANCH  21  22
ENDBRANCH  18  21
ENDBRANCH   5  18
TORSDOF 5
