REMARK  Name = 122182600
REMARK  5 active torsions:
REMARK  status: ('A' for Active; 'I' for Inactive)
REMARK    1  A    between atoms: C_4  and  O_24
REMARK    2  A    between atoms: C_16  and  O_22
REMARK    3  A    between atoms: O_24  and  C_30
REMARK    4  A    between atoms: C_26  and  O_32
REMARK    5  A    between atoms: C_27  and  O_34
REMARK                            x       y       z     vdW  Elec       q    Type
REMARK                         _______ _______ _______ _____ _____    ______ ____
ROOT
ATOM      1  O   UNL     1      -0.726   1.583  -0.062  0.00  0.00    -0.285 OA
ATOM      2  O   UNL     1       2.550  -2.612  -0.086  0.00  0.00    -0.291 OA
ATOM      3  N   UNL     1       1.808   2.154  -0.032  0.00  0.00    -0.266 NA
ATOM      4  C   UNL     1      -1.866  -0.997  -0.071  0.00  0.00    +0.144 C 
ATOM      5  C   UNL     1      -0.485  -0.765  -0.065  0.00  0.00    +0.077 C 
ATOM      6  C   UNL     1       0.407  -1.835  -0.066  0.00  0.00    +0.041 C 
ATOM      7  C   UNL     1       2.395  -0.204  -0.043  0.00  0.00    +0.130 C 
ATOM      8  C   UNL     1       1.477   0.846  -0.044  0.00  0.00    +0.104 C 
ATOM      9  C   UNL     1       0.023   0.614  -0.057  0.00  0.00    +0.212 C 
ATOM     10  C   UNL     1       1.868  -1.601  -0.061  0.00  0.00    +0.183 C 
ATOM     11  C   UNL     1       3.788   0.123  -0.027  0.00  0.00    +0.022 C 
ATOM     12  C   UNL     1      -2.351  -2.304  -0.078  0.00  0.00    +0.037 C 
ATOM     13  C   UNL     1      -0.087  -3.146  -0.073  0.00  0.00    +0.003 C 
ATOM     14  C   UNL     1       4.139   1.496  -0.014  0.00  0.00    +0.001 C 
ATOM     15  C   UNL     1      -1.463  -3.377  -0.079  0.00  0.00    +0.003 C 
ATOM     16  C   UNL     1       4.875  -0.793  -0.021  0.00  0.00    +0.130 C 
ATOM     17  C   UNL     1       3.121   2.445  -0.018  0.00  0.00    +0.151 C 
ATOM     18  C   UNL     1       5.482   1.911   0.002  0.00  0.00    -0.007 C 
ATOM     19  C   UNL     1       6.513   0.980   0.006  0.00  0.00    -0.019 C 
ATOM     20  C   UNL     1       6.210  -0.372  -0.005  0.00  0.00    +0.032 C 
ATOM     21  C   UNL     1       7.933   1.433   0.025  0.00  0.00    +0.031 C 
ENDROOT
BRANCH  16  22
ATOM     22  O   UNL     1       4.778  -2.151  -0.020  0.00  0.00    -0.506 OA
ATOM     23  H   UNL     1       3.936  -2.560  -0.030  0.00  0.00    +0.292 HD
ENDBRANCH  16  22
BRANCH   4  24
ATOM     24  O   UNL     1      -2.784   0.010  -0.069  0.00  0.00    -0.452 OA
BRANCH  24  30
ATOM     25  O   UNL     1      -4.859  -0.738   0.802  0.00  0.00    -0.320 OA
ATOM     26  C   UNL     1      -6.181   1.163   0.062  0.00  0.00    +0.164 C 
ATOM     27  C   UNL     1      -4.997   2.103   0.294  0.00  0.00    +0.146 C 
ATOM     28  C   UNL     1      -5.695  -0.257  -0.258  0.00  0.00    +0.148 C 
ATOM     29  C   UNL     1      -4.061   1.508   1.347  0.00  0.00    +0.108 C 
ATOM     30  C   UNL     1      -3.692   0.056   1.027  0.00  0.00    +0.290 C 
ATOM     31  C   UNL     1      -6.849  -1.245  -0.398  0.00  0.00    +0.035 C 
BRANCH  26  32
ATOM     32  O   UNL     1      -6.985   1.685  -0.989  0.00  0.00    -0.380 OA
ATOM     33  H   UNL     1      -7.276   2.581  -0.758  0.00  0.00    +0.211 HD
ENDBRANCH  26  32
BRANCH  27  34
ATOM     34  O   UNL     1      -4.288   2.287  -0.931  0.00  0.00    -0.382 OA
ATOM     35  H   UNL     1      -4.884   2.664  -1.596  0.00  0.00    +0.210 HD
ENDBRANCH  27  34
ENDBRANCH  24  30
ENDBRANCH   4  24
TORSDOF 5
