122177663
  -OEChem-03292013293D

 56 56  0     1  0  0  0  0  0999 V2000
   -3.2839   -0.4732   -1.4533 O   0  0  0  0  0  0  0  0  0  0  0  0
   -5.2794   -1.6470   -1.5256 O   0  0  0  0  0  0  0  0  0  0  0  0
   -1.9645    0.7246    1.6665 O   0  0  0  0  0  0  0  0  0  0  0  0
    1.3150   -0.0109   -1.6748 O   0  0  0  0  0  0  0  0  0  0  0  0
    4.7721   -1.7734    0.9884 O   0  0  0  0  0  0  0  0  0  0  0  0
    6.2038   -1.1184   -0.6349 O   0  0  0  0  0  0  0  0  0  0  0  0
   -0.8673   -0.1925   -0.1537 N   0  0  0  0  0  0  0  0  0  0  0  0
    2.7610   -0.3330    0.1118 N   0  0  0  0  0  0  0  0  0  0  0  0
   -4.5606    0.2018    0.1011 C   0  0  1  0  0  0  0  0  0  0  0  0
   -3.1763    0.5772   -0.4492 C   0  0  1  0  0  0  0  0  0  0  0  0
   -5.6378    1.2625    0.0239 C   0  0  0  0  0  0  0  0  0  0  0  0
   -4.5375   -0.8143   -1.0554 C   0  0  0  0  0  0  0  0  0  0  0  0
    0.3782   -0.4717    0.5151 C   0  0  1  0  0  0  0  0  0  0  0  0
   -1.9591    0.3914    0.4770 C   0  0  0  0  0  0  0  0  0  0  0  0
    0.4213   -1.8766    1.1526 C   0  0  0  0  0  0  0  0  0  0  0  0
   -6.9900    0.7171    0.4880 C   0  0  0  0  0  0  0  0  0  0  0  0
   -5.2544    2.4667    0.8907 C   0  0  0  0  0  0  0  0  0  0  0  0
    4.4421    1.3547   -0.6272 C   0  0  2  0  0  0  0  0  0  0  0  0
    3.9942   -0.1274   -0.6123 C   0  0  1  0  0  0  0  0  0  0  0  0
    1.5112   -0.2568   -0.4863 C   0  0  0  0  0  0  0  0  0  0  0  0
    4.4099    1.9332    0.8040 C   0  0  0  0  0  0  0  0  0  0  0  0
   -0.6876   -2.1023    2.1860 C   0  0  0  0  0  0  0  0  0  0  0  0
    0.3631   -2.9692    0.0807 C   0  0  0  0  0  0  0  0  0  0  0  0
    3.6200    2.2071   -1.6039 C   0  0  0  0  0  0  0  0  0  0  0  0
    5.1020   -1.0402   -0.1019 C   0  0  0  0  0  0  0  0  0  0  0  0
    4.9046    3.3707    0.8922 C   0  0  0  0  0  0  0  0  0  0  0  0
   -4.5219   -0.2983    1.0777 H   0  0  0  0  0  0  0  0  0  0  0  0
   -3.1391    1.5527   -0.9517 H   0  0  0  0  0  0  0  0  0  0  0  0
   -5.7478    1.6149   -1.0098 H   0  0  0  0  0  0  0  0  0  0  0  0
    0.5069    0.2759    1.3091 H   0  0  0  0  0  0  0  0  0  0  0  0
    1.3742   -1.9964    1.6832 H   0  0  0  0  0  0  0  0  0  0  0  0
   -0.9571   -0.4519   -1.1322 H   0  0  0  0  0  0  0  0  0  0  0  0
   -5.0991    2.1694    1.9339 H   0  0  0  0  0  0  0  0  0  0  0  0
   -6.0392    3.2303    0.8666 H   0  0  0  0  0  0  0  0  0  0  0  0
   -6.9414    0.3628    1.5236 H   0  0  0  0  0  0  0  0  0  0  0  0
   -7.3036   -0.1272   -0.1346 H   0  0  0  0  0  0  0  0  0  0  0  0
   -7.7660    1.4872    0.4257 H   0  0  0  0  0  0  0  0  0  0  0  0
   -4.3289    2.9339    0.5402 H   0  0  0  0  0  0  0  0  0  0  0  0
    5.4810    1.3941   -0.9822 H   0  0  0  0  0  0  0  0  0  0  0  0
    3.8184   -0.4579   -1.6447 H   0  0  0  0  0  0  0  0  0  0  0  0
    2.8247   -0.4970    1.1120 H   0  0  0  0  0  0  0  0  0  0  0  0
    3.3924    1.9065    1.2117 H   0  0  0  0  0  0  0  0  0  0  0  0
    5.0336    1.3155    1.4614 H   0  0  0  0  0  0  0  0  0  0  0  0
   -0.5436   -3.0625    2.6939 H   0  0  0  0  0  0  0  0  0  0  0  0
    0.4105   -3.9611    0.5439 H   0  0  0  0  0  0  0  0  0  0  0  0
   -0.6713   -1.3207    2.9522 H   0  0  0  0  0  0  0  0  0  0  0  0
   -1.6803   -2.1244    1.7257 H   0  0  0  0  0  0  0  0  0  0  0  0
    1.2044   -2.9006   -0.6159 H   0  0  0  0  0  0  0  0  0  0  0  0
   -0.5654   -2.9202   -0.4980 H   0  0  0  0  0  0  0  0  0  0  0  0
    2.6053    2.3797   -1.2323 H   0  0  0  0  0  0  0  0  0  0  0  0
    4.0889    3.1833   -1.7639 H   0  0  0  0  0  0  0  0  0  0  0  0
    3.5515    1.7208   -2.5826 H   0  0  0  0  0  0  0  0  0  0  0  0
    5.9004    3.4718    0.4494 H   0  0  0  0  0  0  0  0  0  0  0  0
    4.2251    4.0630    0.3867 H   0  0  0  0  0  0  0  0  0  0  0  0
    4.9678    3.6807    1.9405 H   0  0  0  0  0  0  0  0  0  0  0  0
    5.5108   -2.3490    1.2806 H   0  0  0  0  0  0  0  0  0  0  0  0
  1 10  1  0  0  0  0
  1 12  1  0  0  0  0
  2 12  2  0  0  0  0
  3 14  2  0  0  0  0
  4 20  2  0  0  0  0
  5 25  1  0  0  0  0
  5 56  1  0  0  0  0
  6 25  2  0  0  0  0
  7 13  1  0  0  0  0
  7 14  1  0  0  0  0
  7 32  1  0  0  0  0
  8 19  1  0  0  0  0
  8 20  1  0  0  0  0
  8 41  1  0  0  0  0
  9 10  1  0  0  0  0
  9 11  1  0  0  0  0
  9 12  1  0  0  0  0
  9 27  1  0  0  0  0
 10 14  1  0  0  0  0
 10 28  1  0  0  0  0
 11 16  1  0  0  0  0
 11 17  1  0  0  0  0
 11 29  1  0  0  0  0
 13 15  1  0  0  0  0
 13 20  1  0  0  0  0
 13 30  1  0  0  0  0
 15 22  1  0  0  0  0
 15 23  1  0  0  0  0
 15 31  1  0  0  0  0
 16 35  1  0  0  0  0
 16 36  1  0  0  0  0
 16 37  1  0  0  0  0
 17 33  1  0  0  0  0
 17 34  1  0  0  0  0
 17 38  1  0  0  0  0
 18 19  1  0  0  0  0
 18 21  1  0  0  0  0
 18 24  1  0  0  0  0
 18 39  1  0  0  0  0
 19 25  1  0  0  0  0
 19 40  1  0  0  0  0
 21 26  1  0  0  0  0
 21 42  1  0  0  0  0
 21 43  1  0  0  0  0
 22 44  1  0  0  0  0
 22 46  1  0  0  0  0
 22 47  1  0  0  0  0
 23 45  1  0  0  0  0
 23 48  1  0  0  0  0
 23 49  1  0  0  0  0
 24 50  1  0  0  0  0
 24 51  1  0  0  0  0
 24 52  1  0  0  0  0
 26 53  1  0  0  0  0
 26 54  1  0  0  0  0
 26 55  1  0  0  0  0
M  END
> <PUBCHEM_COMPOUND_CID>
122177663

> <PUBCHEM_CONFORMER_RMSD>
1.2

> <PUBCHEM_CONFORMER_DIVERSEORDER>
1
27
62
17
32
134
83
102
178
155
167
77
3
72
136
161
183
11
40
182
21
60
113
163
28
50
99
45
52
67
147
87
73
166
104
22
96
181
120
158
143
123
135
4
79
2
169
103
177
172
138
53
12
128
109
42
117
179
19
75
33
150
49
15
81
185
154
146
186
7
180
80
140
69
39
57
130
35
126
93
56
171
152
139
95
145
38
100
191
55
46
173
84
6
89
176
92
168
68
98
70
8
119
175
44
110
41
86
132
129
34
61
164
74
37
127
114
66
148
188
157
18
9
91
131
112
94
88
142
48
133
189
165
16
116
13
106
162
101
76
190
64
187
25
108
51
43
71
137
14
121
105
156
54
63
85
78
118
36
151
82
29
170
124
149
30
26
160
122
125
59
24
58
31
153
174
115
20
184
107
90
97
141
111
65
23
144
47
159
10
5

> <PUBCHEM_MMFF94_PARTIAL_CHARGES>
19
1 -0.41
10 0.31
12 0.67
13 0.36
14 0.58
19 0.36
2 -0.57
20 0.57
25 0.66
3 -0.57
32 0.37
4 -0.57
41 0.37
5 -0.65
56 0.5
6 -0.57
7 -0.73
8 -0.73
9 0.05

> <PUBCHEM_EFFECTIVE_ROTOR_COUNT>
11.6

> <PUBCHEM_PHARMACOPHORE_FEATURES>
13
1 2 acceptor
1 24 hydrophobe
1 26 hydrophobe
1 3 acceptor
1 4 acceptor
1 5 acceptor
1 6 acceptor
1 7 donor
1 8 donor
3 11 16 17 hydrophobe
3 15 22 23 hydrophobe
3 5 6 25 anion
4 1 9 10 12 rings

> <PUBCHEM_HEAVY_ATOM_COUNT>
26

> <PUBCHEM_ATOM_DEF_STEREO_COUNT>
3

> <PUBCHEM_ATOM_UDEF_STEREO_COUNT>
2

> <PUBCHEM_BOND_DEF_STEREO_COUNT>
0

> <PUBCHEM_BOND_UDEF_STEREO_COUNT>
0

> <PUBCHEM_ISOTOPIC_ATOM_COUNT>
0

> <PUBCHEM_COMPONENT_COUNT>
1

> <PUBCHEM_CACTVS_TAUTO_COUNT>
8

> <PUBCHEM_CONFORMER_ID>
0748487F00000001

> <PUBCHEM_MMFF94_ENERGY>
39.0363

> <PUBCHEM_FEATURE_SELFOVERLAP>
66.034

> <PUBCHEM_SHAPE_FINGERPRINT>
10595046 47 18272929457649729741
10692045 39 18114445800499169664
11089746 13 18408603665279441394
11578080 2 18265054824581769672
12236239 1 18413670206154169757
12403259 415 17821721719660280596
12516196 113 10231751176081197935
12616971 3 18342171154995393631
13533116 47 18335700521030034386
15183329 4 17632865221923603561
1813 80 11240004476928634522
20567600 75 14345793799281456331
21033648 144 17894630391522028606
21033648 29 17968099767486468464
21641784 216 15267076847052473001
23402539 116 18201998811321885567
23559900 14 18187089490253846998
2838139 119 18411136931010501747
3004659 81 18201720635301960324
34797466 226 17060348447899266373
4340502 62 18040445365236272075
474 4 18334303058440480705
495365 180 18410289251233715722
5104073 3 18260828223889411587
57724786 102 17386303072210460116
59755656 520 18186242818797954219
633830 44 18412256238031755782

> <PUBCHEM_SHAPE_MULTIPOLES>
489.89
16
2.9
1.52
7.47
0.56
-0.09
7.05
1.25
-2.6
-0.95
0.25
-0.19
-0.91

> <PUBCHEM_SHAPE_SELFOVERLAP>
972.588

> <PUBCHEM_SHAPE_VOLUME>
289.8

> <PUBCHEM_COORDINATE_TYPE>
2
5
10

$$$$
