REMARK  Name = 122173269
REMARK  11 active torsions:
REMARK  status: ('A' for Active; 'I' for Inactive)
REMARK    1  A    between atoms: N_1  and  C_37
REMARK    2  A    between atoms: C_8  and  O_21
REMARK    3  A    between atoms: C_9  and  O_23
REMARK    4  A    between atoms: C_10  and  C_39
REMARK    5  A    between atoms: C_11  and  O_25
REMARK    6  A    between atoms: C_13  and  O_27
REMARK    7  A    between atoms: C_14  and  O_29
REMARK    8  A    between atoms: C_15  and  O_31
REMARK    9  A    between atoms: C_17  and  O_35
REMARK   10  A    between atoms: C_18  and  O_33
REMARK   11  A    between atoms: C_39  and  O_40
REMARK                            x       y       z     vdW  Elec       q    Type
REMARK                         _______ _______ _______ _____ _____    ______ ____
ROOT
ATOM      1  N   UNL     1      -1.885  -0.463   1.936  0.00  0.00    +0.389 N 
ATOM      2  C   UNL     1      -0.623   1.039   0.300  0.00  0.00    +0.011 C 
ATOM      3  C   UNL     1      -1.169  -0.033  -0.768  0.00  0.00    +0.030 C 
ATOM      4  C   UNL     1       0.914   1.601   0.195  0.00  0.00    +0.008 C 
ATOM      5  C   UNL     1      -0.580   0.051   1.486  0.00  0.00    -0.051 C 
ATOM      6  C   UNL     1       0.424  -0.971   0.791  0.00  0.00    +0.036 C 
ATOM      7  C   UNL     1       1.953   1.000   1.242  0.00  0.00    +0.056 C 
ATOM      8  C   UNL     1       1.857  -0.594   1.280  0.00  0.00    +0.118 C 
ATOM      9  C   UNL     1      -0.376  -1.384  -0.468  0.00  0.00    +0.116 C 
ATOM     10  C   UNL     1      -2.685  -0.304  -0.475  0.00  0.00    +0.036 C 
ATOM     11  C   UNL     1      -1.539   2.284   0.427  0.00  0.00    +0.116 C 
ATOM     12  C   UNL     1       1.675   1.463  -1.148  0.00  0.00    +0.032 C 
ATOM     13  C   UNL     1       3.135   1.037  -0.777  0.00  0.00    +0.140 C 
ATOM     14  C   UNL     1       3.266   1.540   0.659  0.00  0.00    +0.140 C 
ATOM     15  C   UNL     1       3.005  -1.252   0.473  0.00  0.00    +0.164 C 
ATOM     16  C   UNL     1      -2.801  -0.995   0.920  0.00  0.00    -0.072 C 
ATOM     17  C   UNL     1      -3.518   1.003  -0.479  0.00  0.00    +0.113 C 
ATOM     18  C   UNL     1       3.370  -0.501  -0.838  0.00  0.00    +0.171 C 
ATOM     19  C   UNL     1      -3.034   2.020   0.547  0.00  0.00    +0.059 C 
ATOM     20  H   UNL     1      -2.342   0.404   2.219  0.00  0.00    -0.080 HD
ENDROOT
BRANCH   8  21
ATOM     21  O   UNL     1       2.012  -0.970   2.656  0.00  0.00    -0.384 OA
ATOM     22  H   UNL     1       1.303  -0.568   3.182  0.00  0.00    +0.210 HD
ENDBRANCH   8  21
BRANCH   9  23
ATOM     23  O   UNL     1       0.499  -1.675  -1.542  0.00  0.00    -0.354 OA
ATOM     24  C   UNL     1      -0.132  -2.474  -2.536  0.00  0.00    +0.174 C 
ENDBRANCH   9  23
BRANCH  11  25
ATOM     25  O   UNL     1      -1.371   3.107  -0.736  0.00  0.00    -0.354 OA
ATOM     26  C   UNL     1      -1.668   4.461  -0.447  0.00  0.00    +0.174 C 
ENDBRANCH  11  25
BRANCH  13  27
ATOM     27  O   UNL     1       4.023   1.713  -1.656  0.00  0.00    -0.382 OA
ATOM     28  H   UNL     1       3.863   2.668  -1.605  0.00  0.00    +0.210 HD
ENDBRANCH  13  27
BRANCH  14  29
ATOM     29  O   UNL     1       4.405   1.075   1.352  0.00  0.00    -0.382 OA
ATOM     30  H   UNL     1       4.409   1.441   2.250  0.00  0.00    +0.210 HD
ENDBRANCH  14  29
BRANCH  15  31
ATOM     31  O   UNL     1       2.693  -2.608   0.147  0.00  0.00    -0.380 OA
ATOM     32  H   UNL     1       2.464  -3.090   0.957  0.00  0.00    +0.211 HD
ENDBRANCH  15  31
BRANCH  18  33
ATOM     33  O   UNL     1       4.762  -0.770  -1.066  0.00  0.00    -0.349 OA
ATOM     34  C   UNL     1       4.943  -2.047  -1.648  0.00  0.00    +0.174 C 
ENDBRANCH  18  33
BRANCH  17  35
ATOM     35  O   UNL     1      -3.486   1.622  -1.767  0.00  0.00    -0.384 OA
ATOM     36  H   UNL     1      -3.791   0.990  -2.437  0.00  0.00    +0.210 HD
ENDBRANCH  17  35
BRANCH   1  37
ATOM     37  C   UNL     1      -1.794  -1.336   3.100  0.00  0.00    -0.077 C 
ATOM     38  C   UNL     1      -3.151  -1.510   3.762  0.00  0.00    -0.025 C 
ENDBRANCH   1  37
BRANCH  10  39
ATOM     39  C   UNL     1      -3.268  -1.254  -1.550  0.00  0.00    +0.142 C 
BRANCH  39  40
ATOM     40  O   UNL     1      -4.614  -1.503  -1.217  0.00  0.00    -0.351 OA
ATOM     41  C   UNL     1      -5.243  -2.374  -2.154  0.00  0.00    +0.174 C 
ENDBRANCH  39  40
ENDBRANCH  10  39
TORSDOF 11
