REMARK  Name = 122100
REMARK  5 active torsions:
REMARK  status: ('A' for Active; 'I' for Inactive)
REMARK    1  A    between atoms: N_1  and  C_11
REMARK    2  A    between atoms: C_10  and  C_14
REMARK    3  A    between atoms: C_12  and  C_17
REMARK    4  A    between atoms: C_14  and  O_15
REMARK    5  A    between atoms: C_17  and  O_18
REMARK                            x       y       z     vdW  Elec       q    Type
REMARK                         _______ _______ _______ _____ _____    ______ ____
ROOT
ATOM      1  N   UNL     1      -0.210   0.586   0.376  0.00  0.00    -0.273 N 
ATOM      2  N   UNL     1      -1.817   1.865  -0.490  0.00  0.00    -0.242 NA
ATOM      3  N   UNL     1      -1.460  -1.465   0.739  0.00  0.00    -0.228 NA
ATOM      4  N   UNL     1      -3.784  -1.223   0.034  0.00  0.00    -0.229 NA
ATOM      5  C   UNL     1      -1.333  -0.191   0.340  0.00  0.00    +0.150 C 
ATOM      6  C   UNL     1      -0.550   1.811  -0.133  0.00  0.00    +0.221 C 
ATOM      7  C   UNL     1      -2.318   0.621  -0.200  0.00  0.00    +0.140 C 
ATOM      8  C   UNL     1      -3.583   0.061  -0.349  0.00  0.00    +0.143 C 
ATOM      9  C   UNL     1      -2.725  -1.896   0.546  0.00  0.00    +0.253 C 
ATOM     10  N   UNL     1      -4.641   0.812  -0.888  0.00  0.00    -0.342 N 
ATOM     11  H   UNL     1      -5.532   0.405  -0.988  0.00  0.00    +0.144 HD
ATOM     12  H   UNL     1      -4.492   1.745  -1.166  0.00  0.00    +0.144 HD
ENDROOT
BRANCH   1  14
ATOM     13  C   UNL     1       2.251   0.712  -0.031  0.00  0.00    +0.050 C 
ATOM     14  C   UNL     1       1.103   0.199   0.863  0.00  0.00    +0.078 C 
ATOM     15  C   UNL     1       2.919  -0.665   0.169  0.00  0.00    +0.035 C 
ATOM     16  C   UNL     1       1.506  -1.227   0.432  0.00  0.00    +0.023 C 
BRANCH  13  17
ATOM     17  C   UNL     1       2.992   1.915   0.551  0.00  0.00    +0.139 C 
BRANCH  17  18
ATOM     18  O   UNL     1       4.268   2.009  -0.062  0.00  0.00    -0.382 OA
ATOM     19  H   UNL     1       4.746   2.771   0.301  0.00  0.00    +0.210 HD
ENDBRANCH  17  18
ENDBRANCH  13  17
BRANCH  15  20
ATOM     20  C   UNL     1       3.618  -1.262  -1.042  0.00  0.00    +0.137 C 
BRANCH  20  21
ATOM     21  O   UNL     1       3.761  -2.663  -0.854  0.00  0.00    -0.382 OA
ATOM     22  H   UNL     1       4.207  -3.049  -1.624  0.00  0.00    +0.210 HD
ENDBRANCH  20  21
ENDBRANCH  15  20
ENDBRANCH   1  14
TORSDOF 5
