REMARK  Name = 122170
REMARK  6 active torsions:
REMARK  status: ('A' for Active; 'I' for Inactive)
REMARK    1  A    between atoms: N_1  and  C1*_20
REMARK    2  A    between atoms: N_5  and  C_12
REMARK    3  A    between atoms: C2*_19  and  O2*_23
REMARK    4  A    between atoms: C3*_21  and  O3*_25
REMARK    5  A    between atoms: C4*_22  and  C5*_27
REMARK    6  A    between atoms: C5*_27  and  O5*_28
REMARK                            x       y       z     vdW  Elec       q    Type
REMARK                         _______ _______ _______ _____ _____    ______ ____
ROOT
ATOM      1  N   UNL     1       2.238  -1.240   0.261  0.00  0.00    -0.236 N 
ATOM      2  N   UNL     1       1.484  -3.334   0.112  0.00  0.00    -0.240 NA
ATOM      3  N   UNL     1       0.132  -0.033   0.163  0.00  0.00    -0.311 NA
ATOM      4  N   UNL     1      -1.759  -1.563  -0.041  0.00  0.00    -0.311 NA
ATOM      5  N   UNL     1      -2.067   0.758   0.042  0.00  0.00    -0.238 N 
ATOM      6  C   UNL     1       0.877  -1.148   0.167  0.00  0.00    +0.221 C 
ATOM      7  C   UNL     1       2.553  -2.574   0.223  0.00  0.00    +0.224 C 
ATOM      8  C   UNL     1       0.429  -2.457   0.076  0.00  0.00    +0.167 C 
ATOM      9  C   UNL     1      -0.945  -2.645  -0.031  0.00  0.00    +0.212 C 
ATOM     10  C   UNL     1      -1.179  -0.342   0.055  0.00  0.00    +0.206 C 
ATOM     11  H   UNL     1      -1.618   1.631   0.114  0.00  0.00    +0.166 HD
ATOM     12  N   UNL     1      -1.487  -3.938  -0.127  0.00  0.00    -0.331 N 
ATOM     13  H   UNL     1      -2.461  -4.060  -0.202  0.00  0.00    +0.145 HD
ATOM     14  H   UNL     1      -0.893  -4.723  -0.119  0.00  0.00    +0.145 HD
ENDROOT
BRANCH   5  15
ATOM     15  C   UNL     1      -3.467   0.848  -0.053  0.00  0.00    +0.058 C 
ATOM     16  C   UNL     1      -4.059   1.964  -0.649  0.00  0.00    +0.015 C 
ATOM     17  C   UNL     1      -4.272  -0.178   0.447  0.00  0.00    +0.015 C 
ATOM     18  C   UNL     1      -5.448   2.054  -0.744  0.00  0.00    +0.001 C 
ATOM     19  C   UNL     1      -5.661  -0.089   0.352  0.00  0.00    +0.001 C 
ATOM     20  C   UNL     1      -6.249   1.027  -0.244  0.00  0.00    +0.000 C 
ENDBRANCH   5  15
BRANCH   1  23
ATOM     21  O4* UNL     1       2.585   0.944   1.123  0.00  0.00    -0.333 OA
ATOM     22  C2* UNL     1       3.612   0.461  -0.956  0.00  0.00    +0.187 C 
ATOM     23  C1* UNL     1       3.185  -0.133   0.378  0.00  0.00    +0.226 C 
ATOM     24  C3* UNL     1       4.009   1.865  -0.547  0.00  0.00    +0.171 C 
ATOM     25  C4* UNL     1       2.971   2.200   0.519  0.00  0.00    +0.175 C 
BRANCH  22  26
ATOM     26  O2* UNL     1       4.672  -0.266  -1.542  0.00  0.00    -0.378 OA
ATOM     27  H2* UNL     1       4.362  -1.153  -1.783  0.00  0.00    +0.211 HD
ENDBRANCH  22  26
BRANCH  24  28
ATOM     28  O3* UNL     1       5.301   1.836   0.061  0.00  0.00    -0.379 OA
ATOM     29  H3* UNL     1       5.969   1.624  -0.609  0.00  0.00    +0.211 HD
ENDBRANCH  24  28
BRANCH  25  30
ATOM     30  C5* UNL     1       1.724   2.861  -0.053  0.00  0.00    +0.169 C 
BRANCH  30  31
ATOM     31  O5* UNL     1       0.822   3.120   1.007  0.00  0.00    -0.379 OA
ATOM     32  H5* UNL     1       0.022   3.542   0.655  0.00  0.00    +0.211 HD
ENDBRANCH  30  31
ENDBRANCH  25  30
ENDBRANCH   1  23
TORSDOF 6
