REMARK  Name = 122136
REMARK  6 active torsions:
REMARK  status: ('A' for Active; 'I' for Inactive)
REMARK    1  A    between atoms: C_1  and  C_14
REMARK    2  A    between atoms: C_4  and  O_9
REMARK    3  A    between atoms: C_5  and  O_7
REMARK    4  A    between atoms: O_9  and  S_10
REMARK    5  A    between atoms: C_14  and  C_15
REMARK    6  A    between atoms: C_15  and  N_16
REMARK                            x       y       z     vdW  Elec       q    Type
REMARK                         _______ _______ _______ _____ _____    ______ ____
ROOT
ATOM      1  C   UNL     1       1.786  -0.415  -0.380  0.00  0.00    -0.021 C 
ATOM      2  C   UNL     1       0.592   0.207  -0.746  0.00  0.00    +0.039 C 
ATOM      3  C   UNL     1       1.762  -1.687   0.192  0.00  0.00    -0.001 C 
ATOM      4  C   UNL     1      -0.625  -0.443  -0.539  0.00  0.00    +0.209 C 
ATOM      5  C   UNL     1      -0.648  -1.714   0.033  0.00  0.00    +0.171 C 
ATOM      6  C   UNL     1       0.545  -2.337   0.399  0.00  0.00    +0.040 C 
ENDROOT
BRANCH   5   7
ATOM      7  O   UNL     1      -1.830  -2.359   0.239  0.00  0.00    -0.503 OA
ATOM      8  H   UNL     1      -2.637  -1.948  -0.004  0.00  0.00    +0.292 HD
ENDBRANCH   5   7
BRANCH   4   9
ATOM      9  O   UNL     1      -1.784   0.175  -0.901  0.00  0.00    -0.319 OA
BRANCH   9  10
ATOM     10  S   UNL     1      -2.554   1.127   0.195  0.00  0.00    +0.282 S 
ATOM     11  O   UNL     1      -3.937   1.552  -0.560  0.00  0.00    -0.105 OA
ATOM     12  O   UNL     1      -2.906   0.326   1.353  0.00  0.00    -0.012 OA
ATOM     13  O   UNL     1      -1.764   2.333   0.362  0.00  0.00    -0.105 OA
ENDBRANCH   9  10
ENDBRANCH   4   9
BRANCH   1  14
ATOM     14  C   UNL     1       3.087   0.279  -0.601  0.00  0.00    +0.003 C 
BRANCH  14  15
ATOM     15  C   UNL     1       3.506   1.134   0.602  0.00  0.00    -0.081 C 
BRANCH  15  16
ATOM     16  N   UNL     1       4.768   1.822   0.352  0.00  0.00    +0.381 N 
ATOM     17  H   UNL     1       5.019   2.380   1.169  0.00  0.00    -0.089 HD
ATOM     18  H   UNL     1       4.668   2.433  -0.459  0.00  0.00    -0.089 HD
ATOM     19  H   UNL     1       5.500   1.135   0.172  0.00  0.00    -0.089 HD
ENDBRANCH  15  16
ENDBRANCH  14  15
ENDBRANCH   1  14
TORSDOF 6
