REMARK  Name = 1222
REMARK  6 active torsions:
REMARK  status: ('A' for Active; 'I' for Inactive)
REMARK    1  A    between atoms: C_1  and  C_3
REMARK    2  A    between atoms: C_1  and  N_13
REMARK    3  A    between atoms: C_1  and  C_18
REMARK    4  A    between atoms: C_8  and  C_10
REMARK    5  A    between atoms: C_10  and  O_11
REMARK    6  A    between atoms: C_18  and  O_19
REMARK                            x       y       z     vdW  Elec       q    Type
REMARK                         _______ _______ _______ _____ _____    ______ ____
ROOT
ATOM      1  C   UNL     1       2.128   0.394   0.394  0.00  0.00    +0.062 C 
ATOM      2  C   UNL     1       2.651   1.813   0.100  0.00  0.00    -0.007 C 
ENDROOT
BRANCH   1   3
ATOM      3  C   UNL     1       0.608   0.233   0.266  0.00  0.00    -0.031 C 
ATOM      4  C   UNL     1       0.057  -1.003   0.505  0.00  0.00    -0.006 C 
ATOM      5  C   UNL     1      -0.140   1.331  -0.086  0.00  0.00    -0.006 C 
ATOM      6  C   UNL     1      -1.325  -1.150   0.387  0.00  0.00    +0.006 C 
ATOM      7  C   UNL     1      -1.522   1.184  -0.204  0.00  0.00    +0.006 C 
ATOM      8  C   UNL     1      -2.114  -0.056   0.032  0.00  0.00    +0.075 C 
BRANCH   8  10
ATOM      9  O   UNL     1      -4.184  -1.255   0.097  0.00  0.00    -0.245 OA
ATOM     10  C   UNL     1      -3.556  -0.208  -0.090  0.00  0.00    +0.338 C 
BRANCH  10  11
ATOM     11  O   UNL     1      -4.173   0.953  -0.440  0.00  0.00    -0.477 OA
ATOM     12  H   UNL     1      -3.668   1.731  -0.575  0.00  0.00    +0.295 HD
ENDBRANCH  10  11
ENDBRANCH   8  10
ENDBRANCH   1   3
BRANCH   1  13
ATOM     13  N   UNL     1       2.564   0.061   1.761  0.00  0.00    +0.392 N 
ATOM     14  H   UNL     1       2.088   0.670   2.427  0.00  0.00    -0.088 HD
ATOM     15  H   UNL     1       3.572   0.195   1.838  0.00  0.00    -0.088 HD
ATOM     16  H   UNL     1       2.333  -0.911   1.964  0.00  0.00    -0.088 HD
ENDBRANCH   1  13
BRANCH   1  18
ATOM     17  O   UNL     1       3.646  -1.410  -0.248  0.00  0.00    -0.252 OA
ATOM     18  C   UNL     1       2.857  -0.535  -0.587  0.00  0.00    +0.298 C 
BRANCH  18  19
ATOM     19  O   UNL     1       2.502  -0.352  -1.886  0.00  0.00    -0.481 OA
ATOM     20  H   UNL     1       1.897   0.326  -2.115  0.00  0.00    +0.295 HD
ENDBRANCH  18  19
ENDBRANCH   1  18
TORSDOF 6
