REMARK  Name = 122204527
REMARK  10 active torsions:
REMARK  status: ('A' for Active; 'I' for Inactive)
REMARK    1  A    between atoms: CA_1  and  N_3
REMARK    2  A    between atoms: CA_1  and  C_16
REMARK    3  A    between atoms: CA_1  and  CB_27
REMARK    4  A    between atoms: C_4  and  C_9
REMARK    5  A    between atoms: C_8  and  C_11
REMARK    6  A    between atoms: N_15  and  CA_18
REMARK    7  A    between atoms: CA_18  and  C_20
REMARK    8  A    between atoms: CA_18  and  CB_23
REMARK    9  A    between atoms: C_20  and  O_21
REMARK   10  A    between atoms: CB_23  and  CG1_25
REMARK                            x       y       z     vdW  Elec       q    Type
REMARK                         _______ _______ _______ _____ _____    ______ ____
ROOT
ATOM      1  CA  UNL     1       0.301  -0.514   0.572  0.00  0.00    +0.149 C 
ENDROOT
BRANCH   1   3
ATOM      2  O   UNL     1      -1.639   1.504   1.212  0.00  0.00    -0.271 OA
ATOM      3  N   UNL     1      -0.968  -0.298  -0.076  0.00  0.00    -0.295 N 
ATOM      4  C   ACE A   0      -1.854   0.706   0.295  0.00  0.00    +0.264 C 
ATOM      5  H   UNL     1      -1.219  -0.892  -0.819  0.00  0.00    +0.150 HD
BRANCH   4   9
ATOM      6  O   UNL     1      -3.758   2.046  -0.604  0.00  0.00    -0.442 OA
ATOM      7  O   UNL     1      -5.965   2.206   0.079  0.00  0.00    -0.250 OA
ATOM      8  C   UNL     1      -4.424   0.155   0.091  0.00  0.00    +0.148 C 
ATOM      9  C   UNL     1      -3.147   0.724  -0.544  0.00  0.00    +0.254 C 
ATOM     10  C   UNL     1      -4.937   1.593  -0.104  0.00  0.00    +0.321 C 
BRANCH   8  11
ATOM     11  C   UNL     1      -5.156  -0.916  -0.688  0.00  0.00    +0.015 C 
ATOM     12  C   UNL     1      -4.303  -2.178  -0.835  0.00  0.00    +0.001 C 
ATOM     13  C   UNL     1      -6.470  -1.274   0.014  0.00  0.00    +0.001 C 
ENDBRANCH   8  11
ENDBRANCH   4   9
ENDBRANCH   1   3
BRANCH   1  16
ATOM     14  O   UNL     1       1.178   0.006  -1.629  0.00  0.00    -0.273 OA
ATOM     15  N   UNL     1       2.667  -0.247   0.134  0.00  0.00    -0.295 N 
ATOM     16  C   UNL     1       1.405  -0.234  -0.445  0.00  0.00    +0.241 C 
ATOM     17  H   UNL     1       2.741  -0.453   1.094  0.00  0.00    +0.150 HD
BRANCH  15  18
ATOM     18  CA  UNL     1       3.876   0.027  -0.608  0.00  0.00    +0.171 C 
BRANCH  18  20
ATOM     19  OXT UNL     1       5.799  -1.237  -1.361  0.00  0.00    -0.248 OA
ATOM     20  C   UNL     1       4.772  -1.202  -0.691  0.00  0.00    +0.332 C 
BRANCH  20  21
ATOM     21  O   UNL     1       4.340  -2.266   0.028  0.00  0.00    -0.479 OA
ATOM     22  H   UNL     1       3.551  -2.203   0.528  0.00  0.00    +0.295 HD
ENDBRANCH  20  21
ENDBRANCH  18  20
BRANCH  18  23
ATOM     23  CB  UNL     1       4.647   1.256  -0.066  0.00  0.00    +0.029 C 
ATOM     24  CG2 UNL     1       5.262   0.998   1.316  0.00  0.00    +0.002 C 
BRANCH  23  25
ATOM     25  CG1 UNL     1       3.737   2.504  -0.061  0.00  0.00    +0.002 C 
ATOM     26  CD1 UNL     1       4.446   3.773   0.394  0.00  0.00    +0.000 C 
ENDBRANCH  23  25
ENDBRANCH  18  23
ENDBRANCH  15  18
ENDBRANCH   1  16
BRANCH   1  27
ATOM     27  CB  UNL     1       0.428  -1.918   1.201  0.00  0.00    +0.027 C 
ATOM     28  CG1 UNL     1      -0.651  -2.207   2.250  0.00  0.00    +0.002 C 
ATOM     29  CG2 UNL     1       0.412  -3.007   0.124  0.00  0.00    +0.002 C 
ENDBRANCH   1  27
TORSDOF 10
