122209598
  -OEChem-03292013293D

 53 55  0     1  0  0  0  0  0999 V2000
   -2.4244    0.5644   -0.8635 O   0  0  0  0  0  0  0  0  0  0  0  0
    1.1442    0.0613   -0.2114 O   0  0  0  0  0  0  0  0  0  0  0  0
    0.1562   -2.6221   -0.6340 O   0  0  0  0  0  0  0  0  0  0  0  0
   -4.2826   -0.8305   -0.6504 O   0  0  0  0  0  0  0  0  0  0  0  0
   -2.6057   -2.8733    0.3610 O   0  0  0  0  0  0  0  0  0  0  0  0
   -1.6357    3.1968   -0.8008 O   0  0  0  0  0  0  0  0  0  0  0  0
    2.1471   -1.1697   -1.8896 O   0  0  0  0  0  0  0  0  0  0  0  0
   -6.7447    0.0175    1.9127 O   0  0  0  0  0  0  0  0  0  0  0  0
   -5.1150    1.7288   -1.3641 O   0  0  0  0  0  0  0  0  0  0  0  0
    9.5963    0.9154    1.5810 O   0  0  0  0  0  0  0  0  0  0  0  0
   -0.1451   -0.2499   -0.7329 C   0  0  1  0  0  0  0  0  0  0  0  0
   -0.6395   -1.5566   -0.1124 C   0  0  1  0  0  0  0  0  0  0  0  0
   -1.1079    0.8982   -0.4204 C   0  0  1  0  0  0  0  0  0  0  0  0
   -2.1096   -1.8076   -0.4487 C   0  0  2  0  0  0  0  0  0  0  0  0
   -2.9609   -0.5664   -0.1809 C   0  0  1  0  0  0  0  0  0  0  0  0
   -0.6979    2.1869   -1.1261 C   0  0  0  0  0  0  0  0  0  0  0  0
   -5.2106   -0.1606    0.0720 C   0  0  0  0  0  0  0  0  0  0  0  0
    2.1999   -0.4672   -0.8925 C   0  0  0  0  0  0  0  0  0  0  0  0
   -5.7901   -0.6761    1.1756 C   0  0  0  0  0  0  0  0  0  0  0  0
   -5.6058    1.2043   -0.3706 C   0  0  0  0  0  0  0  0  0  0  0  0
    3.4411   -0.0387   -0.2087 C   0  0  0  0  0  0  0  0  0  0  0  0
   -5.4847   -2.0323    1.7305 C   0  0  0  0  0  0  0  0  0  0  0  0
   -6.6190    1.9061    0.4398 C   0  0  0  0  0  0  0  0  0  0  0  0
    4.6296   -0.4311   -0.6892 C   0  0  0  0  0  0  0  0  0  0  0  0
   -7.1098    1.2743    1.5060 C   0  0  0  0  0  0  0  0  0  0  0  0
    5.9306   -0.0792   -0.0933 C   0  0  0  0  0  0  0  0  0  0  0  0
    6.0317    1.0166    0.7640 C   0  0  0  0  0  0  0  0  0  0  0  0
    7.0614   -0.8412   -0.3874 C   0  0  0  0  0  0  0  0  0  0  0  0
    7.2634    1.3506    1.3267 C   0  0  0  0  0  0  0  0  0  0  0  0
    8.2932   -0.5072    0.1753 C   0  0  0  0  0  0  0  0  0  0  0  0
    8.3942    0.5887    1.0324 C   0  0  0  0  0  0  0  0  0  0  0  0
   -0.0996   -0.3651   -1.8256 H   0  0  0  0  0  0  0  0  0  0  0  0
   -0.4775   -1.5561    0.9719 H   0  0  0  0  0  0  0  0  0  0  0  0
   -1.1413    1.0989    0.6592 H   0  0  0  0  0  0  0  0  0  0  0  0
   -2.2158   -2.1274   -1.4921 H   0  0  0  0  0  0  0  0  0  0  0  0
   -2.9716   -0.3638    0.9011 H   0  0  0  0  0  0  0  0  0  0  0  0
   -0.7113    2.0576   -2.2135 H   0  0  0  0  0  0  0  0  0  0  0  0
    0.2972    2.5172   -0.8133 H   0  0  0  0  0  0  0  0  0  0  0  0
    0.0248   -2.6543   -1.5969 H   0  0  0  0  0  0  0  0  0  0  0  0
   -2.5026   -2.6165    1.2932 H   0  0  0  0  0  0  0  0  0  0  0  0
   -1.3582    4.0059   -1.2632 H   0  0  0  0  0  0  0  0  0  0  0  0
    3.3286    0.5702    0.6807 H   0  0  0  0  0  0  0  0  0  0  0  0
   -4.7528   -1.9559    2.5401 H   0  0  0  0  0  0  0  0  0  0  0  0
   -5.1045   -2.7150    0.9666 H   0  0  0  0  0  0  0  0  0  0  0  0
   -6.3945   -2.4900    2.1343 H   0  0  0  0  0  0  0  0  0  0  0  0
   -6.9356    2.9006    0.1543 H   0  0  0  0  0  0  0  0  0  0  0  0
    4.6807   -1.0643   -1.5720 H   0  0  0  0  0  0  0  0  0  0  0  0
   -7.8543    1.6973    2.1648 H   0  0  0  0  0  0  0  0  0  0  0  0
    5.1833    1.6501    1.0054 H   0  0  0  0  0  0  0  0  0  0  0  0
    7.0010   -1.6992   -1.0526 H   0  0  0  0  0  0  0  0  0  0  0  0
    7.3374    2.2080    1.9901 H   0  0  0  0  0  0  0  0  0  0  0  0
    9.1667   -1.1087   -0.0617 H   0  0  0  0  0  0  0  0  0  0  0  0
   10.2668    0.2833    1.2695 H   0  0  0  0  0  0  0  0  0  0  0  0
  1 13  1  0  0  0  0
  1 15  1  0  0  0  0
  2 11  1  0  0  0  0
  2 18  1  0  0  0  0
  3 12  1  0  0  0  0
  3 39  1  0  0  0  0
  4 15  1  0  0  0  0
  4 17  1  0  0  0  0
  5 14  1  0  0  0  0
  5 40  1  0  0  0  0
  6 16  1  0  0  0  0
  6 41  1  0  0  0  0
  7 18  2  0  0  0  0
  8 19  1  0  0  0  0
  8 25  1  0  0  0  0
  9 20  2  0  0  0  0
 10 31  1  0  0  0  0
 10 53  1  0  0  0  0
 11 12  1  0  0  0  0
 11 13  1  0  0  0  0
 11 32  1  0  0  0  0
 12 14  1  0  0  0  0
 12 33  1  0  0  0  0
 13 16  1  0  0  0  0
 13 34  1  0  0  0  0
 14 15  1  0  0  0  0
 14 35  1  0  0  0  0
 15 36  1  0  0  0  0
 16 37  1  0  0  0  0
 16 38  1  0  0  0  0
 17 19  2  0  0  0  0
 17 20  1  0  0  0  0
 18 21  1  0  0  0  0
 19 22  1  0  0  0  0
 20 23  1  0  0  0  0
 21 24  2  0  0  0  0
 21 42  1  0  0  0  0
 22 43  1  0  0  0  0
 22 44  1  0  0  0  0
 22 45  1  0  0  0  0
 23 25  2  0  0  0  0
 23 46  1  0  0  0  0
 24 26  1  0  0  0  0
 24 47  1  0  0  0  0
 25 48  1  0  0  0  0
 26 27  2  0  0  0  0
 26 28  1  0  0  0  0
 27 29  1  0  0  0  0
 27 49  1  0  0  0  0
 28 30  2  0  0  0  0
 28 50  1  0  0  0  0
 29 31  2  0  0  0  0
 29 51  1  0  0  0  0
 30 31  1  0  0  0  0
 30 52  1  0  0  0  0
M  END
> <PUBCHEM_COMPOUND_CID>
122209598

> <PUBCHEM_CONFORMER_RMSD>
1

> <PUBCHEM_CONFORMER_DIVERSEORDER>
1
87
61
66
80
88
13
17
62
14
84
50
54
43
78
75
94
83
24
15
26
22
81
64
29
34
77
30
21
57
91
69
90
10
73
58
42
89
72
6
52
47
53
37
16
3
35
79
9
7
63
68
19
38
33
40
8
65
85
48
18
5
23
45
92
55
70
27
32
46
44
2
60
49
76
93
36
67
82
28
11
41
51
31
86
39
25
74
71
59
12
20
4
56

> <PUBCHEM_MMFF94_PARTIAL_CHARGES>
43
1 -0.56
10 -0.53
11 0.28
12 0.28
13 0.28
14 0.28
15 0.56
16 0.28
17 0.09
18 0.71
19 -0.06
2 -0.43
20 0.54
21 -0.14
22 0.14
23 -0.14
24 -0.18
25 -0.07
26 0.03
27 -0.15
28 -0.15
29 -0.15
3 -0.68
30 -0.15
31 0.08
39 0.4
4 -0.36
40 0.4
41 0.4
42 0.15
46 0.15
47 0.15
48 0.15
49 0.15
5 -0.68
50 0.15
51 0.15
52 0.15
53 0.45
6 -0.68
7 -0.57
8 -0.15
9 -0.57

> <PUBCHEM_EFFECTIVE_ROTOR_COUNT>
8.2

> <PUBCHEM_PHARMACOPHORE_FEATURES>
15
1 1 acceptor
1 10 donor
1 3 acceptor
1 3 donor
1 4 acceptor
1 5 acceptor
1 5 donor
1 6 acceptor
1 6 donor
1 7 acceptor
1 8 acceptor
1 9 acceptor
6 1 11 12 13 14 15 rings
6 26 27 28 29 30 31 rings
6 8 17 19 20 23 25 rings

> <PUBCHEM_HEAVY_ATOM_COUNT>
31

> <PUBCHEM_ATOM_DEF_STEREO_COUNT>
5

> <PUBCHEM_ATOM_UDEF_STEREO_COUNT>
0

> <PUBCHEM_BOND_DEF_STEREO_COUNT>
1

> <PUBCHEM_BOND_UDEF_STEREO_COUNT>
0

> <PUBCHEM_ISOTOPIC_ATOM_COUNT>
0

> <PUBCHEM_COMPONENT_COUNT>
1

> <PUBCHEM_CACTVS_TAUTO_COUNT>
12

> <PUBCHEM_CONFORMER_ID>
0748C53E00000001

> <PUBCHEM_MMFF94_ENERGY>
87.7924

> <PUBCHEM_FEATURE_SELFOVERLAP>
76.194

> <PUBCHEM_SHAPE_FINGERPRINT>
10 15 18411419510052120906
10299344 5 14923945648250661154
10533779 47 18339371764670472922
10670039 82 10735882763712351515
11135926 11 17894904122757775754
11297750 10 15910208841013357167
11315181 36 15770056146935468639
11456790 92 18131067118055756362
11973863 73 16733254678059345856
12035758 1 18336841852749044771
12166972 35 15936415563232026484
12236239 1 17240206542880140142
12838862 33 18334852776523115349
13668630 136 14056993907025402144
13673619 4 12829206681094940870
14394314 77 18408039589575350065
14856354 85 17313108583650369931
14931854 50 10015591601503500564
15021287 119 16370731456612855527
15183329 4 14045742612458469914
15352257 5 13767926823604430096
15461852 350 10231755595802726770
17093844 174 18411699890139361611
1754908 1 17531243989756350320
1818759 1 15936407815722986354
21033648 29 17773857827821659440
21130935 74 18202002140407739758
21150785 3 12031789162836576410
21756936 100 18411417319999283663
21792934 111 18334857229539206829
22122407 14 16343148042724282194
23576562 1 12535042240423871499
24771293 8 18272654549831242421
3383291 50 17967536808547753594
4093350 32 17275109397454324662
4169191 19 17132119039036224282
4616759 239 18411985741571742401
563151 97 12319198182533627583
58083652 198 16515682303268683287
636775 72 18060137630752715457
68570916 9 17970073438192234734
7226269 152 18201721734861171489
9953998 17 18411981364330108272

> <PUBCHEM_SHAPE_MULTIPOLES>
579.27
26.47
2.37
1.44
40.36
0.03
0.34
7.56
14.88
-3.1
-0.21
-0.62
0.13
2.19

> <PUBCHEM_SHAPE_SELFOVERLAP>
1233.464

> <PUBCHEM_SHAPE_VOLUME>
317.4

> <PUBCHEM_COORDINATE_TYPE>
2
5
10

$$$$
