REMARK  Name = 122238
REMARK  13 active torsions:
REMARK  status: ('A' for Active; 'I' for Inactive)
REMARK    1  A    between atoms: C_4  and  C_13
REMARK    2  A    between atoms: C_6  and  O_11
REMARK    3  A    between atoms: C_10  and  C_23
REMARK    4  A    between atoms: C_14  and  C_15
REMARK    5  A    between atoms: C_15  and  O_16
REMARK    6  A    between atoms: C_15  and  C_18
REMARK    7  A    between atoms: C_18  and  C_19
REMARK    8  A    between atoms: C_19  and  C_20
REMARK    9  A    between atoms: C_20  and  C_21
REMARK   10  A    between atoms: C_23  and  C_24
REMARK   11  A    between atoms: C_24  and  C_25
REMARK   12  A    between atoms: C_25  and  C_27
REMARK   13  A    between atoms: C_27  and  O_28
REMARK                            x       y       z     vdW  Elec       q    Type
REMARK                         _______ _______ _______ _____ _____    ______ ____
ROOT
ATOM      1  O   UNL     1      -1.952  -1.719   0.643  0.00  0.00    -0.476 OA
ATOM      2  O   UNL     1       0.116   0.685  -0.918  0.00  0.00    -0.288 OA
ATOM      3  C   UNL     1       0.432  -1.100   0.688  0.00  0.00    +0.111 C 
ATOM      4  C   UNL     1       1.574  -1.866   0.006  0.00  0.00    +0.060 C 
ATOM      5  C   UNL     1      -0.642  -2.149   1.045  0.00  0.00    +0.176 C 
ATOM      6  C   UNL     1       1.292  -3.341   0.319  0.00  0.00    +0.119 C 
ATOM      7  C   UNL     1      -0.227  -3.418   0.308  0.00  0.00    +0.074 C 
ATOM      8  C   UNL     1      -0.338  -0.222  -0.242  0.00  0.00    +0.210 C 
ATOM      9  C   UNL     1      -1.750  -0.633  -0.182  0.00  0.00    +0.169 C 
ATOM     10  C   UNL     1      -2.725  -0.017  -0.852  0.00  0.00    +0.014 C 
ENDROOT
BRANCH   6  11
ATOM     11  O   UNL     1       1.827  -4.201  -0.671  0.00  0.00    -0.384 OA
ATOM     12  H   UNL     1       2.796  -4.146  -0.658  0.00  0.00    +0.210 HD
ENDBRANCH   6  11
BRANCH   4  13
ATOM     13  C   UNL     1       2.923  -1.438   0.488  0.00  0.00    -0.026 C 
ATOM     14  C   UNL     1       3.886  -0.961  -0.314  0.00  0.00    -0.002 C 
BRANCH  14  15
ATOM     15  C   UNL     1       5.241  -0.533   0.175  0.00  0.00    +0.132 C 
BRANCH  15  16
ATOM     16  O   UNL     1       6.224  -1.371  -0.436  0.00  0.00    -0.380 OA
ATOM     17  H   UNL     1       6.038  -2.298  -0.221  0.00  0.00    +0.211 HD
ENDBRANCH  15  16
BRANCH  15  18
ATOM     18  C   UNL     1       5.579   0.918  -0.195  0.00  0.00    +0.034 C 
BRANCH  18  19
ATOM     19  C   UNL     1       4.547   1.927   0.317  0.00  0.00    +0.003 C 
BRANCH  19  20
ATOM     20  C   UNL     1       4.839   3.367  -0.117  0.00  0.00    +0.000 C 
BRANCH  20  21
ATOM     21  C   UNL     1       3.850   4.387   0.450  0.00  0.00    +0.000 C 
ATOM     22  C   UNL     1       4.178   5.796  -0.019  0.00  0.00    +0.000 C 
ENDBRANCH  20  21
ENDBRANCH  19  20
ENDBRANCH  18  19
ENDBRANCH  15  18
ENDBRANCH  14  15
ENDBRANCH   4  13
BRANCH  10  23
ATOM     23  C   UNL     1      -4.170  -0.425  -0.801  0.00  0.00    +0.030 C 
BRANCH  23  24
ATOM     24  C   UNL     1      -5.056   0.729  -0.322  0.00  0.00    +0.016 C 
BRANCH  24  25
ATOM     25  C   UNL     1      -6.533   0.346  -0.267  0.00  0.00    +0.110 C 
BRANCH  25  27
ATOM     26  O   UNL     1      -6.981   2.587   0.518  0.00  0.00    -0.250 OA
ATOM     27  C   UNL     1      -7.408   1.488   0.186  0.00  0.00    +0.314 C 
BRANCH  27  28
ATOM     28  O   UNL     1      -8.725   1.166   0.192  0.00  0.00    -0.480 OA
ATOM     29  H   UNL     1      -8.999   0.310  -0.072  0.00  0.00    +0.295 HD
ENDBRANCH  27  28
ENDBRANCH  25  27
ENDBRANCH  24  25
ENDBRANCH  23  24
ENDBRANCH  10  23
TORSDOF 13
