122228020
  -OEChem-03292013293D

 46 48  0     1  0  0  0  0  0999 V2000
   -2.1609   -3.5716   -0.2131 S   0  0  0  0  0  0  0  0  0  0  0  0
    1.2014   -0.1955   -0.5615 O   0  0  0  0  0  0  0  0  0  0  0  0
    2.3070    3.1279    0.6387 O   0  0  0  0  0  0  0  0  0  0  0  0
   -0.4054    3.3670    0.7372 O   0  0  0  0  0  0  0  0  0  0  0  0
   -2.9500    1.7277    0.5827 O   0  0  0  0  0  0  0  0  0  0  0  0
   -5.0619    0.2607   -0.9204 O   0  0  0  0  0  0  0  0  0  0  0  0
   -5.5533   -0.7230    1.0849 O   0  0  0  0  0  0  0  0  0  0  0  0
   -2.3511   -0.4657   -0.1408 N   0  0  0  0  0  0  0  0  0  0  0  0
    2.0207    0.7878    0.1021 C   0  0  2  0  0  0  0  0  0  0  0  0
    1.5479    2.2365   -0.1673 C   0  0  1  0  0  0  0  0  0  0  0  0
   -1.1089   -1.0957   -0.5811 C   0  0  1  0  0  0  0  0  0  0  0  0
   -0.1360    0.0034   -0.3380 C   0  0  0  0  0  0  0  0  0  0  0  0
   -0.7151    1.1371    0.0612 C   0  0  0  0  0  0  0  0  0  0  0  0
    3.4647    0.5331   -0.3265 C   0  0  0  0  0  0  0  0  0  0  0  0
    0.0886    2.3460    0.2704 C   0  0  0  0  0  0  0  0  0  0  0  0
   -2.1588    0.8836    0.1973 C   0  0  0  0  0  0  0  0  0  0  0  0
    4.0289   -0.7148    0.3464 C   0  0  0  0  0  0  0  0  0  0  0  0
   -0.8383   -2.3833    0.1799 C   0  0  0  0  0  0  0  0  0  0  0  0
    1.6612    2.6662   -1.6315 C   0  0  0  0  0  0  0  0  0  0  0  0
   -3.5162   -1.2005   -0.0434 C   0  0  0  0  0  0  0  0  0  0  0  0
    5.4848   -0.9486   -0.0604 C   0  0  0  0  0  0  0  0  0  0  0  0
   -3.5563   -2.5438   -0.0879 C   0  0  0  0  0  0  0  0  0  0  0  0
    6.0453   -2.2162    0.5841 C   0  0  0  0  0  0  0  0  0  0  0  0
   -4.8199   -0.5477    0.1312 C   0  0  0  0  0  0  0  0  0  0  0  0
    7.4817   -2.4706    0.1557 C   0  0  0  0  0  0  0  0  0  0  0  0
    1.9550    0.6020    1.1854 H   0  0  0  0  0  0  0  0  0  0  0  0
   -1.1766   -1.2751   -1.6632 H   0  0  0  0  0  0  0  0  0  0  0  0
    4.0971    1.3872   -0.0574 H   0  0  0  0  0  0  0  0  0  0  0  0
    3.5197    0.4080   -1.4149 H   0  0  0  0  0  0  0  0  0  0  0  0
    3.4273   -1.5901    0.0730 H   0  0  0  0  0  0  0  0  0  0  0  0
    3.9701   -0.6098    1.4367 H   0  0  0  0  0  0  0  0  0  0  0  0
    0.1218   -2.8216   -0.1109 H   0  0  0  0  0  0  0  0  0  0  0  0
   -0.8208   -2.2198    1.2638 H   0  0  0  0  0  0  0  0  0  0  0  0
    2.7090    2.7346   -1.9431 H   0  0  0  0  0  0  0  0  0  0  0  0
    1.2319    3.6648   -1.7770 H   0  0  0  0  0  0  0  0  0  0  0  0
    1.1387    1.9806   -2.3060 H   0  0  0  0  0  0  0  0  0  0  0  0
    6.0941   -0.0856    0.2344 H   0  0  0  0  0  0  0  0  0  0  0  0
    5.5512   -1.0333   -1.1520 H   0  0  0  0  0  0  0  0  0  0  0  0
    2.0371    4.0369    0.4226 H   0  0  0  0  0  0  0  0  0  0  0  0
   -4.5075   -3.0644   -0.0242 H   0  0  0  0  0  0  0  0  0  0  0  0
    6.0044   -2.1280    1.6759 H   0  0  0  0  0  0  0  0  0  0  0  0
    5.4303   -3.0797    0.3050 H   0  0  0  0  0  0  0  0  0  0  0  0
    7.5511   -2.5976   -0.9293 H   0  0  0  0  0  0  0  0  0  0  0  0
    7.8628   -3.3809    0.6292 H   0  0  0  0  0  0  0  0  0  0  0  0
    8.1310   -1.6388    0.4469 H   0  0  0  0  0  0  0  0  0  0  0  0
   -5.9260    0.7184   -0.8430 H   0  0  0  0  0  0  0  0  0  0  0  0
  1 18  1  0  0  0  0
  1 22  1  0  0  0  0
  2  9  1  0  0  0  0
  2 12  1  0  0  0  0
  3 10  1  0  0  0  0
  3 39  1  0  0  0  0
  4 15  2  0  0  0  0
  5 16  2  0  0  0  0
  6 24  1  0  0  0  0
  6 46  1  0  0  0  0
  7 24  2  0  0  0  0
  8 11  1  0  0  0  0
  8 16  1  0  0  0  0
  8 20  1  0  0  0  0
  9 10  1  0  0  0  0
  9 14  1  0  0  0  0
  9 26  1  0  0  0  0
 10 15  1  0  0  0  0
 10 19  1  0  0  0  0
 11 12  1  0  0  0  0
 11 18  1  0  0  0  0
 11 27  1  0  0  0  0
 12 13  2  0  0  0  0
 13 15  1  0  0  0  0
 13 16  1  0  0  0  0
 14 17  1  0  0  0  0
 14 28  1  0  0  0  0
 14 29  1  0  0  0  0
 17 21  1  0  0  0  0
 17 30  1  0  0  0  0
 17 31  1  0  0  0  0
 18 32  1  0  0  0  0
 18 33  1  0  0  0  0
 19 34  1  0  0  0  0
 19 35  1  0  0  0  0
 19 36  1  0  0  0  0
 20 22  2  0  0  0  0
 20 24  1  0  0  0  0
 21 23  1  0  0  0  0
 21 37  1  0  0  0  0
 21 38  1  0  0  0  0
 22 40  1  0  0  0  0
 23 25  1  0  0  0  0
 23 41  1  0  0  0  0
 23 42  1  0  0  0  0
 25 43  1  0  0  0  0
 25 44  1  0  0  0  0
 25 45  1  0  0  0  0
M  END
> <PUBCHEM_COMPOUND_CID>
122228020

> <PUBCHEM_CONFORMER_RMSD>
0.8

> <PUBCHEM_CONFORMER_DIVERSEORDER>
1
11
13
9
8
15
4
5
12
2
17
10
6
7
16
18
3
14

> <PUBCHEM_MMFF94_PARTIAL_CHARGES>
22
1 -0.33
10 0.34
11 0.44
12 -0.06
13 0.03
15 0.49
16 0.62
18 0.23
2 -0.36
20 0.12
22 -0.05
24 0.71
3 -0.68
39 0.4
4 -0.57
40 0.15
46 0.5
5 -0.57
6 -0.65
7 -0.57
8 -0.47
9 0.28

> <PUBCHEM_EFFECTIVE_ROTOR_COUNT>
6

> <PUBCHEM_PHARMACOPHORE_FEATURES>
14
1 13 anion
1 2 acceptor
1 25 hydrophobe
1 3 acceptor
1 3 donor
1 4 acceptor
1 5 acceptor
1 6 acceptor
1 7 acceptor
3 6 7 24 anion
4 14 17 21 23 hydrophobe
5 8 11 12 13 16 rings
6 1 8 11 18 20 22 rings
6 2 9 10 12 13 15 rings

> <PUBCHEM_HEAVY_ATOM_COUNT>
25

> <PUBCHEM_ATOM_DEF_STEREO_COUNT>
3

> <PUBCHEM_ATOM_UDEF_STEREO_COUNT>
0

> <PUBCHEM_BOND_DEF_STEREO_COUNT>
0

> <PUBCHEM_BOND_UDEF_STEREO_COUNT>
0

> <PUBCHEM_ISOTOPIC_ATOM_COUNT>
0

> <PUBCHEM_COMPONENT_COUNT>
1

> <PUBCHEM_CACTVS_TAUTO_COUNT>
1

> <PUBCHEM_CONFORMER_ID>
07490D3400000001

> <PUBCHEM_MMFF94_ENERGY>
52.7649

> <PUBCHEM_FEATURE_SELFOVERLAP>
71.278

> <PUBCHEM_SHAPE_FINGERPRINT>
10622 236 17628055004296766079
10693767 8 17552899030211772839
10759866 29 17974297812905013676
1100329 8 18410576231731090227
11135609 187 17754185490263900420
11265709 11 18409448068650236818
11405975 8 18267870660548379531
11963148 33 17475793629139313847
12107183 9 18341339946075562859
12553582 1 18263626438454797994
12633257 1 18270693055399451359
12760667 363 18341325617927552014
12788726 201 18340503196357366432
13140716 1 18268998768226797715
13862211 1 18413386531679813631
14341114 176 18410013273097563258
14420673 8 18408887317430836810
14866123 147 18268713800977133752
15042514 8 18267867190510164296
15196674 1 18196373839147321903
15420108 30 17837213666971551633
15442244 35 18268149945033493439
15927050 60 17550389536169146365
17349148 13 18060143180166257717
17492 89 18121779692732307539
1813 80 17821720646673031668
20832881 197 18407478868599003858
21267235 1 18408891715592885714
23402539 116 18201431476428524671
23559900 14 18340480183621868824
23569917 315 18341334479105454247
3004659 81 18113336397825856926
335352 9 18411136939943360551
3383291 50 18409166601816211858
350125 39 18409453583362436373
3680242 22 18339092569788009451
3882209 13 17335016507595989326
4409770 3 17899686869800695964
463206 1 18334857255673345346
5104073 3 18129108999046754115
559249 180 18335419006770903010
56633871 153 18341615935889062258
59755656 215 18338796702545208230
6138700 20 18409446942910441011
633830 44 16879058836318086781
7970288 3 18410007750187365306
9709674 26 18049441744919891315
9981440 41 17326894483408843032

> <PUBCHEM_SHAPE_MULTIPOLES>
478.14
12.49
4.07
0.88
15.43
0.38
-0.14
-11.87
1.61
1.29
0.12
-0.07
0.34
-0.73

> <PUBCHEM_SHAPE_SELFOVERLAP>
1006.8

> <PUBCHEM_SHAPE_VOLUME>
270.4

> <PUBCHEM_COORDINATE_TYPE>
2
5
10

$$$$
