REMARK  Name = 122225501
REMARK  5 active torsions:
REMARK  status: ('A' for Active; 'I' for Inactive)
REMARK    1  A    between atoms: C_4  and  O_16
REMARK    2  A    between atoms: C_5  and  O_18
REMARK    3  A    between atoms: C_8  and  O_20
REMARK    4  A    between atoms: C_12  and  C_23
REMARK    5  A    between atoms: C_23  and  C_26
REMARK                            x       y       z     vdW  Elec       q    Type
REMARK                         _______ _______ _______ _____ _____    ______ ____
ROOT
ATOM      1  O   UNL     1      -1.763   0.762  -0.756  0.00  0.00    -0.474 OA
ATOM      2  O   UNL     1       1.062  -2.828   0.732  0.00  0.00    -0.270 OA
ATOM      3  N   UNL     1      -1.201  -3.004   1.077  0.00  0.00    -0.279 N 
ATOM      4  C   UNL     1      -4.192  -0.845   0.069  0.00  0.00    +0.139 C 
ATOM      5  C   UNL     1      -3.989   0.047  -1.130  0.00  0.00    +0.181 C 
ATOM      6  C   UNL     1      -3.091   1.078  -0.418  0.00  0.00    +0.222 C 
ATOM      7  C   UNL     1      -4.896   0.053   1.195  0.00  0.00    +0.036 C 
ATOM      8  C   UNL     1      -3.861   2.289   0.033  0.00  0.00    +0.153 C 
ATOM      9  C   UNL     1      -5.034   1.638   0.886  0.00  0.00    +0.036 C 
ATOM     10  C   UNL     1      -2.729  -1.353   0.339  0.00  0.00    +0.053 C 
ATOM     11  C   UNL     1      -1.537  -0.555  -0.185  0.00  0.00    +0.145 C 
ATOM     12  C   UNL     1      -0.287  -1.039  -0.060  0.00  0.00    +0.122 C 
ATOM     13  C   UNL     1      -2.477  -2.526   0.939  0.00  0.00    +0.065 C 
ATOM     14  C   UNL     1      -0.069  -2.362   0.610  0.00  0.00    +0.255 C 
ATOM     15  H   UNL     1      -1.082  -3.863   1.542  0.00  0.00    +0.155 HD
ENDROOT
BRANCH   4  16
ATOM     16  O   UNL     1      -5.027  -1.947  -0.264  0.00  0.00    -0.380 OA
ATOM     17  H   UNL     1      -5.929  -1.631  -0.430  0.00  0.00    +0.211 HD
ENDBRANCH   4  16
BRANCH   5  18
ATOM     18  O   UNL     1      -5.209   0.543  -1.650  0.00  0.00    -0.378 OA
ATOM     19  H   UNL     1      -5.697  -0.180  -2.075  0.00  0.00    +0.211 HD
ENDBRANCH   5  18
BRANCH   8  20
ATOM     20  O   UNL     1      -4.378   3.043  -1.047  0.00  0.00    -0.381 OA
ATOM     21  H   UNL     1      -3.645   3.430  -1.551  0.00  0.00    +0.210 HD
ENDBRANCH   8  20
BRANCH  12  23
ATOM     22  O   UNL     1       0.913   0.067  -1.747  0.00  0.00    -0.291 OA
ATOM     23  C   UNL     1       0.850  -0.245  -0.560  0.00  0.00    +0.180 C 
BRANCH  23  26
ATOM     24  C   UNL     1       3.303   0.258  -0.211  0.00  0.00    +0.012 C 
ATOM     25  C   UNL     1       4.351   0.540   0.894  0.00  0.00    +0.022 C 
ATOM     26  C   UNL     1       1.903   0.167   0.427  0.00  0.00    +0.066 C 
ATOM     27  C   UNL     1       3.724  -1.001  -0.987  0.00  0.00    +0.001 C 
ATOM     28  C   UNL     1       5.724   0.791   0.255  0.00  0.00    +0.004 C 
ATOM     29  C   UNL     1       6.171  -0.425  -0.574  0.00  0.00    +0.000 C 
ATOM     30  C   UNL     1       1.515   1.502   1.120  0.00  0.00    +0.029 C 
ATOM     31  C   UNL     1       5.110  -0.819  -1.611  0.00  0.00    +0.000 C 
ATOM     32  C   UNL     1       3.931   1.657   1.810  0.00  0.00    -0.031 C 
ATOM     33  C   UNL     1       2.664   2.081   1.912  0.00  0.00    -0.031 C 
ATOM     34  C   UNL     1       7.512  -0.152  -1.252  0.00  0.00    +0.000 C 
ATOM     35  C   UNL     1       1.007   2.583   0.156  0.00  0.00    +0.005 C 
ENDBRANCH  23  26
ENDBRANCH  12  23
TORSDOF 5
