REMARK  Name = 122215475
REMARK  6 active torsions:
REMARK  status: ('A' for Active; 'I' for Inactive)
REMARK    1  A    between atoms: C_5  and  C_23
REMARK    2  A    between atoms: C_17  and  O_26
REMARK    3  A    between atoms: C_20  and  C_31
REMARK    4  A    between atoms: C_22  and  O_28
REMARK    5  A    between atoms: C_31  and  C_32
REMARK    6  A    between atoms: C_32  and  C_33
REMARK                            x       y       z     vdW  Elec       q    Type
REMARK                         _______ _______ _______ _____ _____    ______ ____
ROOT
ATOM      1  O   UNL     1      -0.665  -1.811   0.256  0.00  0.00    -0.452 OA
ATOM      2  O   UNL     1       1.548  -1.097   0.763  0.00  0.00    -0.448 OA
ATOM      3  O   UNL     1      -2.453   2.382   0.984  0.00  0.00    -0.291 OA
ATOM      4  O   UNL     1      -4.318  -0.283  -2.479  0.00  0.00    -0.295 OA
ATOM      5  C   UNL     1       0.169  -1.116   1.218  0.00  0.00    +0.276 C 
ATOM      6  C   UNL     1      -0.358   0.338   1.365  0.00  0.00    +0.132 C 
ATOM      7  C   UNL     1      -1.555   0.284   0.503  0.00  0.00    +0.054 C 
ATOM      8  C   UNL     1      -1.670  -0.904  -0.075  0.00  0.00    +0.125 C 
ATOM      9  C   UNL     1      -2.744  -1.365  -1.010  0.00  0.00    +0.102 C 
ATOM     10  C   UNL     1       0.801   1.091   0.826  0.00  0.00    +0.057 C 
ATOM     11  C   UNL     1      -3.757   1.060  -0.562  0.00  0.00    +0.107 C 
ATOM     12  C   UNL     1      -2.564   1.334   0.349  0.00  0.00    +0.178 C 
ATOM     13  C   UNL     1      -3.632  -0.186  -1.454  0.00  0.00    +0.163 C 
ATOM     14  C   UNL     1       1.833   0.219   0.518  0.00  0.00    +0.147 C 
ATOM     15  C   UNL     1      -2.101  -1.973  -2.272  0.00  0.00    +0.015 C 
ATOM     16  C   UNL     1      -3.630  -2.415  -0.328  0.00  0.00    +0.015 C 
ATOM     17  C   UNL     1       0.956   2.455   0.642  0.00  0.00    +0.136 C 
ATOM     18  C   UNL     1      -3.933   2.288  -1.474  0.00  0.00    +0.015 C 
ATOM     19  C   UNL     1      -5.000   0.896   0.323  0.00  0.00    +0.015 C 
ATOM     20  C   UNL     1       3.041   0.662   0.012  0.00  0.00    +0.102 C 
ATOM     21  C   UNL     1       2.168   2.925   0.129  0.00  0.00    +0.073 C 
ATOM     22  C   UNL     1       3.204   2.033  -0.185  0.00  0.00    +0.142 C 
ENDROOT
BRANCH   5  23
ATOM     23  C   UNL     1       0.119  -1.893   2.531  0.00  0.00    +0.077 C 
ATOM     24  C   UNL     1       0.679  -3.301   2.343  0.00  0.00    +0.008 C 
ATOM     25  C   UNL     1      -1.310  -1.951   3.067  0.00  0.00    +0.008 C 
ENDBRANCH   5  23
BRANCH  17  26
ATOM     26  O   UNL     1      -0.002   3.349   0.987  0.00  0.00    -0.506 OA
ATOM     27  H   UNL     1      -0.820   3.050   1.333  0.00  0.00    +0.292 HD
ENDBRANCH  17  26
BRANCH  22  28
ATOM     28  O   UNL     1       4.373   2.531  -0.680  0.00  0.00    -0.505 OA
ATOM     29  H   UNL     1       5.076   1.950  -0.896  0.00  0.00    +0.292 HD
ENDBRANCH  22  28
BRANCH  20  31
ATOM     30  O   UNL     1       4.592  -1.011   0.582  0.00  0.00    -0.291 OA
ATOM     31  C   UNL     1       4.107  -0.278  -0.303  0.00  0.00    +0.179 C 
BRANCH  31  32
ATOM     32  C   UNL     1       4.646  -0.373  -1.742  0.00  0.00    +0.069 C 
BRANCH  32  33
ATOM     33  C   UNL     1       4.462  -1.755  -2.369  0.00  0.00    +0.008 C 
ATOM     34  C   UNL     1       2.993  -2.133  -2.465  0.00  0.00    +0.000 C 
ENDBRANCH  32  33
ENDBRANCH  31  32
ENDBRANCH  20  31
TORSDOF 6
