REMARK  Name = 122225500
REMARK  6 active torsions:
REMARK  status: ('A' for Active; 'I' for Inactive)
REMARK    1  A    between atoms: N_3  and  O_35
REMARK    2  A    between atoms: C_4  and  O_15
REMARK    3  A    between atoms: C_5  and  O_17
REMARK    4  A    between atoms: C_8  and  O_19
REMARK    5  A    between atoms: C_12  and  C_22
REMARK    6  A    between atoms: C_22  and  C_25
REMARK                            x       y       z     vdW  Elec       q    Type
REMARK                         _______ _______ _______ _____ _____    ______ ____
ROOT
ATOM      1  O   UNL     1      -1.715   1.006  -0.690  0.00  0.00    -0.474 OA
ATOM      2  O   UNL     1       1.063  -2.779   0.329  0.00  0.00    -0.267 OA
ATOM      3  N   UNL     1      -1.210  -2.925   0.685  0.00  0.00    -0.145 N 
ATOM      4  C   UNL     1      -4.173  -0.659  -0.096  0.00  0.00    +0.139 C 
ATOM      5  C   UNL     1      -3.945   0.372  -1.173  0.00  0.00    +0.181 C 
ATOM      6  C   UNL     1      -3.044   1.294  -0.330  0.00  0.00    +0.222 C 
ATOM      7  C   UNL     1      -4.884   0.103   1.120  0.00  0.00    +0.036 C 
ATOM      8  C   UNL     1      -3.804   2.451   0.259  0.00  0.00    +0.153 C 
ATOM      9  C   UNL     1      -2.720  -1.216   0.130  0.00  0.00    +0.056 C 
ATOM     10  C   UNL     1      -4.996   1.716   1.011  0.00  0.00    +0.036 C 
ATOM     11  C   UNL     1      -1.509  -0.374  -0.285  0.00  0.00    +0.145 C 
ATOM     12  C   UNL     1      -0.264  -0.886  -0.219  0.00  0.00    +0.124 C 
ATOM     13  C   UNL     1      -2.486  -2.453   0.594  0.00  0.00    +0.098 C 
ATOM     14  C   UNL     1      -0.063  -2.289   0.280  0.00  0.00    +0.281 C 
ENDROOT
BRANCH   4  15
ATOM     15  O   UNL     1      -5.014  -1.704  -0.573  0.00  0.00    -0.380 OA
ATOM     16  H   UNL     1      -5.910  -1.359  -0.712  0.00  0.00    +0.211 HD
ENDBRANCH   4  15
BRANCH   5  17
ATOM     17  O   UNL     1      -5.152   0.944  -1.642  0.00  0.00    -0.378 OA
ATOM     18  H   UNL     1      -5.643   0.286  -2.158  0.00  0.00    +0.211 HD
ENDBRANCH   5  17
BRANCH   8  19
ATOM     19  O   UNL     1      -4.298   3.340  -0.725  0.00  0.00    -0.381 OA
ATOM     20  H   UNL     1      -3.554   3.776  -1.170  0.00  0.00    +0.210 HD
ENDBRANCH   8  19
BRANCH  12  22
ATOM     21  O   UNL     1       0.954   0.402  -1.757  0.00  0.00    -0.291 OA
ATOM     22  C   UNL     1       0.884  -0.051  -0.618  0.00  0.00    +0.180 C 
BRANCH  22  25
ATOM     23  C   UNL     1       3.343   0.374  -0.208  0.00  0.00    +0.012 C 
ATOM     24  C   UNL     1       4.391   0.506   0.924  0.00  0.00    +0.022 C 
ATOM     25  C   UNL     1       1.940   0.223   0.413  0.00  0.00    +0.066 C 
ATOM     26  C   UNL     1       3.749  -0.786  -1.132  0.00  0.00    +0.001 C 
ATOM     27  C   UNL     1       5.769   0.816   0.321  0.00  0.00    +0.004 C 
ATOM     28  C   UNL     1       6.202  -0.295  -0.649  0.00  0.00    +0.000 C 
ATOM     29  C   UNL     1       1.567   1.468   1.264  0.00  0.00    +0.029 C 
ATOM     30  C   UNL     1       5.139  -0.546  -1.727  0.00  0.00    +0.000 C 
ATOM     31  C   UNL     1       3.984   1.508   1.969  0.00  0.00    -0.031 C 
ATOM     32  C   UNL     1       2.721   1.931   2.122  0.00  0.00    -0.031 C 
ATOM     33  C   UNL     1       7.548   0.042  -1.288  0.00  0.00    +0.000 C 
ATOM     34  C   UNL     1       1.075   2.666   0.439  0.00  0.00    +0.005 C 
ENDBRANCH  22  25
ENDBRANCH  12  22
BRANCH   3  35
ATOM     35  O   UNL     1      -1.053  -4.198   1.252  0.00  0.00    -0.287 OA
ATOM     36  H   UNL     1      -1.804  -4.676   1.545  0.00  0.00    +0.242 HD
ENDBRANCH   3  35
TORSDOF 6
