REMARK  Name = 122257
REMARK  5 active torsions:
REMARK  status: ('A' for Active; 'I' for Inactive)
REMARK    1  A    between atoms: C_2  and  C_20
REMARK    2  A    between atoms: C_3  and  O_25
REMARK    3  A    between atoms: C_4  and  O_27
REMARK    4  A    between atoms: C_5  and  N_6
REMARK    5  A    between atoms: N_19  and  C_22
REMARK                            x       y       z     vdW  Elec       q    Type
REMARK                         _______ _______ _______ _____ _____    ______ ____
ROOT
ATOM      1  O   UNL     1       0.753   0.609  -1.350  0.00  0.00    -0.326 OA
ATOM      2  C   UNL     1       1.976   0.937  -0.679  0.00  0.00    +0.222 C 
ATOM      3  C   UNL     1       1.602   1.206   0.765  0.00  0.00    +0.178 C 
ATOM      4  C   UNL     1       0.245   1.865   0.623  0.00  0.00    +0.187 C 
ATOM      5  C   UNL     1      -0.347   1.161  -0.595  0.00  0.00    +0.225 C 
ENDROOT
BRANCH   5   6
ATOM      6  N   UNL     1      -1.303   0.103  -0.262  0.00  0.00    -0.247 N 
ATOM      7  N   UNL     1      -2.070  -1.921   0.279  0.00  0.00    -0.242 NA
ATOM      8  N   UNL     1      -3.399   1.328  -0.360  0.00  0.00    -0.228 NA
ATOM      9  N   UNL     1      -5.297  -0.119   0.150  0.00  0.00    -0.229 NA
ATOM     10  C   UNL     1      -2.661   0.224  -0.168  0.00  0.00    +0.152 C 
ATOM     11  C   UNL     1      -0.998  -1.205   0.015  0.00  0.00    +0.223 C 
ATOM     12  C   UNL     1      -3.117  -1.041   0.169  0.00  0.00    +0.140 C 
ATOM     13  C   UNL     1      -4.491  -1.193   0.328  0.00  0.00    +0.143 C 
ATOM     14  C   UNL     1      -4.710   1.057  -0.178  0.00  0.00    +0.253 C 
ATOM     15  N   UNL     1      -5.040  -2.440   0.671  0.00  0.00    -0.342 N 
ATOM     16  H   UNL     1      -6.014  -2.536   0.781  0.00  0.00    +0.144 HD
ATOM     17  H   UNL     1      -4.451  -3.218   0.801  0.00  0.00    +0.144 HD
ENDBRANCH   5   6
BRANCH   2  20
ATOM     18  O   UNL     1       2.487  -1.271  -1.410  0.00  0.00    -0.272 OA
ATOM     19  N   UNL     1       4.103  -0.063  -0.249  0.00  0.00    -0.304 N 
ATOM     20  C   UNL     1       2.864  -0.253  -0.835  0.00  0.00    +0.252 C 
ATOM     21  H   UNL     1       4.289   0.801   0.184  0.00  0.00    +0.149 HD
BRANCH  19  22
ATOM     22  C   UNL     1       5.137  -1.072  -0.241  0.00  0.00    +0.072 C 
ATOM     23  C   UNL     1       6.194  -1.063   0.808  0.00  0.00    +0.021 C 
ATOM     24  C   UNL     1       5.145  -2.135   0.802  0.00  0.00    +0.021 C 
ENDBRANCH  19  22
ENDBRANCH   2  20
BRANCH   3  25
ATOM     25  O   UNL     1       2.535   2.040   1.421  0.00  0.00    -0.379 OA
ATOM     26  H   UNL     1       3.387   1.580   1.490  0.00  0.00    +0.211 HD
ENDBRANCH   3  25
BRANCH   4  27
ATOM     27  O   UNL     1       0.391   3.247   0.298  0.00  0.00    -0.378 OA
ATOM     28  H   UNL     1       0.766   3.720   1.057  0.00  0.00    +0.211 HD
ENDBRANCH   4  27
TORSDOF 5
