REMARK  Name = 122219271
REMARK  8 active torsions:
REMARK  status: ('A' for Active; 'I' for Inactive)
REMARK    1  A    between atoms: C_4  and  C_12
REMARK    2  A    between atoms: C_4  and  O_21
REMARK    3  A    between atoms: C_6  and  C_23
REMARK    4  A    between atoms: C_23  and  C_24
REMARK    5  A    between atoms: C_24  and  C_25
REMARK    6  A    between atoms: C_24  and  O_28
REMARK    7  A    between atoms: C_24  and  C_31
REMARK    8  A    between atoms: C_31  and  O_32
REMARK                            x       y       z     vdW  Elec       q    Type
REMARK                         _______ _______ _______ _____ _____    ______ ____
ROOT
ATOM      1  O   UNL     1      -1.428  -0.451   1.563  0.00  0.00    -0.289 OA
ATOM      2  O   UNL     1       0.964   1.928  -1.719  0.00  0.00    -0.270 OA
ATOM      3  N   UNL     1      -1.337   1.667  -1.212  0.00  0.00    -0.269 N 
ATOM      4  C   UNL     1       1.312   0.120   0.605  0.00  0.00    +0.118 C 
ATOM      5  C   UNL     1       0.163   0.578   0.095  0.00  0.00    +0.119 C 
ATOM      6  C   UNL     1      -2.212   0.974  -0.251  0.00  0.00    +0.141 C 
ATOM      7  C   UNL     1      -1.186   0.267   0.607  0.00  0.00    +0.198 C 
ATOM      8  C   UNL     1       0.041   1.474  -1.067  0.00  0.00    +0.255 C 
ATOM      9  C   UNL     1      -1.902   2.552  -2.214  0.00  0.00    +0.116 C 
ENDROOT
BRANCH   4  12
ATOM     10  C   UNL     1       3.701  -0.678   0.196  0.00  0.00    +0.011 C 
ATOM     11  C   UNL     1       4.993  -0.299  -0.573  0.00  0.00    +0.022 C 
ATOM     12  C   UNL     1       2.663   0.464   0.051  0.00  0.00    +0.061 C 
ATOM     13  C   UNL     1       3.212  -2.051  -0.298  0.00  0.00    +0.001 C 
ATOM     14  C   UNL     1       3.218   1.790   0.655  0.00  0.00    +0.029 C 
ATOM     15  C   UNL     1       6.084  -1.345  -0.306  0.00  0.00    +0.004 C 
ATOM     16  C   UNL     1       4.287  -3.121  -0.097  0.00  0.00    +0.000 C 
ATOM     17  C   UNL     1       5.618  -2.736  -0.736  0.00  0.00    +0.000 C 
ATOM     18  C   UNL     1       5.457   1.098  -0.265  0.00  0.00    -0.031 C 
ATOM     19  C   UNL     1       4.662   2.028   0.280  0.00  0.00    -0.031 C 
ATOM     20  C   UNL     1       3.102   1.881   2.184  0.00  0.00    +0.005 C 
ENDBRANCH   4  12
BRANCH   4  21
ATOM     21  O   UNL     1       1.298  -0.720   1.702  0.00  0.00    -0.510 OA
ATOM     22  H   UNL     1       2.104  -1.040   2.057  0.00  0.00    +0.292 HD
ENDBRANCH   4  21
BRANCH   6  23
ATOM     23  C   UNL     1      -3.155  -0.020  -0.903  0.00  0.00    +0.066 C 
BRANCH  23  24
ATOM     24  C   UNL     1      -4.244  -0.612   0.033  0.00  0.00    +0.179 C 
BRANCH  24  25
ATOM     25  C   UNL     1      -5.369  -1.330  -0.776  0.00  0.00    +0.035 C 
ATOM     26  C   UNL     1      -6.462  -1.969   0.087  0.00  0.00    +0.003 C 
ATOM     27  C   UNL     1      -4.822  -2.380  -1.756  0.00  0.00    +0.003 C 
ENDBRANCH  24  25
BRANCH  24  28
ATOM     28  O   UNL     1      -3.629  -1.603   0.855  0.00  0.00    -0.376 OA
ATOM     29  H   UNL     1      -3.257  -2.302   0.295  0.00  0.00    +0.211 HD
ENDBRANCH  24  28
BRANCH  24  31
ATOM     30  O   UNL     1      -4.795   0.496   2.140  0.00  0.00    -0.248 OA
ATOM     31  C   UNL     1      -4.833   0.495   0.915  0.00  0.00    +0.338 C 
BRANCH  31  32
ATOM     32  O   UNL     1      -5.398   1.505   0.204  0.00  0.00    -0.479 OA
ATOM     33  H   UNL     1      -5.408   1.470  -0.732  0.00  0.00    +0.295 HD
ENDBRANCH  31  32
ENDBRANCH  24  31
ENDBRANCH  23  24
ENDBRANCH   6  23
TORSDOF 8
