REMARK  Name = 122209598
REMARK  11 active torsions:
REMARK  status: ('A' for Active; 'I' for Inactive)
REMARK    1  A    between atoms: C_2  and  O_11
REMARK    2  A    between atoms: C_3  and  O_7
REMARK    3  A    between atoms: C_4  and  C_33
REMARK    4  A    between atoms: C_5  and  O_9
REMARK    5  A    between atoms: C_6  and  O_24
REMARK    6  A    between atoms: O_11  and  C_13
REMARK    7  A    between atoms: C_13  and  C_14
REMARK    8  A    between atoms: C_15  and  C_16
REMARK    9  A    between atoms: C_21  and  O_22
REMARK   10  A    between atoms: O_24  and  C_27
REMARK   11  A    between atoms: C_33  and  O_34
REMARK                            x       y       z     vdW  Elec       q    Type
REMARK                         _______ _______ _______ _____ _____    ______ ____
ROOT
ATOM      1  O   UNL     1      -2.424   0.564  -0.864  0.00  0.00    -0.315 OA
ATOM      2  C   UNL     1      -0.145  -0.250  -0.733  0.00  0.00    +0.228 C 
ATOM      3  C   UNL     1      -0.639  -1.557  -0.112  0.00  0.00    +0.186 C 
ATOM      4  C   UNL     1      -1.108   0.898  -0.420  0.00  0.00    +0.190 C 
ATOM      5  C   UNL     1      -2.110  -1.808  -0.449  0.00  0.00    +0.212 C 
ATOM      6  C   UNL     1      -2.961  -0.566  -0.181  0.00  0.00    +0.318 C 
ENDROOT
BRANCH   3   7
ATOM      7  O   UNL     1       0.156  -2.622  -0.634  0.00  0.00    -0.378 OA
ATOM      8  H   UNL     1       1.089  -2.463  -0.421  0.00  0.00    +0.211 HD
ENDBRANCH   3   7
BRANCH   5   9
ATOM      9  O   UNL     1      -2.606  -2.873   0.361  0.00  0.00    -0.377 OA
ATOM     10  H   UNL     1      -2.077  -3.671   0.205  0.00  0.00    +0.211 HD
ENDBRANCH   5   9
BRANCH   2  11
ATOM     11  O   UNL     1       1.144   0.061  -0.211  0.00  0.00    -0.444 OA
BRANCH  11  13
ATOM     12  O   UNL     1       2.147  -1.170  -1.890  0.00  0.00    -0.245 OA
ATOM     13  C   UNL     1       2.200  -0.467  -0.892  0.00  0.00    +0.341 C 
BRANCH  13  14
ATOM     14  C   UNL     1       3.441  -0.039  -0.209  0.00  0.00    +0.082 C 
ATOM     15  C   UNL     1       4.630  -0.431  -0.689  0.00  0.00    +0.007 C 
BRANCH  15  16
ATOM     16  C   UNL     1       5.931  -0.079  -0.093  0.00  0.00    +0.000 C 
ATOM     17  C   UNL     1       6.032   1.017   0.764  0.00  0.00    +0.003 C 
ATOM     18  C   UNL     1       7.061  -0.841  -0.387  0.00  0.00    +0.003 C 
ATOM     19  C   UNL     1       7.263   1.351   1.327  0.00  0.00    +0.037 C 
ATOM     20  C   UNL     1       8.293  -0.507   0.175  0.00  0.00    +0.037 C 
ATOM     21  C   UNL     1       8.394   0.589   1.032  0.00  0.00    +0.134 C 
BRANCH  21  22
ATOM     22  O   UNL     1       9.596   0.915   1.581  0.00  0.00    -0.506 OA
ATOM     23  H   UNL     1       9.664   1.652   2.157  0.00  0.00    +0.292 HD
ENDBRANCH  21  22
ENDBRANCH  15  16
ENDBRANCH  13  14
ENDBRANCH  11  13
ENDBRANCH   2  11
BRANCH   6  24
ATOM     24  O   UNL     1      -4.283  -0.831  -0.650  0.00  0.00    -0.444 OA
BRANCH  24  27
ATOM     25  O   UNL     1      -6.745   0.018   1.913  0.00  0.00    -0.451 OA
ATOM     26  O   UNL     1      -5.115   1.729  -1.364  0.00  0.00    -0.283 OA
ATOM     27  C   UNL     1      -5.211  -0.161   0.072  0.00  0.00    +0.210 C 
ATOM     28  C   UNL     1      -5.790  -0.676   1.176  0.00  0.00    +0.160 C 
ATOM     29  C   UNL     1      -5.606   1.204  -0.371  0.00  0.00    +0.235 C 
ATOM     30  C   UNL     1      -5.485  -2.032   1.730  0.00  0.00    +0.076 C 
ATOM     31  C   UNL     1      -6.619   1.906   0.440  0.00  0.00    +0.086 C 
ATOM     32  C   UNL     1      -7.110   1.274   1.506  0.00  0.00    +0.183 C 
ENDBRANCH  24  27
ENDBRANCH   6  24
BRANCH   4  33
ATOM     33  C   UNL     1      -0.698   2.187  -1.126  0.00  0.00    +0.171 C 
BRANCH  33  34
ATOM     34  O   UNL     1      -1.636   3.197  -0.801  0.00  0.00    -0.379 OA
ATOM     35  H   UNL     1      -1.387   4.023  -1.243  0.00  0.00    +0.211 HD
ENDBRANCH  33  34
ENDBRANCH   4  33
TORSDOF 11
