122219891
  -OEChem-03292013293D

 50 52  0     1  0  0  0  0  0999 V2000
    4.1399   -1.0129    0.2116 O   0  0  0  0  0  0  0  0  0  0  0  0
   -0.1515   -1.1396   -0.8255 O   0  0  0  0  0  0  0  0  0  0  0  0
   -1.6172   -0.3924    0.8290 O   0  0  0  0  0  0  0  0  0  0  0  0
    4.6096    1.0609    1.0617 O   0  0  0  0  0  0  0  0  0  0  0  0
    1.3004    2.2934   -1.3343 O   0  0  0  0  0  0  0  0  0  0  0  0
   -2.0727   -0.4785   -2.7952 O   0  0  0  0  0  0  0  0  0  0  0  0
   -4.8193   -0.5930   -1.7349 O   0  0  0  0  0  0  0  0  0  0  0  0
    2.2429    2.5449    0.7598 O   0  0  0  0  0  0  0  0  0  0  0  0
   -5.0264    0.9404    0.7068 O   0  0  0  0  0  0  0  0  0  0  0  0
   -1.7108    0.7467    3.3289 O   0  0  0  0  0  0  0  0  0  0  0  0
    2.1670   -0.4687   -0.9834 C   0  0  2  0  0  0  0  0  0  0  0  0
    0.9837   -0.7845   -0.0358 C   0  0  2  0  0  0  0  0  0  0  0  0
    3.1952   -1.5670   -0.7186 C   0  0  2  0  0  0  0  0  0  0  0  0
    1.4372   -1.9625    0.8422 C   0  0  2  0  0  0  0  0  0  0  0  0
    2.4339   -2.7028   -0.0513 C   0  0  0  0  0  0  0  0  0  0  0  0
    2.9709    0.7908   -0.7083 C   0  0  2  0  0  0  0  0  0  0  0  0
    0.3239   -2.8634    1.3540 C   0  0  0  0  0  0  0  0  0  0  0  0
    3.9814    0.3409    0.3015 C   0  0  0  0  0  0  0  0  0  0  0  0
   -1.2631   -0.2885   -0.5481 C   0  0  2  0  0  0  0  0  0  0  0  0
   -2.4268   -0.7298   -1.4355 C   0  0  1  0  0  0  0  0  0  0  0  0
    2.1491    1.9714   -0.3170 C   0  0  0  0  0  0  0  0  0  0  0  0
   -3.7067    0.0339   -1.0949 C   0  0  2  0  0  0  0  0  0  0  0  0
   -3.9665    0.0345    0.4117 C   0  0  1  0  0  0  0  0  0  0  0  0
   -2.7114    0.4569    1.1791 C   0  0  1  0  0  0  0  0  0  0  0  0
   -2.9103    0.3526    2.6879 C   0  0  0  0  0  0  0  0  0  0  0  0
    0.4474    3.4165   -1.0912 C   0  0  0  0  0  0  0  0  0  0  0  0
    1.8237   -0.4928   -2.0249 H   0  0  0  0  0  0  0  0  0  0  0  0
    0.7590    0.0667    0.6166 H   0  0  0  0  0  0  0  0  0  0  0  0
    3.7358   -1.8892   -1.6139 H   0  0  0  0  0  0  0  0  0  0  0  0
    1.9821   -1.5630    1.7085 H   0  0  0  0  0  0  0  0  0  0  0  0
    3.0860   -3.3546    0.5386 H   0  0  0  0  0  0  0  0  0  0  0  0
    1.9106   -3.3045   -0.8035 H   0  0  0  0  0  0  0  0  0  0  0  0
    3.5524    1.0688   -1.5980 H   0  0  0  0  0  0  0  0  0  0  0  0
   -0.2640   -3.2978    0.5392 H   0  0  0  0  0  0  0  0  0  0  0  0
   -0.3517   -2.3126    2.0147 H   0  0  0  0  0  0  0  0  0  0  0  0
    0.7444   -3.6928    1.9330 H   0  0  0  0  0  0  0  0  0  0  0  0
   -0.9729    0.7429   -0.7851 H   0  0  0  0  0  0  0  0  0  0  0  0
   -2.5886   -1.8106   -1.3455 H   0  0  0  0  0  0  0  0  0  0  0  0
   -3.6673    1.0577   -1.4849 H   0  0  0  0  0  0  0  0  0  0  0  0
   -4.2912   -0.9637    0.7300 H   0  0  0  0  0  0  0  0  0  0  0  0
   -2.4354    1.4940    0.9441 H   0  0  0  0  0  0  0  0  0  0  0  0
   -3.1213   -0.6809    2.9826 H   0  0  0  0  0  0  0  0  0  0  0  0
   -3.7221    1.0004    3.0321 H   0  0  0  0  0  0  0  0  0  0  0  0
   -1.9201    0.4767   -2.8953 H   0  0  0  0  0  0  0  0  0  0  0  0
   -4.8701   -1.5121   -1.4214 H   0  0  0  0  0  0  0  0  0  0  0  0
   -4.7425    1.8316    0.4408 H   0  0  0  0  0  0  0  0  0  0  0  0
   -0.2052    3.5415   -1.9593 H   0  0  0  0  0  0  0  0  0  0  0  0
    1.0456    4.3239   -0.9661 H   0  0  0  0  0  0  0  0  0  0  0  0
   -0.1745    3.2381   -0.2085 H   0  0  0  0  0  0  0  0  0  0  0  0
   -1.8576    0.6670    4.2868 H   0  0  0  0  0  0  0  0  0  0  0  0
  1 13  1  0  0  0  0
  1 18  1  0  0  0  0
  2 12  1  0  0  0  0
  2 19  1  0  0  0  0
  3 19  1  0  0  0  0
  3 24  1  0  0  0  0
  4 18  2  0  0  0  0
  5 21  1  0  0  0  0
  5 26  1  0  0  0  0
  6 20  1  0  0  0  0
  6 44  1  0  0  0  0
  7 22  1  0  0  0  0
  7 45  1  0  0  0  0
  8 21  2  0  0  0  0
  9 23  1  0  0  0  0
  9 46  1  0  0  0  0
 10 25  1  0  0  0  0
 10 50  1  0  0  0  0
 11 12  1  0  0  0  0
 11 13  1  0  0  0  0
 11 16  1  0  0  0  0
 11 27  1  0  0  0  0
 12 14  1  0  0  0  0
 12 28  1  0  0  0  0
 13 15  1  0  0  0  0
 13 29  1  0  0  0  0
 14 15  1  0  0  0  0
 14 17  1  0  0  0  0
 14 30  1  0  0  0  0
 15 31  1  0  0  0  0
 15 32  1  0  0  0  0
 16 18  1  0  0  0  0
 16 21  1  0  0  0  0
 16 33  1  0  0  0  0
 17 34  1  0  0  0  0
 17 35  1  0  0  0  0
 17 36  1  0  0  0  0
 19 20  1  0  0  0  0
 19 37  1  0  0  0  0
 20 22  1  0  0  0  0
 20 38  1  0  0  0  0
 22 23  1  0  0  0  0
 22 39  1  0  0  0  0
 23 24  1  0  0  0  0
 23 40  1  0  0  0  0
 24 25  1  0  0  0  0
 24 41  1  0  0  0  0
 25 42  1  0  0  0  0
 25 43  1  0  0  0  0
 26 47  1  0  0  0  0
 26 48  1  0  0  0  0
 26 49  1  0  0  0  0
M  END
> <PUBCHEM_COMPOUND_CID>
122219891

> <PUBCHEM_CONFORMER_RMSD>
0.8

> <PUBCHEM_CONFORMER_DIVERSEORDER>
1
17
34
37
29
11
24
35
26
13
30
32
36
3
33
18
28
12
14
4
25
39
19
8
22
27
16
23
15
38
31
10
40
5
9
21
2
20
6
7

> <PUBCHEM_MMFF94_PARTIAL_CHARGES>
26
1 -0.43
10 -0.68
12 0.28
13 0.28
16 0.12
18 0.66
19 0.56
2 -0.56
20 0.28
21 0.66
22 0.28
23 0.28
24 0.28
25 0.28
26 0.28
3 -0.56
4 -0.57
44 0.4
45 0.4
46 0.4
5 -0.43
50 0.4
6 -0.68
7 -0.68
8 -0.57
9 -0.68

> <PUBCHEM_EFFECTIVE_ROTOR_COUNT>
7.2

> <PUBCHEM_PHARMACOPHORE_FEATURES>
16
1 10 acceptor
1 10 donor
1 16 anion
1 2 acceptor
1 3 acceptor
1 4 acceptor
1 6 acceptor
1 6 donor
1 7 acceptor
1 7 donor
1 8 acceptor
1 9 acceptor
1 9 donor
5 1 11 13 16 18 rings
5 11 12 13 14 15 rings
6 3 19 20 22 23 24 rings

> <PUBCHEM_HEAVY_ATOM_COUNT>
26

> <PUBCHEM_ATOM_DEF_STEREO_COUNT>
10

> <PUBCHEM_ATOM_UDEF_STEREO_COUNT>
0

> <PUBCHEM_BOND_DEF_STEREO_COUNT>
0

> <PUBCHEM_BOND_UDEF_STEREO_COUNT>
0

> <PUBCHEM_ISOTOPIC_ATOM_COUNT>
0

> <PUBCHEM_COMPONENT_COUNT>
1

> <PUBCHEM_CACTVS_TAUTO_COUNT>
3

> <PUBCHEM_CONFORMER_ID>
0748ED7300000001

> <PUBCHEM_MMFF94_ENERGY>
69.3939

> <PUBCHEM_FEATURE_SELFOVERLAP>
81.863

> <PUBCHEM_SHAPE_FINGERPRINT>
10165383 225 17320750283288029444
10366900 7 17458065954224291695
10498660 4 16702017552687953011
11244481 83 16082795830807369124
11640471 11 17845949497011846529
12236239 1 18060417997901578583
12403259 327 16226869190059604768
12422481 6 17909580293013735601
12467345 10 17846776312660493329
12596599 1 18272381874820632167
12633257 1 17313115154496736513
12670545 47 17531253884901894887
13009979 54 17632016321300146727
13140716 1 18190741036883543448
13583140 156 18264222339792505121
13965767 371 17627256475381201817
14251764 3 17313650638128628467
14739800 52 16701435950103399346
17357779 13 18260825952010201148
1813 80 17696484983452693870
18219364 16 18114188565669179810
19930381 70 18045227282918233373
20511986 3 17917134044806072929
20554085 129 15937510612889779061
20715895 44 17557430882154556265
21033650 10 16199334073410272402
23558518 356 17829044660623008874
23559900 14 15792015498217824658
238 59 18187641448695134311
3472631 163 16415208836428624889
350125 39 17829623003918222734
4340502 62 18335148596395189099
4409770 3 15318890954929419183
474 4 18340481283196657006
495365 180 17749934588762001335
5265222 85 8969645423212091637
568465 68 17676497141763891566
5895379 119 16558486213702613072
602551 16 15502382239538223696
70251023 43 18048590417845920119
9981440 41 17194016274219689872

> <PUBCHEM_SHAPE_MULTIPOLES>
476.37
8.37
2.84
2.2
3.8
0.99
-0.93
0.53
-0.3
-2.82
0.02
2.71
0.07
-0.09

> <PUBCHEM_SHAPE_SELFOVERLAP>
1003.717

> <PUBCHEM_SHAPE_VOLUME>
268.5

> <PUBCHEM_COORDINATE_TYPE>
2
5
10

$$$$
