REMARK  Name = 122292
REMARK  5 active torsions:
REMARK  status: ('A' for Active; 'I' for Inactive)
REMARK    1  A    between atoms: C_2  and  C_13
REMARK    2  A    between atoms: C_3  and  C_23
REMARK    3  A    between atoms: C_4  and  N_21
REMARK    4  A    between atoms: C_23  and  O_24
REMARK    5  A    between atoms: O_24  and  C_25
REMARK                            x       y       z     vdW  Elec       q    Type
REMARK                         _______ _______ _______ _____ _____    ______ ____
ROOT
ATOM      1  N   UNL     1       1.862   2.006  -1.264  0.00  0.00    -0.332 N 
ATOM      2  C   UNL     1       0.697   0.518   0.871  0.00  0.00    +0.029 C 
ATOM      3  C   UNL     1      -0.058   1.593   0.074  0.00  0.00    +0.073 C 
ATOM      4  C   UNL     1       2.155   0.455   0.465  0.00  0.00    +0.152 C 
ATOM      5  C   UNL     1       0.533   2.257  -0.948  0.00  0.00    +0.098 C 
ATOM      6  C   UNL     1       2.694   1.151  -0.553  0.00  0.00    +0.045 C 
ATOM      7  C   UNL     1      -0.137   3.291  -1.813  0.00  0.00    +0.026 C 
ATOM      8  C   UNL     1       4.124   1.118  -1.021  0.00  0.00    +0.049 C 
ATOM      9  H   UNL     1       2.241   2.466  -2.048  0.00  0.00    +0.147 HD
ENDROOT
BRANCH   2  13
ATOM     10  O   UNL     1      -0.026  -2.123  -2.624  0.00  0.00    -0.242 OA
ATOM     11  N   UNL     1       0.344  -1.102  -1.766  0.00  0.00    -0.048 NA
ATOM     12  N   UNL     1      -0.678  -3.146  -1.958  0.00  0.00    -0.048 NA
ATOM     13  C   UNL     1       0.040  -0.819   0.681  0.00  0.00    +0.024 C 
ATOM     14  C   UNL     1      -0.073  -1.476  -0.550  0.00  0.00    +0.143 A 
ATOM     15  C   UNL     1      -0.512  -1.497   1.774  0.00  0.00    +0.002 C 
ATOM     16  C   UNL     1      -0.723  -2.776  -0.672  0.00  0.00    +0.143 A 
ATOM     17  C   UNL     1      -1.144  -2.763   1.655  0.00  0.00    +0.002 C 
ATOM     18  C   UNL     1      -1.275  -3.449   0.434  0.00  0.00    +0.024 C 
ENDBRANCH   2  13
BRANCH   4  21
ATOM     19  O   UNL     1       3.494   0.180   2.282  0.00  0.00    -0.126 OA
ATOM     20  O   UNL     1       3.159  -1.530   0.935  0.00  0.00    -0.126 OA
ATOM     21  N   UNL     1       2.994  -0.354   1.283  0.00  0.00    +0.059 N 
ENDBRANCH   4  21
BRANCH   3  23
ATOM     22  O   UNL     1      -1.685   2.723   1.376  0.00  0.00    -0.245 OA
ATOM     23  C   UNL     1      -1.428   1.899   0.518  0.00  0.00    +0.339 C 
BRANCH  23  24
ATOM     24  O   UNL     1      -2.288   1.122  -0.183  0.00  0.00    -0.449 OA
BRANCH  24  25
ATOM     25  C   UNL     1      -3.671   1.305   0.137  0.00  0.00    +0.169 C 
ATOM     26  C   UNL     1      -4.514   0.398  -0.746  0.00  0.00    +0.047 C 
ATOM     27  C   UNL     1      -3.885   1.017   1.615  0.00  0.00    +0.047 C 
ENDBRANCH  24  25
ENDBRANCH  23  24
ENDBRANCH   3  23
TORSDOF 5
