REMARK  Name = 122216056
REMARK  6 active torsions:
REMARK  status: ('A' for Active; 'I' for Inactive)
REMARK    1  A    between atoms: C_4  and  O_18
REMARK    2  A    between atoms: C_5  and  O_20
REMARK    3  A    between atoms: C_8  and  C_24
REMARK    4  A    between atoms: C_14  and  O_22
REMARK    5  A    between atoms: C_24  and  C_26
REMARK    6  A    between atoms: C_26  and  O_27
REMARK                            x       y       z     vdW  Elec       q    Type
REMARK                         _______ _______ _______ _____ _____    ______ ____
ROOT
ATOM      1  O   UNL     1      -2.121   1.027   0.486  0.00  0.00    -0.355 OA
ATOM      2  O   UNL     1      -0.051  -2.426  -1.024  0.00  0.00    -0.289 OA
ATOM      3  O   UNL     1       2.197   2.364  -0.252  0.00  0.00    -0.289 OA
ATOM      4  C   UNL     1      -0.204  -0.042  -1.393  0.00  0.00    +0.176 C 
ATOM      5  C   UNL     1       0.101   1.189  -0.525  0.00  0.00    +0.197 C 
ATOM      6  C   UNL     1      -1.722  -0.204  -1.566  0.00  0.00    +0.067 C 
ATOM      7  C   UNL     1      -0.722   1.159   0.784  0.00  0.00    +0.149 C 
ATOM      8  C   UNL     1      -2.435  -0.179  -0.213  0.00  0.00    +0.129 C 
ATOM      9  C   UNL     1       0.444  -1.315  -0.852  0.00  0.00    +0.200 C 
ATOM     10  C   UNL     1       1.591   1.297  -0.227  0.00  0.00    +0.205 C 
ATOM     11  C   UNL     1       2.305   0.052   0.129  0.00  0.00    +0.074 C 
ATOM     12  C   UNL     1       1.745  -1.196  -0.150  0.00  0.00    +0.043 C 
ATOM     13  C   UNL     1      -0.587   2.430   1.622  0.00  0.00    +0.035 C 
ATOM     14  C   UNL     1       3.552   0.137   0.759  0.00  0.00    +0.137 C 
ATOM     15  C   UNL     1       2.431  -2.361   0.218  0.00  0.00    +0.003 C 
ATOM     16  C   UNL     1       4.231  -1.026   1.120  0.00  0.00    +0.037 C 
ATOM     17  C   UNL     1       3.671  -2.273   0.853  0.00  0.00    +0.003 C 
ENDROOT
BRANCH   4  18
ATOM     18  O   UNL     1       0.392   0.124  -2.682  0.00  0.00    -0.377 OA
ATOM     19  H   UNL     1       0.033   0.920  -3.104  0.00  0.00    +0.211 HD
ENDBRANCH   4  18
BRANCH   5  20
ATOM     20  O   UNL     1      -0.258   2.371  -1.245  0.00  0.00    -0.375 OA
ATOM     21  H   UNL     1      -1.204   2.345  -1.457  0.00  0.00    +0.211 HD
ENDBRANCH   5  20
BRANCH  14  22
ATOM     22  O   UNL     1       4.141   1.327   1.071  0.00  0.00    -0.505 OA
ATOM     23  H   UNL     1       3.718   2.132   0.846  0.00  0.00    +0.292 HD
ENDBRANCH  14  22
BRANCH   8  24
ATOM     24  C   UNL     1      -3.946  -0.228  -0.393  0.00  0.00    +0.139 C 
BRANCH  24  26
ATOM     25  O   UNL     1      -4.118  -0.904   1.942  0.00  0.00    -0.250 OA
ATOM     26  C   UNL     1      -4.648  -0.641   0.873  0.00  0.00    +0.316 C 
BRANCH  26  27
ATOM     27  O   UNL     1      -5.989  -0.683   0.665  0.00  0.00    -0.480 OA
ATOM     28  H   UNL     1      -6.340  -0.471  -0.178  0.00  0.00    +0.295 HD
ENDBRANCH  26  27
ENDBRANCH  24  26
ENDBRANCH   8  24
TORSDOF 6
