REMARK  Name = 122228
REMARK  11 active torsions:
REMARK  status: ('A' for Active; 'I' for Inactive)
REMARK    1  A    between atoms: C_1  and  C_2
REMARK    2  A    between atoms: C_1  and  C_13
REMARK    3  A    between atoms: C_2  and  C_3
REMARK    4  A    between atoms: C_3  and  C_4
REMARK    5  A    between atoms: C_4  and  N_5
REMARK    6  A    between atoms: C_4  and  C_10
REMARK    7  A    between atoms: C_10  and  O_11
REMARK    8  A    between atoms: C_13  and  N_14
REMARK    9  A    between atoms: C_15  and  C_21
REMARK   10  A    between atoms: C_16  and  C_20
REMARK   11  A    between atoms: C_21  and  O_22
REMARK                            x       y       z     vdW  Elec       q    Type
REMARK                         _______ _______ _______ _____ _____    ______ ____
ROOT
ATOM      1  C   UNK     1      -0.147  -0.037   0.035  0.00  0.00    +0.022 C 
ENDROOT
BRANCH   1   2
ATOM      2  C   UNK     1      -1.460   0.107  -0.737  0.00  0.00    +0.000 C 
BRANCH   2   3
ATOM      3  C   UNK     1      -2.670  -0.118   0.181  0.00  0.00    -0.011 C 
BRANCH   3   4
ATOM      4  C   UNK     1      -4.031  -0.043  -0.526  0.00  0.00    +0.036 C 
BRANCH   4   5
ATOM      5  N   UNK     1      -4.250   1.271  -1.129  0.00  0.00    +0.389 N 
ATOM      6  H   UNK     1      -3.487   1.482  -1.772  0.00  0.00    -0.088 HD
ATOM      7  H   UNK     1      -4.283   1.980  -0.396  0.00  0.00    -0.088 HD
ATOM      8  H   UNK     1      -5.134   1.268  -1.638  0.00  0.00    -0.088 HD
ENDBRANCH   4   5
BRANCH   4  10
ATOM      9  O   UNK     1      -6.089   0.451   0.693  0.00  0.00    -0.253 OA
ATOM     10  C   UNK     1      -5.181  -0.326   0.424  0.00  0.00    +0.293 C 
BRANCH  10  11
ATOM     11  O   UNK     1      -5.099  -1.571   0.964  0.00  0.00    -0.482 OA
ATOM     12  H   UNK     1      -4.388  -2.136   0.733  0.00  0.00    +0.295 HD
ENDBRANCH  10  11
ENDBRANCH   4  10
ENDBRANCH   3   4
ENDBRANCH   2   3
ENDBRANCH   1   2
BRANCH   1  13
ATOM     13  C   UNK     1       1.057   0.225  -0.869  0.00  0.00    +0.095 C 
BRANCH  13  14
ATOM     14  N   UNK     1       2.320   0.103  -0.149  0.00  0.00    -0.286 N 
ATOM     15  C   UNK     1       2.953   1.126   0.494  0.00  0.00    +0.059 C 
ATOM     16  C   UNK     1       3.036  -1.051  -0.024  0.00  0.00    +0.094 C 
ATOM     17  C   UNK     1       4.106   0.616   1.048  0.00  0.00    +0.014 C 
ATOM     18  C   UNK     1       4.159  -0.762   0.720  0.00  0.00    +0.019 C 
BRANCH  16  20
ATOM     19  O   UNK     1       3.291  -3.381  -0.483  0.00  0.00    -0.282 OA
ATOM     20  C   UNK     1       2.660  -2.315  -0.578  0.00  0.00    +0.249 C 
ENDBRANCH  16  20
BRANCH  15  21
ATOM     21  C   UNK     1       2.413   2.501   0.531  0.00  0.00    +0.178 C 
BRANCH  21  22
ATOM     22  O   UNK     1       2.932   3.203  -0.597  0.00  0.00    -0.376 OA
ATOM     23  H   UNK     1       2.592   4.112  -0.597  0.00  0.00    +0.211 HD
ENDBRANCH  21  22
ENDBRANCH  15  21
ENDBRANCH  13  14
ENDBRANCH   1  13
TORSDOF 11
