REMARK  Name = 122214
REMARK  7 active torsions:
REMARK  status: ('A' for Active; 'I' for Inactive)
REMARK    1  A    between atoms: C_4  and  N_13
REMARK    2  A    between atoms: C_8  and  N_12
REMARK    3  A    between atoms: N_13  and  C_15
REMARK    4  A    between atoms: C_15  and  C_16
REMARK    5  A    between atoms: C_16  and  O_17
REMARK    6  A    between atoms: O_17  and  C_19
REMARK    7  A    between atoms: C_19  and  C_21
REMARK                            x       y       z     vdW  Elec       q    Type
REMARK                         _______ _______ _______ _____ _____    ______ ____
ROOT
ATOM      1  O   UNL     1      -2.369  -2.498   1.151  0.00  0.00    -0.241 OA
ATOM      2  N   UNL     1      -1.212  -2.333   0.409  0.00  0.00    -0.047 NA
ATOM      3  N   UNL     1      -3.158  -1.361   1.135  0.00  0.00    -0.047 NA
ATOM      4  C   UNL     1      -0.344  -0.409  -0.901  0.00  0.00    +0.071 C 
ATOM      5  C   UNL     1      -1.265  -1.088  -0.081  0.00  0.00    +0.158 A 
ATOM      6  C   UNL     1      -0.721   0.905  -1.232  0.00  0.00    +0.018 C 
ATOM      7  C   UNL     1      -2.502  -0.470   0.380  0.00  0.00    +0.167 A 
ATOM      8  C   UNL     1      -2.859   0.847   0.037  0.00  0.00    +0.165 C 
ATOM      9  C   UNL     1      -1.925   1.507  -0.783  0.00  0.00    +0.027 C 
ENDROOT
BRANCH   8  12
ATOM     10  O   UNL     1      -4.324   2.624   0.152  0.00  0.00    -0.126 OA
ATOM     11  O   UNL     1      -4.837   0.776   1.220  0.00  0.00    -0.126 OA
ATOM     12  N   UNL     1      -4.058   1.441   0.489  0.00  0.00    +0.059 N 
ENDBRANCH   8  12
BRANCH   4  13
ATOM     13  N   UNL     1       0.855  -0.966  -1.367  0.00  0.00    -0.301 N 
ATOM     14  C   UNL     1       1.228  -2.327  -1.014  0.00  0.00    +0.112 C 
BRANCH  13  15
ATOM     15  C   UNL     1       1.745  -0.201  -2.224  0.00  0.00    +0.139 C 
BRANCH  15  16
ATOM     16  C   UNL     1       2.616   0.732  -1.397  0.00  0.00    +0.230 C 
BRANCH  16  17
ATOM     17  O   UNL     1       3.377  -0.045  -0.481  0.00  0.00    -0.446 OA
BRANCH  17  19
ATOM     18  O   UNL     1       4.353   1.871   0.341  0.00  0.00    -0.249 OA
ATOM     19  C   UNL     1       4.221   0.656   0.346  0.00  0.00    +0.328 C 
BRANCH  19  21
ATOM     20  I   UNL     1       6.243   0.668   2.578  0.00  0.00    -0.062 I 
ATOM     21  C   UNL     1       4.937  -0.329   1.241  0.00  0.00    +0.171 C 
ENDBRANCH  19  21
ENDBRANCH  17  19
ENDBRANCH  16  17
ENDBRANCH  15  16
ENDBRANCH  13  15
ENDBRANCH   4  13
TORSDOF 7
