REMARK  Name = 122214229
REMARK  14 active torsions:
REMARK  status: ('A' for Active; 'I' for Inactive)
REMARK    1  A    between atoms: C_2  and  O_3
REMARK    2  A    between atoms: C_2  and  C_21
REMARK    3  A    between atoms: O_3  and  C_4
REMARK    4  A    between atoms: C_4  and  C_12
REMARK    5  A    between atoms: C_7  and  O_14
REMARK    6  A    between atoms: O_14  and  C_16
REMARK    7  A    between atoms: C_16  and  C_17
REMARK    8  A    between atoms: C_21  and  C_22
REMARK    9  A    between atoms: C_21  and  O_27
REMARK   10  A    between atoms: C_21  and  C_29
REMARK   11  A    between atoms: C_22  and  O_25
REMARK   12  A    between atoms: C_29  and  O_31
REMARK   13  A    between atoms: O_31  and  C_33
REMARK   14  A    between atoms: C_33  and  C_34
REMARK                            x       y       z     vdW  Elec       q    Type
REMARK                         _______ _______ _______ _____ _____    ______ ____
ROOT
ATOM      1  O   UNL     1       3.040   1.026   1.797  0.00  0.00    -0.247 OA
ATOM      2  C   UNL     1       2.415   1.093   0.744  0.00  0.00    +0.347 C 
ENDROOT
BRANCH   2   3
ATOM      3  O   UNL     1       1.081   1.351   0.644  0.00  0.00    -0.442 OA
BRANCH   3   4
ATOM      4  C   UNL     1       0.390   1.552   1.881  0.00  0.00    +0.228 C 
BRANCH   4  12
ATOM      5  N   UNL     1      -2.972   2.895   0.733  0.00  0.00    +0.396 N 
ATOM      6  C   UNL     1      -3.367   1.742   1.599  0.00  0.00    +0.006 C 
ATOM      7  C   UNL     1      -4.311   0.877   0.757  0.00  0.00    +0.152 C 
ATOM      8  C   UNL     1      -3.439   2.592  -0.626  0.00  0.00    -0.073 C 
ATOM      9  C   UNL     1      -4.713   1.797  -0.387  0.00  0.00    +0.019 C 
ATOM     10  C   UNL     1      -1.499   2.998   0.822  0.00  0.00    -0.050 C 
ATOM     11  C   UNL     1      -2.095   1.118   2.065  0.00  0.00    -0.051 C 
ATOM     12  C   UNL     1      -1.047   1.822   1.629  0.00  0.00    -0.028 C 
ATOM     13  H   UNL     1      -3.378   3.787   1.015  0.00  0.00    -0.079 HD
BRANCH   7  14
ATOM     14  O   UNL     1      -3.645  -0.265   0.231  0.00  0.00    -0.451 OA
BRANCH  14  16
ATOM     15  O   UNL     1      -5.645  -1.400   0.118  0.00  0.00    -0.245 OA
ATOM     16  C   UNL     1      -4.435  -1.343  -0.047  0.00  0.00    +0.337 C 
BRANCH  16  17
ATOM     17  C   UNL     1      -3.596  -2.459  -0.582  0.00  0.00    +0.049 C 
ATOM     18  C   UNL     1      -2.474  -2.977   0.268  0.00  0.00    +0.037 C 
ATOM     19  C   UNL     1      -3.910  -2.888  -1.818  0.00  0.00    -0.024 C 
ATOM     20  C   UNL     1      -4.998  -2.373  -2.706  0.00  0.00    +0.031 C 
ENDBRANCH  16  17
ENDBRANCH  14  16
ENDBRANCH   7  14
ENDBRANCH   4  12
ENDBRANCH   3   4
ENDBRANCH   2   3
BRANCH   2  21
ATOM     21  C   UNL     1       3.045   0.902  -0.645  0.00  0.00    +0.237 C 
BRANCH  21  22
ATOM     22  C   UNL     1       3.159   2.253  -1.427  0.00  0.00    +0.124 C 
ATOM     23  C   UNL     1       4.029   3.276  -0.678  0.00  0.00    +0.032 C 
ATOM     24  C   UNL     1       3.753   2.056  -2.834  0.00  0.00    +0.032 C 
BRANCH  22  25
ATOM     25  O   UNL     1       1.863   2.836  -1.593  0.00  0.00    -0.384 OA
ATOM     26  H   UNL     1       1.458   2.975  -0.722  0.00  0.00    +0.210 HD
ENDBRANCH  22  25
ENDBRANCH  21  22
BRANCH  21  27
ATOM     27  O   UNL     1       4.397   0.492  -0.348  0.00  0.00    -0.372 OA
ATOM     28  H   UNL     1       4.879   0.345  -1.176  0.00  0.00    +0.211 HD
ENDBRANCH  21  27
BRANCH  21  29
ATOM     29  C   UNL     1       2.402  -0.287  -1.413  0.00  0.00    +0.206 C 
ATOM     30  C   UNL     1       1.148  -0.018  -2.236  0.00  0.00    +0.051 C 
BRANCH  29  31
ATOM     31  O   UNL     1       2.101  -1.332  -0.477  0.00  0.00    -0.446 OA
BRANCH  31  33
ATOM     32  O   UNL     1       4.243  -2.149  -0.696  0.00  0.00    -0.245 OA
ATOM     33  C   UNL     1       3.120  -2.193  -0.213  0.00  0.00    +0.337 C 
BRANCH  33  34
ATOM     34  C   UNL     1       2.656  -3.221   0.767  0.00  0.00    +0.049 C 
ATOM     35  C   UNL     1       1.474  -4.069   0.404  0.00  0.00    +0.037 C 
ATOM     36  C   UNL     1       3.337  -3.276   1.927  0.00  0.00    -0.024 C 
ATOM     37  C   UNL     1       4.497  -2.426   2.337  0.00  0.00    +0.031 C 
ENDBRANCH  33  34
ENDBRANCH  31  33
ENDBRANCH  29  31
ENDBRANCH  21  29
ENDBRANCH   2  21
TORSDOF 14
