REMARK  Name = 122267
REMARK  12 active torsions:
REMARK  status: ('A' for Active; 'I' for Inactive)
REMARK    1  A    between atoms: CA_3  and  C_10
REMARK    2  A    between atoms: C_7  and  CA_26
REMARK    3  A    between atoms: N_9  and  CA_12
REMARK    4  A    between atoms: CA_12  and  C_14
REMARK    5  A    between atoms: CA_12  and  CB_15
REMARK    6  A    between atoms: CB_15  and  CG_16
REMARK    7  A    between atoms: CG_16  and  CD_17
REMARK    8  A    between atoms: CD_17  and  NE_18
REMARK    9  A    between atoms: NE_18  and  CZ_21
REMARK   10  A    between atoms: CA_26  and  N_27
REMARK   11  A    between atoms: CA_26  and  CB_31
REMARK   12  A    between atoms: CB_31  and  CG_32
REMARK                            x       y       z     vdW  Elec       q    Type
REMARK                         _______ _______ _______ _____ _____    ______ ____
ROOT
ATOM      1  O   PHE A   1      -0.364   1.030   0.115  0.00  0.00    -0.277 OA
ATOM      2  N   PHE A   1      -1.305  -0.956  -0.610  0.00  0.00    -0.275 N 
ATOM      3  CA  PHE A   1      -0.431  -1.841   0.149  0.00  0.00    +0.152 C 
ATOM      4  CB  PHE A   1      -1.121  -3.200   0.102  0.00  0.00    +0.031 C 
ATOM      5  CG  PHE A   1      -1.884  -3.166  -1.219  0.00  0.00    +0.024 C 
ATOM      6  CD  PHE A   1      -2.325  -1.714  -1.331  0.00  0.00    +0.094 C 
ATOM      7  C   PHE A   1      -1.241   0.424  -0.504  0.00  0.00    +0.206 C 
ENDROOT
BRANCH   3  10
ATOM      8  O   PHE A   1       0.983  -1.708  -1.770  0.00  0.00    -0.273 OA
ATOM      9  N   ARG A   2       1.944  -2.101   0.313  0.00  0.00    -0.298 N 
ATOM     10  C   PHE A   1       0.892  -1.865  -0.555  0.00  0.00    +0.241 C 
ATOM     11  H   ARG A   2       1.745  -2.210   1.271  0.00  0.00    +0.150 HD
BRANCH   9  12
ATOM     12  CA  ARG A   2       3.320  -2.193  -0.118  0.00  0.00    +0.137 C 
BRANCH  12  14
ATOM     13  O   ARG A   2       5.204  -3.295   0.920  0.00  0.00    -0.286 OA
ATOM     14  C   ARG A   2       3.990  -3.249   0.733  0.00  0.00    +0.227 C 
ENDBRANCH  12  14
BRANCH  12  15
ATOM     15  CB  ARG A   2       4.049  -0.848  -0.108  0.00  0.00    +0.030 C 
BRANCH  15  16
ATOM     16  CG  ARG A   2       4.133  -0.180   1.273  0.00  0.00    +0.029 C 
BRANCH  16  17
ATOM     17  CD  ARG A   2       4.824   1.179   1.217  0.00  0.00    +0.129 C 
BRANCH  17  18
ATOM     18  NE  ARG A   2       4.078   2.082   0.339  0.00  0.00    -0.240 NA
BRANCH  18  21
ATOM     19  NH1 ARG A   2       5.684   3.816   0.770  0.00  0.00    -0.370 N 
ATOM     20  NH2 ARG A   2       3.911   4.188  -0.613  0.00  0.00    -0.370 N 
ATOM     21  CZ  ARG A   2       4.553   3.279   0.195  0.00  0.00    +0.189 C 
ATOM     22 HH11 ARG A   2       6.237   3.267   1.372  0.00  0.00    +0.159 HD
ATOM     23 HH12 ARG A   2       5.940   4.747   0.578  0.00  0.00    +0.159 HD
ATOM     24 HH21 ARG A   2       3.086   3.930  -1.085  0.00  0.00    +0.159 HD
ATOM     25 HH22 ARG A   2       4.276   5.096  -0.720  0.00  0.00    +0.159 HD
ENDBRANCH  18  21
ENDBRANCH  17  18
ENDBRANCH  16  17
ENDBRANCH  15  16
ENDBRANCH  12  15
ENDBRANCH   9  12
ENDBRANCH   3  10
BRANCH   7  26
ATOM     26  CA  PHE A   1      -2.330   1.183  -1.219  0.00  0.00    +0.021 C 
BRANCH  26  27
ATOM     27  N   PHE A   1      -1.649   1.954  -2.250  0.00  0.00    +0.390 N 
ATOM     28  C   ACE A   0      -1.335   1.120  -3.402  0.00  0.00    -0.105 C 
ATOM     29  H1  PHE A   1      -0.784   2.333  -1.866  0.00  0.00    -0.084 HD
ATOM     30  H2  PHE A   1      -2.266   2.708  -2.553  0.00  0.00    -0.084 HD
ENDBRANCH  26  27
BRANCH  26  31
ATOM     31  CB  PHE A   1      -3.092   2.093  -0.256  0.00  0.00    +0.014 C 
BRANCH  31  32
ATOM     32  CG  PHE A   1      -4.126   1.349   0.556  0.00  0.00    -0.024 C 
ATOM     33  CD1 PHE A   1      -5.429   1.219   0.075  0.00  0.00    -0.004 C 
ATOM     34  CD2 PHE A   1      -3.779   0.791   1.786  0.00  0.00    -0.004 C 
ATOM     35  CE1 PHE A   1      -6.384   0.532   0.824  0.00  0.00    -0.000 C 
ATOM     36  CE2 PHE A   1      -4.734   0.104   2.535  0.00  0.00    -0.000 C 
ATOM     37  CZ  PHE A   1      -6.037  -0.026   2.054  0.00  0.00    -0.000 C 
ENDBRANCH  31  32
ENDBRANCH  26  31
ENDBRANCH   7  26
TORSDOF 12
