122228
  -OEChem-03292013323D

 36 36  0     1  0  0  0  0  0999 V2000
    2.9323    3.2033   -0.5971 O   0  0  0  0  0  0  0  0  0  0  0  0
   -5.0991   -1.5708    0.9639 O   0  0  0  0  0  0  0  0  0  0  0  0
   -6.0887    0.4509    0.6925 O   0  0  0  0  0  0  0  0  0  0  0  0
    3.2906   -3.3812   -0.4827 O   0  0  0  0  0  0  0  0  0  0  0  0
    2.3200    0.1033   -0.1487 N   0  0  0  0  0  0  0  0  0  0  0  0
   -4.2502    1.2712   -1.1285 N   0  0  0  0  0  0  0  0  0  0  0  0
   -0.1470   -0.0369    0.0352 C   0  0  0  0  0  0  0  0  0  0  0  0
   -1.4603    0.1068   -0.7371 C   0  0  0  0  0  0  0  0  0  0  0  0
    1.0567    0.2248   -0.8688 C   0  0  0  0  0  0  0  0  0  0  0  0
   -2.6695   -0.1176    0.1812 C   0  0  0  0  0  0  0  0  0  0  0  0
   -4.0308   -0.0430   -0.5257 C   0  0  1  0  0  0  0  0  0  0  0  0
    2.9530    1.1262    0.4941 C   0  0  0  0  0  0  0  0  0  0  0  0
    3.0362   -1.0509   -0.0236 C   0  0  0  0  0  0  0  0  0  0  0  0
    4.1062    0.6156    1.0478 C   0  0  0  0  0  0  0  0  0  0  0  0
    4.1587   -0.7619    0.7203 C   0  0  0  0  0  0  0  0  0  0  0  0
    2.4132    2.5011    0.5310 C   0  0  0  0  0  0  0  0  0  0  0  0
   -5.1809   -0.3256    0.4243 C   0  0  0  0  0  0  0  0  0  0  0  0
    2.6598   -2.3153   -0.5782 C   0  0  0  0  0  0  0  0  0  0  0  0
   -0.0800   -1.0460    0.4608 H   0  0  0  0  0  0  0  0  0  0  0  0
   -0.1399    0.6593    0.8826 H   0  0  0  0  0  0  0  0  0  0  0  0
   -1.5103    1.1072   -1.1825 H   0  0  0  0  0  0  0  0  0  0  0  0
   -1.4857   -0.6184   -1.5593 H   0  0  0  0  0  0  0  0  0  0  0  0
    1.0740   -0.4560   -1.7253 H   0  0  0  0  0  0  0  0  0  0  0  0
    1.0032    1.2287   -1.3019 H   0  0  0  0  0  0  0  0  0  0  0  0
   -2.6425    0.6133    1.0011 H   0  0  0  0  0  0  0  0  0  0  0  0
   -2.5665   -1.1016    0.6567 H   0  0  0  0  0  0  0  0  0  0  0  0
   -4.0760   -0.7909   -1.3258 H   0  0  0  0  0  0  0  0  0  0  0  0
    4.8320    1.1722    1.6245 H   0  0  0  0  0  0  0  0  0  0  0  0
    4.9347   -1.4616    0.9999 H   0  0  0  0  0  0  0  0  0  0  0  0
    1.3219    2.5589    0.5232 H   0  0  0  0  0  0  0  0  0  0  0  0
    2.7578    3.0220    1.4304 H   0  0  0  0  0  0  0  0  0  0  0  0
   -4.2450    1.9911   -0.4071 H   0  0  0  0  0  0  0  0  0  0  0  0
   -5.1692    1.3037   -1.5678 H   0  0  0  0  0  0  0  0  0  0  0  0
    1.7078   -2.3535   -1.1300 H   0  0  0  0  0  0  0  0  0  0  0  0
    2.5437    2.8144   -1.3988 H   0  0  0  0  0  0  0  0  0  0  0  0
   -5.8427   -1.7524    1.5775 H   0  0  0  0  0  0  0  0  0  0  0  0
  1 16  1  0  0  0  0
  1 35  1  0  0  0  0
  2 17  1  0  0  0  0
  2 36  1  0  0  0  0
  3 17  2  0  0  0  0
  4 18  2  0  0  0  0
  5  9  1  0  0  0  0
  5 12  1  0  0  0  0
  5 13  1  0  0  0  0
  6 11  1  0  0  0  0
  6 32  1  0  0  0  0
  6 33  1  0  0  0  0
  7  8  1  0  0  0  0
  7  9  1  0  0  0  0
  7 19  1  0  0  0  0
  7 20  1  0  0  0  0
  8 10  1  0  0  0  0
  8 21  1  0  0  0  0
  8 22  1  0  0  0  0
  9 23  1  0  0  0  0
  9 24  1  0  0  0  0
 10 11  1  0  0  0  0
 10 25  1  0  0  0  0
 10 26  1  0  0  0  0
 11 17  1  0  0  0  0
 11 27  1  0  0  0  0
 12 14  2  0  0  0  0
 12 16  1  0  0  0  0
 13 15  2  0  0  0  0
 13 18  1  0  0  0  0
 14 15  1  0  0  0  0
 14 28  1  0  0  0  0
 15 29  1  0  0  0  0
 16 30  1  0  0  0  0
 16 31  1  0  0  0  0
 18 34  1  0  0  0  0
M  END
> <PUBCHEM_COMPOUND_CID>
122228

> <PUBCHEM_CONFORMER_RMSD>
0.8

> <PUBCHEM_CONFORMER_DIVERSEORDER>
1
35
11
43
74
24
71
29
47
66
52
31
72
36
16
4
7
51
5
46
54
56
76
55
3
8
28
62
63
59
42
9
34
12
44
15
10
61
23
48
50
6
53
49
57
70
60
41
19
17
39
58
33
69
32
14
20
37
45
75
64
65
22
38
73
13
21
18
40
68
25
67
2
30
27
26

> <PUBCHEM_MMFF94_PARTIAL_CHARGES>
22
1 -0.68
11 0.33
12 -0.33
13 -0.24
14 -0.15
15 -0.15
16 0.46
17 0.66
18 0.59
2 -0.65
28 0.15
29 0.15
3 -0.57
32 0.36
33 0.36
34 0.06
35 0.4
36 0.5
4 -0.57
5 0.05
6 -0.99
9 0.26

> <PUBCHEM_EFFECTIVE_ROTOR_COUNT>
8

> <PUBCHEM_PHARMACOPHORE_FEATURES>
10
1 1 acceptor
1 1 donor
1 2 acceptor
1 3 acceptor
1 4 acceptor
1 5 cation
1 6 cation
1 6 donor
3 2 3 17 anion
5 5 12 13 14 15 rings

> <PUBCHEM_HEAVY_ATOM_COUNT>
18

> <PUBCHEM_ATOM_DEF_STEREO_COUNT>
1

> <PUBCHEM_ATOM_UDEF_STEREO_COUNT>
0

> <PUBCHEM_BOND_DEF_STEREO_COUNT>
0

> <PUBCHEM_BOND_UDEF_STEREO_COUNT>
0

> <PUBCHEM_ISOTOPIC_ATOM_COUNT>
0

> <PUBCHEM_COMPONENT_COUNT>
1

> <PUBCHEM_CACTVS_TAUTO_COUNT>
1

> <PUBCHEM_CONFORMER_ID>
0001DD7400000001

> <PUBCHEM_MMFF94_ENERGY>
14.604

> <PUBCHEM_FEATURE_SELFOVERLAP>
50.805

> <PUBCHEM_SHAPE_FINGERPRINT>
10912923 1 17203601589115460431
11370993 144 18411421670795353501
114674 6 18261676965420814786
12107183 9 17697328313223252355
12596602 18 17131831010330271283
13533116 47 18343024354897574283
13675066 3 18260827099072021351
13955234 65 18413388752604985394
14252887 29 18335701615830060906
14341114 176 18272374152532288865
14866123 147 16971675815594131786
15348495 7 18261681458593929097
17844677 252 18411987931978818393
18222031 100 15864065516381133863
20645477 70 18408321094637735842
21065198 57 18410293584533749583
21065199 12 18408602574183798285
23559900 14 18412261731215832091
239999 70 18259984885781248914
312423 11 17916605158026987441
33824 294 18412258420387189306
3421961 26 18269552746020171158
42 15 18333449841965274095
5104073 3 18334018332764332489
5281201 14 18408603626255659245
8272917 22 18342177782478084292
9709674 26 18408041818726972411

> <PUBCHEM_SHAPE_MULTIPOLES>
336.99
12.5
2.65
0.99
19.71
0.19
0
1.1
3.06
-4.33
-0.45
0.23
-0.07
0.98

> <PUBCHEM_SHAPE_SELFOVERLAP>
679.441

> <PUBCHEM_SHAPE_VOLUME>
198.2

> <PUBCHEM_COORDINATE_TYPE>
2
5
10

$$$$
