122204527
  -OEChem-03292013293D

 56 56  0     1  0  0  0  0  0999 V2000
   -3.7577    2.0457   -0.6040 O   0  0  0  0  0  0  0  0  0  0  0  0
   -5.9651    2.2061    0.0793 O   0  0  0  0  0  0  0  0  0  0  0  0
   -1.6386    1.5042    1.2124 O   0  0  0  0  0  0  0  0  0  0  0  0
    1.1780    0.0063   -1.6287 O   0  0  0  0  0  0  0  0  0  0  0  0
    4.3404   -2.2657    0.0275 O   0  0  0  0  0  0  0  0  0  0  0  0
    5.7989   -1.2371   -1.3613 O   0  0  0  0  0  0  0  0  0  0  0  0
   -0.9678   -0.2982   -0.0757 N   0  0  0  0  0  0  0  0  0  0  0  0
    2.6665   -0.2471    0.1339 N   0  0  0  0  0  0  0  0  0  0  0  0
   -4.4239    0.1552    0.0914 C   0  0  2  0  0  0  0  0  0  0  0  0
   -3.1465    0.7242   -0.5438 C   0  0  2  0  0  0  0  0  0  0  0  0
   -5.1557   -0.9164   -0.6880 C   0  0  0  0  0  0  0  0  0  0  0  0
   -4.9373    1.5935   -0.1039 C   0  0  0  0  0  0  0  0  0  0  0  0
    0.3010   -0.5142    0.5724 C   0  0  1  0  0  0  0  0  0  0  0  0
   -1.8544    0.7055    0.2951 C   0  0  0  0  0  0  0  0  0  0  0  0
    0.4282   -1.9178    1.2013 C   0  0  0  0  0  0  0  0  0  0  0  0
   -4.3027   -2.1781   -0.8351 C   0  0  0  0  0  0  0  0  0  0  0  0
   -6.4699   -1.2740    0.0143 C   0  0  0  0  0  0  0  0  0  0  0  0
    4.6467    1.2560   -0.0661 C   0  0  1  0  0  0  0  0  0  0  0  0
    3.8757    0.0273   -0.6076 C   0  0  1  0  0  0  0  0  0  0  0  0
    1.4054   -0.2344   -0.4448 C   0  0  0  0  0  0  0  0  0  0  0  0
    3.7375    2.5041   -0.0612 C   0  0  0  0  0  0  0  0  0  0  0  0
   -0.6509   -2.2072    2.2502 C   0  0  0  0  0  0  0  0  0  0  0  0
    0.4117   -3.0068    0.1242 C   0  0  0  0  0  0  0  0  0  0  0  0
    5.2624    0.9978    1.3159 C   0  0  0  0  0  0  0  0  0  0  0  0
    4.7721   -1.2017   -0.6914 C   0  0  0  0  0  0  0  0  0  0  0  0
    4.4458    3.7730    0.3936 C   0  0  0  0  0  0  0  0  0  0  0  0
   -4.3040   -0.0933    1.1541 H   0  0  0  0  0  0  0  0  0  0  0  0
   -2.9702    0.3800   -1.5721 H   0  0  0  0  0  0  0  0  0  0  0  0
   -5.3946   -0.5540   -1.6963 H   0  0  0  0  0  0  0  0  0  0  0  0
    0.4169    0.2289    1.3720 H   0  0  0  0  0  0  0  0  0  0  0  0
    1.3940   -1.9911    1.7166 H   0  0  0  0  0  0  0  0  0  0  0  0
   -1.2071   -0.8904   -0.8655 H   0  0  0  0  0  0  0  0  0  0  0  0
   -4.0008   -2.5679    0.1434 H   0  0  0  0  0  0  0  0  0  0  0  0
   -3.3900   -1.9759   -1.4040 H   0  0  0  0  0  0  0  0  0  0  0  0
   -4.8534   -2.9645   -1.3619 H   0  0  0  0  0  0  0  0  0  0  0  0
   -6.2897   -1.6518    1.0268 H   0  0  0  0  0  0  0  0  0  0  0  0
   -7.0156   -2.0415   -0.5446 H   0  0  0  0  0  0  0  0  0  0  0  0
   -7.1195   -0.3968    0.0997 H   0  0  0  0  0  0  0  0  0  0  0  0
    5.4832    1.4507   -0.7518 H   0  0  0  0  0  0  0  0  0  0  0  0
    3.5873    0.2366   -1.6458 H   0  0  0  0  0  0  0  0  0  0  0  0
    2.7613   -0.4617    1.1215 H   0  0  0  0  0  0  0  0  0  0  0  0
    3.3499    2.6664   -1.0745 H   0  0  0  0  0  0  0  0  0  0  0  0
    2.8696    2.3475    0.5901 H   0  0  0  0  0  0  0  0  0  0  0  0
   -0.5370   -3.0262   -0.4221 H   0  0  0  0  0  0  0  0  0  0  0  0
    0.5451   -3.9940    0.5810 H   0  0  0  0  0  0  0  0  0  0  0  0
    1.2221   -2.8781   -0.5997 H   0  0  0  0  0  0  0  0  0  0  0  0
   -0.6453   -1.4391    3.0305 H   0  0  0  0  0  0  0  0  0  0  0  0
   -0.4735   -3.1750    2.7312 H   0  0  0  0  0  0  0  0  0  0  0  0
   -1.6509   -2.2333    1.8045 H   0  0  0  0  0  0  0  0  0  0  0  0
    4.4888    0.8934    2.0838 H   0  0  0  0  0  0  0  0  0  0  0  0
    5.8716    0.0887    1.3237 H   0  0  0  0  0  0  0  0  0  0  0  0
    5.9247    1.8168    1.6133 H   0  0  0  0  0  0  0  0  0  0  0  0
    4.6998    3.7351    1.4568 H   0  0  0  0  0  0  0  0  0  0  0  0
    5.3625    3.9402   -0.1805 H   0  0  0  0  0  0  0  0  0  0  0  0
    3.7918    4.6386    0.2454 H   0  0  0  0  0  0  0  0  0  0  0  0
    4.9430   -3.0350   -0.0579 H   0  0  0  0  0  0  0  0  0  0  0  0
  1 10  1  0  0  0  0
  1 12  1  0  0  0  0
  2 12  2  0  0  0  0
  3 14  2  0  0  0  0
  4 20  2  0  0  0  0
  5 25  1  0  0  0  0
  5 56  1  0  0  0  0
  6 25  2  0  0  0  0
  7 13  1  0  0  0  0
  7 14  1  0  0  0  0
  7 32  1  0  0  0  0
  8 19  1  0  0  0  0
  8 20  1  0  0  0  0
  8 41  1  0  0  0  0
  9 10  1  0  0  0  0
  9 11  1  0  0  0  0
  9 12  1  0  0  0  0
  9 27  1  0  0  0  0
 10 14  1  0  0  0  0
 10 28  1  0  0  0  0
 11 16  1  0  0  0  0
 11 17  1  0  0  0  0
 11 29  1  0  0  0  0
 13 15  1  0  0  0  0
 13 20  1  0  0  0  0
 13 30  1  0  0  0  0
 15 22  1  0  0  0  0
 15 23  1  0  0  0  0
 15 31  1  0  0  0  0
 16 33  1  0  0  0  0
 16 34  1  0  0  0  0
 16 35  1  0  0  0  0
 17 36  1  0  0  0  0
 17 37  1  0  0  0  0
 17 38  1  0  0  0  0
 18 19  1  0  0  0  0
 18 21  1  0  0  0  0
 18 24  1  0  0  0  0
 18 39  1  0  0  0  0
 19 25  1  0  0  0  0
 19 40  1  0  0  0  0
 21 26  1  0  0  0  0
 21 42  1  0  0  0  0
 21 43  1  0  0  0  0
 22 47  1  0  0  0  0
 22 48  1  0  0  0  0
 22 49  1  0  0  0  0
 23 44  1  0  0  0  0
 23 45  1  0  0  0  0
 23 46  1  0  0  0  0
 24 50  1  0  0  0  0
 24 51  1  0  0  0  0
 24 52  1  0  0  0  0
 26 53  1  0  0  0  0
 26 54  1  0  0  0  0
 26 55  1  0  0  0  0
M  END
> <PUBCHEM_COMPOUND_CID>
122204527

> <PUBCHEM_CONFORMER_RMSD>
1

> <PUBCHEM_CONFORMER_DIVERSEORDER>
1
91
69
23
46
14
79
56
33
19
74
40
44
96
20
101
18
6
12
17
66
52
22
5
57
93
63
102
24
72
105
58
71
36
82
103
16
42
97
41
83
38
11
45
37
34
62
7
81
61
99
25
107
10
70
68
98
76
85
54
21
29
65
84
53
35
73
90
80
86
48
15
2
75
28
89
106
77
47
49
55
4
13
88
100
87
104
43
78
39
92
59
95
60
64
8
51
94
26
9
50
30
27
32
3
67
31

> <PUBCHEM_MMFF94_PARTIAL_CHARGES>
19
1 -0.41
10 0.31
12 0.67
13 0.36
14 0.58
19 0.36
2 -0.57
20 0.57
25 0.66
3 -0.57
32 0.37
4 -0.57
41 0.37
5 -0.65
56 0.5
6 -0.57
7 -0.73
8 -0.73
9 0.05

> <PUBCHEM_EFFECTIVE_ROTOR_COUNT>
11.6

> <PUBCHEM_PHARMACOPHORE_FEATURES>
13
1 2 acceptor
1 24 hydrophobe
1 26 hydrophobe
1 3 acceptor
1 4 acceptor
1 5 acceptor
1 6 acceptor
1 7 donor
1 8 donor
3 11 16 17 hydrophobe
3 15 22 23 hydrophobe
3 5 6 25 anion
4 1 9 10 12 rings

> <PUBCHEM_HEAVY_ATOM_COUNT>
26

> <PUBCHEM_ATOM_DEF_STEREO_COUNT>
5

> <PUBCHEM_ATOM_UDEF_STEREO_COUNT>
0

> <PUBCHEM_BOND_DEF_STEREO_COUNT>
0

> <PUBCHEM_BOND_UDEF_STEREO_COUNT>
0

> <PUBCHEM_ISOTOPIC_ATOM_COUNT>
0

> <PUBCHEM_COMPONENT_COUNT>
1

> <PUBCHEM_CACTVS_TAUTO_COUNT>
4

> <PUBCHEM_CONFORMER_ID>
0748B16F00000001

> <PUBCHEM_MMFF94_ENERGY>
37.7949

> <PUBCHEM_FEATURE_SELFOVERLAP>
66.034

> <PUBCHEM_SHAPE_FINGERPRINT>
10595046 47 18270114737915713325
10764073 3 7996602405263249227
12166972 35 18335990817453340092
12236239 1 18335422331513466183
12403259 415 18261125079186193840
13533116 47 18411421730655753614
13631057 29 18339917234391471639
14251764 38 18262801907364840029
14528608 73 18335137583454995831
14787075 74 18340483495120911681
17349148 13 16660649535583531381
17844677 252 18342745104355122853
20197701 30 18260260871647512099
21033648 29 18041003955386807904
21521721 280 18269281321371967531
22393880 68 18261949652983237957
23402539 116 18411700958974288911
23559900 14 18342176661808209050
34797466 226 17917720144532824381
4325135 7 18343018943143660485
495365 180 18272083895202305578
5104073 3 18260548884038772891
5283173 99 18412263977483818754
53794403 172 18043538411493917508
633830 44 18410846664130111404
7495541 125 17417806274805062923

> <PUBCHEM_SHAPE_MULTIPOLES>
489.89
15.31
3.35
1.25
5.41
0.9
-0.36
4.38
2.55
-1.67
-0.57
-0.54
-0.58
0.79

> <PUBCHEM_SHAPE_SELFOVERLAP>
971.233

> <PUBCHEM_SHAPE_VOLUME>
290.4

> <PUBCHEM_COORDINATE_TYPE>
2
5
10

$$$$
