122267
  -OEChem-03292013323D

 62 63  0     1  0  0  0  0  0999 V2000
   -0.3637    1.0299    0.1145 O   0  0  0  0  0  0  0  0  0  0  0  0
    0.9827   -1.7077   -1.7703 O   0  0  0  0  0  0  0  0  0  0  0  0
    5.2038   -3.2951    0.9198 O   0  0  0  0  0  0  0  0  0  0  0  0
   -1.3054   -0.9564   -0.6096 N   0  0  0  0  0  0  0  0  0  0  0  0
    1.9441   -2.1006    0.3131 N   0  0  0  0  0  0  0  0  0  0  0  0
   -1.6492    1.9543   -2.2500 N   0  0  0  0  0  0  0  0  0  0  0  0
    4.0784    2.0815    0.3393 N   0  0  0  0  0  0  0  0  0  0  0  0
    5.6841    3.8155    0.7696 N   0  0  0  0  0  0  0  0  0  0  0  0
    3.9110    4.1879   -0.6134 N   0  0  0  0  0  0  0  0  0  0  0  0
   -0.4309   -1.8415    0.1486 C   0  0  1  0  0  0  0  0  0  0  0  0
   -1.1207   -3.2000    0.1025 C   0  0  0  0  0  0  0  0  0  0  0  0
   -1.8841   -3.1657   -1.2192 C   0  0  0  0  0  0  0  0  0  0  0  0
   -2.3249   -1.7141   -1.3307 C   0  0  0  0  0  0  0  0  0  0  0  0
   -1.2407    0.4243   -0.5037 C   0  0  0  0  0  0  0  0  0  0  0  0
    0.8922   -1.8648   -0.5555 C   0  0  0  0  0  0  0  0  0  0  0  0
   -2.3304    1.1825   -1.2187 C   0  0  1  0  0  0  0  0  0  0  0  0
   -3.0920    2.0932   -0.2559 C   0  0  0  0  0  0  0  0  0  0  0  0
    3.3200   -2.1934   -0.1184 C   0  0  1  0  0  0  0  0  0  0  0  0
    4.0488   -0.8479   -0.1082 C   0  0  0  0  0  0  0  0  0  0  0  0
   -4.1264    1.3489    0.5559 C   0  0  0  0  0  0  0  0  0  0  0  0
    4.1325   -0.1805    1.2731 C   0  0  0  0  0  0  0  0  0  0  0  0
    3.9905   -3.2489    0.7333 C   0  0  0  0  0  0  0  0  0  0  0  0
   -1.3347    1.1203   -3.4018 C   0  0  0  0  0  0  0  0  0  0  0  0
    4.8243    1.1787    1.2173 C   0  0  0  0  0  0  0  0  0  0  0  0
   -5.4293    1.2192    0.0747 C   0  0  0  0  0  0  0  0  0  0  0  0
   -3.7787    0.7911    1.7862 C   0  0  0  0  0  0  0  0  0  0  0  0
   -6.3844    0.5320    0.8238 C   0  0  0  0  0  0  0  0  0  0  0  0
   -4.7337    0.1037    2.5352 C   0  0  0  0  0  0  0  0  0  0  0  0
   -6.0366   -0.0258    2.0539 C   0  0  0  0  0  0  0  0  0  0  0  0
    4.5533    3.2794    0.1947 C   0  0  0  0  0  0  0  0  0  0  0  0
   -0.3196   -1.4638    1.1710 H   0  0  0  0  0  0  0  0  0  0  0  0
   -0.4314   -4.0478    0.1602 H   0  0  0  0  0  0  0  0  0  0  0  0
   -1.8358   -3.2810    0.9304 H   0  0  0  0  0  0  0  0  0  0  0  0
   -2.7263   -3.8629   -1.2418 H   0  0  0  0  0  0  0  0  0  0  0  0
   -1.2113   -3.4213   -2.0463 H   0  0  0  0  0  0  0  0  0  0  0  0
   -2.3977   -1.3950   -2.3730 H   0  0  0  0  0  0  0  0  0  0  0  0
   -3.2863   -1.5580   -0.8294 H   0  0  0  0  0  0  0  0  0  0  0  0
   -3.0747    0.5417   -1.6960 H   0  0  0  0  0  0  0  0  0  0  0  0
    1.7493   -2.2008    1.3056 H   0  0  0  0  0  0  0  0  0  0  0  0
   -3.6139    2.8842   -0.8128 H   0  0  0  0  0  0  0  0  0  0  0  0
   -2.4111    2.6244    0.4229 H   0  0  0  0  0  0  0  0  0  0  0  0
    3.3173   -2.5856   -1.1428 H   0  0  0  0  0  0  0  0  0  0  0  0
   -2.2507    2.7162   -2.5630 H   0  0  0  0  0  0  0  0  0  0  0  0
    5.0663   -0.9842   -0.4959 H   0  0  0  0  0  0  0  0  0  0  0  0
    3.5344   -0.1765   -0.8069 H   0  0  0  0  0  0  0  0  0  0  0  0
    4.6781   -0.8242    1.9717 H   0  0  0  0  0  0  0  0  0  0  0  0
    3.1220   -0.0475    1.6781 H   0  0  0  0  0  0  0  0  0  0  0  0
    3.3439   -4.0647    1.1017 H   0  0  0  0  0  0  0  0  0  0  0  0
   -0.6286    0.3221   -3.1554 H   0  0  0  0  0  0  0  0  0  0  0  0
   -2.2345    0.6853   -3.8492 H   0  0  0  0  0  0  0  0  0  0  0  0
   -0.8559    1.7387   -4.1681 H   0  0  0  0  0  0  0  0  0  0  0  0
    5.8494    1.0443    0.8509 H   0  0  0  0  0  0  0  0  0  0  0  0
    4.8682    1.5873    2.2340 H   0  0  0  0  0  0  0  0  0  0  0  0
   -5.7119    1.6468   -0.8836 H   0  0  0  0  0  0  0  0  0  0  0  0
   -2.7675    0.8852    2.1730 H   0  0  0  0  0  0  0  0  0  0  0  0
   -7.3986    0.4304    0.4488 H   0  0  0  0  0  0  0  0  0  0  0  0
   -4.4630   -0.3311    3.4929 H   0  0  0  0  0  0  0  0  0  0  0  0
   -6.7801   -0.5614    2.6370 H   0  0  0  0  0  0  0  0  0  0  0  0
    5.9611    4.7733    0.5831 H   0  0  0  0  0  0  0  0  0  0  0  0
    6.2774    3.2828    1.3955 H   0  0  0  0  0  0  0  0  0  0  0  0
    4.2655    5.1296   -0.7390 H   0  0  0  0  0  0  0  0  0  0  0  0
    3.0603    3.9399   -1.1070 H   0  0  0  0  0  0  0  0  0  0  0  0
  1 14  2  0  0  0  0
  2 15  2  0  0  0  0
  3 22  2  0  0  0  0
  4 10  1  0  0  0  0
  4 13  1  0  0  0  0
  4 14  1  0  0  0  0
  5 15  1  0  0  0  0
  5 18  1  0  0  0  0
  5 39  1  0  0  0  0
  6 16  1  0  0  0  0
  6 23  1  0  0  0  0
  6 43  1  0  0  0  0
  7 24  1  0  0  0  0
  7 30  2  0  0  0  0
  8 30  1  0  0  0  0
  8 59  1  0  0  0  0
  8 60  1  0  0  0  0
  9 30  1  0  0  0  0
  9 61  1  0  0  0  0
  9 62  1  0  0  0  0
 10 11  1  0  0  0  0
 10 15  1  0  0  0  0
 10 31  1  0  0  0  0
 11 12  1  0  0  0  0
 11 32  1  0  0  0  0
 11 33  1  0  0  0  0
 12 13  1  0  0  0  0
 12 34  1  0  0  0  0
 12 35  1  0  0  0  0
 13 36  1  0  0  0  0
 13 37  1  0  0  0  0
 14 16  1  0  0  0  0
 16 17  1  0  0  0  0
 16 38  1  0  0  0  0
 17 20  1  0  0  0  0
 17 40  1  0  0  0  0
 17 41  1  0  0  0  0
 18 19  1  0  0  0  0
 18 22  1  0  0  0  0
 18 42  1  0  0  0  0
 19 21  1  0  0  0  0
 19 44  1  0  0  0  0
 19 45  1  0  0  0  0
 20 25  2  0  0  0  0
 20 26  1  0  0  0  0
 21 24  1  0  0  0  0
 21 46  1  0  0  0  0
 21 47  1  0  0  0  0
 22 48  1  0  0  0  0
 23 49  1  0  0  0  0
 23 50  1  0  0  0  0
 23 51  1  0  0  0  0
 24 52  1  0  0  0  0
 24 53  1  0  0  0  0
 25 27  1  0  0  0  0
 25 54  1  0  0  0  0
 26 28  2  0  0  0  0
 26 55  1  0  0  0  0
 27 29  2  0  0  0  0
 27 56  1  0  0  0  0
 28 29  1  0  0  0  0
 28 57  1  0  0  0  0
 29 58  1  0  0  0  0
M  END
> <PUBCHEM_COMPOUND_CID>
122267

> <PUBCHEM_CONFORMER_RMSD>
1.2

> <PUBCHEM_CONFORMER_DIVERSEORDER>
1
71
42
28
56
69
59
57
70
41
37
62
55
68
66
65
58
47
48
30
10
14
74
64
40
61
25
43
24
36
32
19
27
67
2
16
22
72
52
46
51
34
29
13
7
9
50
73
20
53
54
39
49
44
11
33
23
31
6
38
17
12
8
60
18
4
21
3
63
45
5
26
35
15

> <PUBCHEM_MMFF94_PARTIAL_CHARGES>
38
1 -0.57
10 0.36
13 0.3
14 0.57
15 0.57
16 0.33
17 0.14
18 0.36
2 -0.57
20 -0.14
22 0.45
23 0.27
24 0.25
25 -0.15
26 -0.15
27 -0.15
28 -0.15
29 -0.15
3 -0.57
30 0.55
39 0.37
4 -0.66
43 0.36
48 0.06
5 -0.73
54 0.15
55 0.15
56 0.15
57 0.15
58 0.15
59 0.4
6 -0.9
60 0.4
61 0.4
62 0.4
7 -0.7
8 -0.85
9 -0.85

> <PUBCHEM_EFFECTIVE_ROTOR_COUNT>
14

> <PUBCHEM_PHARMACOPHORE_FEATURES>
11
1 1 acceptor
1 2 acceptor
1 3 acceptor
1 5 donor
1 6 cation
1 6 donor
1 8 donor
1 9 donor
4 7 8 9 30 cation
5 4 10 11 12 13 rings
6 20 25 26 27 28 29 rings

> <PUBCHEM_HEAVY_ATOM_COUNT>
30

> <PUBCHEM_ATOM_DEF_STEREO_COUNT>
3

> <PUBCHEM_ATOM_UDEF_STEREO_COUNT>
0

> <PUBCHEM_BOND_DEF_STEREO_COUNT>
0

> <PUBCHEM_BOND_UDEF_STEREO_COUNT>
0

> <PUBCHEM_ISOTOPIC_ATOM_COUNT>
0

> <PUBCHEM_COMPONENT_COUNT>
1

> <PUBCHEM_CACTVS_TAUTO_COUNT>
8

> <PUBCHEM_CONFORMER_ID>
0001DD9B00000001

> <PUBCHEM_MMFF94_ENERGY>
70.2073

> <PUBCHEM_FEATURE_SELFOVERLAP>
55.878

> <PUBCHEM_SHAPE_FINGERPRINT>
10429389 16 11167949026295782275
11578080 2 16341768138599337831
12422481 6 18187369809530966461
13398642 44 18116723000523323548
13583140 156 17533480262550999794
14251764 75 18196657513227267184
14787075 74 17775280522489697075
14790565 3 18342175553411468455
14955137 171 18048603616512386462
15183329 4 9583509907049899819
16760501 71 18411138034922527064
1768 85 18409729560416816552
19309040 13 17775288317649948844
21033648 29 17971176042159462614
21315764 268 18335701581496715891
21365058 113 17769960994950663038
21458453 9 17970653937302939315
21623110 236 18339632421581256333
21703447 108 7781512590985320454
21987483 16 18261677069132942243
23559900 14 17241618217083965507
392239 28 18199474277328215339
5252454 2 18342169029445933792

> <PUBCHEM_SHAPE_MULTIPOLES>
569.89
13.9
4.74
2.15
0.39
0.89
-0.97
7.42
9.2
8.61
-0.43
-2.53
0.52
-0.28

> <PUBCHEM_SHAPE_SELFOVERLAP>
1166.399

> <PUBCHEM_SHAPE_VOLUME>
326.4

> <PUBCHEM_COORDINATE_TYPE>
2
5
10

$$$$
