REMARK  Name = 122204528
REMARK  9 active torsions:
REMARK  status: ('A' for Active; 'I' for Inactive)
REMARK    1  A    between atoms: CA_1  and  N_3
REMARK    2  A    between atoms: CA_1  and  C_16
REMARK    3  A    between atoms: CA_1  and  CB_26
REMARK    4  A    between atoms: C_4  and  C_9
REMARK    5  A    between atoms: C_8  and  C_11
REMARK    6  A    between atoms: N_15  and  CA_18
REMARK    7  A    between atoms: CA_18  and  CB_19
REMARK    8  A    between atoms: CA_18  and  C_23
REMARK    9  A    between atoms: C_23  and  O_24
REMARK                            x       y       z     vdW  Elec       q    Type
REMARK                         _______ _______ _______ _____ _____    ______ ____
ROOT
ATOM      1  CA  UNL     1       0.509  -0.355   0.573  0.00  0.00    +0.149 C 
ENDROOT
BRANCH   1   3
ATOM      2  O   UNL     1      -1.548   1.524   1.272  0.00  0.00    -0.271 OA
ATOM      3  N   UNL     1      -0.768  -0.190  -0.074  0.00  0.00    -0.295 N 
ATOM      4  C   ACE A   0      -1.713   0.747   0.326  0.00  0.00    +0.264 C 
ATOM      5  H   UNL     1      -0.982  -0.772  -0.839  0.00  0.00    +0.150 HD
BRANCH   4   9
ATOM      6  O   UNL     1      -3.688   2.004  -0.537  0.00  0.00    -0.442 OA
ATOM      7  O   UNL     1      -5.903   2.012   0.139  0.00  0.00    -0.250 OA
ATOM      8  C   UNL     1      -4.245   0.055   0.088  0.00  0.00    +0.148 C 
ATOM      9  C   UNL     1      -3.001   0.720  -0.519  0.00  0.00    +0.254 C 
ATOM     10  C   UNL     1      -4.841   1.467  -0.060  0.00  0.00    +0.321 C 
BRANCH   8  11
ATOM     11  C   UNL     1      -4.910  -1.029  -0.732  0.00  0.00    +0.015 C 
ATOM     12  C   UNL     1      -6.204  -1.487  -0.050  0.00  0.00    +0.001 C 
ATOM     13  C   UNL     1      -3.985  -2.233  -0.918  0.00  0.00    +0.001 C 
ENDBRANCH   8  11
ENDBRANCH   4   9
ENDBRANCH   1   3
BRANCH   1  16
ATOM     14  O   UNL     1       1.362   0.293  -1.603  0.00  0.00    -0.273 OA
ATOM     15  N   UNL     1       2.856   0.065   0.158  0.00  0.00    -0.295 N 
ATOM     16  C   UNL     1       1.599   0.024  -0.427  0.00  0.00    +0.241 C 
ATOM     17  H   UNL     1       2.939  -0.170   1.111  0.00  0.00    +0.150 HD
BRANCH  15  18
ATOM     18  CA  UNL     1       4.050   0.435  -0.567  0.00  0.00    +0.171 C 
BRANCH  18  19
ATOM     19  CB  UNL     1       4.676   1.704   0.050  0.00  0.00    +0.029 C 
ATOM     20  CG1 UNL     1       5.267   1.443   1.438  0.00  0.00    +0.002 C 
ATOM     21  CG2 UNL     1       3.708   2.890   0.101  0.00  0.00    +0.002 C 
ENDBRANCH  18  19
BRANCH  18  23
ATOM     22  OXT UNL     1       6.035  -0.730  -1.345  0.00  0.00    -0.248 OA
ATOM     23  C   UNL     1       5.007  -0.749  -0.678  0.00  0.00    +0.332 C 
BRANCH  23  24
ATOM     24  O   UNL     1       4.606  -1.862  -0.015  0.00  0.00    -0.479 OA
ATOM     25  H   UNL     1       3.815  -1.849   0.488  0.00  0.00    +0.295 HD
ENDBRANCH  23  24
ENDBRANCH  18  23
ENDBRANCH  15  18
ENDBRANCH   1  16
BRANCH   1  26
ATOM     26  CB  UNL     1       0.715  -1.770   1.154  0.00  0.00    +0.027 C 
ATOM     27  CG1 UNL     1       0.766  -2.819   0.040  0.00  0.00    +0.002 C 
ATOM     28  CG2 UNL     1      -0.349  -2.158   2.186  0.00  0.00    +0.002 C 
ENDBRANCH   1  26
TORSDOF 9
