REMARK  Name = 122228020
REMARK  7 active torsions:
REMARK  status: ('A' for Active; 'I' for Inactive)
REMARK    1  A    between atoms: C_6  and  C_23
REMARK    2  A    between atoms: C_7  and  O_17
REMARK    3  A    between atoms: C_15  and  C_20
REMARK    4  A    between atoms: C_20  and  O_21
REMARK    5  A    between atoms: C_23  and  C_24
REMARK    6  A    between atoms: C_24  and  C_25
REMARK    7  A    between atoms: C_25  and  C_26
REMARK                            x       y       z     vdW  Elec       q    Type
REMARK                         _______ _______ _______ _____ _____    ______ ____
ROOT
ATOM      1  S   UNL     1      -2.161  -3.572  -0.213  0.00  0.00    -0.109 S 
ATOM      2  O   UNL     1       1.201  -0.196  -0.561  0.00  0.00    -0.479 OA
ATOM      3  O   UNL     1      -0.405   3.367   0.737  0.00  0.00    -0.289 OA
ATOM      4  O   UNL     1      -2.950   1.728   0.583  0.00  0.00    -0.269 OA
ATOM      5  N   UNL     1      -2.351  -0.466  -0.141  0.00  0.00    -0.243 N 
ATOM      6  C   UNL     1       2.021   0.788   0.102  0.00  0.00    +0.197 C 
ATOM      7  C   UNL     1       1.548   2.236  -0.167  0.00  0.00    +0.180 C 
ATOM      8  C   UNL     1      -1.109  -1.096  -0.581  0.00  0.00    +0.148 C 
ATOM      9  C   UNL     1      -0.136   0.003  -0.338  0.00  0.00    +0.142 C 
ATOM     10  C   UNL     1      -0.715   1.137   0.061  0.00  0.00    +0.122 C 
ATOM     11  C   UNL     1       0.089   2.346   0.270  0.00  0.00    +0.207 C 
ATOM     12  C   UNL     1      -2.159   0.884   0.197  0.00  0.00    +0.259 C 
ATOM     13  C   UNL     1      -0.838  -2.383   0.180  0.00  0.00    +0.090 C 
ATOM     14  C   UNL     1       1.661   2.666  -1.631  0.00  0.00    +0.041 C 
ATOM     15  C   UNL     1      -3.516  -1.200  -0.043  0.00  0.00    +0.137 C 
ATOM     16  C   UNL     1      -3.556  -2.544  -0.088  0.00  0.00    +0.052 C 
ENDROOT
BRANCH   7  17
ATOM     17  O   UNL     1       2.307   3.128   0.639  0.00  0.00    -0.376 OA
ATOM     18  H   UNL     1       2.239   2.861   1.569  0.00  0.00    +0.211 HD
ENDBRANCH   7  17
BRANCH  15  20
ATOM     19  O   UNL     1      -5.553  -0.723   1.085  0.00  0.00    -0.244 OA
ATOM     20  C   UNL     1      -4.820  -0.548   0.131  0.00  0.00    +0.353 C 
BRANCH  20  21
ATOM     21  O   UNL     1      -5.062   0.261  -0.920  0.00  0.00    -0.476 OA
ATOM     22  H   UNL     1      -4.433   0.331  -1.612  0.00  0.00    +0.295 HD
ENDBRANCH  20  21
ENDBRANCH  15  20
BRANCH   6  23
ATOM     23  C   UNL     1       3.465   0.533  -0.327  0.00  0.00    +0.046 C 
BRANCH  23  24
ATOM     24  C   UNL     1       4.029  -0.715   0.346  0.00  0.00    +0.004 C 
BRANCH  24  25
ATOM     25  C   UNL     1       5.485  -0.949  -0.060  0.00  0.00    +0.000 C 
BRANCH  25  26
ATOM     26  C   UNL     1       6.045  -2.216   0.584  0.00  0.00    +0.000 C 
ATOM     27  C   UNL     1       7.482  -2.471   0.156  0.00  0.00    +0.000 C 
ENDBRANCH  25  26
ENDBRANCH  24  25
ENDBRANCH  23  24
ENDBRANCH   6  23
TORSDOF 7
