REMARK  Name = 122253
REMARK  8 active torsions:
REMARK  status: ('A' for Active; 'I' for Inactive)
REMARK    1  A    between atoms: C_2  and  N_8
REMARK    2  A    between atoms: C_3  and  O_12
REMARK    3  A    between atoms: C_4  and  O_14
REMARK    4  A    between atoms: C_5  and  C_24
REMARK    5  A    between atoms: C_6  and  O_16
REMARK    6  A    between atoms: O_16  and  C_17
REMARK    7  A    between atoms: C_17  and  C_18
REMARK    8  A    between atoms: C_24  and  O_25
REMARK                            x       y       z     vdW  Elec       q    Type
REMARK                         _______ _______ _______ _____ _____    ______ ____
ROOT
ATOM      1  O   UNL     1      -1.040   1.347   1.118  0.00  0.00    -0.327 OA
ATOM      2  C   UNL     1      -1.964  -0.577  -0.062  0.00  0.00    +0.158 C 
ATOM      3  C   UNL     1      -2.073   0.264  -1.339  0.00  0.00    +0.162 C 
ATOM      4  C   UNL     1      -2.202   1.752  -0.990  0.00  0.00    +0.169 C 
ATOM      5  C   UNL     1      -1.063   2.175  -0.054  0.00  0.00    +0.176 C 
ATOM      6  C   UNL     1      -0.842  -0.042   0.839  0.00  0.00    +0.257 C 
ENDROOT
BRANCH   2   8
ATOM      7  O   UNL     1      -2.888  -2.868   1.465  0.00  0.00    -0.275 OA
ATOM      8  N   UNL     1      -1.764  -1.975  -0.368  0.00  0.00    -0.299 N 
ATOM      9  C   UNL     1      -2.246  -3.002   0.426  0.00  0.00    +0.223 C 
ATOM     10  C   UNL     1      -1.920  -4.360  -0.136  0.00  0.00    +0.095 C 
ATOM     11  H   UNL     1      -1.261  -2.209  -1.182  0.00  0.00    +0.150 HD
ENDBRANCH   2   8
BRANCH   3  12
ATOM     12  O   UNL     1      -3.210  -0.153  -2.091  0.00  0.00    -0.380 OA
ATOM     13  H   UNL     1      -3.126  -1.094  -2.310  0.00  0.00    +0.211 HD
ENDBRANCH   3  12
BRANCH   4  14
ATOM     14  O   UNL     1      -3.463   1.961  -0.350  0.00  0.00    -0.379 OA
ATOM     15  H   UNL     1      -4.178   1.691  -0.948  0.00  0.00    +0.211 HD
ENDBRANCH   4  14
BRANCH   6  16
ATOM     16  O   UNL     1       0.431  -0.282   0.241  0.00  0.00    -0.324 OA
BRANCH  16  17
ATOM     17  C   UNL     1       1.485   0.206   1.057  0.00  0.00    +0.171 C 
BRANCH  17  18
ATOM     18  C   UNL     1       2.796  -0.072   0.382  0.00  0.00    +0.007 C 
ATOM     19  C   UNL     1       3.459  -1.269   0.632  0.00  0.00    -0.002 C 
ATOM     20  C   UNL     1       3.336   0.869  -0.487  0.00  0.00    -0.002 C 
ATOM     21  C   UNL     1       4.678  -1.527   0.005  0.00  0.00    -0.000 C 
ATOM     22  C   UNL     1       4.555   0.611  -1.114  0.00  0.00    -0.000 C 
ATOM     23  C   UNL     1       5.226  -0.587  -0.868  0.00  0.00    -0.000 C 
ENDBRANCH  17  18
ENDBRANCH  16  17
ENDBRANCH   6  16
BRANCH   5  24
ATOM     24  C   UNL     1      -1.187   3.620   0.417  0.00  0.00    +0.169 C 
BRANCH  24  25
ATOM     25  O   UNL     1      -0.102   3.909   1.279  0.00  0.00    -0.379 OA
ATOM     26  H   UNL     1      -0.169   4.826   1.587  0.00  0.00    +0.211 HD
ENDBRANCH  24  25
ENDBRANCH   5  24
TORSDOF 8
