REMARK  Name = 122219891
REMARK  9 active torsions:
REMARK  status: ('A' for Active; 'I' for Inactive)
REMARK    1  A    between atoms: O_1  and  C_5
REMARK    2  A    between atoms: O_1  and  C_17
REMARK    3  A    between atoms: C_9  and  C_13
REMARK    4  A    between atoms: C_13  and  O_14
REMARK    5  A    between atoms: C_18  and  O_22
REMARK    6  A    between atoms: C_19  and  O_24
REMARK    7  A    between atoms: C_20  and  O_26
REMARK    8  A    between atoms: C_21  and  C_28
REMARK    9  A    between atoms: C_28  and  O_29
REMARK                            x       y       z     vdW  Elec       q    Type
REMARK                         _______ _______ _______ _____ _____    ______ ____
ROOT
ATOM      1  O   UNL     1      -0.151  -1.140  -0.826  0.00  0.00    -0.331 OA
ENDROOT
BRANCH   1   5
ATOM      2  O   UNL     1       4.140  -1.013   0.212  0.00  0.00    -0.452 OA
ATOM      3  O   UNL     1       4.610   1.061   1.062  0.00  0.00    -0.250 OA
ATOM      4  C   UNL     1       2.167  -0.469  -0.983  0.00  0.00    +0.089 C 
ATOM      5  C   UNL     1       0.984  -0.784  -0.036  0.00  0.00    +0.122 C 
ATOM      6  C   UNL     1       3.195  -1.567  -0.719  0.00  0.00    +0.172 C 
ATOM      7  C   UNL     1       1.437  -1.962   0.842  0.00  0.00    +0.031 C 
ATOM      8  C   UNL     1       2.434  -2.703  -0.051  0.00  0.00    +0.046 C 
ATOM      9  C   UNL     1       2.971   0.791  -0.708  0.00  0.00    +0.203 C 
ATOM     10  C   UNL     1       0.324  -2.863   1.354  0.00  0.00    +0.003 C 
ATOM     11  C   UNL     1       3.981   0.341   0.301  0.00  0.00    +0.327 C 
BRANCH   9  13
ATOM     12  O   UNL     1       2.243   2.545   0.760  0.00  0.00    -0.250 OA
ATOM     13  C   UNL     1       2.149   1.971  -0.317  0.00  0.00    +0.328 C 
BRANCH  13  14
ATOM     14  O   UNL     1       1.300   2.293  -1.334  0.00  0.00    -0.444 OA
ATOM     15  C   UNL     1       0.447   3.417  -1.091  0.00  0.00    +0.256 C 
ENDBRANCH  13  14
ENDBRANCH   9  13
ENDBRANCH   1   5
BRANCH   1  17
ATOM     16  O   UNL     1      -1.617  -0.392   0.829  0.00  0.00    -0.326 OA
ATOM     17  C   UNL     1      -1.263  -0.288  -0.548  0.00  0.00    +0.266 C 
ATOM     18  C   UNL     1      -2.427  -0.730  -1.435  0.00  0.00    +0.196 C 
ATOM     19  C   UNL     1      -3.707   0.034  -1.095  0.00  0.00    +0.172 C 
ATOM     20  C   UNL     1      -3.966   0.035   0.412  0.00  0.00    +0.169 C 
ATOM     21  C   UNL     1      -2.711   0.457   1.179  0.00  0.00    +0.176 C 
BRANCH  18  22
ATOM     22  O   UNL     1      -2.073  -0.478  -2.795  0.00  0.00    -0.378 OA
ATOM     23  H   UNL     1      -1.261  -0.963  -3.013  0.00  0.00    +0.211 HD
ENDBRANCH  18  22
BRANCH  19  24
ATOM     24  O   UNL     1      -4.819  -0.593  -1.735  0.00  0.00    -0.379 OA
ATOM     25  H   UNL     1      -4.676  -0.605  -2.694  0.00  0.00    +0.211 HD
ENDBRANCH  19  24
BRANCH  20  26
ATOM     26  O   UNL     1      -5.026   0.940   0.707  0.00  0.00    -0.379 OA
ATOM     27  H   UNL     1      -5.823   0.675   0.222  0.00  0.00    +0.211 HD
ENDBRANCH  20  26
BRANCH  21  28
ATOM     28  C   UNL     1      -2.910   0.353   2.688  0.00  0.00    +0.169 C 
BRANCH  28  29
ATOM     29  O   UNL     1      -1.711   0.747   3.329  0.00  0.00    -0.379 OA
ATOM     30  H   UNL     1      -1.823   0.685   4.290  0.00  0.00    +0.211 HD
ENDBRANCH  28  29
ENDBRANCH  21  28
ENDBRANCH   1  17
TORSDOF 9
