REMARK  Name = 122216057
REMARK  7 active torsions:
REMARK  status: ('A' for Active; 'I' for Inactive)
REMARK    1  A    between atoms: C_3  and  C_19
REMARK    2  A    between atoms: C_4  and  O_16
REMARK    3  A    between atoms: C_8  and  C_24
REMARK    4  A    between atoms: C_13  and  O_22
REMARK    5  A    between atoms: C_19  and  O_20
REMARK    6  A    between atoms: C_24  and  C_26
REMARK    7  A    between atoms: C_26  and  O_27
REMARK                            x       y       z     vdW  Elec       q    Type
REMARK                         _______ _______ _______ _____ _____    ______ ____
ROOT
ATOM      1  O   UNL     1      -1.635  -1.110  -0.015  0.00  0.00    -0.355 OA
ATOM      2  O   UNL     1       1.763  -2.635   0.109  0.00  0.00    -0.289 OA
ATOM      3  C   UNL     1       0.563   0.703  -0.522  0.00  0.00    +0.142 C 
ATOM      4  C   UNL     1       0.583  -0.784  -1.019  0.00  0.00    +0.181 C 
ATOM      5  C   UNL     1      -0.566   0.983   0.493  0.00  0.00    +0.048 C 
ATOM      6  C   UNL     1      -0.814  -1.412  -1.142  0.00  0.00    +0.147 C 
ATOM      7  C   UNL     1       1.887   0.828   0.205  0.00  0.00    -0.004 C 
ATOM      8  C   UNL     1      -1.872   0.291   0.115  0.00  0.00    +0.127 C 
ATOM      9  C   UNL     1       1.590  -1.446  -0.083  0.00  0.00    +0.203 C 
ATOM     10  C   UNL     1       2.433  -0.416   0.510  0.00  0.00    +0.067 C 
ATOM     11  C   UNL     1      -0.839  -2.928  -1.322  0.00  0.00    +0.035 C 
ATOM     12  C   UNL     1       2.522   1.979   0.649  0.00  0.00    -0.003 C 
ATOM     13  C   UNL     1       3.598  -0.571   1.239  0.00  0.00    +0.136 C 
ATOM     14  C   UNL     1       3.707   1.854   1.381  0.00  0.00    +0.003 C 
ATOM     15  C   UNL     1       4.240   0.588   1.675  0.00  0.00    +0.037 C 
ENDROOT
BRANCH   4  16
ATOM     16  O   UNL     1       1.253  -0.869  -2.285  0.00  0.00    -0.376 OA
ATOM     17  H   UNL     1       0.697  -0.471  -2.973  0.00  0.00    +0.211 HD
ENDBRANCH   4  16
BRANCH   3  19
ATOM     18  O   UNL     1       1.347   2.450  -2.009  0.00  0.00    -0.250 OA
ATOM     19  C   UNL     1       0.473   1.662  -1.681  0.00  0.00    +0.319 C 
BRANCH  19  20
ATOM     20  O   UNL     1      -0.718   1.535  -2.315  0.00  0.00    -0.480 OA
ATOM     21  H   UNL     1      -1.347   0.910  -2.012  0.00  0.00    +0.295 HD
ENDBRANCH  19  20
ENDBRANCH   3  19
BRANCH  13  22
ATOM     22  O   UNL     1       4.119  -1.790   1.521  0.00  0.00    -0.505 OA
ATOM     23  H   UNL     1       3.684  -2.566   1.225  0.00  0.00    +0.292 HD
ENDBRANCH  13  22
BRANCH   8  24
ATOM     24  C   UNL     1      -2.928   0.485   1.196  0.00  0.00    +0.139 C 
BRANCH  24  26
ATOM     25  O   UNL     1      -4.597  -0.133  -0.460  0.00  0.00    -0.250 OA
ATOM     26  C   UNL     1      -4.318   0.202   0.683  0.00  0.00    +0.320 C 
BRANCH  26  27
ATOM     27  O   UNL     1      -5.208   0.384   1.704  0.00  0.00    -0.444 OA
ATOM     28  C   UNL     1      -6.581   0.152   1.374  0.00  0.00    +0.256 C 
ENDBRANCH  26  27
ENDBRANCH  24  26
ENDBRANCH   8  24
TORSDOF 7
