1222
  -OEChem-03292013323D

 26 26  0     1  0  0  0  0  0999 V2000
    2.5020   -0.3518   -1.8859 O   0  0  0  0  0  0  0  0  0  0  0  0
    3.6463   -1.4101   -0.2480 O   0  0  0  0  0  0  0  0  0  0  0  0
   -4.1733    0.9534   -0.4404 O   0  0  0  0  0  0  0  0  0  0  0  0
   -4.1837   -1.2552    0.0968 O   0  0  0  0  0  0  0  0  0  0  0  0
    2.5638    0.0612    1.7608 N   0  0  0  0  0  0  0  0  0  0  0  0
    2.1279    0.3937    0.3935 C   0  0  1  0  0  0  0  0  0  0  0  0
    0.6081    0.2328    0.2655 C   0  0  0  0  0  0  0  0  0  0  0  0
    2.6508    1.8127    0.0997 C   0  0  0  0  0  0  0  0  0  0  0  0
    0.0574   -1.0034    0.5053 C   0  0  0  0  0  0  0  0  0  0  0  0
   -0.1398    1.3309   -0.0857 C   0  0  0  0  0  0  0  0  0  0  0  0
    2.8573   -0.5346   -0.5871 C   0  0  0  0  0  0  0  0  0  0  0  0
   -1.3247   -1.1500    0.3868 C   0  0  0  0  0  0  0  0  0  0  0  0
   -1.5219    1.1843   -0.2040 C   0  0  0  0  0  0  0  0  0  0  0  0
   -2.1144   -0.0562    0.0324 C   0  0  0  0  0  0  0  0  0  0  0  0
   -3.5557   -0.2079   -0.0898 C   0  0  0  0  0  0  0  0  0  0  0  0
    3.7457    1.8526    0.1776 H   0  0  0  0  0  0  0  0  0  0  0  0
    2.2542    2.5554    0.8029 H   0  0  0  0  0  0  0  0  0  0  0  0
    2.4116    2.1414   -0.9191 H   0  0  0  0  0  0  0  0  0  0  0  0
    0.6607   -1.8629    0.7802 H   0  0  0  0  0  0  0  0  0  0  0  0
    0.2703    2.3144   -0.2783 H   0  0  0  0  0  0  0  0  0  0  0  0
    2.1544    0.7217    2.4214 H   0  0  0  0  0  0  0  0  0  0  0  0
    3.5737    0.1782    1.8423 H   0  0  0  0  0  0  0  0  0  0  0  0
   -1.7670   -2.1248    0.5749 H   0  0  0  0  0  0  0  0  0  0  0  0
   -2.0994    2.0617   -0.4817 H   0  0  0  0  0  0  0  0  0  0  0  0
    2.9618   -0.9802   -2.4823 H   0  0  0  0  0  0  0  0  0  0  0  0
   -5.1447    0.8407   -0.5195 H   0  0  0  0  0  0  0  0  0  0  0  0
  1 11  1  0  0  0  0
  1 25  1  0  0  0  0
  2 11  2  0  0  0  0
  3 15  1  0  0  0  0
  3 26  1  0  0  0  0
  4 15  2  0  0  0  0
  5  6  1  0  0  0  0
  5 21  1  0  0  0  0
  5 22  1  0  0  0  0
  6  7  1  0  0  0  0
  6  8  1  0  0  0  0
  6 11  1  0  0  0  0
  7  9  2  0  0  0  0
  7 10  1  0  0  0  0
  8 16  1  0  0  0  0
  8 17  1  0  0  0  0
  8 18  1  0  0  0  0
  9 12  1  0  0  0  0
  9 19  1  0  0  0  0
 10 13  2  0  0  0  0
 10 20  1  0  0  0  0
 12 14  2  0  0  0  0
 12 23  1  0  0  0  0
 13 14  1  0  0  0  0
 13 24  1  0  0  0  0
 14 15  1  0  0  0  0
M  END
> <PUBCHEM_COMPOUND_CID>
1222

> <PUBCHEM_CONFORMER_RMSD>
0.6

> <PUBCHEM_CONFORMER_DIVERSEORDER>
1
10
11
5
2
13
7
8
9
12
3
4
6

> <PUBCHEM_MMFF94_PARTIAL_CHARGES>
22
1 -0.65
10 -0.15
11 0.66
12 -0.15
13 -0.15
14 0.09
15 0.63
19 0.15
2 -0.57
20 0.15
21 0.36
22 0.36
23 0.15
24 0.15
25 0.5
26 0.5
3 -0.65
4 -0.57
5 -0.99
6 0.47
7 -0.14
9 -0.15

> <PUBCHEM_EFFECTIVE_ROTOR_COUNT>
3

> <PUBCHEM_PHARMACOPHORE_FEATURES>
9
1 1 acceptor
1 2 acceptor
1 3 acceptor
1 4 acceptor
1 5 cation
1 5 donor
3 1 2 11 anion
3 3 4 15 anion
6 7 9 10 12 13 14 rings

> <PUBCHEM_HEAVY_ATOM_COUNT>
15

> <PUBCHEM_ATOM_DEF_STEREO_COUNT>
0

> <PUBCHEM_ATOM_UDEF_STEREO_COUNT>
1

> <PUBCHEM_BOND_DEF_STEREO_COUNT>
0

> <PUBCHEM_BOND_UDEF_STEREO_COUNT>
0

> <PUBCHEM_ISOTOPIC_ATOM_COUNT>
0

> <PUBCHEM_COMPONENT_COUNT>
1

> <PUBCHEM_CACTVS_TAUTO_COUNT>
1

> <PUBCHEM_CONFORMER_ID>
000004C600000001

> <PUBCHEM_MMFF94_ENERGY>
43.8063

> <PUBCHEM_FEATURE_SELFOVERLAP>
45.79

> <PUBCHEM_SHAPE_FINGERPRINT>
11132069 177 18410565193801912777
11543360 7 15068624941589399667
12032990 46 18409452509546382595
12932764 1 17458336433958032865
13296908 3 18342175587697035397
13538477 17 17023188270415315938
13705890 14 17846778537464030691
13760787 19 16515686632933164779
14115302 16 17603591837320021106
14144814 61 18186796998232471577
14252887 29 18339365282894130417
14325111 11 18408318917274024001
14993402 34 16877666764012612647
15219456 202 18343863342098136688
15536298 74 18412544340095661209
16945 1 18335419041278237201
18175812 5 18343301466065738285
18186145 218 18113612387538272605
18522853 295 18408324375876725010
19026448 4 17561079216015982177
19026448 5 15913326914259946393
19422 9 18273220806856512969
200 152 17346596348434329711
20201158 50 18202007594735922574
20279233 1 18410014372593444802
20559304 39 17895462649178933184
20645476 183 16950572111438149155
20645477 70 18060138730179427263
23402539 116 18411127035458450022
23559900 14 18411417302586675686
2748010 2 18118690048025294963
3286 77 17346595253328426178
474 4 15937832919630287436
4990 188 18342741793241078495
57812782 119 17489306360776488343
581208 293 18130500924484257774
633830 44 18408317787802938501
69090 78 18131624612710043327
7364860 26 18341612676636209888
8030462 33 17312822654217339224

> <PUBCHEM_SHAPE_MULTIPOLES>
280.23
6.84
1.51
1.03
4.04
0.24
0.07
-0.91
0.8
-0.27
0.01
-0.98
-0.11
0.48

> <PUBCHEM_SHAPE_SELFOVERLAP>
592.195

> <PUBCHEM_SHAPE_VOLUME>
156.8

> <PUBCHEM_COORDINATE_TYPE>
2
5
10

$$$$
