122216057
  -OEChem-03292013293D

 43 45  0     1  0  0  0  0  0999 V2000
   -1.6355   -1.1101   -0.0150 O   0  0  0  0  0  0  0  0  0  0  0  0
    1.2530   -0.8691   -2.2853 O   0  0  0  0  0  0  0  0  0  0  0  0
    1.7631   -2.6354    0.1094 O   0  0  0  0  0  0  0  0  0  0  0  0
   -0.7183    1.5352   -2.3152 O   0  0  0  0  0  0  0  0  0  0  0  0
    1.3468    2.4501   -2.0089 O   0  0  0  0  0  0  0  0  0  0  0  0
    4.1193   -1.7902    1.5207 O   0  0  0  0  0  0  0  0  0  0  0  0
   -5.2076    0.3840    1.7041 O   0  0  0  0  0  0  0  0  0  0  0  0
   -4.5971   -0.1334   -0.4599 O   0  0  0  0  0  0  0  0  0  0  0  0
    0.5630    0.7026   -0.5225 C   0  0  1  0  0  0  0  0  0  0  0  0
    0.5828   -0.7839   -1.0191 C   0  0  1  0  0  0  0  0  0  0  0  0
   -0.5656    0.9826    0.4928 C   0  0  0  0  0  0  0  0  0  0  0  0
   -0.8137   -1.4123   -1.1424 C   0  0  1  0  0  0  0  0  0  0  0  0
    1.8866    0.8277    0.2048 C   0  0  0  0  0  0  0  0  0  0  0  0
   -1.8720    0.2912    0.1150 C   0  0  2  0  0  0  0  0  0  0  0  0
    1.5899   -1.4462   -0.0826 C   0  0  0  0  0  0  0  0  0  0  0  0
    2.4329   -0.4157    0.5104 C   0  0  0  0  0  0  0  0  0  0  0  0
    0.4727    1.6617   -1.6807 C   0  0  0  0  0  0  0  0  0  0  0  0
   -0.8394   -2.9282   -1.3222 C   0  0  0  0  0  0  0  0  0  0  0  0
   -2.9277    0.4852    1.1958 C   0  0  0  0  0  0  0  0  0  0  0  0
    2.5215    1.9794    0.6490 C   0  0  0  0  0  0  0  0  0  0  0  0
    3.5981   -0.5710    1.2386 C   0  0  0  0  0  0  0  0  0  0  0  0
    3.7067    1.8537    1.3815 C   0  0  0  0  0  0  0  0  0  0  0  0
    4.2396    0.5876    1.6750 C   0  0  0  0  0  0  0  0  0  0  0  0
   -4.3184    0.2024    0.6830 C   0  0  0  0  0  0  0  0  0  0  0  0
   -6.5808    0.1522    1.3737 C   0  0  0  0  0  0  0  0  0  0  0  0
   -0.7289    2.0632    0.6000 H   0  0  0  0  0  0  0  0  0  0  0  0
   -0.2681    0.6146    1.4856 H   0  0  0  0  0  0  0  0  0  0  0  0
   -1.3085   -1.0080   -2.0359 H   0  0  0  0  0  0  0  0  0  0  0  0
   -2.2682    0.6808   -0.8270 H   0  0  0  0  0  0  0  0  0  0  0  0
   -0.5652   -3.4485   -0.3992 H   0  0  0  0  0  0  0  0  0  0  0  0
   -0.1787   -3.2509   -2.1319 H   0  0  0  0  0  0  0  0  0  0  0  0
   -1.8577   -3.2578   -1.5589 H   0  0  0  0  0  0  0  0  0  0  0  0
   -2.9229    1.5255    1.5416 H   0  0  0  0  0  0  0  0  0  0  0  0
   -2.7365   -0.1838    2.0428 H   0  0  0  0  0  0  0  0  0  0  0  0
    0.6303   -0.5962   -2.9801 H   0  0  0  0  0  0  0  0  0  0  0  0
    2.1061    2.9641    0.4624 H   0  0  0  0  0  0  0  0  0  0  0  0
    4.2158    2.7452    1.7381 H   0  0  0  0  0  0  0  0  0  0  0  0
    5.1601    0.5191    2.2494 H   0  0  0  0  0  0  0  0  0  0  0  0
   -0.7973    2.1526   -3.0733 H   0  0  0  0  0  0  0  0  0  0  0  0
    3.5485   -2.4793    1.1418 H   0  0  0  0  0  0  0  0  0  0  0  0
   -6.9041    0.8453    0.5913 H   0  0  0  0  0  0  0  0  0  0  0  0
   -6.7238   -0.8848    1.0554 H   0  0  0  0  0  0  0  0  0  0  0  0
   -7.1808    0.3301    2.2701 H   0  0  0  0  0  0  0  0  0  0  0  0
  1 12  1  0  0  0  0
  1 14  1  0  0  0  0
  2 10  1  0  0  0  0
  2 35  1  0  0  0  0
  3 15  2  0  0  0  0
  4 17  1  0  0  0  0
  4 39  1  0  0  0  0
  5 17  2  0  0  0  0
  6 21  1  0  0  0  0
  6 40  1  0  0  0  0
  7 24  1  0  0  0  0
  7 25  1  0  0  0  0
  8 24  2  0  0  0  0
  9 10  1  0  0  0  0
  9 11  1  0  0  0  0
  9 13  1  0  0  0  0
  9 17  1  0  0  0  0
 10 12  1  0  0  0  0
 10 15  1  0  0  0  0
 11 14  1  0  0  0  0
 11 26  1  0  0  0  0
 11 27  1  0  0  0  0
 12 18  1  0  0  0  0
 12 28  1  0  0  0  0
 13 16  2  0  0  0  0
 13 20  1  0  0  0  0
 14 19  1  0  0  0  0
 14 29  1  0  0  0  0
 15 16  1  0  0  0  0
 16 21  1  0  0  0  0
 18 30  1  0  0  0  0
 18 31  1  0  0  0  0
 18 32  1  0  0  0  0
 19 24  1  0  0  0  0
 19 33  1  0  0  0  0
 19 34  1  0  0  0  0
 20 22  2  0  0  0  0
 20 36  1  0  0  0  0
 21 23  2  0  0  0  0
 22 23  1  0  0  0  0
 22 37  1  0  0  0  0
 23 38  1  0  0  0  0
 25 41  1  0  0  0  0
 25 42  1  0  0  0  0
 25 43  1  0  0  0  0
M  END
> <PUBCHEM_COMPOUND_CID>
122216057

> <PUBCHEM_CONFORMER_RMSD>
0.8

> <PUBCHEM_CONFORMER_DIVERSEORDER>
1
15
16
36
20
47
22
28
31
5
44
12
39
25
30
37
14
19
42
29
34
33
32
48
46
3
10
45
38
13
4
23
21
9
43
2
40
8
41
35
18
11
26
27
17
7
24
6

> <PUBCHEM_MMFF94_PARTIAL_CHARGES>
29
1 -0.56
10 0.34
12 0.28
13 -0.14
14 0.28
15 0.42
16 0.09
17 0.66
19 0.06
2 -0.68
20 -0.15
21 0.08
22 -0.15
23 -0.15
24 0.66
25 0.28
3 -0.57
35 0.4
36 0.15
37 0.15
38 0.15
39 0.5
4 -0.65
40 0.45
5 -0.57
6 -0.53
7 -0.43
8 -0.57
9 0.2

> <PUBCHEM_EFFECTIVE_ROTOR_COUNT>
4.8

> <PUBCHEM_PHARMACOPHORE_FEATURES>
12
1 1 acceptor
1 2 acceptor
1 2 donor
1 3 acceptor
1 4 acceptor
1 5 acceptor
1 6 donor
1 8 acceptor
3 4 5 17 anion
5 9 10 13 15 16 rings
6 1 9 10 11 12 14 rings
6 13 16 20 21 22 23 rings

> <PUBCHEM_HEAVY_ATOM_COUNT>
25

> <PUBCHEM_ATOM_DEF_STEREO_COUNT>
2

> <PUBCHEM_ATOM_UDEF_STEREO_COUNT>
2

> <PUBCHEM_BOND_DEF_STEREO_COUNT>
0

> <PUBCHEM_BOND_UDEF_STEREO_COUNT>
0

> <PUBCHEM_ISOTOPIC_ATOM_COUNT>
0

> <PUBCHEM_COMPONENT_COUNT>
1

> <PUBCHEM_CACTVS_TAUTO_COUNT>
5

> <PUBCHEM_CONFORMER_ID>
0748DE7900000001

> <PUBCHEM_MMFF94_ENERGY>
72.5682

> <PUBCHEM_FEATURE_SELFOVERLAP>
61.19

> <PUBCHEM_SHAPE_FINGERPRINT>
10498660 4 13470684845866866393
10863032 1 17560796697241035558
10948715 1 16988559151698354604
11796584 16 15140683575014493673
12251169 10 18341885303731857914
12633257 1 18272077293194026154
12644460 14 17677631889082110397
12714826 92 14852148629287867802
12730499 353 13038908854479918901
13140716 1 18269542979274797626
13583140 156 17823397380018720041
13965767 371 18339927022067583529
14341114 328 17561362889973854761
14787075 74 17489295417632458475
14790565 3 17826797237671584324
15238133 3 17275098444949733224
16945 1 18271230648013455350
17349148 13 18408327700750961945
17980427 23 18129654335291782493
1813 80 15430034335902457588
20626108 58 14418140646771518297
20691752 17 18114729538871202122
20739085 24 18260543455073522526
21033648 29 18265310894484598465
21452121 103 17632304423758866457
21756936 100 17058914745261535568
221357 26 8214146231707105763
22182313 1 18190165798406196700
23184049 59 18409160013208706699
23419403 2 18120928404396113284
23558518 356 17480568782341742344
23559900 14 18192458353761106823
238 59 13254812247111585516
2748010 2 17764287467717137182
3380486 145 17971723748947403332
394222 165 17900572221300124037
427121 178 17846506936632958011
4340502 62 17917999390896040979
465052 167 17967820435292042434
474 4 17703796907617306571
5104073 3 18271515506944906795
960060 61 11025803110921548219
9999458 23 18201444683637510840

> <PUBCHEM_SHAPE_MULTIPOLES>
467.53
9.09
2.44
1.99
14.08
1.44
-1.11
-3.39
7.55
-1.4
-0.36
-0.53
-0.55
-0.83

> <PUBCHEM_SHAPE_SELFOVERLAP>
1024.254

> <PUBCHEM_SHAPE_VOLUME>
252.6

> <PUBCHEM_COORDINATE_TYPE>
2
5
10

$$$$
