122375922
  -OEChem-03292013293D

 30 30  0     1  0  0  0  0  0999 V2000
    0.6066    0.0725   -2.5077 O   0  0  0  0  0  0  0  0  0  0  0  0
    0.6124   -2.0032    0.4313 O   0  0  0  0  0  0  0  0  0  0  0  0
   -0.6530    2.6671    0.6722 O   0  0  0  0  0  0  0  0  0  0  0  0
    4.0414   -0.7642    0.2252 O   0  0  0  0  0  0  0  0  0  0  0  0
   -3.4501   -0.5762   -0.7723 O   0  0  0  0  0  0  0  0  0  0  0  0
   -1.5865    0.0752    0.4616 N   0  0  0  0  0  0  0  0  0  0  0  0
   -0.8115    0.6307   -0.6281 C   0  0  2  0  0  0  0  0  0  0  0  0
    0.0231   -0.4600   -1.3176 C   0  0  2  0  0  0  0  0  0  0  0  0
    1.1557   -0.9909   -0.4169 C   0  0  1  0  0  0  0  0  0  0  0  0
    0.0932    1.7867   -0.1649 C   0  0  2  0  0  0  0  0  0  0  0  0
    1.8173    0.0677    0.4427 C   0  0  0  0  0  0  0  0  0  0  0  0
    1.3355    1.3200    0.5386 C   0  0  0  0  0  0  0  0  0  0  0  0
    3.0721   -0.3388    1.1633 C   0  0  0  0  0  0  0  0  0  0  0  0
   -2.8426   -0.4813    0.2911 C   0  0  0  0  0  0  0  0  0  0  0  0
   -3.4136   -1.0054    1.5814 C   0  0  0  0  0  0  0  0  0  0  0  0
   -1.5264    1.0446   -1.3516 H   0  0  0  0  0  0  0  0  0  0  0  0
   -0.6359   -1.2820   -1.6238 H   0  0  0  0  0  0  0  0  0  0  0  0
    1.9191   -1.4660   -1.0446 H   0  0  0  0  0  0  0  0  0  0  0  0
    0.4056    2.3712   -1.0391 H   0  0  0  0  0  0  0  0  0  0  0  0
    1.8696    2.0559    1.1347 H   0  0  0  0  0  0  0  0  0  0  0  0
   -1.1579    0.0431    1.3824 H   0  0  0  0  0  0  0  0  0  0  0  0
    2.8601   -1.1635    1.8518 H   0  0  0  0  0  0  0  0  0  0  0  0
    3.4962    0.4865    1.7449 H   0  0  0  0  0  0  0  0  0  0  0  0
    1.0657   -0.6550   -2.9611 H   0  0  0  0  0  0  0  0  0  0  0  0
    0.2853   -2.7202   -0.1383 H   0  0  0  0  0  0  0  0  0  0  0  0
   -0.0746    3.4110    0.9130 H   0  0  0  0  0  0  0  0  0  0  0  0
   -3.3046   -0.2613    2.3756 H   0  0  0  0  0  0  0  0  0  0  0  0
   -4.4770   -1.2245    1.4514 H   0  0  0  0  0  0  0  0  0  0  0  0
   -2.8888   -1.9215    1.8657 H   0  0  0  0  0  0  0  0  0  0  0  0
    4.8282   -1.0361    0.7278 H   0  0  0  0  0  0  0  0  0  0  0  0
  1  8  1  0  0  0  0
  1 24  1  0  0  0  0
  2  9  1  0  0  0  0
  2 25  1  0  0  0  0
  3 10  1  0  0  0  0
  3 26  1  0  0  0  0
  4 13  1  0  0  0  0
  4 30  1  0  0  0  0
  5 14  2  0  0  0  0
  6  7  1  0  0  0  0
  6 14  1  0  0  0  0
  6 21  1  0  0  0  0
  7  8  1  0  0  0  0
  7 10  1  0  0  0  0
  7 16  1  0  0  0  0
  8  9  1  0  0  0  0
  8 17  1  0  0  0  0
  9 11  1  0  0  0  0
  9 18  1  0  0  0  0
 10 12  1  0  0  0  0
 10 19  1  0  0  0  0
 11 12  2  0  0  0  0
 11 13  1  0  0  0  0
 12 20  1  0  0  0  0
 13 22  1  0  0  0  0
 13 23  1  0  0  0  0
 14 15  1  0  0  0  0
 15 27  1  0  0  0  0
 15 28  1  0  0  0  0
 15 29  1  0  0  0  0
M  END
> <PUBCHEM_COMPOUND_CID>
122375922

> <PUBCHEM_CONFORMER_RMSD>
0.6

> <PUBCHEM_CONFORMER_DIVERSEORDER>
1
8
12
10
2
9
5
6
11
4
7
3

> <PUBCHEM_MMFF94_PARTIAL_CHARGES>
21
1 -0.68
10 0.42
11 -0.28
12 -0.29
13 0.42
14 0.57
15 0.06
2 -0.68
20 0.15
21 0.37
24 0.4
25 0.4
26 0.4
3 -0.68
30 0.4
4 -0.68
5 -0.57
6 -0.73
7 0.3
8 0.28
9 0.42

> <PUBCHEM_EFFECTIVE_ROTOR_COUNT>
3.8

> <PUBCHEM_PHARMACOPHORE_FEATURES>
11
1 1 acceptor
1 1 donor
1 2 acceptor
1 2 donor
1 3 acceptor
1 3 donor
1 4 acceptor
1 4 donor
1 5 acceptor
1 6 donor
6 7 8 9 10 11 12 rings

> <PUBCHEM_HEAVY_ATOM_COUNT>
15

> <PUBCHEM_ATOM_DEF_STEREO_COUNT>
4

> <PUBCHEM_ATOM_UDEF_STEREO_COUNT>
0

> <PUBCHEM_BOND_DEF_STEREO_COUNT>
0

> <PUBCHEM_BOND_UDEF_STEREO_COUNT>
0

> <PUBCHEM_ISOTOPIC_ATOM_COUNT>
0

> <PUBCHEM_COMPONENT_COUNT>
1

> <PUBCHEM_CACTVS_TAUTO_COUNT>
2

> <PUBCHEM_CONFORMER_ID>
074B4EF200000001

> <PUBCHEM_MMFF94_ENERGY>
20.586

> <PUBCHEM_FEATURE_SELFOVERLAP>
55.831

> <PUBCHEM_SHAPE_FINGERPRINT>
10219947 1 18343298210200998369
108231 29 18335984254521213658
11132069 177 18271512187188095034
11471102 22 18341895207615323083
12423570 1 17632853123005661236
124424 183 18335411366567428405
13571099 52 14117526462233907904
14817 1 17979652142532502893
14943859 89 12679173925405975966
15775835 57 13254800118393005995
16945 1 18060416928169761796
17844478 74 18272366434850604400
18186145 218 11887411242694209594
19010151 120 18129928079221624615
201361 129 14764361396186089007
20201158 50 18187919565165766107
20653085 51 11095301076086286074
20671657 53 16660368073391580006
20711985 327 18272374200082955641
21061003 4 18411698798706017681
21524375 3 17121145071600143777
231179 274 13542476331999510299
2748010 2 17771339773699086620
305870 269 15123520180797578359
3250762 1 17340699504360548276
528862 383 18190452964426005712
568465 68 18187078485820017979
68419 9 17608974951417622685
81228 2 18122639253475019033

> <PUBCHEM_SHAPE_MULTIPOLES>
274.37
5.02
1.81
1.5
1
0.88
0.7
-2.46
-1.94
-0.04
-0.48
0.16
-0.08
0.21

> <PUBCHEM_SHAPE_SELFOVERLAP>
552.093

> <PUBCHEM_SHAPE_VOLUME>
159.5

> <PUBCHEM_COORDINATE_TYPE>
2
5
10

$$$$
