122361351
  -OEChem-03292013293D

 37 38  0     1  0  0  0  0  0999 V2000
    3.6527    1.2901    0.1459 P   0  0  0  0  0  0  0  0  0  0  0  0
    0.2491   -1.2061    1.0264 O   0  0  0  0  0  0  0  0  0  0  0  0
    0.3399   -4.0154   -0.1868 O   0  0  0  0  0  0  0  0  0  0  0  0
    2.7178    0.0476    0.5951 O   0  0  0  0  0  0  0  0  0  0  0  0
   -2.9725    2.4855   -1.5031 O   0  0  0  0  0  0  0  0  0  0  0  0
   -3.8168   -1.1335    0.5797 O   0  0  0  0  0  0  0  0  0  0  0  0
    2.7052    2.1437   -0.8486 O   0  0  0  0  0  0  0  0  0  0  0  0
    4.7155    0.5973   -0.8567 O   0  0  0  0  0  0  0  0  0  0  0  0
    4.2613    2.0671    1.2764 O   0  0  0  0  0  0  0  0  0  0  0  0
   -1.7197   -0.1651    0.3087 N   0  0  0  0  0  0  0  0  0  0  0  0
   -3.7085    1.1132    0.2332 N   0  0  0  0  0  0  0  0  0  0  0  0
   -1.0188   -1.4133    0.3881 C   0  0  1  0  0  0  0  0  0  0  0  0
   -0.7445   -2.0232   -0.9769 C   0  0  0  0  0  0  0  0  0  0  0  0
    0.5731   -2.7307   -0.7600 C   0  0  1  0  0  0  0  0  0  0  0  0
    1.2834   -1.8357    0.2459 C   0  0  1  0  0  0  0  0  0  0  0  0
   -0.9138    1.0162   -0.0008 C   0  0  0  0  0  0  0  0  0  0  0  0
    2.1056   -0.7370   -0.4152 C   0  0  0  0  0  0  0  0  0  0  0  0
   -1.5885    2.2990    0.4582 C   0  0  0  0  0  0  0  0  0  0  0  0
   -3.1192   -0.1346    0.3810 C   0  0  0  0  0  0  0  0  0  0  0  0
   -3.0011    2.3350   -0.0905 C   0  0  1  0  0  0  0  0  0  0  0  0
   -1.5827   -2.1211    1.0070 H   0  0  0  0  0  0  0  0  0  0  0  0
   -0.6267   -1.2503   -1.7450 H   0  0  0  0  0  0  0  0  0  0  0  0
   -1.5571   -2.6866   -1.2897 H   0  0  0  0  0  0  0  0  0  0  0  0
    1.1313   -2.8805   -1.6890 H   0  0  0  0  0  0  0  0  0  0  0  0
    1.9086   -2.4029    0.9443 H   0  0  0  0  0  0  0  0  0  0  0  0
   -0.7411    1.0323   -1.0823 H   0  0  0  0  0  0  0  0  0  0  0  0
    0.0530    0.9785    0.5045 H   0  0  0  0  0  0  0  0  0  0  0  0
    1.4852   -0.0928   -1.0433 H   0  0  0  0  0  0  0  0  0  0  0  0
    2.8833   -1.1862   -1.0412 H   0  0  0  0  0  0  0  0  0  0  0  0
   -1.6174    2.3235    1.5546 H   0  0  0  0  0  0  0  0  0  0  0  0
   -1.0111    3.1631    0.1120 H   0  0  0  0  0  0  0  0  0  0  0  0
   -3.5614    3.1743    0.3332 H   0  0  0  0  0  0  0  0  0  0  0  0
   -4.7220    1.1573    0.2760 H   0  0  0  0  0  0  0  0  0  0  0  0
    1.2080   -4.4193   -0.0171 H   0  0  0  0  0  0  0  0  0  0  0  0
   -3.8805    2.3394   -1.8179 H   0  0  0  0  0  0  0  0  0  0  0  0
    3.0352    2.9968   -1.2027 H   0  0  0  0  0  0  0  0  0  0  0  0
    5.4611    1.1330   -1.2019 H   0  0  0  0  0  0  0  0  0  0  0  0
  1  4  1  0  0  0  0
  1  7  1  0  0  0  0
  1  8  1  0  0  0  0
  1  9  2  0  0  0  0
  2 12  1  0  0  0  0
  2 15  1  0  0  0  0
  3 14  1  0  0  0  0
  3 34  1  0  0  0  0
  4 17  1  0  0  0  0
  5 20  1  0  0  0  0
  5 35  1  0  0  0  0
  6 19  2  0  0  0  0
  7 36  1  0  0  0  0
  8 37  1  0  0  0  0
 10 12  1  0  0  0  0
 10 16  1  0  0  0  0
 10 19  1  0  0  0  0
 11 19  1  0  0  0  0
 11 20  1  0  0  0  0
 11 33  1  0  0  0  0
 12 13  1  0  0  0  0
 12 21  1  0  0  0  0
 13 14  1  0  0  0  0
 13 22  1  0  0  0  0
 13 23  1  0  0  0  0
 14 15  1  0  0  0  0
 14 24  1  0  0  0  0
 15 17  1  0  0  0  0
 15 25  1  0  0  0  0
 16 18  1  0  0  0  0
 16 26  1  0  0  0  0
 16 27  1  0  0  0  0
 17 28  1  0  0  0  0
 17 29  1  0  0  0  0
 18 20  1  0  0  0  0
 18 30  1  0  0  0  0
 18 31  1  0  0  0  0
 20 32  1  0  0  0  0
M  END
> <PUBCHEM_COMPOUND_CID>
122361351

> <PUBCHEM_CONFORMER_RMSD>
0.8

> <PUBCHEM_CONFORMER_DIVERSEORDER>
1
61
69
62
55
47
8
43
30
53
46
41
32
27
19
13
45
66
60
67
76
75
59
10
56
79
21
42
70
50
22
51
34
24
18
64
72
23
58
33
11
63
4
37
68
36
5
73
31
26
77
12
49
48
78
65
52
54
38
39
16
14
74
3
71
20
35
57
9
6
29
40
17
28
7
25
44
2
15

> <PUBCHEM_MMFF94_PARTIAL_CHARGES>
23
1 1.51
10 -0.66
11 -0.73
12 0.58
14 0.28
15 0.28
16 0.3
17 0.28
19 0.69
2 -0.56
20 0.58
3 -0.68
33 0.37
34 0.4
35 0.4
36 0.5
37 0.5
4 -0.55
5 -0.68
6 -0.57
7 -0.77
8 -0.77
9 -0.7

> <PUBCHEM_EFFECTIVE_ROTOR_COUNT>
6

> <PUBCHEM_PHARMACOPHORE_FEATURES>
13
1 11 donor
1 2 acceptor
1 3 acceptor
1 3 donor
1 5 acceptor
1 5 donor
1 6 acceptor
1 7 acceptor
1 8 acceptor
1 9 acceptor
4 1 7 8 9 anion
5 2 12 13 14 15 rings
6 10 11 16 18 19 20 rings

> <PUBCHEM_HEAVY_ATOM_COUNT>
20

> <PUBCHEM_ATOM_DEF_STEREO_COUNT>
3

> <PUBCHEM_ATOM_UDEF_STEREO_COUNT>
1

> <PUBCHEM_BOND_DEF_STEREO_COUNT>
0

> <PUBCHEM_BOND_UDEF_STEREO_COUNT>
0

> <PUBCHEM_ISOTOPIC_ATOM_COUNT>
0

> <PUBCHEM_COMPONENT_COUNT>
1

> <PUBCHEM_CACTVS_TAUTO_COUNT>
2

> <PUBCHEM_CONFORMER_ID>
074B160700000001

> <PUBCHEM_MMFF94_ENERGY>
6.5855

> <PUBCHEM_FEATURE_SELFOVERLAP>
66.056

> <PUBCHEM_SHAPE_FINGERPRINT>
10498660 4 18411980239175556489
10608611 8 18192715531869953347
10871710 139 17328033573191575148
11370993 70 18410847755205389260
11578080 2 16661758852795737255
11833330 49 17691679404363166962
12173636 292 18341046432078706974
13134695 92 17473818429371305894
13140716 1 18339080358974414976
13897977 150 18266740169321536289
14026960 21 18409454678177838979
14123255 52 18413103974666425032
14223421 5 18263651662707582115
14250199 8 17837204875341924525
14648413 74 17979077085277283451
14787075 74 17752208554812399723
15042514 8 18121222249058633810
16945 1 17691693286045315475
17980427 23 17762579968454915331
18186145 218 18201450138024352840
19591789 44 18268713990203562417
20645477 56 18128539452181451016
20671657 1 18125441908397636854
21524375 3 18408889542286608562
23227448 37 18055070119188399676
23419403 2 15680214725043612938
23559900 14 17979908316247210667
2748010 2 18338244768823457645
5262128 65 17410779055774406519
5939293 188 17545877131694983392
633830 44 17703514306905938176
7364860 26 18124598574336495942
7808743 9 18122344842447332864
81228 2 17623553650942000098
9862522 239 18189034482677949420
9981440 41 18408599253725907234

> <PUBCHEM_SHAPE_MULTIPOLES>
358.52
7.17
3.82
1
3.47
1.79
0.12
-5.94
-0.2
0.15
0.57
0.13
-0.23
0.76

> <PUBCHEM_SHAPE_SELFOVERLAP>
722.41

> <PUBCHEM_SHAPE_VOLUME>
210.6

> <PUBCHEM_COORDINATE_TYPE>
2
5
10

$$$$
