REMARK  Name = 122395471
REMARK  5 active torsions:
REMARK  status: ('A' for Active; 'I' for Inactive)
REMARK    1  A    between atoms: N_2  and  C_14
REMARK    2  A    between atoms: C_9  and  N_23
REMARK    3  A    between atoms: C_15  and  O_18
REMARK    4  A    between atoms: C_17  and  C_20
REMARK    5  A    between atoms: C_20  and  O_21
REMARK                            x       y       z     vdW  Elec       q    Type
REMARK                         _______ _______ _______ _____ _____    ______ ____
ROOT
ATOM      1  O   UNL     1       4.005   2.298   0.671  0.00  0.00    -0.193 OA
ATOM      2  N   UNL     1       0.034  -0.206   0.293  0.00  0.00    -0.236 N 
ATOM      3  N   UNL     1       1.092  -2.073  -0.458  0.00  0.00    -0.245 NA
ATOM      4  N   UNL     1       1.967   1.264   0.557  0.00  0.00    -0.305 NA
ATOM      5  N   UNL     1       3.994   0.134  -0.040  0.00  0.00    -0.235 N 
ATOM      6  C   UNL     1       1.360   0.168   0.266  0.00  0.00    +0.217 C 
ATOM      7  C   UNL     1      -0.048  -1.506  -0.145  0.00  0.00    +0.223 C 
ATOM      8  C   UNL     1       2.032  -1.076  -0.223  0.00  0.00    +0.134 C 
ATOM      9  C   UNL     1       3.361  -1.053  -0.363  0.00  0.00    +0.180 C 
ATOM     10  C   UNL     1       3.346   1.289   0.411  0.00  0.00    +0.268 C 
ATOM     11  H   UNL     1       4.974   0.168  -0.136  0.00  0.00    +0.162 HD
ENDROOT
BRANCH   2  14
ATOM     12  F   UNL     1      -2.161   2.538  -0.210  0.00  0.00    -0.230 F 
ATOM     13  O   UNL     1      -2.175  -0.137   1.143  0.00  0.00    -0.333 OA
ATOM     14  C   UNL     1      -1.081   0.648   0.627  0.00  0.00    +0.231 C 
ATOM     15  C   UNL     1      -2.700   0.430  -1.078  0.00  0.00    +0.177 C 
ATOM     16  C   UNL     1      -1.605   1.358  -0.609  0.00  0.00    +0.236 C 
ATOM     17  C   UNL     1      -3.292  -0.016   0.246  0.00  0.00    +0.176 C 
BRANCH  15  18
ATOM     18  O   UNL     1      -3.650   1.077  -1.896  0.00  0.00    -0.379 OA
ATOM     19  H   UNL     1      -3.231   1.345  -2.728  0.00  0.00    +0.211 HD
ENDBRANCH  15  18
BRANCH  17  20
ATOM     20  C   UNL     1      -4.030  -1.340   0.163  0.00  0.00    +0.169 C 
BRANCH  20  21
ATOM     21  O   UNL     1      -4.531  -1.667   1.448  0.00  0.00    -0.379 OA
ATOM     22  H   UNL     1      -5.005  -2.512   1.406  0.00  0.00    +0.211 HD
ENDBRANCH  20  21
ENDBRANCH  17  20
ENDBRANCH   2  14
BRANCH   9  23
ATOM     23  N   UNL     1       4.079  -2.130  -0.802  0.00  0.00    -0.301 NA
ATOM     24  H   UNL     1       5.057  -2.067  -0.890  0.00  0.00    +0.121 HD
ATOM     25  H   UNL     1       3.617  -2.969  -1.031  0.00  0.00    +0.121 HD
ENDBRANCH   9  23
TORSDOF 5
