REMARK  Name = 122364644
REMARK  10 active torsions:
REMARK  status: ('A' for Active; 'I' for Inactive)
REMARK    1  A    between atoms: C_1  and  O_23
REMARK    2  A    between atoms: C_2  and  C_7
REMARK    3  A    between atoms: C_3  and  C_13
REMARK    4  A    between atoms: C_5  and  O_21
REMARK    5  A    between atoms: C_6  and  O_19
REMARK    6  A    between atoms: O_23  and  C_26
REMARK    7  A    between atoms: C_25  and  O_30
REMARK    8  A    between atoms: C_27  and  O_32
REMARK    9  A    between atoms: C_29  and  C_35
REMARK   10  A    between atoms: C_35  and  O_36
REMARK                            x       y       z     vdW  Elec       q    Type
REMARK                         _______ _______ _______ _____ _____    ______ ____
ROOT
ATOM      1  C   UNL     1       0.189  -0.137   0.816  0.00  0.00    +0.145 C 
ATOM      2  C   UNL     1      -0.038   1.198   0.486  0.00  0.00    +0.071 C 
ATOM      3  C   UNL     1       2.533   0.133   0.295  0.00  0.00    +0.040 C 
ATOM      4  C   UNL     1       1.475  -0.670   0.721  0.00  0.00    +0.040 C 
ATOM      5  C   UNL     1       1.020   2.001   0.060  0.00  0.00    +0.171 C 
ATOM      6  C   UNL     1       2.306   1.468  -0.036  0.00  0.00    +0.172 C 
ENDROOT
BRANCH   2   7
ATOM      7  C   UNL     1      -1.377   1.752   0.586  0.00  0.00    +0.006 C 
ATOM      8  C   UNL     1      -2.038   1.760   1.814  0.00  0.00    +0.000 C 
ATOM      9  C   UNL     1      -2.001   2.275  -0.546  0.00  0.00    +0.000 C 
ATOM     10  C   UNL     1      -3.324   2.291   1.910  0.00  0.00    +0.000 C 
ATOM     11  C   UNL     1      -3.287   2.807  -0.450  0.00  0.00    +0.000 C 
ATOM     12  C   UNL     1      -3.949   2.815   0.778  0.00  0.00    +0.000 C 
ENDBRANCH   2   7
BRANCH   3  13
ATOM     13  C   UNL     1       3.861  -0.442   0.203  0.00  0.00    +0.003 C 
ATOM     14  C   UNL     1       4.905   0.090   0.960  0.00  0.00    +0.000 C 
ATOM     15  C   UNL     1       4.094  -1.526  -0.642  0.00  0.00    +0.000 C 
ATOM     16  C   UNL     1       6.182  -0.463   0.871  0.00  0.00    +0.000 C 
ATOM     17  C   UNL     1       5.372  -2.079  -0.731  0.00  0.00    +0.000 C 
ATOM     18  C   UNL     1       6.416  -1.547   0.026  0.00  0.00    +0.000 C 
ENDBRANCH   3  13
BRANCH   6  19
ATOM     19  O   UNL     1       3.333   2.265  -0.454  0.00  0.00    -0.468 OA
ATOM     20  C   UNL     1       3.589   2.304  -1.855  0.00  0.00    +0.253 C 
ENDBRANCH   6  19
BRANCH   5  21
ATOM     21  O   UNL     1       0.813   3.311  -0.267  0.00  0.00    -0.503 OA
ATOM     22  H   UNL     1      -0.047   3.679  -0.206  0.00  0.00    +0.292 HD
ENDBRANCH   5  21
BRANCH   1  23
ATOM     23  O   UNL     1      -0.828  -0.949   1.237  0.00  0.00    -0.441 OA
BRANCH  23  26
ATOM     24  O   UNL     1      -1.378  -1.749  -0.918  0.00  0.00    -0.435 OA
ATOM     25  C   UNL     1      -2.217  -2.921   1.088  0.00  0.00    +0.227 C 
ATOM     26  C   UNL     1      -1.091  -2.104   0.444  0.00  0.00    +0.372 C 
ATOM     27  C   UNL     1      -3.568  -2.207   0.978  0.00  0.00    +0.170 C 
ATOM     28  C   UNL     1      -3.697  -1.473  -0.322  0.00  0.00    +0.049 C 
ATOM     29  C   UNL     1      -2.661  -1.319  -1.158  0.00  0.00    +0.216 C 
BRANCH  25  30
ATOM     30  O   UNL     1      -2.285  -4.181   0.420  0.00  0.00    -0.376 OA
ATOM     31  H   UNL     1      -1.429  -4.631   0.491  0.00  0.00    +0.211 HD
ENDBRANCH  25  30
BRANCH  27  32
ATOM     32  O   UNL     1      -3.693  -1.272   2.046  0.00  0.00    -0.377 OA
ATOM     33  H   UNL     1      -3.611  -1.736   2.894  0.00  0.00    +0.211 HD
ENDBRANCH  27  32
BRANCH  29  35
ATOM     34  O   UNL     1      -3.989  -0.209  -2.787  0.00  0.00    -0.242 OA
ATOM     35  C   UNL     1      -2.907  -0.643  -2.432  0.00  0.00    +0.372 C 
BRANCH  35  36
ATOM     36  O   UNL     1      -1.760  -0.578  -3.141  0.00  0.00    -0.475 OA
ATOM     37  H   UNL     1      -0.970  -0.939  -2.789  0.00  0.00    +0.296 HD
ENDBRANCH  35  36
ENDBRANCH  29  35
ENDBRANCH  23  26
ENDBRANCH   1  23
TORSDOF 10
