REMARK  Name = 122367404
REMARK  7 active torsions:
REMARK  status: ('A' for Active; 'I' for Inactive)
REMARK    1  A    between atoms: C_1  and  C_12
REMARK    2  A    between atoms: C_3  and  C_23
REMARK    3  A    between atoms: C_5  and  C_27
REMARK    4  A    between atoms: C_13  and  O_17
REMARK    5  A    between atoms: C_13  and  C_20
REMARK    6  A    between atoms: C_20  and  O_21
REMARK    7  A    between atoms: C_27  and  O_28
REMARK                            x       y       z     vdW  Elec       q    Type
REMARK                         _______ _______ _______ _____ _____    ______ ____
ROOT
ATOM      1  C   UNL     1       0.376  -0.773  -0.397  0.00  0.00    +0.031 C 
ATOM      2  C   UNL     1       0.934  -2.220  -0.467  0.00  0.00    +0.008 C 
ATOM      3  C   UNL     1       1.332   0.172   0.391  0.00  0.00    +0.054 C 
ATOM      4  C   UNL     1       2.351  -2.243  -1.104  0.00  0.00    +0.022 C 
ATOM      5  C   UNL     1       2.794  -0.152   0.200  0.00  0.00    +0.053 C 
ATOM      6  C   UNL     1       3.253  -1.214  -0.476  0.00  0.00    -0.024 C 
ATOM      7  C   UNL     1      -0.019  -3.190  -1.177  0.00  0.00    +0.001 C 
ATOM      8  C   UNL     1       2.370  -2.058  -2.625  0.00  0.00    +0.005 C 
ENDROOT
BRANCH   1  12
ATOM      9 CL   UNL     1      -4.500   0.816   0.591  0.00  0.00    -0.103 Cl
ATOM     10 CL   UNL     1      -0.330  -1.668   2.716  0.00  0.00    -0.080 Cl
ATOM     11  O   UNL     1      -3.371  -1.148   2.662  0.00  0.00    -0.289 OA
ATOM     12  C   UNL     1      -0.996  -0.735   0.221  0.00  0.00    +0.005 C 
ATOM     13  C   UNL     1      -2.184  -0.257  -0.586  0.00  0.00    +0.214 C 
ATOM     14  C   UNL     1      -3.401  -0.540   0.313  0.00  0.00    +0.180 C 
ATOM     15  C   UNL     1      -1.315  -1.096   1.468  0.00  0.00    +0.088 C 
ATOM     16  C   UNL     1      -2.770  -0.944   1.617  0.00  0.00    +0.201 C 
BRANCH  13  17
ATOM     17  O   UNL     1      -2.282  -1.002  -1.787  0.00  0.00    -0.372 OA
ATOM     18  H   UNL     1      -2.432  -1.937  -1.576  0.00  0.00    +0.211 HD
ENDBRANCH  13  17
BRANCH  13  20
ATOM     19  O   UNL     1      -1.804   2.082  -0.125  0.00  0.00    -0.247 OA
ATOM     20  C   UNL     1      -1.952   1.186  -0.945  0.00  0.00    +0.347 C 
BRANCH  20  21
ATOM     21  O   UNL     1      -1.934   1.321  -2.302  0.00  0.00    -0.443 OA
ATOM     22  C   UNL     1      -1.719   2.651  -2.785  0.00  0.00    +0.256 C 
ENDBRANCH  20  21
ENDBRANCH  13  20
ENDBRANCH   1  12
BRANCH   3  23
ATOM     23  C   UNL     1       1.032   1.602   0.024  0.00  0.00    -0.026 C 
ATOM     24  C   UNL     1       1.159   2.633   0.872  0.00  0.00    -0.030 C 
ATOM     25  C   UNL     1       0.862   4.050   0.508  0.00  0.00    +0.030 C 
ENDBRANCH   3  23
BRANCH   5  27
ATOM     26  O   UNL     1       4.690   1.282   0.214  0.00  0.00    -0.245 OA
ATOM     27  C   UNL     1       3.812   0.704   0.824  0.00  0.00    +0.334 C 
BRANCH  27  28
ATOM     28  O   UNL     1       3.613   0.739   2.157  0.00  0.00    -0.477 OA
ATOM     29  H   UNL     1       2.905   0.257   2.537  0.00  0.00    +0.295 HD
ENDBRANCH  27  28
ENDBRANCH   5  27
TORSDOF 7
