122399356
  -OEChem-03292013293D

 79 81  0     1  0  0  0  0  0999 V2000
    1.1873   -1.2279    1.1063 O   0  0  0  0  0  0  0  0  0  0  0  0
    0.6867    1.5151   -0.3160 O   0  0  0  0  0  0  0  0  0  0  0  0
    3.6703   -1.5526   -1.5373 O   0  0  0  0  0  0  0  0  0  0  0  0
    4.3475   -2.0551    1.1617 O   0  0  0  0  0  0  0  0  0  0  0  0
    4.5492    0.2551    2.8843 O   0  0  0  0  0  0  0  0  0  0  0  0
   -4.5131    0.4246    0.4321 O   0  0  0  0  0  0  0  0  0  0  0  0
    1.1245    3.6395    0.4698 O   0  0  0  0  0  0  0  0  0  0  0  0
   -6.6679    1.1186    0.8918 O   0  0  0  0  0  0  0  0  0  0  0  0
   -0.6480   -1.0736   -0.3241 C   0  0  2  0  0  0  0  0  0  0  0  0
    0.5912   -1.3564   -1.1953 C   0  0  1  0  0  0  0  0  0  0  0  0
   -0.0172   -0.4789    0.9481 C   0  0  2  0  0  0  0  0  0  0  0  0
   -1.4660   -2.3504    0.0309 C   0  0  2  0  0  0  0  0  0  0  0  0
    1.7034   -1.6321   -0.1612 C   0  0  1  0  0  0  0  0  0  0  0  0
    0.2557    1.0542    0.9619 C   0  0  1  0  0  0  0  0  0  0  0  0
   -1.6789   -3.2609   -1.1857 C   0  0  0  0  0  0  0  0  0  0  0  0
    0.3929   -2.4288   -2.2401 C   0  0  0  0  0  0  0  0  0  0  0  0
    3.0137   -0.8721   -0.4602 C   0  0  1  0  0  0  0  0  0  0  0  0
   -2.8279   -1.9821    0.6322 C   0  0  1  0  0  0  0  0  0  0  0  0
   -0.3487   -3.6605   -1.8100 C   0  0  0  0  0  0  0  0  0  0  0  0
    4.0148   -0.7255    0.7265 C   0  0  1  0  0  0  0  0  0  0  0  0
    1.2943    1.4913    2.0353 C   0  0  0  0  0  0  0  0  0  0  0  0
    3.4569    0.0342    1.9729 C   0  0  2  0  0  0  0  0  0  0  0  0
    2.7977    1.3966    1.6839 C   0  0  0  0  0  0  0  0  0  0  0  0
   -1.0831    1.7668    1.2426 C   0  0  0  0  0  0  0  0  0  0  0  0
   -3.8233   -1.6730   -0.4949 C   0  0  0  0  0  0  0  0  0  0  0  0
   -3.3055   -3.1104    1.5440 C   0  0  0  0  0  0  0  0  0  0  0  0
    0.7965   -2.2688   -3.5105 C   0  0  0  0  0  0  0  0  0  0  0  0
    5.3266   -0.0859    0.2232 C   0  0  0  0  0  0  0  0  0  0  0  0
   -5.0048   -0.8211   -0.0469 C   0  0  0  0  0  0  0  0  0  0  0  0
    0.8255    2.8662   -0.4297 C   0  0  0  0  0  0  0  0  0  0  0  0
    0.5466    3.2605   -1.8622 C   0  0  0  0  0  0  0  0  0  0  0  0
    0.6560    4.7688   -2.0716 C   0  0  0  0  0  0  0  0  0  0  0  0
   -5.4592    1.3070    0.8742 C   0  0  0  0  0  0  0  0  0  0  0  0
    0.4057    5.1500   -3.5217 C   0  0  0  0  0  0  0  0  0  0  0  0
   -4.7994    2.5674    1.3456 C   0  0  0  0  0  0  0  0  0  0  0  0
   -1.3002   -0.3508   -0.8254 H   0  0  0  0  0  0  0  0  0  0  0  0
    0.8286   -0.4274   -1.7292 H   0  0  0  0  0  0  0  0  0  0  0  0
   -0.6130   -0.7104    1.8380 H   0  0  0  0  0  0  0  0  0  0  0  0
   -0.8884   -2.9213    0.7721 H   0  0  0  0  0  0  0  0  0  0  0  0
    1.9136   -2.7064   -0.0981 H   0  0  0  0  0  0  0  0  0  0  0  0
   -2.2600   -2.7857   -1.9828 H   0  0  0  0  0  0  0  0  0  0  0  0
   -2.2108   -4.1743   -0.8963 H   0  0  0  0  0  0  0  0  0  0  0  0
    2.7899    0.1327   -0.8301 H   0  0  0  0  0  0  0  0  0  0  0  0
   -2.7125   -1.0980    1.2688 H   0  0  0  0  0  0  0  0  0  0  0  0
   -0.5349   -4.3333   -2.6558 H   0  0  0  0  0  0  0  0  0  0  0  0
    0.2557   -4.2230   -1.0887 H   0  0  0  0  0  0  0  0  0  0  0  0
    1.0990    2.5171    2.3701 H   0  0  0  0  0  0  0  0  0  0  0  0
    1.1082    0.9098    2.9496 H   0  0  0  0  0  0  0  0  0  0  0  0
    2.7892   -0.6128    2.5472 H   0  0  0  0  0  0  0  0  0  0  0  0
    2.9900    1.7179    0.6581 H   0  0  0  0  0  0  0  0  0  0  0  0
    3.2982    2.1562    2.3011 H   0  0  0  0  0  0  0  0  0  0  0  0
   -1.7851    1.6233    0.4133 H   0  0  0  0  0  0  0  0  0  0  0  0
   -0.9910    2.8482    1.3827 H   0  0  0  0  0  0  0  0  0  0  0  0
   -1.5500    1.3769    2.1543 H   0  0  0  0  0  0  0  0  0  0  0  0
   -4.2238   -2.5954   -0.9323 H   0  0  0  0  0  0  0  0  0  0  0  0
   -3.3342   -1.0989   -1.2906 H   0  0  0  0  0  0  0  0  0  0  0  0
   -3.4858   -4.0390    0.9938 H   0  0  0  0  0  0  0  0  0  0  0  0
   -4.2421   -2.8359    2.0404 H   0  0  0  0  0  0  0  0  0  0  0  0
   -2.5716   -3.3180    2.3302 H   0  0  0  0  0  0  0  0  0  0  0  0
    1.3056   -1.3668   -3.8332 H   0  0  0  0  0  0  0  0  0  0  0  0
    0.6257   -3.0355   -4.2588 H   0  0  0  0  0  0  0  0  0  0  0  0
    5.7733   -0.6724   -0.5874 H   0  0  0  0  0  0  0  0  0  0  0  0
    6.0900   -0.0626    1.0086 H   0  0  0  0  0  0  0  0  0  0  0  0
    5.1649    0.9347   -0.1369 H   0  0  0  0  0  0  0  0  0  0  0  0
    3.1358   -1.4228   -2.3376 H   0  0  0  0  0  0  0  0  0  0  0  0
    3.5513   -2.4574    1.5476 H   0  0  0  0  0  0  0  0  0  0  0  0
   -5.6708   -0.6453   -0.8998 H   0  0  0  0  0  0  0  0  0  0  0  0
   -5.5687   -1.3282    0.7438 H   0  0  0  0  0  0  0  0  0  0  0  0
    4.1777    0.6357    3.6987 H   0  0  0  0  0  0  0  0  0  0  0  0
    1.2694    2.7434   -2.5034 H   0  0  0  0  0  0  0  0  0  0  0  0
   -0.4641    2.9243   -2.1197 H   0  0  0  0  0  0  0  0  0  0  0  0
   -0.0653    5.2882   -1.4293 H   0  0  0  0  0  0  0  0  0  0  0  0
    1.6524    5.1170   -1.7741 H   0  0  0  0  0  0  0  0  0  0  0  0
    1.1360    4.6743   -4.1840 H   0  0  0  0  0  0  0  0  0  0  0  0
    0.4877    6.2340   -3.6483 H   0  0  0  0  0  0  0  0  0  0  0  0
   -0.5966    4.8456   -3.8396 H   0  0  0  0  0  0  0  0  0  0  0  0
   -4.2167    3.0081    0.5326 H   0  0  0  0  0  0  0  0  0  0  0  0
   -4.1601    2.3508    2.2049 H   0  0  0  0  0  0  0  0  0  0  0  0
   -5.5656    3.2856    1.6511 H   0  0  0  0  0  0  0  0  0  0  0  0
  1 11  1  0  0  0  0
  1 13  1  0  0  0  0
  2 14  1  0  0  0  0
  2 30  1  0  0  0  0
  3 17  1  0  0  0  0
  3 65  1  0  0  0  0
  4 20  1  0  0  0  0
  4 66  1  0  0  0  0
  5 22  1  0  0  0  0
  5 69  1  0  0  0  0
  6 29  1  0  0  0  0
  6 33  1  0  0  0  0
  7 30  2  0  0  0  0
  8 33  2  0  0  0  0
  9 10  1  0  0  0  0
  9 11  1  0  0  0  0
  9 12  1  0  0  0  0
  9 36  1  0  0  0  0
 10 13  1  0  0  0  0
 10 16  1  0  0  0  0
 10 37  1  0  0  0  0
 11 14  1  0  0  0  0
 11 38  1  0  0  0  0
 12 15  1  0  0  0  0
 12 18  1  0  0  0  0
 12 39  1  0  0  0  0
 13 17  1  0  0  0  0
 13 40  1  0  0  0  0
 14 21  1  0  0  0  0
 14 24  1  0  0  0  0
 15 19  1  0  0  0  0
 15 41  1  0  0  0  0
 15 42  1  0  0  0  0
 16 19  1  0  0  0  0
 16 27  2  0  0  0  0
 17 20  1  0  0  0  0
 17 43  1  0  0  0  0
 18 25  1  0  0  0  0
 18 26  1  0  0  0  0
 18 44  1  0  0  0  0
 19 45  1  0  0  0  0
 19 46  1  0  0  0  0
 20 22  1  0  0  0  0
 20 28  1  0  0  0  0
 21 23  1  0  0  0  0
 21 47  1  0  0  0  0
 21 48  1  0  0  0  0
 22 23  1  0  0  0  0
 22 49  1  0  0  0  0
 23 50  1  0  0  0  0
 23 51  1  0  0  0  0
 24 52  1  0  0  0  0
 24 53  1  0  0  0  0
 24 54  1  0  0  0  0
 25 29  1  0  0  0  0
 25 55  1  0  0  0  0
 25 56  1  0  0  0  0
 26 57  1  0  0  0  0
 26 58  1  0  0  0  0
 26 59  1  0  0  0  0
 27 60  1  0  0  0  0
 27 61  1  0  0  0  0
 28 62  1  0  0  0  0
 28 63  1  0  0  0  0
 28 64  1  0  0  0  0
 29 67  1  0  0  0  0
 29 68  1  0  0  0  0
 30 31  1  0  0  0  0
 31 32  1  0  0  0  0
 31 70  1  0  0  0  0
 31 71  1  0  0  0  0
 32 34  1  0  0  0  0
 32 72  1  0  0  0  0
 32 73  1  0  0  0  0
 33 35  1  0  0  0  0
 34 74  1  0  0  0  0
 34 75  1  0  0  0  0
 34 76  1  0  0  0  0
 35 77  1  0  0  0  0
 35 78  1  0  0  0  0
 35 79  1  0  0  0  0
M  END
> <PUBCHEM_COMPOUND_CID>
122399356

> <PUBCHEM_CONFORMER_RMSD>
1.2

> <PUBCHEM_CONFORMER_DIVERSEORDER>
1
17
7
4
5
12
18
11
14
8
22
10
3
13
6
9
21
2
19
20
15
16

> <PUBCHEM_MMFF94_PARTIAL_CHARGES>
28
1 -0.56
10 0.14
11 0.28
13 0.28
14 0.28
16 -0.28
17 0.28
19 0.14
2 -0.43
20 0.28
22 0.28
27 -0.3
29 0.28
3 -0.68
30 0.66
31 0.06
33 0.66
35 0.06
4 -0.68
5 -0.68
6 -0.43
60 0.15
61 0.15
65 0.4
66 0.4
69 0.4
7 -0.57
8 -0.57

> <PUBCHEM_EFFECTIVE_ROTOR_COUNT>
11

> <PUBCHEM_PHARMACOPHORE_FEATURES>
13
1 1 acceptor
1 26 hydrophobe
1 3 acceptor
1 3 donor
1 34 hydrophobe
1 4 acceptor
1 4 donor
1 5 acceptor
1 5 donor
1 7 acceptor
1 8 acceptor
5 1 9 10 11 13 rings
6 9 10 12 15 16 19 rings

> <PUBCHEM_HEAVY_ATOM_COUNT>
35

> <PUBCHEM_ATOM_DEF_STEREO_COUNT>
10

> <PUBCHEM_ATOM_UDEF_STEREO_COUNT>
0

> <PUBCHEM_BOND_DEF_STEREO_COUNT>
0

> <PUBCHEM_BOND_UDEF_STEREO_COUNT>
0

> <PUBCHEM_ISOTOPIC_ATOM_COUNT>
0

> <PUBCHEM_COMPONENT_COUNT>
1

> <PUBCHEM_CACTVS_TAUTO_COUNT>
1

> <PUBCHEM_CONFORMER_ID>
074BAA7C00000001

> <PUBCHEM_MMFF94_ENERGY>
124.3437

> <PUBCHEM_FEATURE_SELFOVERLAP>
66.159

> <PUBCHEM_SHAPE_FINGERPRINT>
10764073 3 18055906606844823986
10906281 52 18201173065536969883
10940486 97 18269275840603379030
11513181 2 17846216708412691364
11578080 2 16843292818103970546
12107698 1 18264489658425795531
12160290 23 17979597249003814192
12422481 6 18270672082736314467
12633257 1 18186800292651845867
12788726 201 17676760964731126944
13402501 40 18201723899461495523
14020679 6 18113902688752288475
144659 178 18202291273036833089
14790565 3 18202562903715638792
15210252 30 18050037457184196253
15444296 121 18261682553009151923
1601671 61 18343301452917274178
16991981 162 15084136052612567309
17818456 19 18199744924423217289
17980427 23 18412257376525104437
1813 80 18119510267015696914
20600515 1 18335422361129811763
20764821 26 18200045061518080149
21033648 29 17846486063071275371
21304253 335 18060701697523441227
21304303 282 17035503750451364132
22149856 69 17987818401526399707
25223398 141 17250344890164841756
5080951 261 17910633706909692434
550186 83 18187932724618480904

> <PUBCHEM_SHAPE_MULTIPOLES>
673.33
9.32
5.71
2.88
9.03
6.22
1.93
0.05
-6.17
0.79
5.46
-2.05
1.24
-1.19

> <PUBCHEM_SHAPE_SELFOVERLAP>
1384.773

> <PUBCHEM_SHAPE_VOLUME>
383.8

> <PUBCHEM_COORDINATE_TYPE>
2
5
10

$$$$
