REMARK  Name = 122367405
REMARK  0 active torsions:
REMARK  status: ('A' for Active; 'I' for Inactive)
REMARK                            x       y       z     vdW  Elec       q    Type
REMARK                         _______ _______ _______ _____ _____    ______ ____
ROOT
ATOM      1  S   UNL     1       0.680   0.408   1.574  0.00  0.00    -0.102 S 
ATOM      2  O   UNL     1       0.655  -2.225  -1.756  0.00  0.00    -0.273 OA
ATOM      3  O   UNL     1       3.599   1.650  -0.101  0.00  0.00    -0.272 OA
ATOM      4  O   UNL     1      -0.034   2.999  -0.203  0.00  0.00    -0.273 OA
ATOM      5  N   UNL     1       1.980  -1.397   0.004  0.00  0.00    -0.264 N 
ATOM      6  N   UNL     1       1.761   0.901  -1.295  0.00  0.00    -0.295 N 
ATOM      7  N   UNL     1      -2.159   2.029  -0.093  0.00  0.00    -0.283 N 
ATOM      8  C   UNL     1      -0.307   0.539   0.027  0.00  0.00    +0.154 C 
ATOM      9  C   UNL     1       0.533   0.120  -1.198  0.00  0.00    +0.170 C 
ATOM     10  C   UNL     1       2.250  -0.183   0.805  0.00  0.00    +0.170 C 
ATOM     11  C   UNL     1      -1.632  -0.177   0.147  0.00  0.00    +0.010 C 
ATOM     12  C   UNL     1       1.064  -1.301  -1.060  0.00  0.00    +0.246 C 
ATOM     13  C   UNL     1       2.659   0.873  -0.230  0.00  0.00    +0.249 C 
ATOM     14  C   UNL     1      -0.761   2.021  -0.106  0.00  0.00    +0.241 C 
ATOM     15  C   UNL     1       3.311  -0.330   1.894  0.00  0.00    +0.041 C 
ATOM     16  C   UNL     1      -2.672   0.748   0.057  0.00  0.00    +0.048 C 
ATOM     17  C   UNL     1       2.565  -2.682   0.360  0.00  0.00    +0.116 C 
ATOM     18  C   UNL     1      -1.924  -1.519   0.332  0.00  0.00    -0.002 C 
ATOM     19  C   UNL     1      -4.005   0.392   0.129  0.00  0.00    +0.014 C 
ATOM     20  C   UNL     1      -3.266  -1.907   0.408  0.00  0.00    -0.000 C 
ATOM     21  C   UNL     1      -4.298  -0.960   0.305  0.00  0.00    +0.001 C 
ATOM     22  H   UNL     1       1.952   1.438  -2.097  0.00  0.00    +0.150 HD
ATOM     23  H   UNL     1      -2.709   2.841  -0.179  0.00  0.00    +0.155 HD
ENDROOT
TORSDOF 0
