REMARK  Name = 122361351
REMARK  8 active torsions:
REMARK  status: ('A' for Active; 'I' for Inactive)
REMARK    1  A    between atoms: C_2  and  N_7
REMARK    2  A    between atoms: C_4  and  O_16
REMARK    3  A    between atoms: C_5  and  C_18
REMARK    4  A    between atoms: C_12  and  O_14
REMARK    5  A    between atoms: C_18  and  O_19
REMARK    6  A    between atoms: O_19  and  P_20
REMARK    7  A    between atoms: P_20  and  O_22
REMARK    8  A    between atoms: P_20  and  O_24
REMARK                            x       y       z     vdW  Elec       q    Type
REMARK                         _______ _______ _______ _____ _____    ______ ____
ROOT
ATOM      1  O   UNL     1       0.249  -1.206   1.026  0.00  0.00    -0.335 OA
ATOM      2  C   UNL     1      -1.019  -1.413   0.388  0.00  0.00    +0.198 C 
ATOM      3  C   UNL     1      -0.745  -2.023  -0.977  0.00  0.00    +0.083 C 
ATOM      4  C   UNL     1       0.573  -2.731  -0.760  0.00  0.00    +0.144 C 
ATOM      5  C   UNL     1       1.283  -1.836   0.246  0.00  0.00    +0.174 C 
ENDROOT
BRANCH   2   7
ATOM      6  O   UNL     1      -3.817  -1.133   0.580  0.00  0.00    -0.252 OA
ATOM      7  N   UNL     1      -1.720  -0.165   0.309  0.00  0.00    -0.242 N 
ATOM      8  N   UNL     1      -3.708   1.113   0.233  0.00  0.00    -0.267 N 
ATOM      9  C   UNL     1      -0.914   1.016  -0.001  0.00  0.00    +0.101 C 
ATOM     10  C   UNL     1      -1.589   2.299   0.458  0.00  0.00    +0.072 C 
ATOM     11  C   UNL     1      -3.119  -0.135   0.381  0.00  0.00    +0.307 C 
ATOM     12  C   UNL     1      -3.001   2.335  -0.090  0.00  0.00    +0.190 C 
ATOM     13  H   UNL     1      -4.683   1.173   0.358  0.00  0.00    +0.153 HD
BRANCH  12  14
ATOM     14  O   UNL     1      -2.973   2.486  -1.503  0.00  0.00    -0.367 OA
ATOM     15  H   UNL     1      -3.880   2.507  -1.844  0.00  0.00    +0.212 HD
ENDBRANCH  12  14
ENDBRANCH   2   7
BRANCH   4  16
ATOM     16  O   UNL     1       0.340  -4.015  -0.187  0.00  0.00    -0.382 OA
ATOM     17  H   UNL     1      -0.113  -4.580  -0.833  0.00  0.00    +0.210 HD
ENDBRANCH   4  16
BRANCH   5  18
ATOM     18  C   UNL     1       2.106  -0.737  -0.415  0.00  0.00    +0.186 C 
BRANCH  18  19
ATOM     19  O   UNL     1       2.718   0.048   0.595  0.00  0.00    -0.271 OA
BRANCH  19  20
ATOM     20  P   UNL     1       3.653   1.290   0.146  0.00  0.00    +0.473 P 
ATOM     21  O   UNL     1       4.261   2.067   1.276  0.00  0.00    -0.227 OA
BRANCH  20  22
ATOM     22  O   UNL     1       2.705   2.144  -0.849  0.00  0.00    -0.303 OA
ATOM     23  H   UNL     1       2.359   1.562  -1.544  0.00  0.00    +0.222 HD
ENDBRANCH  20  22
BRANCH  20  24
ATOM     24  O   UNL     1       4.715   0.597  -0.857  0.00  0.00    -0.303 OA
ATOM     25  H   UNL     1       4.239   0.119  -1.553  0.00  0.00    +0.222 HD
ENDBRANCH  20  24
ENDBRANCH  19  20
ENDBRANCH  18  19
ENDBRANCH   5  18
TORSDOF 8
