REMARK  Name = 122331
REMARK  5 active torsions:
REMARK  status: ('A' for Active; 'I' for Inactive)
REMARK    1  A    between atoms: P_1  and  O_19
REMARK    2  A    between atoms: C_7  and  O_11
REMARK    3  A    between atoms: C_8  and  O_13
REMARK    4  A    between atoms: C_9  and  O_15
REMARK    5  A    between atoms: C_10  and  O_17
REMARK                            x       y       z     vdW  Elec       q    Type
REMARK                         _______ _______ _______ _____ _____    ______ ____
ROOT
ATOM      1  P   UNL     1       2.407   0.012   0.427  0.00  0.00    +0.476 P 
ATOM      2  O   UNL     1       1.812  -0.948  -0.749  0.00  0.00    -0.271 OA
ATOM      3  O   UNL     1       1.136   1.029   0.524  0.00  0.00    -0.271 OA
ATOM      4  O   UNL     1       2.821  -0.657   1.701  0.00  0.00    -0.227 OA
ATOM      5  C   UNL     1       0.449  -0.570  -1.035  0.00  0.00    +0.185 C 
ATOM      6  C   UNL     1       0.391   0.925  -0.704  0.00  0.00    +0.185 C 
ATOM      7  C   UNL     1      -0.462  -1.425  -0.148  0.00  0.00    +0.170 C 
ATOM      8  C   UNL     1      -1.026   1.458  -0.556  0.00  0.00    +0.170 C 
ATOM      9  C   UNL     1      -1.876  -0.860  -0.030  0.00  0.00    +0.169 C 
ATOM     10  C   UNL     1      -1.878   0.612   0.390  0.00  0.00    +0.169 C 
ENDROOT
BRANCH   7  11
ATOM     11  O   UNL     1      -0.552  -2.733  -0.718  0.00  0.00    -0.379 OA
ATOM     12  H   UNL     1       0.338  -3.111  -0.802  0.00  0.00    +0.211 HD
ENDBRANCH   7  11
BRANCH   8  13
ATOM     13  O   UNL     1      -0.949   2.800  -0.079  0.00  0.00    -0.379 OA
ATOM     14  H   UNL     1      -0.407   3.328  -0.685  0.00  0.00    +0.211 HD
ENDBRANCH   8  13
BRANCH   9  15
ATOM     15  O   UNL     1      -2.582  -1.603   0.969  0.00  0.00    -0.379 OA
ATOM     16  H   UNL     1      -2.594  -2.541   0.725  0.00  0.00    +0.211 HD
ENDBRANCH   9  15
BRANCH  10  17
ATOM     17  O   UNL     1      -3.230   1.075   0.337  0.00  0.00    -0.379 OA
ATOM     18  H   UNL     1      -3.263   2.008   0.599  0.00  0.00    +0.211 HD
ENDBRANCH  10  17
BRANCH   1  19
ATOM     19  O   UNL     1       3.538   0.883  -0.330  0.00  0.00    -0.302 OA
ATOM     20  H   UNL     1       3.163   1.269  -1.137  0.00  0.00    +0.222 HD
ENDBRANCH   1  19
TORSDOF 5
