REMARK  Name = 122399356
REMARK  12 active torsions:
REMARK  status: ('A' for Active; 'I' for Inactive)
REMARK    1  A    between atoms: C_5  and  C_25
REMARK    2  A    between atoms: C_7  and  O_33
REMARK    3  A    between atoms: C_10  and  O_19
REMARK    4  A    between atoms: C_12  and  O_21
REMARK    5  A    between atoms: C_14  and  O_23
REMARK    6  A    between atoms: C_25  and  C_27
REMARK    7  A    between atoms: C_27  and  C_28
REMARK    8  A    between atoms: C_28  and  O_29
REMARK    9  A    between atoms: O_29  and  C_31
REMARK   10  A    between atoms: O_33  and  C_35
REMARK   11  A    between atoms: C_35  and  C_36
REMARK   12  A    between atoms: C_36  and  C_37
REMARK                            x       y       z     vdW  Elec       q    Type
REMARK                         _______ _______ _______ _____ _____    ______ ____
ROOT
ATOM      1  O   UNL     1       1.187  -1.228   1.106  0.00  0.00    -0.352 OA
ATOM      2  C   UNL     1      -0.648  -1.074  -0.324  0.00  0.00    +0.037 C 
ATOM      3  C   UNL     1       0.591  -1.356  -1.195  0.00  0.00    +0.050 C 
ATOM      4  C   UNL     1      -0.017  -0.479   0.948  0.00  0.00    +0.152 C 
ATOM      5  C   UNL     1      -1.466  -2.350   0.031  0.00  0.00    +0.003 C 
ATOM      6  C   UNL     1       1.703  -1.632  -0.161  0.00  0.00    +0.148 C 
ATOM      7  C   UNL     1       0.256   1.054   0.962  0.00  0.00    +0.161 C 
ATOM      8  C   UNL     1      -1.679  -3.261  -1.186  0.00  0.00    +0.004 C 
ATOM      9  C   UNL     1       0.393  -2.429  -2.240  0.00  0.00    -0.042 C 
ATOM     10  C   UNL     1       3.014  -0.872  -0.460  0.00  0.00    +0.164 C 
ATOM     11  C   UNL     1      -0.349  -3.660  -1.810  0.00  0.00    +0.022 C 
ATOM     12  C   UNL     1       4.015  -0.726   0.727  0.00  0.00    +0.140 C 
ATOM     13  C   UNL     1       1.294   1.491   2.035  0.00  0.00    +0.045 C 
ATOM     14  C   UNL     1       3.457   0.034   1.973  0.00  0.00    +0.137 C 
ATOM     15  C   UNL     1       2.798   1.397   1.684  0.00  0.00    +0.035 C 
ATOM     16  C   UNL     1      -1.083   1.767   1.243  0.00  0.00    +0.046 C 
ATOM     17  C   UNL     1       0.796  -2.269  -3.510  0.00  0.00    -0.009 C 
ATOM     18  C   UNL     1       5.327  -0.086   0.223  0.00  0.00    +0.034 C 
ENDROOT
BRANCH  10  19
ATOM     19  O   UNL     1       3.670  -1.553  -1.537  0.00  0.00    -0.380 OA
ATOM     20  H   UNL     1       3.056  -1.649  -2.281  0.00  0.00    +0.211 HD
ENDBRANCH  10  19
BRANCH  12  21
ATOM     21  O   UNL     1       4.348  -2.055   1.162  0.00  0.00    -0.382 OA
ATOM     22  H   UNL     1       3.549  -2.498   1.488  0.00  0.00    +0.210 HD
ENDBRANCH  12  21
BRANCH  14  23
ATOM     23  O   UNL     1       4.549   0.255   2.884  0.00  0.00    -0.382 OA
ATOM     24  H   UNL     1       4.981  -0.590   3.082  0.00  0.00    +0.210 HD
ENDBRANCH  14  23
BRANCH   5  25
ATOM     25  C   UNL     1      -2.828  -1.982   0.632  0.00  0.00    +0.004 C 
ATOM     26  C   UNL     1      -3.305  -3.110   1.544  0.00  0.00    +0.000 C 
BRANCH  25  27
ATOM     27  C   UNL     1      -3.823  -1.673  -0.495  0.00  0.00    +0.047 C 
BRANCH  27  28
ATOM     28  C   UNL     1      -5.005  -0.821  -0.047  0.00  0.00    +0.208 C 
BRANCH  28  29
ATOM     29  O   UNL     1      -4.513   0.425   0.432  0.00  0.00    -0.448 OA
BRANCH  29  31
ATOM     30  O   UNL     1      -6.668   1.119   0.892  0.00  0.00    -0.250 OA
ATOM     31  C   UNL     1      -5.459   1.307   0.874  0.00  0.00    +0.318 C 
ATOM     32  C   UNL     1      -4.799   2.567   1.346  0.00  0.00    +0.121 C 
ENDBRANCH  29  31
ENDBRANCH  28  29
ENDBRANCH  27  28
ENDBRANCH  25  27
ENDBRANCH   5  25
BRANCH   7  33
ATOM     33  O   UNL     1       0.687   1.515  -0.316  0.00  0.00    -0.453 OA
BRANCH  33  35
ATOM     34  O   UNL     1       1.125   3.639   0.470  0.00  0.00    -0.250 OA
ATOM     35  C   UNL     1       0.826   2.866  -0.430  0.00  0.00    +0.317 C 
BRANCH  35  36
ATOM     36  C   UNL     1       0.547   3.260  -1.862  0.00  0.00    +0.110 C 
BRANCH  36  37
ATOM     37  C   UNL     1       0.656   4.769  -2.072  0.00  0.00    +0.012 C 
ATOM     38  C   UNL     1       0.406   5.150  -3.522  0.00  0.00    +0.001 C 
ENDBRANCH  36  37
ENDBRANCH  35  36
ENDBRANCH  33  35
ENDBRANCH   7  33
TORSDOF 12
