REMARK  Name = 122367507
REMARK  8 active torsions:
REMARK  status: ('A' for Active; 'I' for Inactive)
REMARK    1  A    between atoms: C_6  and  O_26
REMARK    2  A    between atoms: C_14  and  O_22
REMARK    3  A    between atoms: C_18  and  O_24
REMARK    4  A    between atoms: O_26  and  C_28
REMARK    5  A    between atoms: C_28  and  C_29
REMARK    6  A    between atoms: C_29  and  C_30
REMARK    7  A    between atoms: C_30  and  C_31
REMARK    8  A    between atoms: C_31  and  C_33
REMARK                            x       y       z     vdW  Elec       q    Type
REMARK                         _______ _______ _______ _____ _____    ______ ____
ROOT
ATOM      1  O   UNL     1      -2.453   3.014   1.656  0.00  0.00    -0.344 OA
ATOM      2  O   UNL     1      -4.580   1.934  -0.733  0.00  0.00    -0.289 OA
ATOM      3  O   UNL     1       1.562  -0.273   0.985  0.00  0.00    -0.287 OA
ATOM      4  C   UNL     1      -2.828   3.140   0.269  0.00  0.00    +0.176 C 
ATOM      5  C   UNL     1      -1.388   3.103   0.700  0.00  0.00    +0.191 C 
ATOM      6  C   UNL     1      -0.559   1.874   0.546  0.00  0.00    +0.221 C 
ATOM      7  C   UNL     1      -3.449   1.902  -0.265  0.00  0.00    +0.200 C 
ATOM      8  C   UNL     1      -1.335   0.627   0.213  0.00  0.00    +0.026 C 
ATOM      9  C   UNL     1      -3.420   4.481  -0.058  0.00  0.00    +0.040 C 
ATOM     10  C   UNL     1      -2.680   0.636  -0.197  0.00  0.00    +0.040 C 
ATOM     11  C   UNL     1      -0.727  -0.629   0.258  0.00  0.00    +0.042 C 
ATOM     12  C   UNL     1      -3.355  -0.560  -0.540  0.00  0.00    +0.039 C 
ATOM     13  C   UNL     1      -1.390  -1.828  -0.078  0.00  0.00    +0.040 C 
ATOM     14  C   UNL     1      -2.711  -1.797  -0.481  0.00  0.00    +0.134 C 
ATOM     15  C   UNL     1       0.664  -1.007   0.634  0.00  0.00    +0.196 C 
ATOM     16  C   UNL     1      -0.484  -2.946   0.071  0.00  0.00    +0.040 C 
ATOM     17  C   UNL     1       0.764  -2.473   0.500  0.00  0.00    +0.042 C 
ATOM     18  C   UNL     1      -0.666  -4.302  -0.136  0.00  0.00    +0.134 C 
ATOM     19  C   UNL     1       1.847  -3.297   0.735  0.00  0.00    +0.003 C 
ATOM     20  C   UNL     1       0.415  -5.161   0.095  0.00  0.00    +0.037 C 
ATOM     21  C   UNL     1       1.659  -4.663   0.526  0.00  0.00    +0.003 C 
ENDROOT
BRANCH  14  22
ATOM     22  O   UNL     1      -3.431  -2.892  -0.826  0.00  0.00    -0.506 OA
ATOM     23  H   UNL     1      -4.325  -2.801  -1.091  0.00  0.00    +0.292 HD
ENDBRANCH  14  22
BRANCH  18  24
ATOM     24  O   UNL     1      -1.829  -4.863  -0.550  0.00  0.00    -0.506 OA
ATOM     25  H   UNL     1      -2.577  -4.323  -0.715  0.00  0.00    +0.292 HD
ENDBRANCH  18  24
BRANCH   6  26
ATOM     26  O   UNL     1       0.378   2.088  -0.510  0.00  0.00    -0.445 OA
BRANCH  26  28
ATOM     27  O   UNL     1       1.859   3.030   0.988  0.00  0.00    -0.250 OA
ATOM     28  C   UNL     1       1.556   2.680  -0.144  0.00  0.00    +0.317 C 
BRANCH  28  29
ATOM     29  C   UNL     1       2.437   2.820  -1.366  0.00  0.00    +0.110 C 
BRANCH  29  30
ATOM     30  C   UNL     1       3.346   1.604  -1.556  0.00  0.00    +0.012 C 
BRANCH  30  31
ATOM     31  C   UNL     1       4.324   1.370  -0.384  0.00  0.00    +0.001 C 
ATOM     32  C   UNL     1       5.236   2.580  -0.161  0.00  0.00    +0.000 C 
BRANCH  31  33
ATOM     33  C   UNL     1       5.139   0.088  -0.657  0.00  0.00    +0.000 C 
ATOM     34  C   UNL     1       6.100  -0.281   0.465  0.00  0.00    +0.000 C 
ENDBRANCH  31  33
ENDBRANCH  30  31
ENDBRANCH  29  30
ENDBRANCH  28  29
ENDBRANCH  26  28
ENDBRANCH   6  26
TORSDOF 8
