122367405
  -OEChem-03292013293D

 34 37  0     1  0  0  0  0  0999 V2000
    0.6796    0.4077    1.5740 S   0  0  0  0  0  0  0  0  0  0  0  0
    0.6550   -2.2252   -1.7556 O   0  0  0  0  0  0  0  0  0  0  0  0
    3.5990    1.6498   -0.1006 O   0  0  0  0  0  0  0  0  0  0  0  0
   -0.0340    2.9993   -0.2035 O   0  0  0  0  0  0  0  0  0  0  0  0
    1.9803   -1.3975    0.0039 N   0  0  0  0  0  0  0  0  0  0  0  0
    1.7611    0.9011   -1.2946 N   0  0  0  0  0  0  0  0  0  0  0  0
   -2.1586    2.0292   -0.0929 N   0  0  0  0  0  0  0  0  0  0  0  0
   -0.3066    0.5387    0.0271 C   0  0  1  0  0  0  0  0  0  0  0  0
    0.5327    0.1201   -1.1981 C   0  0  2  0  0  0  0  0  0  0  0  0
    2.2502   -0.1829    0.8048 C   0  0  1  0  0  0  0  0  0  0  0  0
   -1.6324   -0.1769    0.1468 C   0  0  0  0  0  0  0  0  0  0  0  0
    1.0639   -1.3006   -1.0597 C   0  0  0  0  0  0  0  0  0  0  0  0
    2.6591    0.8727   -0.2302 C   0  0  0  0  0  0  0  0  0  0  0  0
   -0.7610    2.0211   -0.1065 C   0  0  0  0  0  0  0  0  0  0  0  0
    3.3113   -0.3304    1.8938 C   0  0  0  0  0  0  0  0  0  0  0  0
   -2.6719    0.7484    0.0574 C   0  0  0  0  0  0  0  0  0  0  0  0
    2.5653   -2.6816    0.3597 C   0  0  0  0  0  0  0  0  0  0  0  0
   -1.9239   -1.5186    0.3320 C   0  0  0  0  0  0  0  0  0  0  0  0
   -4.0051    0.3923    0.1294 C   0  0  0  0  0  0  0  0  0  0  0  0
   -3.2659   -1.9072    0.4080 C   0  0  0  0  0  0  0  0  0  0  0  0
   -4.2981   -0.9595    0.3047 C   0  0  0  0  0  0  0  0  0  0  0  0
   -0.0080    0.2288   -2.1442 H   0  0  0  0  0  0  0  0  0  0  0  0
    1.8820    1.5757   -2.0438 H   0  0  0  0  0  0  0  0  0  0  0  0
    3.0339   -1.0837    2.6396 H   0  0  0  0  0  0  0  0  0  0  0  0
    3.4857    0.6158    2.4204 H   0  0  0  0  0  0  0  0  0  0  0  0
    4.2750   -0.6299    1.4655 H   0  0  0  0  0  0  0  0  0  0  0  0
   -2.7345    2.8595   -0.1675 H   0  0  0  0  0  0  0  0  0  0  0  0
    3.6547   -2.6044    0.3205 H   0  0  0  0  0  0  0  0  0  0  0  0
    2.2458   -3.4630   -0.3350 H   0  0  0  0  0  0  0  0  0  0  0  0
    2.2390   -2.9546    1.3667 H   0  0  0  0  0  0  0  0  0  0  0  0
   -1.1417   -2.2634    0.4263 H   0  0  0  0  0  0  0  0  0  0  0  0
   -4.7976    1.1285    0.0576 H   0  0  0  0  0  0  0  0  0  0  0  0
   -3.5144   -2.9555    0.5517 H   0  0  0  0  0  0  0  0  0  0  0  0
   -5.3330   -1.2844    0.3679 H   0  0  0  0  0  0  0  0  0  0  0  0
  1  8  1  0  0  0  0
  1 10  1  0  0  0  0
  2 12  2  0  0  0  0
  3 13  2  0  0  0  0
  4 14  2  0  0  0  0
  5 10  1  0  0  0  0
  5 12  1  0  0  0  0
  5 17  1  0  0  0  0
  6  9  1  0  0  0  0
  6 13  1  0  0  0  0
  6 23  1  0  0  0  0
  7 14  1  0  0  0  0
  7 16  1  0  0  0  0
  7 27  1  0  0  0  0
  8  9  1  0  0  0  0
  8 11  1  0  0  0  0
  8 14  1  0  0  0  0
  9 12  1  0  0  0  0
  9 22  1  0  0  0  0
 10 13  1  0  0  0  0
 10 15  1  0  0  0  0
 11 16  1  0  0  0  0
 11 18  2  0  0  0  0
 15 24  1  0  0  0  0
 15 25  1  0  0  0  0
 15 26  1  0  0  0  0
 16 19  2  0  0  0  0
 17 28  1  0  0  0  0
 17 29  1  0  0  0  0
 17 30  1  0  0  0  0
 18 20  1  0  0  0  0
 18 31  1  0  0  0  0
 19 21  1  0  0  0  0
 19 32  1  0  0  0  0
 20 21  2  0  0  0  0
 20 33  1  0  0  0  0
 21 34  1  0  0  0  0
M  END
> <PUBCHEM_COMPOUND_CID>
122367405

> <PUBCHEM_CONFORMER_RMSD>
0.6

> <PUBCHEM_CONFORMER_DIVERSEORDER>
1

> <PUBCHEM_MMFF94_PARTIAL_CHARGES>
26
1 -0.46
10 0.59
11 -0.14
12 0.57
13 0.57
14 0.57
16 0.12
17 0.3
18 -0.15
19 -0.15
2 -0.57
20 -0.15
21 -0.15
23 0.37
27 0.37
3 -0.57
31 0.15
32 0.15
33 0.15
34 0.15
4 -0.57
5 -0.66
6 -0.73
7 -0.55
8 0.43
9 0.36

> <PUBCHEM_EFFECTIVE_ROTOR_COUNT>
0.8

> <PUBCHEM_PHARMACOPHORE_FEATURES>
8
1 2 acceptor
1 3 acceptor
1 4 acceptor
1 6 donor
1 7 donor
5 7 8 11 14 16 rings
6 11 16 18 19 20 21 rings
8 1 5 6 8 9 10 12 13 rings

> <PUBCHEM_HEAVY_ATOM_COUNT>
21

> <PUBCHEM_ATOM_DEF_STEREO_COUNT>
3

> <PUBCHEM_ATOM_UDEF_STEREO_COUNT>
0

> <PUBCHEM_BOND_DEF_STEREO_COUNT>
0

> <PUBCHEM_BOND_UDEF_STEREO_COUNT>
0

> <PUBCHEM_ISOTOPIC_ATOM_COUNT>
0

> <PUBCHEM_COMPONENT_COUNT>
1

> <PUBCHEM_CACTVS_TAUTO_COUNT>
10

> <PUBCHEM_CONFORMER_ID>
074B2DAD00000001

> <PUBCHEM_MMFF94_ENERGY>
80.0171

> <PUBCHEM_FEATURE_SELFOVERLAP>
40.685

> <PUBCHEM_SHAPE_FINGERPRINT>
10616163 171 18411142475950456823
10863032 1 18409168796411532800
10948715 1 18192998346908316728
10967382 1 18337676416086059983
11067466 332 18131355210833426714
12011746 2 18342738567493714453
12382932 28 18411140242556764099
12553582 1 18338243768681705015
12633257 1 17982165621829051354
13140716 1 18194414298946808611
13224815 77 18202846556504414871
13464513 79 17912937359257172263
14115302 16 16732989760281950307
14142880 1 15761839663501719512
14223421 5 18408600331846924812
14787075 74 17754176697821629792
14790565 3 18049452731204226140
15375358 24 18413669106763913101
15375462 478 18261660524358805984
15375462 6 18410292506096077004
16945 1 18410288155125433592
17804303 29 18051416166997521198
1813 80 16733827454998686402
19049666 15 17769655300209998035
20905425 154 18411706456416363614
21069387 34 16660358177628421531
21421861 104 18114182982401651603
21501502 16 18269844124811203625
23184049 29 18264209106196587779
2334 1 18411429384203137375
23419403 2 17121389781545465706
23557571 272 18341615867311354313
23559900 14 18267582408102797582
2748010 2 18269564844931949151
296302 2 17967812799014068069
34934 24 18409729603661693597
394222 165 17388542893550266496
474 4 17024320836153944484
484985 159 15655164654859993826
495365 180 17416950752122458969
568465 68 17774999124199775651
7097593 13 17899119534505940610
7364860 26 18410578357871309158
81228 2 18194979447934437697
9709674 26 18340488850866196911

> <PUBCHEM_SHAPE_MULTIPOLES>
403.47
6.17
2.59
1.3
3.29
0.08
-0.07
-1.22
-1.48
-0.3
0.38
-1.02
-0.29
0.07

> <PUBCHEM_SHAPE_SELFOVERLAP>
890.319

> <PUBCHEM_SHAPE_VOLUME>
218.5

> <PUBCHEM_COORDINATE_TYPE>
2
5
10

$$$$
