REMARK  Name = 122373177
REMARK  5 active torsions:
REMARK  status: ('A' for Active; 'I' for Inactive)
REMARK    1  A    between atoms: C_9  and  O_23
REMARK    2  A    between atoms: C_9  and  C_30
REMARK    3  A    between atoms: C_16  and  C_25
REMARK    4  A    between atoms: C_26  and  C_28
REMARK    5  A    between atoms: C_30  and  O_31
REMARK                            x       y       z     vdW  Elec       q    Type
REMARK                         _______ _______ _______ _____ _____    ______ ____
ROOT
ATOM      1  O   UNL     1       0.184   0.409  -2.179  0.00  0.00    -0.219 OA
ATOM      2  O   UNL     1       1.837   2.158   0.263  0.00  0.00    -0.446 OA
ATOM      3  O   UNL     1       1.464   0.781  -2.764  0.00  0.00    -0.225 OA
ATOM      4  O   UNL     1       2.732   3.137   2.139  0.00  0.00    -0.245 OA
ATOM      5  C   UNL     1      -2.544   1.026  -1.684  0.00  0.00    +0.005 C 
ATOM      6  C   UNL     1      -1.488   1.241  -0.596  0.00  0.00    +0.035 C 
ATOM      7  C   UNL     1      -3.519  -0.028  -1.196  0.00  0.00    +0.027 C 
ATOM      8  C   UNL     1      -1.596  -0.098   0.204  0.00  0.00    +0.034 C 
ATOM      9  C   UNL     1      -3.096  -0.468   0.198  0.00  0.00    +0.115 C 
ATOM     10  C   UNL     1      -4.008   1.354  -1.515  0.00  0.00    +0.003 C 
ATOM     11  C   UNL     1      -0.018   1.344  -1.107  0.00  0.00    +0.192 C 
ATOM     12  C   UNL     1       1.034   0.983  -0.004  0.00  0.00    +0.185 C 
ATOM     13  C   UNL     1      -0.831  -0.069   1.526  0.00  0.00    +0.028 C 
ATOM     14  C   UNL     1      -1.823   2.528   0.197  0.00  0.00    +0.003 C 
ATOM     15  C   UNL     1       0.439   0.724   1.357  0.00  0.00    -0.003 C 
ATOM     16  C   UNL     1       2.048  -0.117  -0.497  0.00  0.00    +0.093 C 
ATOM     17  C   UNL     1       2.496   0.148  -1.985  0.00  0.00    +0.134 C 
ATOM     18  C   UNL     1       1.031   1.460   2.302  0.00  0.00    +0.049 C 
ATOM     19  C   UNL     1       1.983   2.336   1.606  0.00  0.00    +0.337 C 
ATOM     20  C   UNL     1       2.937  -1.112  -2.747  0.00  0.00    +0.033 C 
ATOM     21  C   UNL     1       3.677   1.138  -2.015  0.00  0.00    +0.033 C 
ATOM     22  C   UNL     1       0.765   1.583   3.754  0.00  0.00    +0.037 C 
ENDROOT
BRANCH   9  23
ATOM     23  O   UNL     1      -3.811   0.251   1.196  0.00  0.00    -0.384 OA
ATOM     24  H   UNL     1      -3.681   1.203   1.064  0.00  0.00    +0.210 HD
ENDBRANCH   9  23
BRANCH  16  25
ATOM     25  C   UNL     1       1.535  -1.516  -0.276  0.00  0.00    -0.017 C 
ATOM     26  C   UNL     1       2.140  -2.405   0.524  0.00  0.00    +0.033 C 
BRANCH  26  28
ATOM     27  O   UNL     1       0.556  -4.139   0.127  0.00  0.00    -0.291 OA
ATOM     28  C   UNL     1       1.581  -3.774   0.698  0.00  0.00    +0.173 C 
ATOM     29  C   UNL     1       2.330  -4.703   1.617  0.00  0.00    +0.077 C 
ENDBRANCH  26  28
ENDBRANCH  16  25
BRANCH   9  30
ATOM     30  C   UNL     1      -3.321  -1.959   0.434  0.00  0.00    +0.164 C 
BRANCH  30  31
ATOM     31  O   UNL     1      -4.714  -2.211   0.424  0.00  0.00    -0.380 OA
ATOM     32  H   UNL     1      -4.872  -3.156   0.573  0.00  0.00    +0.211 HD
ENDBRANCH  30  31
ENDBRANCH   9  30
TORSDOF 5
