REMARK  Name = 122375922
REMARK  6 active torsions:
REMARK  status: ('A' for Active; 'I' for Inactive)
REMARK    1  A    between atoms: C_1  and  N_8
REMARK    2  A    between atoms: C_2  and  O_12
REMARK    3  A    between atoms: C_3  and  O_14
REMARK    4  A    between atoms: C_4  and  O_16
REMARK    5  A    between atoms: C_5  and  C_18
REMARK    6  A    between atoms: C_18  and  O_19
REMARK                            x       y       z     vdW  Elec       q    Type
REMARK                         _______ _______ _______ _____ _____    ______ ____
ROOT
ATOM      1  C   UNL     1      -0.811   0.631  -0.628  0.00  0.00    +0.132 C 
ATOM      2  C   UNL     1       0.023  -0.460  -1.318  0.00  0.00    +0.162 C 
ATOM      3  C   UNL     1       1.156  -0.991  -0.417  0.00  0.00    +0.159 C 
ATOM      4  C   UNL     1       0.093   1.787  -0.165  0.00  0.00    +0.152 C 
ATOM      5  C   UNL     1       1.817   0.068   0.443  0.00  0.00    +0.012 C 
ATOM      6  C   UNL     1       1.335   1.320   0.539  0.00  0.00    +0.001 C 
ENDROOT
BRANCH   1   8
ATOM      7  O   UNL     1      -3.450  -0.576  -0.772  0.00  0.00    -0.275 OA
ATOM      8  N   UNL     1      -1.587   0.075   0.462  0.00  0.00    -0.301 N 
ATOM      9  C   UNL     1      -2.843  -0.481   0.291  0.00  0.00    +0.223 C 
ATOM     10  C   UNL     1      -3.414  -1.005   1.581  0.00  0.00    +0.095 C 
ATOM     11  H   UNL     1      -1.202   0.094   1.368  0.00  0.00    +0.150 HD
ENDBRANCH   1   8
BRANCH   2  12
ATOM     12  O   UNL     1       0.607   0.072  -2.508  0.00  0.00    -0.380 OA
ATOM     13  H   UNL     1      -0.093   0.412  -3.087  0.00  0.00    +0.211 HD
ENDBRANCH   2  12
BRANCH   3  14
ATOM     14  O   UNL     1       0.612  -2.003   0.431  0.00  0.00    -0.378 OA
ATOM     15  H   UNL     1       0.187  -2.685  -0.111  0.00  0.00    +0.211 HD
ENDBRANCH   3  14
BRANCH   4  16
ATOM     16  O   UNL     1      -0.653   2.667   0.672  0.00  0.00    -0.378 OA
ATOM     17  H   UNL     1      -1.451   2.959   0.204  0.00  0.00    +0.211 HD
ENDBRANCH   4  16
BRANCH   5  18
ATOM     18  C   UNL     1       3.072  -0.339   1.163  0.00  0.00    +0.162 C 
BRANCH  18  19
ATOM     19  O   UNL     1       4.041  -0.764   0.225  0.00  0.00    -0.377 OA
ATOM     20  H   UNL     1       4.850  -1.026   0.692  0.00  0.00    +0.211 HD
ENDBRANCH  18  19
ENDBRANCH   5  18
TORSDOF 6
