REMARK  Name = 122372553
REMARK  16 active torsions:
REMARK  status: ('A' for Active; 'I' for Inactive)
REMARK    1  A    between atoms: C_3  and  C_17
REMARK    2  A    between atoms: C_4  and  O_7
REMARK    3  A    between atoms: C_4  and  C_10
REMARK    4  A    between atoms: C_5  and  C_14
REMARK    5  A    between atoms: C_10  and  O_11
REMARK    6  A    between atoms: C_14  and  O_15
REMARK    7  A    between atoms: C_17  and  C_18
REMARK    8  A    between atoms: C_18  and  C_19
REMARK    9  A    between atoms: C_19  and  C_20
REMARK   10  A    between atoms: C_20  and  C_21
REMARK   11  A    between atoms: C_21  and  C_22
REMARK   12  A    between atoms: C_22  and  C_23
REMARK   13  A    between atoms: C_23  and  C_24
REMARK   14  A    between atoms: C_24  and  C_25
REMARK   15  A    between atoms: C_25  and  C_26
REMARK   16  A    between atoms: C_26  and  C_27
REMARK                            x       y       z     vdW  Elec       q    Type
REMARK                         _______ _______ _______ _____ _____    ______ ____
ROOT
ATOM      1  O   UNL     1       4.753  -1.749   0.004  0.00  0.00    -0.437 OA
ATOM      2  O   UNL     1       2.601  -2.482  -0.264  0.00  0.00    -0.250 OA
ATOM      3  C   UNL     1       3.041  -0.289   0.700  0.00  0.00    +0.138 C 
ATOM      4  C   UNL     1       4.337   0.498   0.538  0.00  0.00    +0.235 C 
ATOM      5  C   UNL     1       5.385  -0.600   0.571  0.00  0.00    +0.301 C 
ATOM      6  C   UNL     1       3.394  -1.623   0.088  0.00  0.00    +0.320 C 
ENDROOT
BRANCH   4   7
ATOM      7  O   UNL     1       4.512   1.378   1.638  0.00  0.00    -0.373 OA
ATOM      8  H   UNL     1       4.501   0.869   2.464  0.00  0.00    +0.211 HD
ENDBRANCH   4   7
BRANCH   4  10
ATOM      9  O   UNL     1       4.496   2.572  -0.706  0.00  0.00    -0.248 OA
ATOM     10  C   UNL     1       4.366   1.357  -0.698  0.00  0.00    +0.343 C 
BRANCH  10  11
ATOM     11  O   UNL     1       4.226   0.597  -1.812  0.00  0.00    -0.478 OA
ATOM     12  H   UNL     1       4.131  -0.332  -1.736  0.00  0.00    +0.295 HD
ENDBRANCH  10  11
ENDBRANCH   4  10
BRANCH   5  14
ATOM     13  O   UNL     1       6.935  -0.967  -1.243  0.00  0.00    -0.246 OA
ATOM     14  C   UNL     1       6.609  -0.339  -0.247  0.00  0.00    +0.358 C 
BRANCH  14  15
ATOM     15  O   UNL     1       7.317   0.696   0.268  0.00  0.00    -0.478 OA
ATOM     16  H   UNL     1       7.012   1.136   1.036  0.00  0.00    +0.295 HD
ENDBRANCH  14  15
ENDBRANCH   5  14
BRANCH   3  17
ATOM     17  C   UNL     1       1.800   0.330   0.075  0.00  0.00    +0.014 C 
BRANCH  17  18
ATOM     18  C   UNL     1       0.491  -0.195   0.667  0.00  0.00    +0.001 C 
BRANCH  18  19
ATOM     19  C   UNL     1      -0.755   0.412   0.018  0.00  0.00    +0.000 C 
BRANCH  19  20
ATOM     20  C   UNL     1      -2.034  -0.170   0.625  0.00  0.00    +0.000 C 
BRANCH  20  21
ATOM     21  C   UNL     1      -3.282   0.460   0.002  0.00  0.00    +0.000 C 
BRANCH  21  22
ATOM     22  C   UNL     1      -4.561  -0.146   0.584  0.00  0.00    +0.000 C 
BRANCH  22  23
ATOM     23  C   UNL     1      -5.806   0.462  -0.064  0.00  0.00    +0.000 C 
BRANCH  23  24
ATOM     24  C   UNL     1      -7.117  -0.133   0.460  0.00  0.00    +0.000 C 
BRANCH  24  25
ATOM     25  C   UNL     1      -8.400   0.422  -0.169  0.00  0.00    +0.005 C 
BRANCH  25  26
ATOM     26  C   UNL     1      -9.672  -0.250   0.354  0.00  0.00    +0.026 C 
BRANCH  26  27
ATOM     27  C   UNL     1     -10.889   0.268  -0.356  0.00  0.00    -0.026 C 
ATOM     28  C   UNL     1     -11.745  -0.506  -1.032  0.00  0.00    -0.005 C 
ENDBRANCH  26  27
ENDBRANCH  25  26
ENDBRANCH  24  25
ENDBRANCH  23  24
ENDBRANCH  22  23
ENDBRANCH  21  22
ENDBRANCH  20  21
ENDBRANCH  19  20
ENDBRANCH  18  19
ENDBRANCH  17  18
ENDBRANCH   3  17
TORSDOF 16
