122372553
  -OEChem-03292013293D

 53 53  0     1  0  0  0  0  0999 V2000
    4.7529   -1.7490    0.0040 O   0  0  0  0  0  0  0  0  0  0  0  0
    4.5122    1.3776    1.6377 O   0  0  0  0  0  0  0  0  0  0  0  0
    2.6011   -2.4824   -0.2638 O   0  0  0  0  0  0  0  0  0  0  0  0
    4.2262    0.5968   -1.8121 O   0  0  0  0  0  0  0  0  0  0  0  0
    4.4957    2.5718   -0.7062 O   0  0  0  0  0  0  0  0  0  0  0  0
    7.3174    0.6957    0.2681 O   0  0  0  0  0  0  0  0  0  0  0  0
    6.9347   -0.9672   -1.2432 O   0  0  0  0  0  0  0  0  0  0  0  0
    3.0406   -0.2892    0.6995 C   0  0  1  0  0  0  0  0  0  0  0  0
    4.3371    0.4978    0.5385 C   0  0  2  0  0  0  0  0  0  0  0  0
    1.8000    0.3301    0.0750 C   0  0  0  0  0  0  0  0  0  0  0  0
    5.3846   -0.6002    0.5714 C   0  0  2  0  0  0  0  0  0  0  0  0
    0.4906   -0.1952    0.6675 C   0  0  0  0  0  0  0  0  0  0  0  0
    3.3939   -1.6225    0.0884 C   0  0  0  0  0  0  0  0  0  0  0  0
   -0.7553    0.4119    0.0185 C   0  0  0  0  0  0  0  0  0  0  0  0
   -2.0345   -0.1695    0.6247 C   0  0  0  0  0  0  0  0  0  0  0  0
    4.3662    1.3566   -0.6984 C   0  0  0  0  0  0  0  0  0  0  0  0
   -3.2817    0.4601    0.0017 C   0  0  0  0  0  0  0  0  0  0  0  0
    6.6090   -0.3387   -0.2471 C   0  0  0  0  0  0  0  0  0  0  0  0
   -4.5606   -0.1461    0.5840 C   0  0  0  0  0  0  0  0  0  0  0  0
   -5.8062    0.4615   -0.0638 C   0  0  0  0  0  0  0  0  0  0  0  0
   -7.1174   -0.1329    0.4597 C   0  0  0  0  0  0  0  0  0  0  0  0
   -8.4001    0.4217   -0.1689 C   0  0  0  0  0  0  0  0  0  0  0  0
   -9.6722   -0.2496    0.3537 C   0  0  0  0  0  0  0  0  0  0  0  0
  -10.8890    0.2675   -0.3564 C   0  0  0  0  0  0  0  0  0  0  0  0
  -11.7453   -0.5063   -1.0325 C   0  0  0  0  0  0  0  0  0  0  0  0
    2.8572   -0.4707    1.7674 H   0  0  0  0  0  0  0  0  0  0  0  0
    1.7814    0.1587   -1.0083 H   0  0  0  0  0  0  0  0  0  0  0  0
    1.8144    1.4163    0.2304 H   0  0  0  0  0  0  0  0  0  0  0  0
    5.7048   -0.8654    1.5865 H   0  0  0  0  0  0  0  0  0  0  0  0
    0.4734    0.0167    1.7440 H   0  0  0  0  0  0  0  0  0  0  0  0
    0.4486   -1.2853    0.5618 H   0  0  0  0  0  0  0  0  0  0  0  0
   -0.7430    1.5002    0.1525 H   0  0  0  0  0  0  0  0  0  0  0  0
   -0.7387    0.2178   -1.0607 H   0  0  0  0  0  0  0  0  0  0  0  0
   -2.0527   -1.2550    0.4691 H   0  0  0  0  0  0  0  0  0  0  0  0
   -2.0405    0.0022    1.7080 H   0  0  0  0  0  0  0  0  0  0  0  0
   -3.2745    1.5428    0.1761 H   0  0  0  0  0  0  0  0  0  0  0  0
   -3.2650    0.3070   -1.0842 H   0  0  0  0  0  0  0  0  0  0  0  0
    4.5202    0.8536    2.4566 H   0  0  0  0  0  0  0  0  0  0  0  0
   -4.5906    0.0224    1.6671 H   0  0  0  0  0  0  0  0  0  0  0  0
   -4.5594   -1.2311    0.4249 H   0  0  0  0  0  0  0  0  0  0  0  0
   -5.8134    1.5451    0.1067 H   0  0  0  0  0  0  0  0  0  0  0  0
   -5.7595    0.3126   -1.1496 H   0  0  0  0  0  0  0  0  0  0  0  0
   -7.1648    0.0202    1.5453 H   0  0  0  0  0  0  0  0  0  0  0  0
   -7.0930   -1.2189    0.3023 H   0  0  0  0  0  0  0  0  0  0  0  0
   -8.4497    1.5024    0.0160 H   0  0  0  0  0  0  0  0  0  0  0  0
   -8.3402    0.2926   -1.2575 H   0  0  0  0  0  0  0  0  0  0  0  0
    4.2404    1.1388   -2.6296 H   0  0  0  0  0  0  0  0  0  0  0  0
    8.1254    0.8833   -0.2556 H   0  0  0  0  0  0  0  0  0  0  0  0
   -9.5891   -1.3370    0.2373 H   0  0  0  0  0  0  0  0  0  0  0  0
   -9.7788   -0.0499    1.4264 H   0  0  0  0  0  0  0  0  0  0  0  0
  -11.0865    1.3348   -0.2981 H   0  0  0  0  0  0  0  0  0  0  0  0
  -12.6123   -0.0718   -1.5181 H   0  0  0  0  0  0  0  0  0  0  0  0
  -11.5993   -1.5776   -1.1146 H   0  0  0  0  0  0  0  0  0  0  0  0
  1 11  1  0  0  0  0
  1 13  1  0  0  0  0
  2  9  1  0  0  0  0
  2 38  1  0  0  0  0
  3 13  2  0  0  0  0
  4 16  1  0  0  0  0
  4 47  1  0  0  0  0
  5 16  2  0  0  0  0
  6 18  1  0  0  0  0
  6 48  1  0  0  0  0
  7 18  2  0  0  0  0
  8  9  1  0  0  0  0
  8 10  1  0  0  0  0
  8 13  1  0  0  0  0
  8 26  1  0  0  0  0
  9 11  1  0  0  0  0
  9 16  1  0  0  0  0
 10 12  1  0  0  0  0
 10 27  1  0  0  0  0
 10 28  1  0  0  0  0
 11 18  1  0  0  0  0
 11 29  1  0  0  0  0
 12 14  1  0  0  0  0
 12 30  1  0  0  0  0
 12 31  1  0  0  0  0
 14 15  1  0  0  0  0
 14 32  1  0  0  0  0
 14 33  1  0  0  0  0
 15 17  1  0  0  0  0
 15 34  1  0  0  0  0
 15 35  1  0  0  0  0
 17 19  1  0  0  0  0
 17 36  1  0  0  0  0
 17 37  1  0  0  0  0
 19 20  1  0  0  0  0
 19 39  1  0  0  0  0
 19 40  1  0  0  0  0
 20 21  1  0  0  0  0
 20 41  1  0  0  0  0
 20 42  1  0  0  0  0
 21 22  1  0  0  0  0
 21 43  1  0  0  0  0
 21 44  1  0  0  0  0
 22 23  1  0  0  0  0
 22 45  1  0  0  0  0
 22 46  1  0  0  0  0
 23 24  1  0  0  0  0
 23 49  1  0  0  0  0
 23 50  1  0  0  0  0
 24 25  2  0  0  0  0
 24 51  1  0  0  0  0
 25 52  1  0  0  0  0
 25 53  1  0  0  0  0
M  END
> <PUBCHEM_COMPOUND_CID>
122372553

> <PUBCHEM_CONFORMER_RMSD>
1.2

> <PUBCHEM_CONFORMER_DIVERSEORDER>
1
29
76
33
24
81
77
15
70
25
55
6
74
12
69
79
39
85
38
17
87
26
48
60
40
84
47
5
27
59
83
58
7
46
31
3
28
37
78
51
22
57
90
42
20
21
65
53
11
34
64
45
32
52
4
30
88
67
68
61
13
54
8
44
82
18
23
10
16
14
91
50
75
9
19
2
86
49
71
80
72
43
63
66
36
62
89
41
56
35
73

> <PUBCHEM_MMFF94_PARTIAL_CHARGES>
22
1 -0.43
11 0.34
13 0.66
16 0.66
18 0.66
2 -0.68
23 0.14
24 -0.29
25 -0.3
3 -0.57
38 0.4
4 -0.65
47 0.5
48 0.5
5 -0.57
51 0.15
52 0.15
53 0.15
6 -0.65
7 -0.57
8 0.06
9 0.34

> <PUBCHEM_EFFECTIVE_ROTOR_COUNT>
13.8

> <PUBCHEM_PHARMACOPHORE_FEATURES>
11
1 2 acceptor
1 2 donor
1 25 hydrophobe
1 3 acceptor
1 4 acceptor
1 5 acceptor
1 6 acceptor
1 7 acceptor
3 4 5 16 anion
3 6 7 18 anion
5 1 8 9 11 13 rings

> <PUBCHEM_HEAVY_ATOM_COUNT>
25

> <PUBCHEM_ATOM_DEF_STEREO_COUNT>
3

> <PUBCHEM_ATOM_UDEF_STEREO_COUNT>
0

> <PUBCHEM_BOND_DEF_STEREO_COUNT>
0

> <PUBCHEM_BOND_UDEF_STEREO_COUNT>
0

> <PUBCHEM_ISOTOPIC_ATOM_COUNT>
0

> <PUBCHEM_COMPONENT_COUNT>
1

> <PUBCHEM_CACTVS_TAUTO_COUNT>
2

> <PUBCHEM_CONFORMER_ID>
074B41C900000001

> <PUBCHEM_MMFF94_ENERGY>
23.6144

> <PUBCHEM_FEATURE_SELFOVERLAP>
55.945

> <PUBCHEM_SHAPE_FINGERPRINT>
10162869 55 18412262839802665265
10299344 5 18060136536432157907
11135609 127 18338515360607020808
11638347 137 13398633840403728933
14251764 18 18060703884579653841
14251764 46 15195286430678018465
15510794 2 17821452374926728443
16120349 18 18408602587390674429
1754911 235 17967809454395068111
21360442 67 18333169471128533755
21362267 313 11386906880907373861
232437 2 17704352178992174095
33684 2 16877660158721975209
4325135 7 18409450284679353327
59520757 100 17385733546746927299
59521099 67 18343021112451324616
59521120 56 15266762422110054023
67123 10 18412261741071577123
8209 1 17894348874571376329

> <PUBCHEM_SHAPE_MULTIPOLES>
473.4
35.68
1.49
1.03
112.74
0.08
-0.12
0.82
-7.32
-3.3
-0.23
-0.81
-0.14
0.02

> <PUBCHEM_SHAPE_SELFOVERLAP>
944.01

> <PUBCHEM_SHAPE_VOLUME>
278.3

> <PUBCHEM_COORDINATE_TYPE>
2
5
10

$$$$
