122373177
  -OEChem-03292013293D

 60 64  0     1  0  0  0  0  0999 V2000
   -3.8110    0.2507    1.1956 O   0  0  0  0  0  0  0  0  0  0  0  0
    0.1839    0.4090   -2.1791 O   0  0  0  0  0  0  0  0  0  0  0  0
    1.8373    2.1580    0.2628 O   0  0  0  0  0  0  0  0  0  0  0  0
    1.4639    0.7809   -2.7638 O   0  0  0  0  0  0  0  0  0  0  0  0
   -4.7138   -2.2111    0.4242 O   0  0  0  0  0  0  0  0  0  0  0  0
    2.7319    3.1368    2.1385 O   0  0  0  0  0  0  0  0  0  0  0  0
    0.5556   -4.1388    0.1274 O   0  0  0  0  0  0  0  0  0  0  0  0
   -2.5441    1.0257   -1.6842 C   0  0  1  0  0  0  0  0  0  0  0  0
   -1.4882    1.2408   -0.5961 C   0  0  1  0  0  0  0  0  0  0  0  0
   -3.5187   -0.0280   -1.1959 C   0  0  1  0  0  0  0  0  0  0  0  0
   -1.5960   -0.0979    0.2043 C   0  0  2  0  0  0  0  0  0  0  0  0
   -3.0956   -0.4683    0.1980 C   0  0  1  0  0  0  0  0  0  0  0  0
   -4.0081    1.3542   -1.5151 C   0  0  0  0  0  0  0  0  0  0  0  0
   -0.0180    1.3439   -1.1073 C   0  0  1  0  0  0  0  0  0  0  0  0
    1.0345    0.9826   -0.0035 C   0  0  2  0  0  0  0  0  0  0  0  0
   -0.8306   -0.0692    1.5261 C   0  0  0  0  0  0  0  0  0  0  0  0
   -1.8231    2.5278    0.1967 C   0  0  0  0  0  0  0  0  0  0  0  0
    0.4385    0.7244    1.3574 C   0  0  0  0  0  0  0  0  0  0  0  0
   -3.3207   -1.9587    0.4340 C   0  0  0  0  0  0  0  0  0  0  0  0
    2.0477   -0.1167   -0.4966 C   0  0  2  0  0  0  0  0  0  0  0  0
    2.4960    0.1476   -1.9853 C   0  0  0  0  0  0  0  0  0  0  0  0
    1.0311    1.4604    2.3016 C   0  0  0  0  0  0  0  0  0  0  0  0
    1.9827    2.3359    1.6064 C   0  0  0  0  0  0  0  0  0  0  0  0
    1.5349   -1.5164   -0.2756 C   0  0  0  0  0  0  0  0  0  0  0  0
    2.9365   -1.1124   -2.7474 C   0  0  0  0  0  0  0  0  0  0  0  0
    3.6767    1.1378   -2.0152 C   0  0  0  0  0  0  0  0  0  0  0  0
    0.7653    1.5825    3.7538 C   0  0  0  0  0  0  0  0  0  0  0  0
    2.1398   -2.4045    0.5240 C   0  0  0  0  0  0  0  0  0  0  0  0
    1.5814   -3.7737    0.6976 C   0  0  0  0  0  0  0  0  0  0  0  0
    2.3299   -4.7034    1.6165 C   0  0  0  0  0  0  0  0  0  0  0  0
   -2.1640    0.9483   -2.6929 H   0  0  0  0  0  0  0  0  0  0  0  0
   -3.7532   -0.8352   -1.8773 H   0  0  0  0  0  0  0  0  0  0  0  0
   -1.1315   -0.8734   -0.4172 H   0  0  0  0  0  0  0  0  0  0  0  0
   -4.3360    1.9945   -0.7084 H   0  0  0  0  0  0  0  0  0  0  0  0
   -4.5967    1.4775   -2.4180 H   0  0  0  0  0  0  0  0  0  0  0  0
    0.1510    2.3517   -1.5107 H   0  0  0  0  0  0  0  0  0  0  0  0
   -0.5976   -1.0915    1.8432 H   0  0  0  0  0  0  0  0  0  0  0  0
   -1.4533    0.3787    2.3081 H   0  0  0  0  0  0  0  0  0  0  0  0
   -1.9783    3.3647   -0.4951 H   0  0  0  0  0  0  0  0  0  0  0  0
   -1.0303    2.8371    0.8804 H   0  0  0  0  0  0  0  0  0  0  0  0
   -2.7318    2.4329    0.7955 H   0  0  0  0  0  0  0  0  0  0  0  0
   -2.9379   -2.2578    1.4154 H   0  0  0  0  0  0  0  0  0  0  0  0
   -2.8459   -2.5722   -0.3388 H   0  0  0  0  0  0  0  0  0  0  0  0
    2.9586   -0.0246    0.1156 H   0  0  0  0  0  0  0  0  0  0  0  0
   -4.7504    0.0116    1.1172 H   0  0  0  0  0  0  0  0  0  0  0  0
    0.6640   -1.8241   -0.8441 H   0  0  0  0  0  0  0  0  0  0  0  0
   -4.8342   -3.1630    0.5819 H   0  0  0  0  0  0  0  0  0  0  0  0
    4.0117    1.3123   -3.0450 H   0  0  0  0  0  0  0  0  0  0  0  0
    4.5304    0.7672   -1.4385 H   0  0  0  0  0  0  0  0  0  0  0  0
    3.3926    2.1219   -1.6321 H   0  0  0  0  0  0  0  0  0  0  0  0
    3.2910   -0.8549   -3.7529 H   0  0  0  0  0  0  0  0  0  0  0  0
    2.0980   -1.8000   -2.9032 H   0  0  0  0  0  0  0  0  0  0  0  0
    3.7420   -1.6405   -2.2271 H   0  0  0  0  0  0  0  0  0  0  0  0
    1.6774    1.3789    4.3239 H   0  0  0  0  0  0  0  0  0  0  0  0
    0.0011    0.8773    4.0933 H   0  0  0  0  0  0  0  0  0  0  0  0
    0.4247    2.5936    3.9982 H   0  0  0  0  0  0  0  0  0  0  0  0
    3.0316   -2.1462    1.0838 H   0  0  0  0  0  0  0  0  0  0  0  0
    2.4790   -5.6621    1.1120 H   0  0  0  0  0  0  0  0  0  0  0  0
    3.3130   -4.3025    1.8776 H   0  0  0  0  0  0  0  0  0  0  0  0
    1.7504   -4.8479    2.5318 H   0  0  0  0  0  0  0  0  0  0  0  0
  1 12  1  0  0  0  0
  1 45  1  0  0  0  0
  2  4  1  0  0  0  0
  2 14  1  0  0  0  0
  3 15  1  0  0  0  0
  3 23  1  0  0  0  0
  4 21  1  0  0  0  0
  5 19  1  0  0  0  0
  5 47  1  0  0  0  0
  6 23  2  0  0  0  0
  7 29  2  0  0  0  0
  8  9  1  0  0  0  0
  8 10  1  0  0  0  0
  8 13  1  0  0  0  0
  8 31  1  0  0  0  0
  9 11  1  0  0  0  0
  9 14  1  0  0  0  0
  9 17  1  0  0  0  0
 10 12  1  0  0  0  0
 10 13  1  0  0  0  0
 10 32  1  0  0  0  0
 11 12  1  0  0  0  0
 11 16  1  0  0  0  0
 11 33  1  0  0  0  0
 12 19  1  0  0  0  0
 13 34  1  0  0  0  0
 13 35  1  0  0  0  0
 14 15  1  0  0  0  0
 14 36  1  0  0  0  0
 15 18  1  0  0  0  0
 15 20  1  0  0  0  0
 16 18  1  0  0  0  0
 16 37  1  0  0  0  0
 16 38  1  0  0  0  0
 17 39  1  0  0  0  0
 17 40  1  0  0  0  0
 17 41  1  0  0  0  0
 18 22  2  0  0  0  0
 19 42  1  0  0  0  0
 19 43  1  0  0  0  0
 20 21  1  0  0  0  0
 20 24  1  0  0  0  0
 20 44  1  0  0  0  0
 21 25  1  0  0  0  0
 21 26  1  0  0  0  0
 22 23  1  0  0  0  0
 22 27  1  0  0  0  0
 24 28  2  0  0  0  0
 24 46  1  0  0  0  0
 25 51  1  0  0  0  0
 25 52  1  0  0  0  0
 25 53  1  0  0  0  0
 26 48  1  0  0  0  0
 26 49  1  0  0  0  0
 26 50  1  0  0  0  0
 27 54  1  0  0  0  0
 27 55  1  0  0  0  0
 27 56  1  0  0  0  0
 28 29  1  0  0  0  0
 28 57  1  0  0  0  0
 29 30  1  0  0  0  0
 30 58  1  0  0  0  0
 30 59  1  0  0  0  0
 30 60  1  0  0  0  0
M  END
> <PUBCHEM_COMPOUND_CID>
122373177

> <PUBCHEM_CONFORMER_RMSD>
0.8

> <PUBCHEM_CONFORMER_DIVERSEORDER>
1
3
5
6
7
4
2

> <PUBCHEM_MMFF94_PARTIAL_CHARGES>
34
1 -0.68
10 -0.19
12 0.38
13 -0.2
14 0.28
15 0.42
16 0.14
18 -0.28
19 0.28
2 -0.28
20 0.14
21 0.28
22 -0.12
23 0.71
24 -0.29
27 0.14
28 -0.14
29 0.49
3 -0.43
30 0.06
31 0.1
32 0.1
34 0.1
35 0.1
4 -0.28
45 0.4
46 0.15
47 0.4
5 -0.68
57 0.15
6 -0.57
7 -0.57
8 -0.19
9 0.09

> <PUBCHEM_EFFECTIVE_ROTOR_COUNT>
4.6

> <PUBCHEM_PHARMACOPHORE_FEATURES>
11
1 1 acceptor
1 1 donor
1 5 acceptor
1 5 donor
1 6 acceptor
1 7 acceptor
3 21 25 26 hydrophobe
5 3 15 18 22 23 rings
6 2 4 14 15 20 21 rings
6 8 9 10 11 12 13 rings
6 9 11 14 15 16 18 rings

> <PUBCHEM_HEAVY_ATOM_COUNT>
30

> <PUBCHEM_ATOM_DEF_STEREO_COUNT>
8

> <PUBCHEM_ATOM_UDEF_STEREO_COUNT>
0

> <PUBCHEM_BOND_DEF_STEREO_COUNT>
1

> <PUBCHEM_BOND_UDEF_STEREO_COUNT>
0

> <PUBCHEM_ISOTOPIC_ATOM_COUNT>
0

> <PUBCHEM_COMPONENT_COUNT>
1

> <PUBCHEM_CACTVS_TAUTO_COUNT>
5

> <PUBCHEM_CONFORMER_ID>
074B443900000001

> <PUBCHEM_MMFF94_ENERGY>
111.4381

> <PUBCHEM_FEATURE_SELFOVERLAP>
56.046

> <PUBCHEM_SHAPE_FINGERPRINT>
10305334 12 14539371789243253275
10764073 3 17032697774944007696
107951 10 17981863540322109416
10863032 1 18115601339421576541
11007060 377 17974043663760409094
11578080 2 18413107277676325229
12156800 1 15294035527957268590
12160290 23 16473705358644003848
13149001 5 17912671247604936788
13383661 66 17835287545659205038
133893 2 17556819698974212308
13681431 1 17632569414546080632
14022347 108 17271464404047915993
14068700 675 17619612602089630990
14787075 74 18129117748111205804
14863182 85 18043808899722355347
15219462 58 18341033139181546309
16114785 44 15901202891603882176
16945 1 18339083691990420573
17980427 23 16952503992086297253
1813 80 15912231761829408332
20600515 1 17052439407352270168
20691752 17 17977099394703466615
20775438 99 17830969743008302343
20775530 9 18117837703355733195
22149856 69 18115858626583152917
229495 10 17539735375553837505
23419403 2 17328532343348017134
23559900 14 18188475900679608693
25222932 49 17481101964504674399
3052486 1 17468476366333930830
3380486 77 17405439801377137784
3383291 50 17418094365371235604
35225 105 16476511260757349146
376196 1 16661225731385068268
56638632 33 17972301937687741386
57527452 28 17399015629951093027
59444896 2 13444733755848385852
6669772 16 18127681841944469344
70251023 43 17489586753843583645
81228 2 16624903115447694872

> <PUBCHEM_SHAPE_MULTIPOLES>
576.3
6.13
4.21
2.99
5.46
4.92
0.59
2.32
-2.1
-3.53
2.66
-2.2
-1.88
0.3

> <PUBCHEM_SHAPE_SELFOVERLAP>
1252.293

> <PUBCHEM_SHAPE_VOLUME>
316.6

> <PUBCHEM_COORDINATE_TYPE>
2
5
10

$$$$
