122364644
  -OEChem-03292013293D

 55 58  0     1  0  0  0  0  0999 V2000
   -0.8281   -0.9488    1.2367 O   0  0  0  0  0  0  0  0  0  0  0  0
   -1.3781   -1.7493   -0.9177 O   0  0  0  0  0  0  0  0  0  0  0  0
   -2.2850   -4.1808    0.4205 O   0  0  0  0  0  0  0  0  0  0  0  0
   -3.6929   -1.2717    2.0463 O   0  0  0  0  0  0  0  0  0  0  0  0
    3.3326    2.2649   -0.4537 O   0  0  0  0  0  0  0  0  0  0  0  0
    0.8130    3.3108   -0.2671 O   0  0  0  0  0  0  0  0  0  0  0  0
   -1.7600   -0.5776   -3.1408 O   0  0  0  0  0  0  0  0  0  0  0  0
   -3.9892   -0.2095   -2.7869 O   0  0  0  0  0  0  0  0  0  0  0  0
   -2.2166   -2.9215    1.0880 C   0  0  1  0  0  0  0  0  0  0  0  0
   -1.0907   -2.1042    0.4437 C   0  0  2  0  0  0  0  0  0  0  0  0
   -3.5681   -2.2069    0.9784 C   0  0  2  0  0  0  0  0  0  0  0  0
    0.1894   -0.1374    0.8163 C   0  0  0  0  0  0  0  0  0  0  0  0
   -3.6974   -1.4728   -0.3217 C   0  0  0  0  0  0  0  0  0  0  0  0
   -0.0380    1.1985    0.4857 C   0  0  0  0  0  0  0  0  0  0  0  0
   -2.6607   -1.3190   -1.1578 C   0  0  0  0  0  0  0  0  0  0  0  0
    2.5331    0.1325    0.2949 C   0  0  0  0  0  0  0  0  0  0  0  0
    1.4750   -0.6704    0.7207 C   0  0  0  0  0  0  0  0  0  0  0  0
    1.0201    2.0014    0.0598 C   0  0  0  0  0  0  0  0  0  0  0  0
    2.3056    1.4684   -0.0356 C   0  0  0  0  0  0  0  0  0  0  0  0
   -1.3765    1.7517    0.5855 C   0  0  0  0  0  0  0  0  0  0  0  0
    3.8606   -0.4417    0.2031 C   0  0  0  0  0  0  0  0  0  0  0  0
   -2.9070   -0.6428   -2.4321 C   0  0  0  0  0  0  0  0  0  0  0  0
   -2.0377    1.7598    1.8136 C   0  0  0  0  0  0  0  0  0  0  0  0
   -2.0011    2.2753   -0.5463 C   0  0  0  0  0  0  0  0  0  0  0  0
    4.9046    0.0900    0.9600 C   0  0  0  0  0  0  0  0  0  0  0  0
    4.0941   -1.5263   -0.6424 C   0  0  0  0  0  0  0  0  0  0  0  0
   -3.3239    2.2913    1.9099 C   0  0  0  0  0  0  0  0  0  0  0  0
   -3.2871    2.8070   -0.4502 C   0  0  0  0  0  0  0  0  0  0  0  0
    6.1822   -0.4629    0.8713 C   0  0  0  0  0  0  0  0  0  0  0  0
    5.3717   -2.0793   -0.7310 C   0  0  0  0  0  0  0  0  0  0  0  0
   -3.9485    2.8149    0.7780 C   0  0  0  0  0  0  0  0  0  0  0  0
    6.4158   -1.5474    0.0259 C   0  0  0  0  0  0  0  0  0  0  0  0
    3.5887    2.3043   -1.8549 C   0  0  0  0  0  0  0  0  0  0  0  0
   -1.9738   -3.1084    2.1412 H   0  0  0  0  0  0  0  0  0  0  0  0
   -0.2013   -2.7448    0.4104 H   0  0  0  0  0  0  0  0  0  0  0  0
   -4.3856   -2.9315    1.0668 H   0  0  0  0  0  0  0  0  0  0  0  0
   -4.6854   -1.0912   -0.5643 H   0  0  0  0  0  0  0  0  0  0  0  0
    1.6580   -1.7038    1.0066 H   0  0  0  0  0  0  0  0  0  0  0  0
   -2.9682   -4.7110    0.8651 H   0  0  0  0  0  0  0  0  0  0  0  0
   -4.5621   -0.8427    1.9666 H   0  0  0  0  0  0  0  0  0  0  0  0
   -1.5668    1.3658    2.7112 H   0  0  0  0  0  0  0  0  0  0  0  0
   -1.5095    2.2693   -1.5164 H   0  0  0  0  0  0  0  0  0  0  0  0
    4.7435    0.9286    1.6333 H   0  0  0  0  0  0  0  0  0  0  0  0
    3.2960   -1.9519   -1.2462 H   0  0  0  0  0  0  0  0  0  0  0  0
    1.6690    3.7183   -0.4833 H   0  0  0  0  0  0  0  0  0  0  0  0
   -3.8385    2.2982    2.8663 H   0  0  0  0  0  0  0  0  0  0  0  0
   -3.7750    3.2111   -1.3323 H   0  0  0  0  0  0  0  0  0  0  0  0
    6.9947   -0.0503    1.4622 H   0  0  0  0  0  0  0  0  0  0  0  0
    5.5541   -2.9228   -1.3904 H   0  0  0  0  0  0  0  0  0  0  0  0
   -4.9502    3.2277    0.8526 H   0  0  0  0  0  0  0  0  0  0  0  0
    7.4105   -1.9779   -0.0430 H   0  0  0  0  0  0  0  0  0  0  0  0
    4.4186    2.9943   -2.0308 H   0  0  0  0  0  0  0  0  0  0  0  0
    2.7122    2.6685   -2.4003 H   0  0  0  0  0  0  0  0  0  0  0  0
    3.8740    1.3162   -2.2283 H   0  0  0  0  0  0  0  0  0  0  0  0
   -1.8849   -0.1277   -4.0035 H   0  0  0  0  0  0  0  0  0  0  0  0
  1 10  1  0  0  0  0
  1 12  1  0  0  0  0
  2 10  1  0  0  0  0
  2 15  1  0  0  0  0
  3  9  1  0  0  0  0
  3 39  1  0  0  0  0
  4 11  1  0  0  0  0
  4 40  1  0  0  0  0
  5 19  1  0  0  0  0
  5 33  1  0  0  0  0
  6 18  1  0  0  0  0
  6 45  1  0  0  0  0
  7 22  1  0  0  0  0
  7 55  1  0  0  0  0
  8 22  2  0  0  0  0
  9 10  1  0  0  0  0
  9 11  1  0  0  0  0
  9 34  1  0  0  0  0
 10 35  1  0  0  0  0
 11 13  1  0  0  0  0
 11 36  1  0  0  0  0
 12 14  2  0  0  0  0
 12 17  1  0  0  0  0
 13 15  2  0  0  0  0
 13 37  1  0  0  0  0
 14 18  1  0  0  0  0
 14 20  1  0  0  0  0
 15 22  1  0  0  0  0
 16 17  2  0  0  0  0
 16 19  1  0  0  0  0
 16 21  1  0  0  0  0
 17 38  1  0  0  0  0
 18 19  2  0  0  0  0
 20 23  2  0  0  0  0
 20 24  1  0  0  0  0
 21 25  2  0  0  0  0
 21 26  1  0  0  0  0
 23 27  1  0  0  0  0
 23 41  1  0  0  0  0
 24 28  2  0  0  0  0
 24 42  1  0  0  0  0
 25 29  1  0  0  0  0
 25 43  1  0  0  0  0
 26 30  2  0  0  0  0
 26 44  1  0  0  0  0
 27 31  2  0  0  0  0
 27 46  1  0  0  0  0
 28 31  1  0  0  0  0
 28 47  1  0  0  0  0
 29 32  2  0  0  0  0
 29 48  1  0  0  0  0
 30 32  1  0  0  0  0
 30 49  1  0  0  0  0
 31 50  1  0  0  0  0
 32 51  1  0  0  0  0
 33 52  1  0  0  0  0
 33 53  1  0  0  0  0
 33 54  1  0  0  0  0
M  END
> <PUBCHEM_COMPOUND_CID>
122364644

> <PUBCHEM_CONFORMER_RMSD>
1

> <PUBCHEM_CONFORMER_DIVERSEORDER>
1
9
12
19
24
17
10
14
25
22
15
2
5
20
23
7
21
11
18
16
4
8
3
13
6

> <PUBCHEM_MMFF94_PARTIAL_CHARGES>
45
1 -0.36
10 0.56
11 0.42
12 0.08
13 -0.29
15 0.09
17 -0.15
18 0.08
19 0.08
2 -0.36
22 0.71
23 -0.15
24 -0.15
25 -0.15
26 -0.15
27 -0.15
28 -0.15
29 -0.15
3 -0.68
30 -0.15
31 -0.15
32 -0.15
33 0.28
37 0.15
38 0.15
39 0.4
4 -0.68
40 0.4
41 0.15
42 0.15
43 0.15
44 0.15
45 0.45
46 0.15
47 0.15
48 0.15
49 0.15
5 -0.36
50 0.15
51 0.15
55 0.5
6 -0.53
7 -0.65
8 -0.57
9 0.28

> <PUBCHEM_EFFECTIVE_ROTOR_COUNT>
6.8

> <PUBCHEM_PHARMACOPHORE_FEATURES>
15
1 1 acceptor
1 2 acceptor
1 3 acceptor
1 3 donor
1 4 acceptor
1 4 donor
1 5 acceptor
1 6 donor
1 7 acceptor
1 8 acceptor
3 7 8 22 anion
6 12 14 16 17 18 19 rings
6 2 9 10 11 13 15 rings
6 20 23 24 27 28 31 rings
6 21 25 26 29 30 32 rings

> <PUBCHEM_HEAVY_ATOM_COUNT>
33

> <PUBCHEM_ATOM_DEF_STEREO_COUNT>
3

> <PUBCHEM_ATOM_UDEF_STEREO_COUNT>
0

> <PUBCHEM_BOND_DEF_STEREO_COUNT>
0

> <PUBCHEM_BOND_UDEF_STEREO_COUNT>
0

> <PUBCHEM_ISOTOPIC_ATOM_COUNT>
0

> <PUBCHEM_COMPONENT_COUNT>
1

> <PUBCHEM_CACTVS_TAUTO_COUNT>
6

> <PUBCHEM_CONFORMER_ID>
074B22E400000001

> <PUBCHEM_MMFF94_ENERGY>
119.8277

> <PUBCHEM_FEATURE_SELFOVERLAP>
76.237

> <PUBCHEM_SHAPE_FINGERPRINT>
1100329 8 18337678520625875360
11135609 12 18261672670632165168
11135926 11 18120659295300862212
12156800 1 17977425765247064127
12422481 6 17913804719555226243
12788726 201 18200888382172352537
13140716 1 18410862053610285144
13583140 156 15841254970915754282
13911987 19 17255682426576263740
140371 6 17901390318354863152
14790565 3 17690847761519426360
15361156 5 18129949971329192342
17349148 13 18410565202629243688
17980427 23 18410289225532808692
21236236 1 18342736291414333122
23558518 356 18261401108408286312
23559900 14 18336816606941926136
23569914 2 14708603121959488390
23576562 1 17895773840976966660
23598288 3 18272094923828748813
25147074 1 18189351185583031152
3027735 51 18272647922675904135
3383291 50 18411696587230942211
340366 18 18188220805656137860
4073 2 18342737378679628914
460360 51 18260551143086399644
469060 322 16805615754344393267
484985 159 18260827094698511035
5080951 261 17983827049103728078
5081480 168 16878525461746739668
508706 21 18411419479987772010
5104073 3 18341606002704925522
563151 248 17775007817683093809
6669772 16 17981895142211561871
70251023 43 17843097433038455495
7164475 11 18337397161718399760

> <PUBCHEM_SHAPE_MULTIPOLES>
632.17
11.17
4.02
2
17.29
0.25
1.32
2.85
-0.12
-3.47
-0.4
-2.34
0.15
-0.79

> <PUBCHEM_SHAPE_SELFOVERLAP>
1396.546

> <PUBCHEM_SHAPE_VOLUME>
337

> <PUBCHEM_COORDINATE_TYPE>
2
5
10

$$$$
