REMARK  Name = 122364645
REMARK  10 active torsions:
REMARK  status: ('A' for Active; 'I' for Inactive)
REMARK    1  A    between atoms: C_1  and  O_23
REMARK    2  A    between atoms: C_2  and  C_7
REMARK    3  A    between atoms: C_3  and  O_19
REMARK    4  A    between atoms: C_4  and  C_13
REMARK    5  A    between atoms: C_6  and  O_21
REMARK    6  A    between atoms: O_23  and  C_26
REMARK    7  A    between atoms: C_25  and  O_30
REMARK    8  A    between atoms: C_27  and  O_32
REMARK    9  A    between atoms: C_29  and  C_35
REMARK   10  A    between atoms: C_35  and  O_36
REMARK                            x       y       z     vdW  Elec       q    Type
REMARK                         _______ _______ _______ _____ _____    ______ ____
ROOT
ATOM      1  C   UNL     1       0.102  -0.647  -0.287  0.00  0.00    +0.176 C 
ATOM      2  C   UNL     1       0.333  -2.001  -0.043  0.00  0.00    +0.040 C 
ATOM      3  C   UNL     1      -1.203  -0.153  -0.299  0.00  0.00    +0.171 C 
ATOM      4  C   UNL     1      -2.276  -1.013  -0.068  0.00  0.00    +0.070 C 
ATOM      5  C   UNL     1      -0.741  -2.861   0.189  0.00  0.00    +0.040 C 
ATOM      6  C   UNL     1      -2.045  -2.367   0.176  0.00  0.00    +0.137 C 
ENDROOT
BRANCH   2   7
ATOM      7  C   UNL     1       1.680  -2.535  -0.025  0.00  0.00    +0.003 C 
ATOM      8  C   UNL     1       2.172  -3.146   1.128  0.00  0.00    +0.000 C 
ATOM      9  C   UNL     1       2.484  -2.438  -1.161  0.00  0.00    +0.000 C 
ATOM     10  C   UNL     1       3.469  -3.660   1.146  0.00  0.00    +0.000 C 
ATOM     11  C   UNL     1       3.780  -2.953  -1.143  0.00  0.00    +0.000 C 
ATOM     12  C   UNL     1       4.273  -3.564   0.010  0.00  0.00    +0.000 C 
ENDBRANCH   2   7
BRANCH   4  13
ATOM     13  C   UNL     1      -3.634  -0.500  -0.081  0.00  0.00    +0.006 C 
ATOM     14  C   UNL     1      -4.212  -0.028   1.097  0.00  0.00    +0.000 C 
ATOM     15  C   UNL     1      -4.361  -0.480  -1.271  0.00  0.00    +0.000 C 
ATOM     16  C   UNL     1      -5.517   0.465   1.086  0.00  0.00    +0.000 C 
ATOM     17  C   UNL     1      -5.666   0.012  -1.283  0.00  0.00    +0.000 C 
ATOM     18  C   UNL     1      -6.244   0.485  -0.105  0.00  0.00    +0.000 C 
ENDBRANCH   4  13
BRANCH   3  19
ATOM     19  O   UNL     1      -1.413   1.175  -0.540  0.00  0.00    -0.503 OA
ATOM     20  H   UNL     1      -0.685   1.744  -0.694  0.00  0.00    +0.292 HD
ENDBRANCH   3  19
BRANCH   6  21
ATOM     21  O   UNL     1      -3.075  -3.231   0.406  0.00  0.00    -0.505 OA
ATOM     22  H   UNL     1      -3.958  -2.919   0.402  0.00  0.00    +0.292 HD
ENDBRANCH   6  21
BRANCH   1  23
ATOM     23  O   UNL     1       1.146   0.207  -0.515  0.00  0.00    -0.438 OA
BRANCH  23  26
ATOM     24  O   UNL     1       1.015   2.058   0.948  0.00  0.00    -0.435 OA
ATOM     25  C   UNL     1       3.210   1.067   0.402  0.00  0.00    +0.227 C 
ATOM     26  C   UNL     1       1.710   0.843   0.629  0.00  0.00    +0.372 C 
ATOM     27  C   UNL     1       3.467   2.143  -0.659  0.00  0.00    +0.170 C 
ATOM     28  C   UNL     1       2.453   3.244  -0.581  0.00  0.00    +0.049 C 
ATOM     29  C   UNL     1       1.362   3.153   0.193  0.00  0.00    +0.216 C 
BRANCH  25  30
ATOM     30  O   UNL     1       3.789   1.470   1.643  0.00  0.00    -0.376 OA
ATOM     31  H   UNL     1       3.625   0.787   2.312  0.00  0.00    +0.211 HD
ENDBRANCH  25  30
BRANCH  27  32
ATOM     32  O   UNL     1       3.402   1.552  -1.954  0.00  0.00    -0.377 OA
ATOM     33  H   UNL     1       4.055   0.837  -2.015  0.00  0.00    +0.211 HD
ENDBRANCH  27  32
BRANCH  29  35
ATOM     34  O   UNL     1       0.643   5.350  -0.360  0.00  0.00    -0.242 OA
ATOM     35  C   UNL     1       0.467   4.310   0.249  0.00  0.00    +0.372 C 
BRANCH  35  36
ATOM     36  O   UNL     1      -0.570   4.042   1.071  0.00  0.00    -0.475 OA
ATOM     37  H   UNL     1      -0.625   3.211   1.500  0.00  0.00    +0.296 HD
ENDBRANCH  35  36
ENDBRANCH  29  35
ENDBRANCH  23  26
ENDBRANCH   1  23
TORSDOF 10
