REMARK  Name = 122361331
REMARK  16 active torsions:
REMARK  status: ('A' for Active; 'I' for Inactive)
REMARK    1  A    between atoms: C_1  and  N_3
REMARK    2  A    between atoms: C_1  and  C_18
REMARK    3  A    between atoms: C_1  and  C_25
REMARK    4  A    between atoms: C_4  and  C_6
REMARK    5  A    between atoms: C_6  and  C_7
REMARK    6  A    between atoms: C_7  and  CA_8
REMARK    7  A    between atoms: CA_8  and  N_9
REMARK    8  A    between atoms: CA_8  and  C_14
REMARK    9  A    between atoms: C_14  and  O_15
REMARK   10  A    between atoms: C_18  and  C_19
REMARK   11  A    between atoms: C_19  and  C_20
REMARK   12  A    between atoms: C_20  and  C_22
REMARK   13  A    between atoms: C_22  and  O_23
REMARK   14  A    between atoms: C_25  and  S_26
REMARK   15  A    between atoms: S_26  and  C_27
REMARK   16  A    between atoms: C_27  and  C_28
REMARK                            x       y       z     vdW  Elec       q    Type
REMARK                         _______ _______ _______ _____ _____    ______ ____
ROOT
ATOM      1  C   UNL     1      -1.269   1.884  -0.132  0.00  0.00    +0.140 C 
ENDROOT
BRANCH   1   3
ATOM      2  O   UNL     1      -1.388  -0.407   1.619  0.00  0.00    -0.275 OA
ATOM      3  N   UNL     1      -1.385   0.497  -0.520  0.00  0.00    -0.299 N 
ATOM      4  C   UNL     1      -1.435  -0.540   0.400  0.00  0.00    +0.223 C 
ATOM      5  H   UNL     1      -1.431   0.279  -1.479  0.00  0.00    +0.150 HD
BRANCH   4   6
ATOM      6  C   UNL     1      -1.548  -1.891  -0.287  0.00  0.00    +0.083 C 
BRANCH   6   7
ATOM      7  C   UNL     1      -1.604  -3.050   0.710  0.00  0.00    -0.001 C 
BRANCH   7   8
ATOM      8  CA  UNL     1      -1.791  -4.411   0.031  0.00  0.00    +0.036 C 
BRANCH   8   9
ATOM      9  N   UNL     1      -1.835  -5.464   1.049  0.00  0.00    +0.389 N 
ATOM     10  H1  UNL     1      -2.608  -5.286   1.689  0.00  0.00    -0.088 HD
ATOM     11  H2  UNL     1      -0.957  -5.470   1.569  0.00  0.00    -0.088 HD
ATOM     12  H3  UNL     1      -1.968  -6.368   0.596  0.00  0.00    -0.088 HD
ENDBRANCH   8   9
BRANCH   8  14
ATOM     13  OXT UNL     1       0.418  -5.275  -0.528  0.00  0.00    -0.253 OA
ATOM     14  C   UNL     1      -0.623  -4.737  -0.882  0.00  0.00    +0.293 C 
BRANCH  14  15
ATOM     15  O   UNL     1      -0.843  -4.337  -2.162  0.00  0.00    -0.482 OA
ATOM     16  H   UNL     1      -1.655  -3.929  -2.392  0.00  0.00    +0.295 HD
ENDBRANCH  14  15
ENDBRANCH   8  14
ENDBRANCH   7   8
ENDBRANCH   6   7
ENDBRANCH   4   6
ENDBRANCH   1   3
BRANCH   1  18
ATOM     17  O   UNL     1      -2.676   3.657   0.656  0.00  0.00    -0.294 OA
ATOM     18  C   UNL     1      -2.627   2.516   0.190  0.00  0.00    +0.170 C 
BRANCH  18  19
ATOM     19  C   UNL     1      -3.890   1.698  -0.052  0.00  0.00    +0.078 C 
BRANCH  19  20
ATOM     20  C   UNL     1      -5.170   2.437   0.322  0.00  0.00    +0.117 C 
BRANCH  20  22
ATOM     21  O   UNL     1      -6.355   0.445  -0.362  0.00  0.00    -0.250 OA
ATOM     22  C   UNL     1      -6.393   1.591   0.066  0.00  0.00    +0.314 C 
BRANCH  22  23
ATOM     23  O   UNL     1      -7.547   2.234   0.376  0.00  0.00    -0.480 OA
ATOM     24  H   UNL     1      -7.521   3.112   0.701  0.00  0.00    +0.295 HD
ENDBRANCH  22  23
ENDBRANCH  20  22
ENDBRANCH  19  20
ENDBRANCH  18  19
ENDBRANCH   1  18
BRANCH   1  25
ATOM     25  C   UNL     1      -0.479   2.699  -1.159  0.00  0.00    +0.085 C 
BRANCH  25  26
ATOM     26  S   UNL     1       1.152   1.985  -1.547  0.00  0.00    -0.133 S 
BRANCH  26  27
ATOM     27  C   UNL     1       2.028   2.530  -0.064  0.00  0.00    +0.084 C 
BRANCH  27  28
ATOM     28  C   UNL     1       3.466   2.090  -0.061  0.00  0.00    -0.011 C 
ATOM     29  C   UNL     1       3.840   0.769   0.234  0.00  0.00    -0.003 C 
ATOM     30  C   UNL     1       5.211   0.418   0.222  0.00  0.00    -0.000 C 
ATOM     31  C   UNL     1       4.431   3.052  -0.363  0.00  0.00    -0.003 C 
ATOM     32  C   UNL     1       2.883  -0.212   0.540  0.00  0.00    -0.000 C 
ATOM     33  C   UNL     1       6.168   1.400  -0.085  0.00  0.00    -0.000 C 
ATOM     34  C   UNL     1       5.779   2.708  -0.375  0.00  0.00    -0.000 C 
ATOM     35  C   UNL     1       5.585  -0.903   0.517  0.00  0.00    -0.000 C 
ATOM     36  C   UNL     1       3.273  -1.520   0.830  0.00  0.00    -0.000 C 
ATOM     37  C   UNL     1       4.621  -1.865   0.819  0.00  0.00    -0.000 C 
ENDBRANCH  27  28
ENDBRANCH  26  27
ENDBRANCH  25  26
ENDBRANCH   1  25
TORSDOF 16
