REMARK  Name = 1223201
REMARK  4 active torsions:
REMARK  status: ('A' for Active; 'I' for Inactive)
REMARK    1  A    between atoms: N1_2  and  C1*_15
REMARK    2  A    between atoms: C3*_12  and  O3*_16
REMARK    3  A    between atoms: C4*_14  and  C5*_18
REMARK    4  A    between atoms: C5*_18  and  O5*_19
REMARK                            x       y       z     vdW  Elec       q    Type
REMARK                         _______ _______ _______ _____ _____    ______ ____
ROOT
ATOM      1  O2  C   A   1      -1.780   1.964   1.347  0.00  0.00    -0.193 OA
ATOM      2  N1  C   A   1      -0.801   0.200   0.228  0.00  0.00    -0.180 N 
ATOM      3  N3  C   A   1      -3.191   0.483   0.362  0.00  0.00    -0.306 NA
ATOM      4  N4  C   A   1      -4.631  -1.038  -0.648  0.00  0.00    -0.332 N 
ATOM      5  C6  C   A   1      -0.998  -0.951  -0.517  0.00  0.00    +0.083 C 
ATOM      6  C2  C   A   1      -1.922   0.937   0.681  0.00  0.00    +0.275 C 
ATOM      7  C5  C   A   1      -2.209  -1.405  -0.833  0.00  0.00    +0.065 C 
ATOM      8  C4  C   A   1      -3.361  -0.605  -0.342  0.00  0.00    +0.193 C 
ATOM      9  H41 C   A   1      -5.413  -0.528  -0.336  0.00  0.00    +0.145 HD
ATOM     10  H42 C   A   1      -4.757  -1.858  -1.179  0.00  0.00    +0.145 HD
ENDROOT
BRANCH   2  15
ATOM     11  O4* C   A   1       1.375  -0.554   0.663  0.00  0.00    -0.334 OA
ATOM     12  C3* C   A   1       2.619   1.107  -0.462  0.00  0.00    +0.144 C 
ATOM     13  C2* C   A   1       1.155   1.459  -0.578  0.00  0.00    +0.084 C 
ATOM     14  C4* C   A   1       2.544  -0.380  -0.155  0.00  0.00    +0.173 C 
ATOM     15  C1* C   A   1       0.543   0.608   0.519  0.00  0.00    +0.209 C 
BRANCH  12  16
ATOM     16  O3* C   A   1       3.311   1.375  -1.664  0.00  0.00    -0.382 OA
ATOM     17  H3* C   A   1       3.333   2.332  -1.817  0.00  0.00    +0.210 HD
ENDBRANCH  12  16
BRANCH  14  18
ATOM     18  C5* C   A   1       3.764  -0.907   0.579  0.00  0.00    +0.169 C 
BRANCH  18  19
ATOM     19  O5* C   A   1       3.583  -2.292   0.822  0.00  0.00    -0.379 OA
ATOM     20  H5* C   A   1       4.357  -2.641   1.291  0.00  0.00    +0.211 HD
ENDBRANCH  18  19
ENDBRANCH  14  18
ENDBRANCH   2  15
TORSDOF 4
