REMARK  Name = 122376923
REMARK  10 active torsions:
REMARK  status: ('A' for Active; 'I' for Inactive)
REMARK    1  A    between atoms: C_4  and  O_20
REMARK    2  A    between atoms: C_6  and  S_22
REMARK    3  A    between atoms: C_9  and  N_13
REMARK    4  A    between atoms: C_14  and  C_16
REMARK    5  A    between atoms: S_22  and  C_25
REMARK    6  A    between atoms: C_26  and  C_30
REMARK    7  A    between atoms: C_30  and  C_31
REMARK    8  A    between atoms: C_31  and  N_32
REMARK    9  A    between atoms: C_31  and  C_37
REMARK   10  A    between atoms: C_37  and  O_38
REMARK                            x       y       z     vdW  Elec       q    Type
REMARK                         _______ _______ _______ _____ _____    ______ ____
ROOT
ATOM      1  O   UNL     1       6.284   1.371  -0.913  0.00  0.00    -0.295 OA
ATOM      2  N   UNL     1       3.064   0.253  -0.314  0.00  0.00    -0.253 NA
ATOM      3  C   UNL     1       3.841   1.413  -0.761  0.00  0.00    +0.124 C 
ATOM      4  C   UNL     1       3.533   2.479   0.286  0.00  0.00    +0.142 C 
ATOM      5  C   UNL     1       1.948   0.620   0.566  0.00  0.00    +0.072 C 
ATOM      6  C   UNL     1       2.099   2.158   0.751  0.00  0.00    +0.094 C 
ATOM      7  C   UNL     1       5.226   0.781  -0.760  0.00  0.00    +0.169 C 
ATOM      8  C   UNL     1       3.461   1.790  -2.193  0.00  0.00    +0.026 C 
ATOM      9  C   UNL     1       3.821  -0.916  -0.334  0.00  0.00    +0.141 C 
ATOM     10  C   UNL     1       2.019  -0.067   1.932  0.00  0.00    +0.018 C 
ATOM     11  C   UNL     1       5.121  -0.691  -0.589  0.00  0.00    +0.102 C 
ENDROOT
BRANCH   9  13
ATOM     12  O   UNL     1       1.207  -1.913  -0.944  0.00  0.00    -0.270 OA
ATOM     13  N   UNL     1       3.365  -2.183  -0.113  0.00  0.00    -0.289 N 
ATOM     14  C   UNL     1       2.082  -2.603  -0.433  0.00  0.00    +0.246 C 
ATOM     15  H   UNL     1       3.980  -2.834   0.295  0.00  0.00    +0.151 HD
BRANCH  14  16
ATOM     16  C   UNL     1       1.863  -4.028  -0.049  0.00  0.00    +0.049 C 
ATOM     17  C   UNL     1       0.683  -4.563   0.315  0.00  0.00    -0.039 C 
ATOM     18  C   UNL     1      -0.634  -3.842   0.381  0.00  0.00    +0.027 C 
ATOM     19  C   UNL     1       0.604  -6.023   0.680  0.00  0.00    +0.027 C 
ENDBRANCH  14  16
ENDBRANCH   9  13
BRANCH   4  20
ATOM     20  O   UNL     1       4.411   2.335   1.404  0.00  0.00    -0.382 OA
ATOM     21  H   UNL     1       5.320   2.534   1.129  0.00  0.00    +0.210 HD
ENDBRANCH   4  20
BRANCH   6  22
ATOM     22  S   UNL     1       0.838   3.083  -0.192  0.00  0.00    -0.098 S 
BRANCH  22  25
ATOM     23  N   UNL     1      -1.824   2.397  -0.169  0.00  0.00    -0.313 N 
ATOM     24  N   UNL     1      -0.836   2.057   1.790  0.00  0.00    -0.309 N 
ATOM     25  C   UNL     1      -0.667   2.473   0.555  0.00  0.00    +0.195 C 
ATOM     26  C   UNL     1      -2.793   1.901   0.657  0.00  0.00    +0.036 C 
ATOM     27  C   UNL     1      -2.159   1.699   1.861  0.00  0.00    +0.070 C 
ATOM     28  H   UNL     1      -1.939   2.652  -1.113  0.00  0.00    +0.149 HD
ATOM     29  H   UNL     1      -0.162   2.013   2.507  0.00  0.00    +0.149 HD
BRANCH  26  30
ATOM     30  C   UNL     1      -4.178   1.682   0.215  0.00  0.00    +0.033 C 
BRANCH  30  31
ATOM     31  C   UNL     1      -4.443   0.272  -0.373  0.00  0.00    +0.053 C 
BRANCH  31  32
ATOM     32  N   UNL     1      -5.627   0.327  -1.278  0.00  0.00    +0.394 N 
ATOM     33  C   UNL     1      -5.248   0.963  -2.620  0.00  0.00    -0.095 C 
ATOM     34  C   UNL     1      -6.165  -1.083  -1.546  0.00  0.00    -0.095 C 
ATOM     35  C   UNL     1      -6.747   1.160  -0.647  0.00  0.00    -0.095 C 
ENDBRANCH  31  32
BRANCH  31  37
ATOM     36  O   UNL     1      -5.591  -0.705   1.539  0.00  0.00    -0.253 OA
ATOM     37  C   UNL     1      -4.705  -0.769   0.697  0.00  0.00    +0.295 C 
BRANCH  37  38
ATOM     38  O   UNL     1      -3.855  -1.825   0.601  0.00  0.00    -0.482 OA
ATOM     39  H   UNL     1      -3.191  -1.833  -0.060  0.00  0.00    +0.295 HD
ENDBRANCH  37  38
ENDBRANCH  31  37
ENDBRANCH  30  31
ENDBRANCH  26  30
ENDBRANCH  22  25
ENDBRANCH   6  22
TORSDOF 10
