REMARK  Name = 122392826
REMARK  7 active torsions:
REMARK  status: ('A' for Active; 'I' for Inactive)
REMARK    1  A    between atoms: C_4  and  N_29
REMARK    2  A    between atoms: C_7  and  C_17
REMARK    3  A    between atoms: C_10  and  O_27
REMARK    4  A    between atoms: C_20  and  O_23
REMARK    5  A    between atoms: C_21  and  O_25
REMARK    6  A    between atoms: N_29  and  C_31
REMARK    7  A    between atoms: C_32  and  O_37
REMARK                            x       y       z     vdW  Elec       q    Type
REMARK                         _______ _______ _______ _____ _____    ______ ____
ROOT
ATOM      1  O   UNL     1       1.430  -0.870  -0.215  0.00  0.00    -0.448 OA
ATOM      2  O   UNL     1       1.885   2.113   1.070  0.00  0.00    -0.296 OA
ATOM      3  O   UNL     1       1.554  -1.064   2.083  0.00  0.00    -0.250 OA
ATOM      4  C   UNL     1      -0.177   1.747  -1.178  0.00  0.00    +0.080 C 
ATOM      5  C   UNL     1      -0.420   0.220  -1.385  0.00  0.00    +0.063 C 
ATOM      6  C   UNL     1       1.272   2.297  -1.256  0.00  0.00    +0.076 C 
ATOM      7  C   UNL     1       0.002  -0.685  -0.193  0.00  0.00    +0.193 C 
ATOM      8  C   UNL     1       3.565   1.280  -0.471  0.00  0.00    +0.085 C 
ATOM      9  C   UNL     1       2.200   1.895  -0.102  0.00  0.00    +0.154 C 
ATOM     10  C   UNL     1       4.149   0.413   0.682  0.00  0.00    +0.128 C 
ATOM     11  C   UNL     1       3.571  -1.020   0.724  0.00  0.00    +0.126 C 
ATOM     12  C   UNL     1       0.176  -0.245  -2.724  0.00  0.00    +0.006 C 
ATOM     13  C   UNL     1       1.251   3.833  -1.329  0.00  0.00    +0.009 C 
ATOM     14  C   UNL     1       4.501   2.418  -0.888  0.00  0.00    +0.010 C 
ATOM     15  C   UNL     1       2.077  -1.004   0.979  0.00  0.00    +0.319 C 
ATOM     16  C   UNL     1       4.250  -1.886   1.792  0.00  0.00    +0.014 C 
ENDROOT
BRANCH   7  17
ATOM     17  C   UNL     1      -0.711  -2.029  -0.212  0.00  0.00    +0.023 C 
ATOM     18  C   UNL     1      -1.935  -2.179   0.440  0.00  0.00    +0.036 C 
ATOM     19  C   UNL     1      -0.141  -3.111  -0.882  0.00  0.00    +0.036 C 
ATOM     20  C   UNL     1      -0.794  -4.343  -0.901  0.00  0.00    +0.136 C 
ATOM     21  C   UNL     1      -2.589  -3.411   0.422  0.00  0.00    +0.136 C 
ATOM     22  C   UNL     1      -2.018  -4.493  -0.249  0.00  0.00    +0.073 C 
BRANCH  20  23
ATOM     23  O   UNL     1      -0.238  -5.400  -1.554  0.00  0.00    -0.505 OA
ATOM     24  H   UNL     1       0.584  -5.299  -1.993  0.00  0.00    +0.292 HD
ENDBRANCH  20  23
BRANCH  21  25
ATOM     25  O   UNL     1      -3.783  -3.558   1.058  0.00  0.00    -0.505 OA
ATOM     26  H   UNL     1      -4.166  -2.831   1.509  0.00  0.00    +0.292 HD
ENDBRANCH  21  25
ENDBRANCH   7  17
BRANCH  10  27
ATOM     27  O   UNL     1       5.567   0.288   0.532  0.00  0.00    -0.383 OA
ATOM     28  H   UNL     1       5.967   1.171   0.502  0.00  0.00    +0.210 HD
ENDBRANCH  10  27
BRANCH   4  29
ATOM     29  N   UNL     1      -0.851   2.191   0.030  0.00  0.00    -0.331 N 
ATOM     30  H   UNL     1      -0.303   2.405   0.820  0.00  0.00    +0.147 HD
BRANCH  29  31
ATOM     31  C   UNL     1      -2.219   2.325   0.127  0.00  0.00    +0.079 C 
ATOM     32  C   UNL     1      -2.867   2.138   1.348  0.00  0.00    +0.147 C 
ATOM     33  C   UNL     1      -2.957   2.651  -1.012  0.00  0.00    +0.017 C 
ATOM     34  C   UNL     1      -4.253   2.277   1.430  0.00  0.00    +0.038 C 
ATOM     35  C   UNL     1      -4.342   2.790  -0.929  0.00  0.00    +0.001 C 
ATOM     36  C   UNL     1      -4.990   2.603   0.292  0.00  0.00    +0.003 C 
BRANCH  32  37
ATOM     37  O   UNL     1      -2.165   1.820   2.471  0.00  0.00    -0.504 OA
ATOM     38  H   UNL     1      -1.234   1.724   2.430  0.00  0.00    +0.292 HD
ENDBRANCH  32  37
ENDBRANCH  29  31
ENDBRANCH   4  29
TORSDOF 7
