REMARK  Name = 122395473
REMARK  4 active torsions:
REMARK  status: ('A' for Active; 'I' for Inactive)
REMARK    1  A    between atoms: C_3  and  O_17
REMARK    2  A    between atoms: C_5  and  N_8
REMARK    3  A    between atoms: C_6  and  C_19
REMARK    4  A    between atoms: C_19  and  O_20
REMARK                            x       y       z     vdW  Elec       q    Type
REMARK                         _______ _______ _______ _____ _____    ______ ____
ROOT
ATOM      1  F   UNL     1      -1.990   2.401  -0.001  0.00  0.00    -0.230 F 
ATOM      2  O   UNL     1      -1.364  -0.308   1.119  0.00  0.00    -0.332 OA
ATOM      3  C   UNL     1      -1.991   0.312  -1.060  0.00  0.00    +0.177 C 
ATOM      4  C   UNL     1      -1.160   1.431  -0.481  0.00  0.00    +0.237 C 
ATOM      5  C   UNL     1      -0.489   0.761   0.706  0.00  0.00    +0.235 C 
ATOM      6  C   UNL     1      -2.469  -0.381   0.202  0.00  0.00    +0.176 C 
ENDROOT
BRANCH   5   8
ATOM      7  O   UNL     1       4.407  -1.269  -0.701  0.00  0.00    -0.209 OA
ATOM      8  N   UNL     1       0.803   0.236   0.336  0.00  0.00    -0.223 N 
ATOM      9  N   UNL     1       3.194   0.484   0.164  0.00  0.00    -0.302 NA
ATOM     10  N   UNL     1       1.906   2.212   1.033  0.00  0.00    -0.320 N 
ATOM     11  C   UNL     1       2.010   0.950   0.495  0.00  0.00    +0.253 C 
ATOM     12  C   UNL     1       0.928  -1.035  -0.215  0.00  0.00    +0.084 C 
ATOM     13  C   UNL     1       2.090  -1.581  -0.578  0.00  0.00    +0.123 C 
ATOM     14  C   UNL     1       3.328  -0.780  -0.378  0.00  0.00    +0.209 C 
ATOM     15  H   UNL     1       1.023   2.569   1.283  0.00  0.00    +0.146 HD
ATOM     16  H   UNL     1       2.714   2.757   1.167  0.00  0.00    +0.146 HD
ENDBRANCH   5   8
BRANCH   3  17
ATOM     17  O   UNL     1      -3.062   0.781  -1.849  0.00  0.00    -0.379 OA
ATOM     18  H   UNL     1      -2.713   1.215  -2.643  0.00  0.00    +0.211 HD
ENDBRANCH   3  17
BRANCH   6  19
ATOM     19  C   UNL     1      -2.861  -1.831  -0.015  0.00  0.00    +0.169 C 
BRANCH  19  20
ATOM     20  O   UNL     1      -3.279  -2.384   1.222  0.00  0.00    -0.379 OA
ATOM     21  H   UNL     1      -3.532  -3.311   1.093  0.00  0.00    +0.211 HD
ENDBRANCH  19  20
ENDBRANCH   6  19
TORSDOF 4
