122376923
  -OEChem-03292013293D

 68 70  0     1  0  0  0  0  0999 V2000
    0.8380    3.0832   -0.1921 S   0  0  0  0  0  0  0  0  0  0  0  0
    4.4108    2.3351    1.4043 O   0  0  0  0  0  0  0  0  0  0  0  0
    6.2840    1.3711   -0.9128 O   0  0  0  0  0  0  0  0  0  0  0  0
    1.2067   -1.9134   -0.9443 O   0  0  0  0  0  0  0  0  0  0  0  0
   -3.8554   -1.8254    0.6007 O   0  0  0  0  0  0  0  0  0  0  0  0
   -5.5908   -0.7054    1.5388 O   0  0  0  0  0  0  0  0  0  0  0  0
    3.0640    0.2531   -0.3141 N   0  0  2  0  0  0  0  0  0  0  0  0
    3.3653   -2.1829   -0.1134 N   0  0  0  0  0  0  0  0  0  0  0  0
   -5.6266    0.3271   -1.2782 N   0  3  0  0  0  0  0  0  0  0  0  0
   -1.8241    2.3968   -0.1691 N   0  0  0  0  0  0  0  0  0  0  0  0
   -0.8358    2.0574    1.7905 N   0  0  0  0  0  0  0  0  0  0  0  0
    3.8407    1.4126   -0.7612 C   0  0  1  0  0  0  0  0  0  0  0  0
    3.5329    2.4788    0.2865 C   0  0  1  0  0  0  0  0  0  0  0  0
    1.9483    0.6201    0.5660 C   0  0  2  0  0  0  0  0  0  0  0  0
    2.0986    2.1581    0.7507 C   0  0  2  0  0  0  0  0  0  0  0  0
    5.2265    0.7810   -0.7603 C   0  0  0  0  0  0  0  0  0  0  0  0
    3.4614    1.7896   -2.1928 C   0  0  0  0  0  0  0  0  0  0  0  0
    3.8205   -0.9165   -0.3344 C   0  0  0  0  0  0  0  0  0  0  0  0
    2.0194   -0.0673    1.9320 C   0  0  0  0  0  0  0  0  0  0  0  0
    5.1212   -0.6909   -0.5894 C   0  0  0  0  0  0  0  0  0  0  0  0
   -0.6668    2.4730    0.5549 C   0  0  0  0  0  0  0  0  0  0  0  0
   -4.4426    0.2720   -0.3726 C   0  0  1  0  0  0  0  0  0  0  0  0
   -4.1776    1.6816    0.2154 C   0  0  0  0  0  0  0  0  0  0  0  0
    2.0820   -2.6035   -0.4335 C   0  0  0  0  0  0  0  0  0  0  0  0
   -2.7926    1.9008    0.6575 C   0  0  0  0  0  0  0  0  0  0  0  0
   -2.1588    1.6993    1.8611 C   0  0  0  0  0  0  0  0  0  0  0  0
   -5.2483    0.9629   -2.6200 C   0  0  0  0  0  0  0  0  0  0  0  0
   -6.1645   -1.0825   -1.5460 C   0  0  0  0  0  0  0  0  0  0  0  0
   -6.7472    1.1602   -0.6475 C   0  0  0  0  0  0  0  0  0  0  0  0
   -4.7050   -0.7695    0.6968 C   0  0  0  0  0  0  0  0  0  0  0  0
    1.8632   -4.0283   -0.0487 C   0  0  0  0  0  0  0  0  0  0  0  0
    0.6831   -4.5631    0.3146 C   0  0  0  0  0  0  0  0  0  0  0  0
   -0.6342   -3.8422    0.3807 C   0  0  0  0  0  0  0  0  0  0  0  0
    0.6036   -6.0231    0.6799 C   0  0  0  0  0  0  0  0  0  0  0  0
    3.6618    3.4971   -0.0950 H   0  0  0  0  0  0  0  0  0  0  0  0
    1.0021    0.3486    0.0893 H   0  0  0  0  0  0  0  0  0  0  0  0
    1.9659    2.4462    1.8002 H   0  0  0  0  0  0  0  0  0  0  0  0
    3.7865    1.0249   -2.9090 H   0  0  0  0  0  0  0  0  0  0  0  0
    3.9446    2.7282   -2.4854 H   0  0  0  0  0  0  0  0  0  0  0  0
    2.3824    1.8996   -2.3282 H   0  0  0  0  0  0  0  0  0  0  0  0
    2.9987    0.0684    2.4037 H   0  0  0  0  0  0  0  0  0  0  0  0
    1.8317   -1.1412    1.8593 H   0  0  0  0  0  0  0  0  0  0  0  0
    1.2604    0.3373    2.6099 H   0  0  0  0  0  0  0  0  0  0  0  0
    5.9396   -1.3867   -0.6499 H   0  0  0  0  0  0  0  0  0  0  0  0
    4.1681    3.0164    2.0543 H   0  0  0  0  0  0  0  0  0  0  0  0
    4.0623   -2.8871    0.1187 H   0  0  0  0  0  0  0  0  0  0  0  0
   -3.5875   -0.0580   -0.9781 H   0  0  0  0  0  0  0  0  0  0  0  0
   -1.9377    2.6585   -1.1394 H   0  0  0  0  0  0  0  0  0  0  0  0
   -4.8329    1.8614    1.0785 H   0  0  0  0  0  0  0  0  0  0  0  0
   -4.3932    2.4788   -0.5037 H   0  0  0  0  0  0  0  0  0  0  0  0
   -2.5859    1.3137    2.7756 H   0  0  0  0  0  0  0  0  0  0  0  0
   -6.6594   -1.4756   -0.6541 H   0  0  0  0  0  0  0  0  0  0  0  0
   -6.1392    0.9776   -3.2555 H   0  0  0  0  0  0  0  0  0  0  0  0
   -4.4676    0.3505   -3.0813 H   0  0  0  0  0  0  0  0  0  0  0  0
   -6.9676    0.8070    0.3605 H   0  0  0  0  0  0  0  0  0  0  0  0
   -7.6401    1.0303   -1.2695 H   0  0  0  0  0  0  0  0  0  0  0  0
   -6.4876    2.2215   -0.6546 H   0  0  0  0  0  0  0  0  0  0  0  0
   -6.9047   -1.0145   -2.3503 H   0  0  0  0  0  0  0  0  0  0  0  0
   -5.3338   -1.7183   -1.8670 H   0  0  0  0  0  0  0  0  0  0  0  0
   -4.8928    1.9829   -2.4632 H   0  0  0  0  0  0  0  0  0  0  0  0
    2.7529   -4.6544   -0.0463 H   0  0  0  0  0  0  0  0  0  0  0  0
   -4.0376   -2.5048    1.2843 H   0  0  0  0  0  0  0  0  0  0  0  0
   -1.2496   -4.0979   -0.4875 H   0  0  0  0  0  0  0  0  0  0  0  0
    0.2635   -6.1373    1.7144 H   0  0  0  0  0  0  0  0  0  0  0  0
   -0.1030   -6.5395    0.0218 H   0  0  0  0  0  0  0  0  0  0  0  0
   -0.5341   -2.7560    0.4312 H   0  0  0  0  0  0  0  0  0  0  0  0
    1.5703   -6.5301    0.5908 H   0  0  0  0  0  0  0  0  0  0  0  0
   -1.1800   -4.1364    1.2843 H   0  0  0  0  0  0  0  0  0  0  0  0
  1 15  1  0  0  0  0
  1 21  1  0  0  0  0
  2 13  1  0  0  0  0
  2 45  1  0  0  0  0
  3 16  2  0  0  0  0
  4 24  2  0  0  0  0
  5 30  1  0  0  0  0
  5 62  1  0  0  0  0
  6 30  2  0  0  0  0
  7 12  1  0  0  0  0
  7 14  1  0  0  0  0
  7 18  1  0  0  0  0
  8 18  1  0  0  0  0
  8 24  1  0  0  0  0
  8 46  1  0  0  0  0
  9 22  1  0  0  0  0
  9 27  1  0  0  0  0
  9 28  1  0  0  0  0
  9 29  1  0  0  0  0
 10 21  1  0  0  0  0
 10 25  1  0  0  0  0
 10 48  1  0  0  0  0
 11 21  2  0  0  0  0
 11 26  1  0  0  0  0
 12 13  1  0  0  0  0
 12 16  1  0  0  0  0
 12 17  1  0  0  0  0
 13 15  1  0  0  0  0
 13 35  1  0  0  0  0
 14 15  1  0  0  0  0
 14 19  1  0  0  0  0
 14 36  1  0  0  0  0
 15 37  1  0  0  0  0
 16 20  1  0  0  0  0
 17 38  1  0  0  0  0
 17 39  1  0  0  0  0
 17 40  1  0  0  0  0
 18 20  2  0  0  0  0
 19 41  1  0  0  0  0
 19 42  1  0  0  0  0
 19 43  1  0  0  0  0
 20 44  1  0  0  0  0
 22 23  1  0  0  0  0
 22 30  1  0  0  0  0
 22 47  1  0  0  0  0
 23 25  1  0  0  0  0
 23 49  1  0  0  0  0
 23 50  1  0  0  0  0
 24 31  1  0  0  0  0
 25 26  2  0  0  0  0
 26 51  1  0  0  0  0
 27 53  1  0  0  0  0
 27 54  1  0  0  0  0
 27 60  1  0  0  0  0
 28 52  1  0  0  0  0
 28 58  1  0  0  0  0
 28 59  1  0  0  0  0
 29 55  1  0  0  0  0
 29 56  1  0  0  0  0
 29 57  1  0  0  0  0
 31 32  2  0  0  0  0
 31 61  1  0  0  0  0
 32 33  1  0  0  0  0
 32 34  1  0  0  0  0
 33 63  1  0  0  0  0
 33 66  1  0  0  0  0
 33 68  1  0  0  0  0
 34 64  1  0  0  0  0
 34 65  1  0  0  0  0
 34 67  1  0  0  0  0
M  CHG  1   9   1
M  END
> <PUBCHEM_COMPOUND_CID>
122376923

> <PUBCHEM_CONFORMER_RMSD>
1.2

> <PUBCHEM_CONFORMER_DIVERSEORDER>
1
75
33
51
6
106
22
107
76
10
49
85
45
9
65
133
48
148
112
111
35
117
31
130
83
114
40
11
134
55
86
115
98
3
118
145
84
15
43
95
54
135
47
109
105
93
30
25
64
19
94
68
108
147
42
126
122
5
92
128
121
38
100
143
16
27
80
66
140
18
91
60
58
142
124
13
99
139
116
110
74
132
36
50
39
90
44
26
59
146
32
70
8
119
56
136
20
52
82
89
123
2
141
81
87
41
79
28
12
97
23
144
138
4
37
88
24
78
57
104
102
62
73
113
131
101
120
63
103
46
7
72
14
96
17
29
34
129
125
127
67
53
61
71
77
137
69
21

> <PUBCHEM_MMFF94_PARTIAL_CHARGES>
39
1 -0.29
10 0.03
11 -0.57
12 0.43
13 0.28
14 0.37
15 0.23
16 0.49
18 0.21
2 -0.68
20 -0.14
21 0.24
22 0.56
23 0.18
24 0.62
25 -0.33
26 0.08
27 0.5
28 0.5
29 0.5
3 -0.57
30 0.66
31 -0.14
32 -0.28
33 0.14
34 0.14
4 -0.57
44 0.15
45 0.4
46 0.37
48 0.27
5 -0.65
51 0.15
6 -0.57
61 0.15
62 0.5
7 -0.84
8 -0.54
9 -1.01

> <PUBCHEM_EFFECTIVE_ROTOR_COUNT>
9.6

> <PUBCHEM_PHARMACOPHORE_FEATURES>
16
1 10 donor
1 2 acceptor
1 2 donor
1 3 acceptor
1 4 acceptor
1 5 acceptor
1 6 acceptor
1 7 cation
1 8 donor
1 9 cation
3 10 11 21 cation
3 32 33 34 hydrophobe
3 5 6 30 anion
5 10 11 21 25 26 rings
5 7 12 13 14 15 rings
5 7 12 16 18 20 rings

> <PUBCHEM_HEAVY_ATOM_COUNT>
34

> <PUBCHEM_ATOM_DEF_STEREO_COUNT>
5

> <PUBCHEM_ATOM_UDEF_STEREO_COUNT>
0

> <PUBCHEM_BOND_DEF_STEREO_COUNT>
0

> <PUBCHEM_BOND_UDEF_STEREO_COUNT>
0

> <PUBCHEM_ISOTOPIC_ATOM_COUNT>
0

> <PUBCHEM_COMPONENT_COUNT>
1

> <PUBCHEM_CACTVS_TAUTO_COUNT>
66

> <PUBCHEM_CONFORMER_ID>
074B52DB00000001

> <PUBCHEM_MMFF94_ENERGY>
110.6809

> <PUBCHEM_FEATURE_SELFOVERLAP>
81.519

> <PUBCHEM_SHAPE_FINGERPRINT>
10622 236 17911786982584807103
10928967 22 17560790035973515871
11069576 57 18194679272300894246
11135926 11 18336833000515440753
11136131 41 18261385591119350498
1361 2 18410571803514247953
14675020 138 18341877598434123824
15183329 4 18409722938353206309
152267 14 17186156466498171967
15250474 111 18198621038882345201
15274700 147 15732375079956105461
15537594 2 18060425703283832573
15721738 15 18119787150683034773
15799311 1 18270413711069683953
15890870 6 18408326613502367630
16067689 391 17554650251338871510
16114785 44 15474463655936772544
16628084 112 17978509729516026689
16993438 75 18116724108472061451
17134984 74 18340473561098712293
17138139 8 17988912401201964094
17627616 140 18410283714652307551
19319366 153 18412537704540403758
20028762 73 18271525270159970150
20764821 26 18411977000981432915
20775530 9 17837778828632585459
23516275 137 16628310742352661806
23559900 14 18410852200728792425
3552219 110 11959737058705816992
3882209 13 17469014697566694363
46194498 28 17678463176351076485
463206 1 18201716301685239799
484989 97 18338534018398252050
6371009 1 18339073805318843690
86090 222 18058157505026646627

> <PUBCHEM_SHAPE_MULTIPOLES>
649.3
14.28
5.85
1.7
15.45
10.77
-0.3
-4.7
-5.94
-3.58
1.27
1.2
-0.81
-0.06

> <PUBCHEM_SHAPE_SELFOVERLAP>
1347.562

> <PUBCHEM_SHAPE_VOLUME>
376.4

> <PUBCHEM_COORDINATE_TYPE>
2
5
10

$$$$
