122364645
  -OEChem-03292013293D

 52 55  0     1  0  0  0  0  0999 V2000
    1.1458    0.2069   -0.5150 O   0  0  0  0  0  0  0  0  0  0  0  0
    1.0146    2.0585    0.9476 O   0  0  0  0  0  0  0  0  0  0  0  0
    3.7887    1.4696    1.6426 O   0  0  0  0  0  0  0  0  0  0  0  0
    3.4019    1.5515   -1.9535 O   0  0  0  0  0  0  0  0  0  0  0  0
   -1.4128    1.1746   -0.5396 O   0  0  0  0  0  0  0  0  0  0  0  0
   -3.0749   -3.2313    0.4058 O   0  0  0  0  0  0  0  0  0  0  0  0
   -0.5696    4.0423    1.0709 O   0  0  0  0  0  0  0  0  0  0  0  0
    0.6434    5.3501   -0.3603 O   0  0  0  0  0  0  0  0  0  0  0  0
    3.2100    1.0670    0.4020 C   0  0  1  0  0  0  0  0  0  0  0  0
    1.7103    0.8433    0.6291 C   0  0  2  0  0  0  0  0  0  0  0  0
    3.4669    2.1432   -0.6587 C   0  0  2  0  0  0  0  0  0  0  0  0
    2.4528    3.2440   -0.5813 C   0  0  0  0  0  0  0  0  0  0  0  0
    0.1019   -0.6467   -0.2866 C   0  0  0  0  0  0  0  0  0  0  0  0
    1.3623    3.1530    0.1934 C   0  0  0  0  0  0  0  0  0  0  0  0
    0.3329   -2.0007   -0.0426 C   0  0  0  0  0  0  0  0  0  0  0  0
   -1.2026   -0.1529   -0.2994 C   0  0  0  0  0  0  0  0  0  0  0  0
   -2.2761   -1.0128   -0.0679 C   0  0  0  0  0  0  0  0  0  0  0  0
   -0.7407   -2.8605    0.1889 C   0  0  0  0  0  0  0  0  0  0  0  0
   -2.0452   -2.3666    0.1763 C   0  0  0  0  0  0  0  0  0  0  0  0
    1.6800   -2.5349   -0.0248 C   0  0  0  0  0  0  0  0  0  0  0  0
   -3.6343   -0.5003   -0.0807 C   0  0  0  0  0  0  0  0  0  0  0  0
    0.4671    4.3096    0.2487 C   0  0  0  0  0  0  0  0  0  0  0  0
    2.1725   -3.1460    1.1284 C   0  0  0  0  0  0  0  0  0  0  0  0
    2.4839   -2.4382   -1.1605 C   0  0  0  0  0  0  0  0  0  0  0  0
   -4.2124   -0.0279    1.0975 C   0  0  0  0  0  0  0  0  0  0  0  0
   -4.3611   -0.4801   -1.2709 C   0  0  0  0  0  0  0  0  0  0  0  0
    3.4690   -3.6604    1.1459 C   0  0  0  0  0  0  0  0  0  0  0  0
    3.7803   -2.9526   -1.1432 C   0  0  0  0  0  0  0  0  0  0  0  0
   -5.5174    0.4646    1.0856 C   0  0  0  0  0  0  0  0  0  0  0  0
   -5.6661    0.0124   -1.2831 C   0  0  0  0  0  0  0  0  0  0  0  0
    4.2729   -3.5636    0.0100 C   0  0  0  0  0  0  0  0  0  0  0  0
   -6.2443    0.4847   -0.1048 C   0  0  0  0  0  0  0  0  0  0  0  0
    3.6817    0.1247    0.1018 H   0  0  0  0  0  0  0  0  0  0  0  0
    1.5953    0.1995    1.5117 H   0  0  0  0  0  0  0  0  0  0  0  0
    4.4698    2.5662   -0.5304 H   0  0  0  0  0  0  0  0  0  0  0  0
    2.6614    4.1343   -1.1682 H   0  0  0  0  0  0  0  0  0  0  0  0
   -0.5690   -3.9192    0.3734 H   0  0  0  0  0  0  0  0  0  0  0  0
    4.7464    1.5626    1.5023 H   0  0  0  0  0  0  0  0  0  0  0  0
    3.6022    2.2436   -2.6068 H   0  0  0  0  0  0  0  0  0  0  0  0
    1.5653   -3.2255    2.0270 H   0  0  0  0  0  0  0  0  0  0  0  0
    2.1180   -1.9738   -2.0733 H   0  0  0  0  0  0  0  0  0  0  0  0
   -3.6595   -0.0363    2.0339 H   0  0  0  0  0  0  0  0  0  0  0  0
   -3.9252   -0.8445   -2.1982 H   0  0  0  0  0  0  0  0  0  0  0  0
   -0.5670    1.5792   -0.7952 H   0  0  0  0  0  0  0  0  0  0  0  0
    3.8534   -4.1345    2.0442 H   0  0  0  0  0  0  0  0  0  0  0  0
    4.4059   -2.8785   -2.0278 H   0  0  0  0  0  0  0  0  0  0  0  0
   -2.7169   -4.1232    0.5545 H   0  0  0  0  0  0  0  0  0  0  0  0
   -5.9676    0.8325    2.0030 H   0  0  0  0  0  0  0  0  0  0  0  0
   -6.2321    0.0282   -2.2099 H   0  0  0  0  0  0  0  0  0  0  0  0
    5.2825   -3.9637    0.0235 H   0  0  0  0  0  0  0  0  0  0  0  0
   -7.2603    0.8681   -0.1142 H   0  0  0  0  0  0  0  0  0  0  0  0
   -1.1941    4.7962    1.1338 H   0  0  0  0  0  0  0  0  0  0  0  0
  1 10  1  0  0  0  0
  1 13  1  0  0  0  0
  2 10  1  0  0  0  0
  2 14  1  0  0  0  0
  3  9  1  0  0  0  0
  3 38  1  0  0  0  0
  4 11  1  0  0  0  0
  4 39  1  0  0  0  0
  5 16  1  0  0  0  0
  5 44  1  0  0  0  0
  6 19  1  0  0  0  0
  6 47  1  0  0  0  0
  7 22  1  0  0  0  0
  7 52  1  0  0  0  0
  8 22  2  0  0  0  0
  9 10  1  0  0  0  0
  9 11  1  0  0  0  0
  9 33  1  0  0  0  0
 10 34  1  0  0  0  0
 11 12  1  0  0  0  0
 11 35  1  0  0  0  0
 12 14  2  0  0  0  0
 12 36  1  0  0  0  0
 13 15  1  0  0  0  0
 13 16  2  0  0  0  0
 14 22  1  0  0  0  0
 15 18  2  0  0  0  0
 15 20  1  0  0  0  0
 16 17  1  0  0  0  0
 17 19  2  0  0  0  0
 17 21  1  0  0  0  0
 18 19  1  0  0  0  0
 18 37  1  0  0  0  0
 20 23  2  0  0  0  0
 20 24  1  0  0  0  0
 21 25  2  0  0  0  0
 21 26  1  0  0  0  0
 23 27  1  0  0  0  0
 23 40  1  0  0  0  0
 24 28  2  0  0  0  0
 24 41  1  0  0  0  0
 25 29  1  0  0  0  0
 25 42  1  0  0  0  0
 26 30  2  0  0  0  0
 26 43  1  0  0  0  0
 27 31  2  0  0  0  0
 27 45  1  0  0  0  0
 28 31  1  0  0  0  0
 28 46  1  0  0  0  0
 29 32  2  0  0  0  0
 29 48  1  0  0  0  0
 30 32  1  0  0  0  0
 30 49  1  0  0  0  0
 31 50  1  0  0  0  0
 32 51  1  0  0  0  0
M  END
> <PUBCHEM_COMPOUND_CID>
122364645

> <PUBCHEM_CONFORMER_RMSD>
0.8

> <PUBCHEM_CONFORMER_DIVERSEORDER>
1
14
19
2
23
13
27
5
20
16
22
18
10
11
15
25
12
17
8
24
26
9
3
6
21
4
7

> <PUBCHEM_MMFF94_PARTIAL_CHARGES>
45
1 -0.36
10 0.56
11 0.42
12 -0.29
13 0.08
14 0.09
16 0.08
18 -0.15
19 0.08
2 -0.36
22 0.71
23 -0.15
24 -0.15
25 -0.15
26 -0.15
27 -0.15
28 -0.15
29 -0.15
3 -0.68
30 -0.15
31 -0.15
32 -0.15
36 0.15
37 0.15
38 0.4
39 0.4
4 -0.68
40 0.15
41 0.15
42 0.15
43 0.15
44 0.45
45 0.15
46 0.15
47 0.45
48 0.15
49 0.15
5 -0.53
50 0.15
51 0.15
52 0.5
6 -0.53
7 -0.65
8 -0.57
9 0.28

> <PUBCHEM_EFFECTIVE_ROTOR_COUNT>
5.8

> <PUBCHEM_PHARMACOPHORE_FEATURES>
15
1 1 acceptor
1 2 acceptor
1 3 acceptor
1 3 donor
1 4 acceptor
1 4 donor
1 5 donor
1 6 donor
1 7 acceptor
1 8 acceptor
3 7 8 22 anion
6 13 15 16 17 18 19 rings
6 2 9 10 11 12 14 rings
6 20 23 24 27 28 31 rings
6 21 25 26 29 30 32 rings

> <PUBCHEM_HEAVY_ATOM_COUNT>
32

> <PUBCHEM_ATOM_DEF_STEREO_COUNT>
3

> <PUBCHEM_ATOM_UDEF_STEREO_COUNT>
0

> <PUBCHEM_BOND_DEF_STEREO_COUNT>
0

> <PUBCHEM_BOND_UDEF_STEREO_COUNT>
0

> <PUBCHEM_ISOTOPIC_ATOM_COUNT>
0

> <PUBCHEM_COMPONENT_COUNT>
1

> <PUBCHEM_CACTVS_TAUTO_COUNT>
17

> <PUBCHEM_CONFORMER_ID>
074B22E500000001

> <PUBCHEM_MMFF94_ENERGY>
107.7049

> <PUBCHEM_FEATURE_SELFOVERLAP>
76.235

> <PUBCHEM_SHAPE_FINGERPRINT>
10411042 1 18266737970124532247
10675989 125 18337965575239902676
1100329 8 18409169878944654643
12173636 292 17546161265140347567
12633257 1 18263914600510874641
12741549 16 16986576561079427258
12788726 201 18048326552303623398
13140716 1 18122339352951361097
13590594 115 18194404390109350443
140371 6 18267310815635377678
14466204 15 18266730475554008384
15081414 286 18411420613811613401
15082195 135 18197477723374046375
15475509 8 17698746721572431247
1813 80 18057043506084342751
19319366 153 17822859667289090018
20642791 35 18340776966215872510
20739085 24 18269287785055005241
20764821 26 18194124006371311541
21033648 29 17530958039455476143
21860390 5 18343582953579509942
22182313 1 17896300459801543679
22223350 30 17258476861606840746
23559900 14 18410853256863446542
24771293 8 18201143374386185954
24771750 20 18191324855772197294
3298306 158 18266461090746705614
3411729 13 18411412938831747274
350125 39 18192436277380850373
4015057 19 18408878543292335075
474 4 18341327907493065881
513532 50 17917996092108021886
5265222 85 17757007957517213852
59755656 215 18410572877714520788
6443956 14 18408885144461604438
9981440 41 17907284808712493067

> <PUBCHEM_SHAPE_MULTIPOLES>
611.59
10.14
6.27
1.24
14.05
5.72
0.09
-4.31
0.7
-7.03
-0.65
-0.26
0.01
-0.42

> <PUBCHEM_SHAPE_SELFOVERLAP>
1356.127

> <PUBCHEM_SHAPE_VOLUME>
323.6

> <PUBCHEM_COORDINATE_TYPE>
2
5
10

$$$$
