REMARK  Name = 122313
REMARK  8 active torsions:
REMARK  status: ('A' for Active; 'I' for Inactive)
REMARK    1  A    between atoms: CA_1  and  N_3
REMARK    2  A    between atoms: CA_1  and  C_15
REMARK    3  A    between atoms: CA_1  and  CB_22
REMARK    4  A    between atoms: C_4  and  CA_8
REMARK    5  A    between atoms: N_14  and  CA_17
REMARK    6  A    between atoms: CA_17  and  C_19
REMARK    7  A    between atoms: C_19  and  O_20
REMARK    8  A    between atoms: CB_22  and  CG_25
REMARK                            x       y       z     vdW  Elec       q    Type
REMARK                         _______ _______ _______ _____ _____    ______ ____
ROOT
ATOM      1  CA  UNL     1       1.079  -0.238   0.187  0.00  0.00    +0.151 C 
ENDROOT
BRANCH   1   3
ATOM      2  O   UNL     1      -1.163   0.724  -1.387  0.00  0.00    -0.273 OA
ATOM      3  N   UNL     1       0.211   0.872   0.487  0.00  0.00    -0.297 N 
ATOM      4  C   ACE A   1      -0.840   1.259  -0.330  0.00  0.00    +0.241 C 
ATOM      5  H   UNL     1       0.373   1.381   1.314  0.00  0.00    +0.150 HD
BRANCH   4   8
ATOM      6  O   UNL     1      -4.947   2.297  -0.892  0.00  0.00    -0.275 OA
ATOM      7  N   UNL     1      -2.651   2.714  -0.702  0.00  0.00    -0.298 N 
ATOM      8  CA  UNL     1      -1.596   2.423   0.227  0.00  0.00    +0.149 C 
ATOM      9  C   UNL     1      -2.329   2.088   1.512  0.00  0.00    +0.039 C 
ATOM     10  C   UNL     1      -3.684   1.556   1.046  0.00  0.00    +0.087 C 
ATOM     11  C   UNL     1      -3.887   2.232  -0.288  0.00  0.00    +0.223 C 
ATOM     12  H   UNL     1      -2.513   3.204  -1.545  0.00  0.00    +0.150 HD
ENDBRANCH   4   8
ENDBRANCH   1   3
BRANCH   1  15
ATOM     13  O   UNL     1      -0.233  -1.502   1.786  0.00  0.00    -0.273 OA
ATOM     14  N   UNL     1       0.623  -2.598  -0.072  0.00  0.00    -0.294 N 
ATOM     15  C   UNL     1       0.426  -1.496   0.748  0.00  0.00    +0.241 C 
ATOM     16  H   UNL     1       1.169  -2.489  -0.884  0.00  0.00    +0.150 HD
BRANCH  14  17
ATOM     17  CA  UNL     1       0.061  -3.897   0.215  0.00  0.00    +0.200 C 
BRANCH  17  19
ATOM     18  OXT UNL     1      -1.959  -5.119  -0.256  0.00  0.00    -0.248 OA
ATOM     19  C   UNL     1      -1.306  -4.091  -0.389  0.00  0.00    +0.334 C 
BRANCH  19  20
ATOM     20  O   UNL     1      -1.743  -3.022  -1.094  0.00  0.00    -0.479 OA
ATOM     21  H   UNL     1      -1.206  -2.257  -1.167  0.00  0.00    +0.295 HD
ENDBRANCH  19  20
ENDBRANCH  17  19
ENDBRANCH  14  17
ENDBRANCH   1  15
BRANCH   1  22
ATOM     22  CB  UNL     1       2.477  -0.049   0.781  0.00  0.00    +0.059 C 
BRANCH  22  25
ATOM     23  ND1 UNL     1       3.475   1.012  -1.205  0.00  0.00    -0.246 NA
ATOM     24  NE2 UNL     1       5.471   1.255  -0.117  0.00  0.00    -0.225 NA
ATOM     25  CG  UNL     1       3.184   1.183   0.233  0.00  0.00    +0.148 C 
ATOM     26  CD2 UNL     1       4.563   1.324   0.790  0.00  0.00    +0.098 C 
ATOM     27  CE1 UNL     1       4.769   1.071  -1.280  0.00  0.00    +0.194 C 
ENDBRANCH  22  25
ENDBRANCH   1  22
TORSDOF 8
