122395473
  -OEChem-03292013293D

 29 30  0     1  0  0  0  0  0999 V2000
   -1.9896    2.4009   -0.0010 F   0  0  0  0  0  0  0  0  0  0  0  0
   -1.3638   -0.3079    1.1195 O   0  0  0  0  0  0  0  0  0  0  0  0
   -3.0622    0.7808   -1.8488 O   0  0  0  0  0  0  0  0  0  0  0  0
   -3.2794   -2.3835    1.2219 O   0  0  0  0  0  0  0  0  0  0  0  0
    4.4074   -1.2690   -0.7009 O   0  0  0  0  0  0  0  0  0  0  0  0
    0.8026    0.2361    0.3361 N   0  0  0  0  0  0  0  0  0  0  0  0
    3.1937    0.4840    0.1644 N   0  0  0  0  0  0  0  0  0  0  0  0
    1.9058    2.2115    1.0329 N   0  0  0  0  0  0  0  0  0  0  0  0
   -1.9908    0.3120   -1.0599 C   0  0  1  0  0  0  0  0  0  0  0  0
   -1.1596    1.4314   -0.4809 C   0  0  2  0  0  0  0  0  0  0  0  0
   -0.4892    0.7614    0.7058 C   0  0  1  0  0  0  0  0  0  0  0  0
   -2.4691   -0.3809    0.2023 C   0  0  1  0  0  0  0  0  0  0  0  0
   -2.8607   -1.8310   -0.0155 C   0  0  0  0  0  0  0  0  0  0  0  0
    2.0097    0.9500    0.4950 C   0  0  0  0  0  0  0  0  0  0  0  0
    0.9276   -1.0348   -0.2148 C   0  0  0  0  0  0  0  0  0  0  0  0
    2.0898   -1.5807   -0.5776 C   0  0  0  0  0  0  0  0  0  0  0  0
    3.3277   -0.7802   -0.3784 C   0  0  0  0  0  0  0  0  0  0  0  0
   -1.3695   -0.3436   -1.6788 H   0  0  0  0  0  0  0  0  0  0  0  0
   -0.4853    1.9045   -1.1998 H   0  0  0  0  0  0  0  0  0  0  0  0
   -0.4356    1.4313    1.5683 H   0  0  0  0  0  0  0  0  0  0  0  0
   -3.3088    0.1564    0.6618 H   0  0  0  0  0  0  0  0  0  0  0  0
   -2.0224   -2.4316   -0.3780 H   0  0  0  0  0  0  0  0  0  0  0  0
   -3.6876   -1.9100   -0.7279 H   0  0  0  0  0  0  0  0  0  0  0  0
   -3.5832    0.0092   -2.1285 H   0  0  0  0  0  0  0  0  0  0  0  0
    0.0204   -1.6039   -0.3429 H   0  0  0  0  0  0  0  0  0  0  0  0
   -3.5310   -3.3074    1.0528 H   0  0  0  0  0  0  0  0  0  0  0  0
    2.1629   -2.5740   -1.0014 H   0  0  0  0  0  0  0  0  0  0  0  0
    2.7410    2.7673    1.1858 H   0  0  0  0  0  0  0  0  0  0  0  0
    1.0250    2.6915    1.1676 H   0  0  0  0  0  0  0  0  0  0  0  0
  1 10  1  0  0  0  0
  2 11  1  0  0  0  0
  2 12  1  0  0  0  0
  3  9  1  0  0  0  0
  3 24  1  0  0  0  0
  4 13  1  0  0  0  0
  4 26  1  0  0  0  0
  5 17  2  0  0  0  0
  6 11  1  0  0  0  0
  6 14  1  0  0  0  0
  6 15  1  0  0  0  0
  7 14  2  0  0  0  0
  7 17  1  0  0  0  0
  8 14  1  0  0  0  0
  8 28  1  0  0  0  0
  8 29  1  0  0  0  0
  9 10  1  0  0  0  0
  9 12  1  0  0  0  0
  9 18  1  0  0  0  0
 10 11  1  0  0  0  0
 10 19  1  0  0  0  0
 11 20  1  0  0  0  0
 12 13  1  0  0  0  0
 12 21  1  0  0  0  0
 13 22  1  0  0  0  0
 13 23  1  0  0  0  0
 15 16  2  0  0  0  0
 15 25  1  0  0  0  0
 16 17  1  0  0  0  0
 16 27  1  0  0  0  0
M  END
> <PUBCHEM_COMPOUND_CID>
122395473

> <PUBCHEM_CONFORMER_RMSD>
0.6

> <PUBCHEM_CONFORMER_DIVERSEORDER>
1
4
7
2
5
3
6
8

> <PUBCHEM_MMFF94_PARTIAL_CHARGES>
23
1 -0.34
10 0.34
11 0.65
12 0.28
13 0.28
14 0.55
15 -0.05
16 -0.14
17 0.77
2 -0.56
24 0.4
25 0.15
26 0.4
27 0.15
28 0.4
29 0.4
3 -0.68
4 -0.68
5 -0.57
6 -0.52
7 -0.66
8 -0.85
9 0.28

> <PUBCHEM_EFFECTIVE_ROTOR_COUNT>
3

> <PUBCHEM_PHARMACOPHORE_FEATURES>
10
1 2 acceptor
1 3 acceptor
1 3 donor
1 4 acceptor
1 4 donor
1 5 acceptor
1 7 donor
1 8 donor
5 2 9 10 11 12 rings
6 6 7 14 15 16 17 rings

> <PUBCHEM_HEAVY_ATOM_COUNT>
17

> <PUBCHEM_ATOM_DEF_STEREO_COUNT>
4

> <PUBCHEM_ATOM_UDEF_STEREO_COUNT>
0

> <PUBCHEM_BOND_DEF_STEREO_COUNT>
0

> <PUBCHEM_BOND_UDEF_STEREO_COUNT>
0

> <PUBCHEM_ISOTOPIC_ATOM_COUNT>
0

> <PUBCHEM_COMPONENT_COUNT>
1

> <PUBCHEM_CACTVS_TAUTO_COUNT>
3

> <PUBCHEM_CONFORMER_ID>
074B9B5100000001

> <PUBCHEM_MMFF94_ENERGY>
51.4691

> <PUBCHEM_FEATURE_SELFOVERLAP>
50.797

> <PUBCHEM_SHAPE_FINGERPRINT>
11127187 94 18333732390520441119
11543360 7 17458920309414295718
12138202 97 17968647225381745495
12932764 1 17894628132390258216
13296908 3 18411979199735195243
15219456 202 18339636840764993505
15775835 57 14779551136538879836
15906896 17 17344360947201757825
16945 1 18338222765785251553
17844478 74 18411704326165429547
18380122 1 18193267722640368945
18534176 82 18334289838657627503
19868273 293 17168417160717118069
200 152 17489013894862403429
20201158 50 18341608174982696678
20645477 70 18059565923238988935
20871998 22 18118973726731893003
20871999 31 18113330912846470375
21061003 4 18271251628786369091
221490 88 18412831308863051094
22802520 49 18412257333269742561
23557571 272 18114735053192472317
23559900 14 18196087738997761826
25 1 17978505334856699373
2748010 2 18266728246260064605
2871803 45 18334571390917947115
31174 14 18128260179969250712
458136 41 17767411544944262352
5493415 88 18413671297007447002
6049 1 18410009970051681576
77492 1 16271928267460756032
81228 2 18040438815231732521
8809292 202 18408609149351675034

> <PUBCHEM_SHAPE_MULTIPOLES>
304.16
6.21
2.24
1.13
2.82
0.15
-0.17
-2.61
-0.86
-0.74
0.37
-0.77
0.05
1.5

> <PUBCHEM_SHAPE_SELFOVERLAP>
642.87

> <PUBCHEM_SHAPE_VOLUME>
170.1

> <PUBCHEM_COORDINATE_TYPE>
2
5
10

$$$$
