REMARK  Name = 122400111
REMARK  4 active torsions:
REMARK  status: ('A' for Active; 'I' for Inactive)
REMARK    1  A    between atoms: C_13  and  O_29
REMARK    2  A    between atoms: C_15  and  N_22
REMARK    3  A    between atoms: C_23  and  C_25
REMARK    4  A    between atoms: C_25  and  O_27
REMARK                            x       y       z     vdW  Elec       q    Type
REMARK                         _______ _______ _______ _____ _____    ______ ____
ROOT
ATOM      1  O   UNL     1      -1.790   3.205   0.417  0.00  0.00    -0.275 OA
ATOM      2  N   UNL     1      -2.419   0.930  -0.026  0.00  0.00    -0.258 N 
ATOM      3  N   UNL     1      -0.046  -3.295   0.229  0.00  0.00    -0.410 NA
ATOM      4  C   UNL     1      -3.698   0.247  -0.222  0.00  0.00    +0.083 C 
ATOM      5  C   UNL     1      -4.649   1.149   0.565  0.00  0.00    +0.032 C 
ATOM      6  C   UNL     1      -4.080   2.547   0.334  0.00  0.00    +0.088 C 
ATOM      7  C   UNL     1      -1.192   0.217  -0.077  0.00  0.00    +0.077 C 
ATOM      8  C   UNL     1      -2.590   2.302   0.224  0.00  0.00    +0.229 C 
ATOM      9  C   UNL     1      -3.651  -1.162   0.294  0.00  0.00    -0.012 C 
ATOM     10  C   UNL     1      -4.080   0.222  -1.714  0.00  0.00    +0.025 C 
ATOM     11  C   UNL     1      -1.215  -1.188   0.104  0.00  0.00    +0.113 C 
ATOM     12  C   UNL     1      -2.501  -1.835   0.427  0.00  0.00    -0.017 C 
ATOM     13  C   UNL     1       0.028   0.860  -0.280  0.00  0.00    +0.157 C 
ATOM     14  C   UNL     1      -0.033  -1.952   0.061  0.00  0.00    +0.119 C 
ATOM     15  C   UNL     1       1.205   0.118  -0.327  0.00  0.00    +0.088 C 
ATOM     16  C   UNL     1       1.183  -1.273  -0.162  0.00  0.00    +0.043 C 
ATOM     17  C   UNL     1       2.371  -2.016  -0.212  0.00  0.00    +0.006 C 
ATOM     18  C   UNL     1       1.119  -3.978   0.175  0.00  0.00    +0.109 C 
ATOM     19  C   UNL     1       2.346  -3.391  -0.041  0.00  0.00    +0.028 C 
ATOM     20  C   UNL     1       1.035  -5.455   0.364  0.00  0.00    +0.066 C 
ENDROOT
BRANCH  15  22
ATOM     21  O   UNL     1       2.582   2.254   1.270  0.00  0.00    -0.272 OA
ATOM     22  N   UNL     1       2.413   0.794  -0.564  0.00  0.00    -0.280 N 
ATOM     23  C   UNL     1       3.007   1.791   0.215  0.00  0.00    +0.253 C 
ATOM     24  H   UNL     1       2.901   0.533  -1.378  0.00  0.00    +0.155 HD
BRANCH  23  25
ATOM     25  C   UNL     1       4.324   2.272  -0.388  0.00  0.00    +0.187 C 
ATOM     26  C   UNL     1       5.342   1.145  -0.483  0.00  0.00    +0.042 C 
BRANCH  25  27
ATOM     27  O   UNL     1       4.853   3.314   0.417  0.00  0.00    -0.376 OA
ATOM     28  H   UNL     1       4.206   4.034   0.480  0.00  0.00    +0.211 HD
ENDBRANCH  25  27
ENDBRANCH  23  25
ENDBRANCH  15  22
BRANCH  13  29
ATOM     29  O   UNL     1       0.139   2.180  -0.600  0.00  0.00    -0.503 OA
ATOM     30  H   UNL     1      -0.620   2.730  -0.586  0.00  0.00    +0.292 HD
ENDBRANCH  13  29
TORSDOF 4
