122400112
  -OEChem-03292013293D

 46 49  0     1  0  0  0  0  0999 V2000
    0.1492    2.1953   -0.6240 O   0  0  0  0  0  0  0  0  0  0  0  0
   -1.7825    3.1644    0.6440 O   0  0  0  0  0  0  0  0  0  0  0  0
    2.6072    2.2427    1.2328 O   0  0  0  0  0  0  0  0  0  0  0  0
    4.8991    3.2553    0.3806 O   0  0  0  0  0  0  0  0  0  0  0  0
   -2.4009    0.9670   -0.0747 N   0  0  0  0  0  0  0  0  0  0  0  0
   -0.1088   -3.2767    0.2623 N   0  0  0  0  0  0  0  0  0  0  0  0
    2.4245    0.7620   -0.5831 N   0  0  0  0  0  0  0  0  0  0  0  0
   -3.6688    0.3002   -0.3374 C   0  0  1  0  0  0  0  0  0  0  0  0
   -1.1834    0.2449   -0.1130 C   0  0  0  0  0  0  0  0  0  0  0  0
   -1.2373   -1.1556    0.0979 C   0  0  0  0  0  0  0  0  0  0  0  0
   -3.6763   -1.0616    0.2927 C   0  0  0  0  0  0  0  0  0  0  0  0
   -4.6151    1.2942    0.2666 C   0  0  0  0  0  0  0  0  0  0  0  0
   -3.9487    0.1921   -1.8454 C   0  0  0  0  0  0  0  0  0  0  0  0
   -2.5727    2.2829    0.3531 C   0  0  0  0  0  0  0  0  0  0  0  0
   -2.5404   -1.7557    0.4613 C   0  0  0  0  0  0  0  0  0  0  0  0
    0.0426    0.8724   -0.3116 C   0  0  0  0  0  0  0  0  0  0  0  0
   -0.0704   -1.9387    0.0702 C   0  0  0  0  0  0  0  0  0  0  0  0
   -4.0221    2.4462    0.5974 C   0  0  0  0  0  0  0  0  0  0  0  0
    1.1574   -1.2819   -0.1626 C   0  0  0  0  0  0  0  0  0  0  0  0
    1.2048    0.1086   -0.3448 C   0  0  0  0  0  0  0  0  0  0  0  0
    2.3317   -2.0467   -0.1987 C   0  0  0  0  0  0  0  0  0  0  0  0
    1.0453   -3.9804    0.2205 C   0  0  0  0  0  0  0  0  0  0  0  0
    2.2820   -3.4182   -0.0062 C   0  0  0  0  0  0  0  0  0  0  0  0
    3.0302    1.7593    0.1867 C   0  0  0  0  0  0  0  0  0  0  0  0
    0.9365   -5.4522    0.4390 C   0  0  0  0  0  0  0  0  0  0  0  0
    4.3583    2.2119   -0.4143 C   0  0  2  0  0  0  0  0  0  0  0  0
    5.3588    1.0683   -0.4897 C   0  0  0  0  0  0  0  0  0  0  0  0
   -4.6260   -1.5201    0.5539 H   0  0  0  0  0  0  0  0  0  0  0  0
   -5.6797    1.1257    0.3620 H   0  0  0  0  0  0  0  0  0  0  0  0
   -4.9368   -0.2430   -2.0380 H   0  0  0  0  0  0  0  0  0  0  0  0
   -3.2045   -0.4370   -2.3486 H   0  0  0  0  0  0  0  0  0  0  0  0
   -3.9149    1.1731   -2.3354 H   0  0  0  0  0  0  0  0  0  0  0  0
   -2.5681   -2.7559    0.8784 H   0  0  0  0  0  0  0  0  0  0  0  0
   -4.4810    3.3261    1.0146 H   0  0  0  0  0  0  0  0  0  0  0  0
    3.3106   -1.6050   -0.3634 H   0  0  0  0  0  0  0  0  0  0  0  0
    3.0300    0.2819   -1.2423 H   0  0  0  0  0  0  0  0  0  0  0  0
    3.1878   -4.0137   -0.0303 H   0  0  0  0  0  0  0  0  0  0  0  0
    1.0228    2.3719   -1.0095 H   0  0  0  0  0  0  0  0  0  0  0  0
    1.5155   -5.7505    1.3188 H   0  0  0  0  0  0  0  0  0  0  0  0
   -0.1044   -5.7497    0.6036 H   0  0  0  0  0  0  0  0  0  0  0  0
    1.3083   -5.9957   -0.4354 H   0  0  0  0  0  0  0  0  0  0  0  0
    4.1619    2.6161   -1.4139 H   0  0  0  0  0  0  0  0  0  0  0  0
    5.4599    0.5753    0.4839 H   0  0  0  0  0  0  0  0  0  0  0  0
    6.3521    1.4446   -0.7583 H   0  0  0  0  0  0  0  0  0  0  0  0
    5.0779    0.3104   -1.2259 H   0  0  0  0  0  0  0  0  0  0  0  0
    5.6567    3.6286   -0.1014 H   0  0  0  0  0  0  0  0  0  0  0  0
  1 16  1  0  0  0  0
  1 38  1  0  0  0  0
  2 14  2  0  0  0  0
  3 24  2  0  0  0  0
  4 26  1  0  0  0  0
  4 46  1  0  0  0  0
  5  8  1  0  0  0  0
  5  9  1  0  0  0  0
  5 14  1  0  0  0  0
  6 17  1  0  0  0  0
  6 22  2  0  0  0  0
  7 20  1  0  0  0  0
  7 24  1  0  0  0  0
  7 36  1  0  0  0  0
  8 11  1  0  0  0  0
  8 12  1  0  0  0  0
  8 13  1  0  0  0  0
  9 10  2  0  0  0  0
  9 16  1  0  0  0  0
 10 15  1  0  0  0  0
 10 17  1  0  0  0  0
 11 15  2  0  0  0  0
 11 28  1  0  0  0  0
 12 18  2  0  0  0  0
 12 29  1  0  0  0  0
 13 30  1  0  0  0  0
 13 31  1  0  0  0  0
 13 32  1  0  0  0  0
 14 18  1  0  0  0  0
 15 33  1  0  0  0  0
 16 20  2  0  0  0  0
 17 19  2  0  0  0  0
 18 34  1  0  0  0  0
 19 20  1  0  0  0  0
 19 21  1  0  0  0  0
 21 23  2  0  0  0  0
 21 35  1  0  0  0  0
 22 23  1  0  0  0  0
 22 25  1  0  0  0  0
 23 37  1  0  0  0  0
 24 26  1  0  0  0  0
 25 39  1  0  0  0  0
 25 40  1  0  0  0  0
 25 41  1  0  0  0  0
 26 27  1  0  0  0  0
 26 42  1  0  0  0  0
 27 43  1  0  0  0  0
 27 44  1  0  0  0  0
 27 45  1  0  0  0  0
M  END
> <PUBCHEM_COMPOUND_CID>
122400112

> <PUBCHEM_CONFORMER_RMSD>
0.6

> <PUBCHEM_CONFORMER_DIVERSEORDER>
1
2
7
4
3
8
6
5
9

> <PUBCHEM_MMFF94_PARTIAL_CHARGES>
33
1 -0.53
10 0.03
11 -0.29
12 -0.29
14 0.62
15 -0.18
16 0.08
17 0.31
18 -0.14
2 -0.57
20 0.12
21 -0.15
22 0.17
23 -0.15
24 0.57
25 0.14
26 0.34
28 0.15
29 0.15
3 -0.57
33 0.15
34 0.15
35 0.15
36 0.37
37 0.15
38 0.45
4 -0.68
46 0.4
5 -0.48
6 -0.62
7 -0.55
8 0.58
9 0.12

> <PUBCHEM_EFFECTIVE_ROTOR_COUNT>
3

> <PUBCHEM_PHARMACOPHORE_FEATURES>
11
1 1 donor
1 2 acceptor
1 3 acceptor
1 4 acceptor
1 4 donor
1 6 acceptor
1 7 donor
5 5 8 12 14 18 rings
6 5 8 9 10 11 15 rings
6 6 17 19 21 22 23 rings
6 9 10 16 17 19 20 rings

> <PUBCHEM_HEAVY_ATOM_COUNT>
27

> <PUBCHEM_ATOM_DEF_STEREO_COUNT>
2

> <PUBCHEM_ATOM_UDEF_STEREO_COUNT>
0

> <PUBCHEM_BOND_DEF_STEREO_COUNT>
0

> <PUBCHEM_BOND_UDEF_STEREO_COUNT>
0

> <PUBCHEM_ISOTOPIC_ATOM_COUNT>
0

> <PUBCHEM_COMPONENT_COUNT>
1

> <PUBCHEM_CACTVS_TAUTO_COUNT>
598

> <PUBCHEM_CONFORMER_ID>
074BAD7000000001

> <PUBCHEM_MMFF94_ENERGY>
104.573

> <PUBCHEM_FEATURE_SELFOVERLAP>
56.005

> <PUBCHEM_SHAPE_FINGERPRINT>
10006869 2 17985843532097333881
10074138 170 17764276816198133336
10319926 262 17838321236881492072
10411042 1 17400925193922862075
10967382 1 18120940494998407655
1100329 8 17547296596843345017
11135609 187 18336813287096022613
12553582 1 17760927342523178247
12788726 201 17324077517807090690
12930653 34 18336836372038628083
13140716 1 18335986384856952571
13540713 5 18057596578546133493
138480 1 17905609904532001650
13911987 19 18191576656920008541
14223421 5 18336265631077783437
14251757 5 17832159585960271324
14466204 15 18413101763091201088
14790565 3 18409736170761816612
14844126 61 17687176900432141762
15042514 8 17687471573506099570
15230672 131 18335708274221223662
15664445 248 17768543694123914798
15927050 60 18413111666906055175
16728300 4 17678993093130672458
16945 1 18120372064856581751
19591789 44 18194687192120029610
20028762 73 17695920208375632815
20510252 161 18270125758554173800
20600515 1 16975613179844666864
20739085 24 18187087213515407812
20775438 99 17541890436209593445
21033648 29 18198338648840828304
21279426 13 18341623581679078412
21796203 349 17258821059615782378
22182313 1 18263946460330440918
23366157 5 18115875092173740946
23559900 14 18195520402848587746
25147074 1 17987228946649071477
2748010 2 18334587857722170951
283562 15 18268710687664024491
3091708 16 9189594468640821658
3298306 158 18342746230248270086
335352 9 17183909069542137703
350125 39 18409169870686360156
352729 6 17903083565807781967
4409770 3 17902784498682216359
469060 322 18120677952696234201
474 4 18410289168769338089
484989 97 17542495481238280383
5104073 3 18263375707164930289
5265222 85 18049740791520459588
59755656 215 18337673134968793175
7364860 26 18267304235744934446
79837 15 18264494073219360218
84936 182 18343019960818690688
9981440 41 18336545009777937051

> <PUBCHEM_SHAPE_MULTIPOLES>
517.23
8.62
5.6
0.89
0.98
5.85
0.19
-8
0.53
5.42
-1.28
-0.45
-0.2
-0.29

> <PUBCHEM_SHAPE_SELFOVERLAP>
1154.095

> <PUBCHEM_SHAPE_VOLUME>
273.5

> <PUBCHEM_COORDINATE_TYPE>
2
5
10

$$$$
