REMARK  Name = 12241133
REMARK  11 active torsions:
REMARK  status: ('A' for Active; 'I' for Inactive)
REMARK    1  A    between atoms: CA_1  and  N_3
REMARK    2  A    between atoms: CA_1  and  C_14
REMARK    3  A    between atoms: CA_1  and  C_26
REMARK    4  A    between atoms: C_4  and  C_8
REMARK    5  A    between atoms: N_7  and  C_10
REMARK    6  A    between atoms: C_10  and  C_11
REMARK    7  A    between atoms: C_11  and  O_12
REMARK    8  A    between atoms: C_14  and  C_15
REMARK    9  A    between atoms: C_14  and  O_24
REMARK   10  A    between atoms: C_20  and  N_23
REMARK   11  A    between atoms: C_26  and  O_27
REMARK                            x       y       z     vdW  Elec       q    Type
REMARK                         _______ _______ _______ _____ _____    ______ ____
ROOT
ATOM      1  CA  UNL     1      -0.461   0.441  -0.389  0.00  0.00    +0.132 C 
ENDROOT
BRANCH   1   3
ATOM      2  O   UNL     1      -2.524   2.512  -0.757  0.00  0.00    -0.265 OA
ATOM      3  N   UNL     1      -1.865   0.369  -0.060  0.00  0.00    -0.294 N 
ATOM      4  C   UNL     1      -2.739   1.409  -0.280  0.00  0.00    +0.300 C 
ATOM      5  H   UNL     1      -2.213  -0.461   0.338  0.00  0.00    +0.150 HD
BRANCH   4   8
ATOM      6  O   UNL     1      -4.675   1.781   0.970  0.00  0.00    -0.265 OA
ATOM      7  N   UNL     1      -4.643  -0.020  -0.535  0.00  0.00    -0.295 N 
ATOM      8  C   UNL     1      -4.144   1.081   0.123  0.00  0.00    +0.300 C 
ATOM      9  H   UNL     1      -4.071  -0.472  -1.197  0.00  0.00    +0.150 HD
BRANCH   7  10
ATOM     10  C   UNL     1      -5.968  -0.543  -0.297  0.00  0.00    +0.122 C 
BRANCH  10  11
ATOM     11  C   UNL     1      -5.968  -1.583   0.809  0.00  0.00    +0.158 C 
BRANCH  11  12
ATOM     12  O   UNL     1      -5.145  -2.678   0.428  0.00  0.00    -0.380 OA
ATOM     13  H   UNL     1      -5.144  -3.343   1.134  0.00  0.00    +0.211 HD
ENDBRANCH  11  12
ENDBRANCH  10  11
ENDBRANCH   7  10
ENDBRANCH   4   8
ENDBRANCH   1   3
BRANCH   1  14
ATOM     14  C   UNL     1       0.349  -0.410   0.614  0.00  0.00    +0.153 C 
BRANCH  14  15
ATOM     15  C   UNL     1       1.847  -0.301   0.440  0.00  0.00    +0.006 C 
ATOM     16  C   UNL     1       2.611  -1.450   0.234  0.00  0.00    -0.000 C 
ATOM     17  C   UNL     1       2.466   0.949   0.483  0.00  0.00    -0.000 C 
ATOM     18  C   UNL     1       3.993  -1.350   0.072  0.00  0.00    +0.024 C 
ATOM     19  C   UNL     1       3.848   1.049   0.321  0.00  0.00    +0.024 C 
ATOM     20  C   UNL     1       4.611  -0.100   0.115  0.00  0.00    +0.143 C 
BRANCH  20  23
ATOM     21  O   UNL     1       6.685  -1.044  -0.236  0.00  0.00    -0.126 OA
ATOM     22  O   UNL     1       6.554   1.136  -0.009  0.00  0.00    -0.126 OA
ATOM     23  N   UNL     1       6.017   0.002  -0.051  0.00  0.00    +0.058 N 
ENDBRANCH  20  23
ENDBRANCH  14  15
BRANCH  14  24
ATOM     24  O   UNL     1       0.051   0.015   1.948  0.00  0.00    -0.378 OA
ATOM     25  H   UNL     1      -0.906  -0.041   2.098  0.00  0.00    +0.211 HD
ENDBRANCH  14  24
ENDBRANCH   1  14
BRANCH   1  26
ATOM     26  C   UNL     1      -0.260   0.042  -1.856  0.00  0.00    +0.159 C 
BRANCH  26  27
ATOM     27  O   UNL     1      -0.639  -1.308  -2.088  0.00  0.00    -0.380 OA
ATOM     28  H   UNL     1      -0.501  -1.527  -3.022  0.00  0.00    +0.211 HD
ENDBRANCH  26  27
ENDBRANCH   1  26
TORSDOF 11
