REMARK  Name = 122594417
REMARK  5 active torsions:
REMARK  status: ('A' for Active; 'I' for Inactive)
REMARK    1  A    between atoms: N_4  and  C_15
REMARK    2  A    between atoms: C_11  and  C_12
REMARK    3  A    between atoms: C_15  and  C_18
REMARK    4  A    between atoms: C_15  and  C_21
REMARK    5  A    between atoms: C_21  and  O_23
REMARK                            x       y       z     vdW  Elec       q    Type
REMARK                         _______ _______ _______ _____ _____    ______ ____
ROOT
ATOM      1  O   UNL     1       0.322   0.609   2.355  0.00  0.00    -0.273 OA
ATOM      2  O   UNL     1      -1.416  -1.575   0.358  0.00  0.00    -0.275 OA
ATOM      3  N   UNL     1      -1.979   0.636  -0.059  0.00  0.00    -0.273 N 
ATOM      4  N   UNL     1       1.216   0.320   0.200  0.00  0.00    -0.268 N 
ATOM      5  C   UNL     1      -0.621   1.250   0.066  0.00  0.00    +0.147 C 
ATOM      6  C   UNL     1       0.432   0.733  -0.955  0.00  0.00    +0.121 C 
ATOM      7  C   UNL     1      -0.889   2.752   0.109  0.00  0.00    +0.031 C 
ATOM      8  C   UNL     1       0.327   0.696   1.149  0.00  0.00    +0.244 C 
ATOM      9  C   UNL     1      -2.154   2.898  -0.729  0.00  0.00    +0.024 C 
ATOM     10  C   UNL     1      -2.976   1.680  -0.342  0.00  0.00    +0.094 C 
ATOM     11  C   UNL     1      -2.262  -0.712   0.122  0.00  0.00    +0.225 C 
ENDROOT
BRANCH  11  12
ATOM     12  C   UNL     1      -3.716  -1.093   0.001  0.00  0.00    +0.077 C 
ATOM     13  C   UNL     1      -3.999  -2.283   0.901  0.00  0.00    +0.010 C 
ATOM     14  C   UNL     1      -4.020  -1.398  -1.455  0.00  0.00    +0.010 C 
ENDBRANCH  11  12
BRANCH   4  15
ATOM     15  C   UNL     1       2.465  -0.375   0.257  0.00  0.00    +0.179 C 
BRANCH  15  18
ATOM     16  O   UNL     1       3.616   1.023  -1.366  0.00  0.00    -0.273 OA
ATOM     17  N   UNL     1       4.477   0.873   0.758  0.00  0.00    -0.327 N 
ATOM     18  C   UNL     1       3.549   0.583  -0.220  0.00  0.00    +0.240 C 
ATOM     19  H   UNL     1       5.224   1.483   0.563  0.00  0.00    +0.145 HD
ATOM     20  H   UNL     1       4.391   0.470   1.652  0.00  0.00    +0.145 HD
ENDBRANCH  15  18
BRANCH  15  21
ATOM     21  C   UNL     1       2.461  -1.670  -0.567  0.00  0.00    +0.138 C 
ATOM     22  C   UNL     1       3.775  -2.435  -0.455  0.00  0.00    +0.034 C 
BRANCH  21  23
ATOM     23  O   UNL     1       1.395  -2.511  -0.130  0.00  0.00    -0.382 OA
ATOM     24  H   UNL     1       0.555  -2.031  -0.198  0.00  0.00    +0.210 HD
ENDBRANCH  21  23
ENDBRANCH  15  21
ENDBRANCH   4  15
TORSDOF 5
