122594417
  -OEChem-03292013293D

 44 45  0     1  0  0  0  0  0999 V2000
    0.3215    0.6086    2.3550 O   0  0  0  0  0  0  0  0  0  0  0  0
   -1.4164   -1.5755    0.3584 O   0  0  0  0  0  0  0  0  0  0  0  0
    1.3948   -2.5113   -0.1298 O   0  0  0  0  0  0  0  0  0  0  0  0
    3.6161    1.0226   -1.3659 O   0  0  0  0  0  0  0  0  0  0  0  0
   -1.9793    0.6364   -0.0586 N   0  0  0  0  0  0  0  0  0  0  0  0
    1.2156    0.3197    0.2003 N   0  0  0  0  0  0  0  0  0  0  0  0
    4.4767    0.8728    0.7582 N   0  0  0  0  0  0  0  0  0  0  0  0
   -0.6214    1.2501    0.0659 C   0  0  1  0  0  0  0  0  0  0  0  0
    0.4316    0.7330   -0.9546 C   0  0  0  0  0  0  0  0  0  0  0  0
   -0.8889    2.7525    0.1090 C   0  0  0  0  0  0  0  0  0  0  0  0
    0.3271    0.6962    1.1487 C   0  0  0  0  0  0  0  0  0  0  0  0
   -2.1540    2.8981   -0.7292 C   0  0  0  0  0  0  0  0  0  0  0  0
   -2.9764    1.6803   -0.3415 C   0  0  0  0  0  0  0  0  0  0  0  0
    2.4646   -0.3753    0.2567 C   0  0  1  0  0  0  0  0  0  0  0  0
   -2.2622   -0.7116    0.1219 C   0  0  0  0  0  0  0  0  0  0  0  0
    2.4613   -1.6699   -0.5670 C   0  0  1  0  0  0  0  0  0  0  0  0
   -3.7165   -1.0932    0.0012 C   0  0  0  0  0  0  0  0  0  0  0  0
    3.5493    0.5833   -0.2202 C   0  0  0  0  0  0  0  0  0  0  0  0
    3.7751   -2.4353   -0.4548 C   0  0  0  0  0  0  0  0  0  0  0  0
   -3.9987   -2.2831    0.9013 C   0  0  0  0  0  0  0  0  0  0  0  0
   -4.0199   -1.3982   -1.4551 C   0  0  0  0  0  0  0  0  0  0  0  0
    0.1199   -0.1009   -1.5897 H   0  0  0  0  0  0  0  0  0  0  0  0
    0.9198    1.5000   -1.5617 H   0  0  0  0  0  0  0  0  0  0  0  0
   -0.0617    3.3508   -0.2847 H   0  0  0  0  0  0  0  0  0  0  0  0
   -1.0887    3.0787    1.1371 H   0  0  0  0  0  0  0  0  0  0  0  0
   -2.6798    3.8396   -0.5490 H   0  0  0  0  0  0  0  0  0  0  0  0
   -1.8964    2.8466   -1.7943 H   0  0  0  0  0  0  0  0  0  0  0  0
   -3.5417    1.8604    0.5794 H   0  0  0  0  0  0  0  0  0  0  0  0
   -3.6636    1.3889   -1.1372 H   0  0  0  0  0  0  0  0  0  0  0  0
    2.6238   -0.6317    1.3117 H   0  0  0  0  0  0  0  0  0  0  0  0
    2.2780   -1.4423   -1.6242 H   0  0  0  0  0  0  0  0  0  0  0  0
   -4.3600   -0.2788    0.3462 H   0  0  0  0  0  0  0  0  0  0  0  0
    3.9837   -2.6992    0.5879 H   0  0  0  0  0  0  0  0  0  0  0  0
    4.6190   -1.8614   -0.8479 H   0  0  0  0  0  0  0  0  0  0  0  0
    3.7163   -3.3782   -1.0095 H   0  0  0  0  0  0  0  0  0  0  0  0
   -3.4414   -3.1744    0.5911 H   0  0  0  0  0  0  0  0  0  0  0  0
   -3.7253   -2.0652    1.9397 H   0  0  0  0  0  0  0  0  0  0  0  0
   -5.0641   -2.5369    0.8816 H   0  0  0  0  0  0  0  0  0  0  0  0
   -5.0828   -1.6263   -1.5880 H   0  0  0  0  0  0  0  0  0  0  0  0
   -3.7699   -0.5661   -2.1193 H   0  0  0  0  0  0  0  0  0  0  0  0
   -3.4470   -2.2654   -1.8043 H   0  0  0  0  0  0  0  0  0  0  0  0
    1.3973   -3.3051   -0.6914 H   0  0  0  0  0  0  0  0  0  0  0  0
    4.4209    0.4945    1.6982 H   0  0  0  0  0  0  0  0  0  0  0  0
    5.2585    1.4900    0.5651 H   0  0  0  0  0  0  0  0  0  0  0  0
  1 11  2  0  0  0  0
  2 15  2  0  0  0  0
  3 16  1  0  0  0  0
  3 42  1  0  0  0  0
  4 18  2  0  0  0  0
  5  8  1  0  0  0  0
  5 13  1  0  0  0  0
  5 15  1  0  0  0  0
  6  9  1  0  0  0  0
  6 11  1  0  0  0  0
  6 14  1  0  0  0  0
  7 18  1  0  0  0  0
  7 43  1  0  0  0  0
  7 44  1  0  0  0  0
  8  9  1  0  0  0  0
  8 10  1  0  0  0  0
  8 11  1  0  0  0  0
  9 22  1  0  0  0  0
  9 23  1  0  0  0  0
 10 12  1  0  0  0  0
 10 24  1  0  0  0  0
 10 25  1  0  0  0  0
 12 13  1  0  0  0  0
 12 26  1  0  0  0  0
 12 27  1  0  0  0  0
 13 28  1  0  0  0  0
 13 29  1  0  0  0  0
 14 16  1  0  0  0  0
 14 18  1  0  0  0  0
 14 30  1  0  0  0  0
 15 17  1  0  0  0  0
 16 19  1  0  0  0  0
 16 31  1  0  0  0  0
 17 20  1  0  0  0  0
 17 21  1  0  0  0  0
 17 32  1  0  0  0  0
 19 33  1  0  0  0  0
 19 34  1  0  0  0  0
 19 35  1  0  0  0  0
 20 36  1  0  0  0  0
 20 37  1  0  0  0  0
 20 38  1  0  0  0  0
 21 39  1  0  0  0  0
 21 40  1  0  0  0  0
 21 41  1  0  0  0  0
M  END
> <PUBCHEM_COMPOUND_CID>
122594417

> <PUBCHEM_CONFORMER_RMSD>
0.8

> <PUBCHEM_CONFORMER_DIVERSEORDER>
1
24
46
49
42
32
28
45
47
20
30
40
25
41
38
22
23
43
48
8
26
10
12
21
11
33
3
17
18
27
37
16
36
19
44
6
15
31
50
9
4
29
34
13
39
35
7
14
5
2

> <PUBCHEM_MMFF94_PARTIAL_CHARGES>
19
1 -0.57
11 0.58
13 0.3
14 0.36
15 0.57
16 0.28
17 0.06
18 0.57
2 -0.57
3 -0.68
4 -0.57
42 0.4
43 0.37
44 0.37
5 -0.59
6 -0.59
7 -0.8
8 0.28
9 0.22

> <PUBCHEM_EFFECTIVE_ROTOR_COUNT>
6.2

> <PUBCHEM_PHARMACOPHORE_FEATURES>
9
1 1 acceptor
1 2 acceptor
1 3 acceptor
1 3 donor
1 4 acceptor
1 7 donor
3 17 20 21 hydrophobe
4 6 8 9 11 rings
5 5 8 10 12 13 rings

> <PUBCHEM_HEAVY_ATOM_COUNT>
21

> <PUBCHEM_ATOM_DEF_STEREO_COUNT>
3

> <PUBCHEM_ATOM_UDEF_STEREO_COUNT>
0

> <PUBCHEM_BOND_DEF_STEREO_COUNT>
0

> <PUBCHEM_BOND_UDEF_STEREO_COUNT>
0

> <PUBCHEM_ISOTOPIC_ATOM_COUNT>
0

> <PUBCHEM_COMPONENT_COUNT>
1

> <PUBCHEM_CACTVS_TAUTO_COUNT>
3

> <PUBCHEM_CONFORMER_ID>
074EA47100000001

> <PUBCHEM_MMFF94_ENERGY>
46.4098

> <PUBCHEM_FEATURE_SELFOVERLAP>
45.712

> <PUBCHEM_SHAPE_FINGERPRINT>
10616163 171 18339364058776028215
10618630 7 18409735066670384927
10756046 5 18335988549720533740
10863032 1 18339924805447896468
11370993 70 18194111928685196934
11578080 2 17845921988021025889
12173636 292 18192144898041328493
12553582 1 18267304412075990055
12714826 92 18131073727266839909
13140716 1 18268434525002787362
13544653 18 18342741840280061639
13583140 156 17988062423470189080
14178342 30 18263075544484892000
14251745 187 18411409610041967851
14787075 74 17558543858156164640
15375462 189 17917997216914913570
16945 1 18337957890909919744
17357779 13 18339345466458274207
17492 89 18335702698325928098
17980427 23 17749394788882999980
18186145 218 17899136014353756404
20281475 54 18272933812741240921
20645476 183 17831576479508882821
20871999 31 18334849524736837637
21069387 34 16805600365650203466
21501502 16 18338519629745678804
21618674 54 18410009897443341604
221490 88 18341055108266247966
22393880 68 18267031561799733646
23402539 116 18113892775740648624
23557571 272 18337379474874451800
23558518 356 18115034004253661712
23559900 14 18268703927374970448
2748010 2 18266440161803685945
2871803 45 18410290315499635206
3286 77 16772949380084220187
474229 33 18339921644995434210
5104073 3 18340767048898568178
58051976 378 18409731802748109998
633830 44 16878521015896671548
6913067 236 18197759176290019992
7364860 26 17905328786232722985
81228 2 18336252480204733169
9709674 26 18338517443528567734

> <PUBCHEM_SHAPE_MULTIPOLES>
393.75
7.71
3.08
1.23
2.13
0.11
0.31
-3.53
-1.22
-1.39
-0.35
-0.09
0.06
0.62

> <PUBCHEM_SHAPE_SELFOVERLAP>
810.387

> <PUBCHEM_SHAPE_VOLUME>
227

> <PUBCHEM_COORDINATE_TYPE>
2
5
10

$$$$
