REMARK  Name = 122518
REMARK  6 active torsions:
REMARK  status: ('A' for Active; 'I' for Inactive)
REMARK    1  A    between atoms: C_1  and  N_3
REMARK    2  A    between atoms: C_1  and  C_9
REMARK    3  A    between atoms: C_1  and  C_17
REMARK    4  A    between atoms: N_8  and  C_11
REMARK    5  A    between atoms: C_11  and  C_14
REMARK    6  A    between atoms: C_17  and  C_18
REMARK                            x       y       z     vdW  Elec       q    Type
REMARK                         _______ _______ _______ _____ _____    ______ ____
ROOT
ATOM      1  C   UNL     1      -0.015   0.533   0.071  0.00  0.00    +0.153 C 
ENDROOT
BRANCH   1   3
ATOM      2  O   UNL     1       0.253   2.914  -1.568  0.00  0.00    -0.275 OA
ATOM      3  N   UNL     1       0.499   1.819   0.472  0.00  0.00    -0.298 N 
ATOM      4  C   UNL     1       0.589   2.903  -0.387  0.00  0.00    +0.223 C 
ATOM      5  C   UNL     1       1.138   4.129   0.294  0.00  0.00    +0.095 C 
ATOM      6  H   UNL     1       0.802   1.932   1.402  0.00  0.00    +0.150 HD
ENDBRANCH   1   3
BRANCH   1   9
ATOM      7  O   UNL     1      -2.075   1.194   1.165  0.00  0.00    -0.273 OA
ATOM      8  N   UNL     1      -2.193  -0.115  -0.749  0.00  0.00    -0.295 N 
ATOM      9  C   UNL     1      -1.528   0.576   0.254  0.00  0.00    +0.241 C 
ATOM     10  H   UNL     1      -1.656  -0.578  -1.433  0.00  0.00    +0.150 HD
BRANCH   8  11
ATOM     11  C   UNL     1      -3.633  -0.191  -0.841  0.00  0.00    +0.175 C 
BRANCH  11  14
ATOM     12  O   UNL     1      -3.485  -2.425   0.080  0.00  0.00    -0.273 OA
ATOM     13  N   UNL     1      -5.414  -1.217   0.401  0.00  0.00    -0.327 N 
ATOM     14  C   UNL     1      -4.131  -1.392  -0.071  0.00  0.00    +0.239 C 
ATOM     15  H   UNL     1      -5.850  -1.931   0.919  0.00  0.00    +0.145 HD
ATOM     16  H   UNL     1      -5.895  -0.377   0.219  0.00  0.00    +0.145 HD
ENDBRANCH  11  14
ENDBRANCH   8  11
ENDBRANCH   1   9
BRANCH   1  17
ATOM     17  C   UNL     1       0.588  -0.613   0.891  0.00  0.00    +0.055 C 
BRANCH  17  18
ATOM     18  C   UNL     1       1.970  -0.999   0.425  0.00  0.00    -0.020 C 
ATOM     19  C   UNL     1       2.111  -1.974  -0.551  0.00  0.00    -0.004 C 
ATOM     20  C   UNL     1       3.075  -0.372   0.980  0.00  0.00    -0.004 C 
ATOM     21  C   UNL     1       3.389  -2.331  -0.982  0.00  0.00    -0.000 C 
ATOM     22  C   UNL     1       4.353  -0.729   0.548  0.00  0.00    -0.000 C 
ATOM     23  C   UNL     1       4.509  -1.709  -0.433  0.00  0.00    -0.000 C 
ENDBRANCH  17  18
ENDBRANCH   1  17
TORSDOF 6
