122531750
  -OEChem-03292013293D

 46 48  0     0  0  0  0  0  0999 V2000
   -6.5474    2.5402   -0.2237 O   0  0  0  0  0  0  0  0  0  0  0  0
    6.1817    0.7489   -1.4166 O   0  0  0  0  0  0  0  0  0  0  0  0
   -1.2093   -3.0804    0.3449 N   0  0  0  0  0  0  0  0  0  0  0  0
   -3.5506   -2.7535    0.4047 N   0  0  0  0  0  0  0  0  0  0  0  0
    3.6370    0.1193    0.9306 N   0  0  0  0  0  0  0  0  0  0  0  0
    6.1583    1.0154    0.8866 N   0  0  0  0  0  0  0  0  0  0  0  0
   -0.8175   -0.3440   -0.0697 C   0  0  0  0  0  0  0  0  0  0  0  0
   -2.1048   -0.8525    0.0632 C   0  0  0  0  0  0  0  0  0  0  0  0
    0.2741   -1.2021    0.0048 C   0  0  0  0  0  0  0  0  0  0  0  0
   -0.6022    1.1228   -0.2921 C   0  0  0  0  0  0  0  0  0  0  0  0
   -3.2539    0.0229   -0.0109 C   0  0  0  0  0  0  0  0  0  0  0  0
    1.6363   -0.7320   -0.1259 C   0  0  0  0  0  0  0  0  0  0  0  0
   -2.2456   -2.2158    0.2670 C   0  0  0  0  0  0  0  0  0  0  0  0
    0.0269   -2.5496    0.2113 C   0  0  0  0  0  0  0  0  0  0  0  0
   -0.1431    1.8333    0.9752 C   0  0  0  0  0  0  0  0  0  0  0  0
   -3.7519    0.6192    1.1476 C   0  0  0  0  0  0  0  0  0  0  0  0
   -3.8632    0.2722   -1.2408 C   0  0  0  0  0  0  0  0  0  0  0  0
    2.2571   -0.6698   -1.3685 C   0  0  0  0  0  0  0  0  0  0  0  0
    2.3628   -0.3296    0.9830 C   0  0  0  0  0  0  0  0  0  0  0  0
   -4.8588    1.4649    1.0763 C   0  0  0  0  0  0  0  0  0  0  0  0
   -4.9700    1.1178   -1.3121 C   0  0  0  0  0  0  0  0  0  0  0  0
    3.5671   -0.2137   -1.4628 C   0  0  0  0  0  0  0  0  0  0  0  0
   -5.4678    1.7142   -0.1535 C   0  0  0  0  0  0  0  0  0  0  0  0
    4.2075    0.1658   -0.2940 C   0  0  0  0  0  0  0  0  0  0  0  0
    5.5763    0.6501   -0.3337 C   0  0  0  0  0  0  0  0  0  0  0  0
    7.5009    1.5361    1.0089 C   0  0  0  0  0  0  0  0  0  0  0  0
    0.1278    1.2886   -1.0939 H   0  0  0  0  0  0  0  0  0  0  0  0
   -1.4977    1.6287   -0.6645 H   0  0  0  0  0  0  0  0  0  0  0  0
    0.8339   -3.2737    0.2793 H   0  0  0  0  0  0  0  0  0  0  0  0
   -0.7196    1.5212    1.8523 H   0  0  0  0  0  0  0  0  0  0  0  0
    0.9147    1.6973    1.1905 H   0  0  0  0  0  0  0  0  0  0  0  0
   -0.2862    2.9133    0.8541 H   0  0  0  0  0  0  0  0  0  0  0  0
   -3.2890    0.4354    2.1144 H   0  0  0  0  0  0  0  0  0  0  0  0
   -3.4873   -0.1842   -2.1535 H   0  0  0  0  0  0  0  0  0  0  0  0
    1.7333   -0.9727   -2.2718 H   0  0  0  0  0  0  0  0  0  0  0  0
    1.9418   -0.3651    1.9840 H   0  0  0  0  0  0  0  0  0  0  0  0
   -5.2369    1.9235    1.9861 H   0  0  0  0  0  0  0  0  0  0  0  0
   -5.4401    1.3086   -2.2730 H   0  0  0  0  0  0  0  0  0  0  0  0
    4.0499   -0.1659   -2.4330 H   0  0  0  0  0  0  0  0  0  0  0  0
   -4.2709   -2.1860    0.8330 H   0  0  0  0  0  0  0  0  0  0  0  0
   -3.6088   -3.7557    0.5408 H   0  0  0  0  0  0  0  0  0  0  0  0
   -6.7551    2.8636    0.6698 H   0  0  0  0  0  0  0  0  0  0  0  0
    5.6208    0.8942    1.7402 H   0  0  0  0  0  0  0  0  0  0  0  0
    8.1716    0.7035    1.2352 H   0  0  0  0  0  0  0  0  0  0  0  0
    7.5189    2.2557    1.8306 H   0  0  0  0  0  0  0  0  0  0  0  0
    7.8146    2.0196    0.0807 H   0  0  0  0  0  0  0  0  0  0  0  0
  1 23  1  0  0  0  0
  1 42  1  0  0  0  0
  2 25  2  0  0  0  0
  3 13  2  0  0  0  0
  3 14  1  0  0  0  0
  4 13  1  0  0  0  0
  4 40  1  0  0  0  0
  4 41  1  0  0  0  0
  5 19  1  0  0  0  0
  5 24  2  0  0  0  0
  6 25  1  0  0  0  0
  6 26  1  0  0  0  0
  6 43  1  0  0  0  0
  7  8  2  0  0  0  0
  7  9  1  0  0  0  0
  7 10  1  0  0  0  0
  8 11  1  0  0  0  0
  8 13  1  0  0  0  0
  9 12  1  0  0  0  0
  9 14  2  0  0  0  0
 10 15  1  0  0  0  0
 10 27  1  0  0  0  0
 10 28  1  0  0  0  0
 11 16  2  0  0  0  0
 11 17  1  0  0  0  0
 12 18  1  0  0  0  0
 12 19  2  0  0  0  0
 14 29  1  0  0  0  0
 15 30  1  0  0  0  0
 15 31  1  0  0  0  0
 15 32  1  0  0  0  0
 16 20  1  0  0  0  0
 16 33  1  0  0  0  0
 17 21  2  0  0  0  0
 17 34  1  0  0  0  0
 18 22  2  0  0  0  0
 18 35  1  0  0  0  0
 19 36  1  0  0  0  0
 20 23  2  0  0  0  0
 20 37  1  0  0  0  0
 21 23  1  0  0  0  0
 21 38  1  0  0  0  0
 22 24  1  0  0  0  0
 22 39  1  0  0  0  0
 24 25  1  0  0  0  0
 26 44  1  0  0  0  0
 26 45  1  0  0  0  0
 26 46  1  0  0  0  0
M  END
> <PUBCHEM_COMPOUND_CID>
122531750

> <PUBCHEM_CONFORMER_RMSD>
0.8

> <PUBCHEM_CONFORMER_DIVERSEORDER>
1
5
8
2
6
3
4
7

> <PUBCHEM_MMFF94_PARTIAL_CHARGES>
33
1 -0.53
10 0.14
13 0.41
14 0.16
16 -0.15
17 -0.15
18 -0.15
19 0.16
2 -0.57
20 -0.15
21 -0.15
22 -0.15
23 0.08
24 0.4
25 0.54
26 0.3
29 0.15
3 -0.62
33 0.15
34 0.15
35 0.15
36 0.15
37 0.15
38 0.15
39 0.15
4 -0.9
40 0.4
41 0.4
42 0.45
43 0.37
5 -0.62
6 -0.73
7 -0.14

> <PUBCHEM_EFFECTIVE_ROTOR_COUNT>
5

> <PUBCHEM_PHARMACOPHORE_FEATURES>
10
1 1 donor
1 15 hydrophobe
1 2 acceptor
1 4 donor
1 5 acceptor
1 6 donor
3 3 4 13 cation
6 11 16 17 20 21 23 rings
6 3 7 8 9 13 14 rings
6 5 12 18 19 22 24 rings

> <PUBCHEM_HEAVY_ATOM_COUNT>
26

> <PUBCHEM_ATOM_DEF_STEREO_COUNT>
0

> <PUBCHEM_ATOM_UDEF_STEREO_COUNT>
0

> <PUBCHEM_BOND_DEF_STEREO_COUNT>
0

> <PUBCHEM_BOND_UDEF_STEREO_COUNT>
0

> <PUBCHEM_ISOTOPIC_ATOM_COUNT>
0

> <PUBCHEM_COMPONENT_COUNT>
1

> <PUBCHEM_CACTVS_TAUTO_COUNT>
623

> <PUBCHEM_CONFORMER_ID>
074DAFA600000001

> <PUBCHEM_MMFF94_ENERGY>
92.3551

> <PUBCHEM_FEATURE_SELFOVERLAP>
50.746

> <PUBCHEM_SHAPE_FINGERPRINT>
10 15 17604158085497193189
10366900 7 17560801017904113816
10411042 1 17761211416377674307
10493431 412 18335988584549815607
105312 117 18409730660081522735
10835480 77 18202281433841133624
10906281 52 18201452375744862784
12236239 1 17676204702168223354
12293681 160 18130507440165865849
12390115 104 18410864260954410635
12403259 118 17531259365533145013
12403814 3 17167860864090200495
12616971 3 16950566614528473526
12788726 201 17987800696162502960
12969540 114 18411412878627897485
13533116 47 18340207363584956606
13583140 156 15936403442850108295
13668630 136 11023816280378113685
14790565 3 18338243648180774657
14950920 106 14996291339767520197
15183329 4 16128375934907180125
17780758 139 13045936889675492951
17980427 23 17968379056282433206
18222031 100 9367047962052042711
18608769 82 18340208587798231539
19784866 34 18337391535501223847
20554085 129 18129644336381161826
20715895 44 18410013226017005580
21150785 3 16774071882382320693
21236236 1 18410012173918770967
21279426 13 18272098171383655046
21424621 283 18269561546471393041
23402539 116 18411979200304927238
23522609 53 8068897605746176958
23557571 272 18198640984937555078
23559900 14 18341629096533520950
23569914 152 16480521832842002980
249057 25 17459190857894128198
293599 30 18409451362568444981
3472631 163 18335707156274485268
34797466 226 15338819985476561449
34934 24 18410290289814142863
350125 39 18336273457040901283
4144715 1 18191872447560468394
5104073 3 18259984877413250634
53917941 68 18411134736715009695
636775 72 18272645771119290384
636775 8 10807930518360460536
7226269 152 18341894082323712288
7808743 9 18334575737424259545

> <PUBCHEM_SHAPE_MULTIPOLES>
503.41
15.59
2.55
1.25
15.06
1.45
0.22
-12.66
0.16
-2.92
-0.55
0.44
-0.27
0.9

> <PUBCHEM_SHAPE_SELFOVERLAP>
1103.141

> <PUBCHEM_SHAPE_VOLUME>
270.9

> <PUBCHEM_COORDINATE_TYPE>
2
5
10

$$$$
