REMARK  Name = 122531750
REMARK  5 active torsions:
REMARK  status: ('A' for Active; 'I' for Inactive)
REMARK    1  A    between atoms: C_3  and  C_29
REMARK    2  A    between atoms: C_4  and  C_21
REMARK    3  A    between atoms: C_5  and  C_11
REMARK    4  A    between atoms: C_15  and  C_18
REMARK    5  A    between atoms: C_26  and  O_27
REMARK                            x       y       z     vdW  Elec       q    Type
REMARK                         _______ _______ _______ _____ _____    ______ ____
ROOT
ATOM      1  N   UNL     1      -1.209  -3.080   0.345  0.00  0.00    -0.230 NA
ATOM      2  N   UNL     1      -3.551  -2.753   0.405  0.00  0.00    -0.343 N 
ATOM      3  C   UNL     1      -0.818  -0.344  -0.070  0.00  0.00    -0.018 C 
ATOM      4  C   UNL     1      -2.105  -0.853   0.063  0.00  0.00    +0.027 C 
ATOM      5  C   UNL     1       0.274  -1.202   0.005  0.00  0.00    +0.017 C 
ATOM      6  C   UNL     1      -2.246  -2.216   0.267  0.00  0.00    +0.125 C 
ATOM      7  C   UNL     1       0.027  -2.550   0.211  0.00  0.00    +0.100 C 
ATOM      8  H   UNL     1      -3.672  -3.720   0.550  0.00  0.00    +0.144 HD
ATOM      9  H   UNL     1      -4.335  -2.161   0.355  0.00  0.00    +0.144 HD
ENDROOT
BRANCH   5  11
ATOM     10  N   UNL     1       3.637   0.119   0.931  0.00  0.00    -0.239 NA
ATOM     11  C   UNL     1       1.636  -0.732  -0.126  0.00  0.00    +0.020 C 
ATOM     12  C   UNL     1       2.257  -0.670  -1.369  0.00  0.00    +0.003 C 
ATOM     13  C   UNL     1       2.363  -0.330   0.983  0.00  0.00    +0.099 C 
ATOM     14  C   UNL     1       3.567  -0.214  -1.463  0.00  0.00    +0.024 C 
ATOM     15  C   UNL     1       4.207   0.166  -0.294  0.00  0.00    +0.134 C 
BRANCH  15  18
ATOM     16  O   UNL     1       6.182   0.749  -1.417  0.00  0.00    -0.268 OA
ATOM     17  N   UNL     1       6.158   1.015   0.887  0.00  0.00    -0.298 N 
ATOM     18  C   UNL     1       5.576   0.650  -0.334  0.00  0.00    +0.264 C 
ATOM     19  C   UNL     1       7.501   1.536   1.009  0.00  0.00    +0.111 C 
ATOM     20  H   UNL     1       5.623   0.912   1.706  0.00  0.00    +0.150 HD
ENDBRANCH  15  18
ENDBRANCH   5  11
BRANCH   4  21
ATOM     21  C   UNL     1      -3.254   0.023  -0.011  0.00  0.00    +0.003 C 
ATOM     22  C   UNL     1      -3.752   0.619   1.148  0.00  0.00    +0.003 C 
ATOM     23  C   UNL     1      -3.863   0.272  -1.241  0.00  0.00    +0.003 C 
ATOM     24  C   UNL     1      -4.859   1.465   1.076  0.00  0.00    +0.037 C 
ATOM     25  C   UNL     1      -4.970   1.118  -1.312  0.00  0.00    +0.037 C 
ATOM     26  C   UNL     1      -5.468   1.714  -0.153  0.00  0.00    +0.134 C 
BRANCH  26  27
ATOM     27  O   UNL     1      -6.547   2.540  -0.224  0.00  0.00    -0.506 OA
ATOM     28  H   UNL     1      -6.882   2.941   0.554  0.00  0.00    +0.292 HD
ENDBRANCH  26  27
ENDBRANCH   4  21
BRANCH   3  29
ATOM     29  C   UNL     1      -0.602   1.123  -0.292  0.00  0.00    +0.027 C 
ATOM     30  C   UNL     1      -0.143   1.833   0.975  0.00  0.00    +0.005 C 
ENDBRANCH   3  29
TORSDOF 5
