REMARK  Name = 122608237
REMARK  5 active torsions:
REMARK  status: ('A' for Active; 'I' for Inactive)
REMARK    1  A    between atoms: C_8  and  O_24
REMARK    2  A    between atoms: C_11  and  O_26
REMARK    3  A    between atoms: C_19  and  O_28
REMARK    4  A    between atoms: C_21  and  C_30
REMARK    5  A    between atoms: C_30  and  O_32
REMARK                            x       y       z     vdW  Elec       q    Type
REMARK                         _______ _______ _______ _____ _____    ______ ____
ROOT
ATOM      1  O   UNL     1      -1.304  -0.248   1.088  0.00  0.00    -0.358 OA
ATOM      2  O   UNL     1       2.818   0.061   0.302  0.00  0.00    -0.448 OA
ATOM      3  O   UNL     1       3.164  -0.698  -1.843  0.00  0.00    -0.247 OA
ATOM      4  C   UNL     1      -2.563  -0.697  -0.865  0.00  0.00    +0.059 C 
ATOM      5  C   UNL     1      -1.105  -0.590  -0.321  0.00  0.00    +0.099 C 
ATOM      6  C   UNL     1      -3.183  -1.457   0.309  0.00  0.00    +0.056 C 
ATOM      7  C   UNL     1      -2.669  -0.572   1.448  0.00  0.00    +0.146 C 
ATOM      8  C   UNL     1      -3.366   0.627  -1.025  0.00  0.00    +0.115 C 
ATOM      9  C   UNL     1      -0.388  -2.014  -0.329  0.00  0.00    +0.050 C 
ATOM     10  C   UNL     1      -3.300   1.554   0.211  0.00  0.00    +0.056 C 
ATOM     11  C   UNL     1      -3.449   0.750   1.520  0.00  0.00    +0.140 C 
ATOM     12  C   UNL     1      -2.624  -2.850   0.414  0.00  0.00    -0.028 C 
ATOM     13  C   UNL     1      -0.195   0.406  -1.036  0.00  0.00    +0.025 C 
ATOM     14  C   UNL     1      -1.349  -3.109   0.098  0.00  0.00    -0.029 C 
ATOM     15  C   UNL     1       0.886  -2.090   0.575  0.00  0.00    +0.048 C 
ATOM     16  C   UNL     1      -4.316   2.695   0.104  0.00  0.00    +0.005 C 
ATOM     17  C   UNL     1       0.517   1.324  -0.347  0.00  0.00    +0.006 C 
ATOM     18  C   UNL     1      -0.019   0.191  -2.524  0.00  0.00    +0.002 C 
ATOM     19  C   UNL     1       2.228  -2.183  -0.178  0.00  0.00    +0.214 C 
ATOM     20  C   UNL     1       1.780   2.000  -0.844  0.00  0.00    +0.043 C 
ATOM     21  C   UNL     1       3.008   1.465  -0.041  0.00  0.00    +0.195 C 
ATOM     22  C   UNL     1       2.793  -0.872  -0.690  0.00  0.00    +0.344 C 
ATOM     23  C   UNL     1       1.633   3.519  -0.831  0.00  0.00    +0.004 C 
ENDROOT
BRANCH   8  24
ATOM     24  O   UNL     1      -2.968   1.327  -2.200  0.00  0.00    -0.384 OA
ATOM     25  H   UNL     1      -3.016   0.730  -2.963  0.00  0.00    +0.210 HD
ENDBRANCH   8  24
BRANCH  11  26
ATOM     26  O   UNL     1      -4.820   0.478   1.792  0.00  0.00    -0.382 OA
ATOM     27  H   UNL     1      -4.891  -0.027   2.617  0.00  0.00    +0.210 HD
ENDBRANCH  11  26
BRANCH  19  28
ATOM     28  O   UNL     1       3.231  -2.683   0.705  0.00  0.00    -0.342 OA
ATOM     29  C   UNL     1       4.285  -3.309  -0.011  0.00  0.00    +0.175 C 
ENDBRANCH  19  28
BRANCH  21  30
ATOM     30  C   UNL     1       3.256   2.180   1.286  0.00  0.00    +0.150 C 
ATOM     31  C   UNL     1       4.142   1.360   2.208  0.00  0.00    +0.036 C 
BRANCH  30  32
ATOM     32  O   UNL     1       3.875   3.434   1.026  0.00  0.00    -0.381 OA
ATOM     33  H   UNL     1       3.309   3.958   0.437  0.00  0.00    +0.210 HD
ENDBRANCH  30  32
ENDBRANCH  21  30
TORSDOF 5
