REMARK  Name = 122631
REMARK  5 active torsions:
REMARK  status: ('A' for Active; 'I' for Inactive)
REMARK    1  A    between atoms: N_2  and  C1*_13
REMARK    2  A    between atoms: C_10  and  N_22
REMARK    3  A    between atoms: C3*_15  and  O3*_17
REMARK    4  A    between atoms: C4*_16  and  C5*_19
REMARK    5  A    between atoms: C5*_19  and  O5*_20
REMARK                            x       y       z     vdW  Elec       q    Type
REMARK                         _______ _______ _______ _____ _____    ______ ____
ROOT
ATOM      1  O   UNL     1       1.315   2.318   0.449  0.00  0.00    -0.273 OA
ATOM      2  N   UNL     1      -0.031  -0.385   0.040  0.00  0.00    -0.218 NA
ATOM      3  N   UNL     1       1.153  -2.256  -0.304  0.00  0.00    -0.255 NA
ATOM      4  N   UNL     1       3.315   1.179   0.203  0.00  0.00    -0.272 N 
ATOM      5  C   UNL     1       1.282  -0.013   0.063  0.00  0.00    +0.179 C 
ATOM      6  C   UNL     1      -0.057  -1.742  -0.183  0.00  0.00    +0.203 C 
ATOM      7  C   UNL     1       1.969  -1.181  -0.150  0.00  0.00    +0.081 C 
ATOM      8  C   UNL     1       1.914   1.263   0.257  0.00  0.00    +0.247 C 
ATOM      9  C   UNL     1       3.385  -1.164  -0.188  0.00  0.00    +0.046 C 
ATOM     10  C   UNL     1       4.053   0.004  -0.012  0.00  0.00    +0.097 C 
ATOM     11  H   UNL     1       3.822   2.013   0.328  0.00  0.00    +0.156 HD
ENDROOT
BRANCH   2  13
ATOM     12  O4* UNL     1      -2.246  -0.253   0.880  0.00  0.00    -0.338 OA
ATOM     13  C1* UNL     1      -1.198   0.473   0.215  0.00  0.00    +0.181 C 
ATOM     14  C2* UNL     1      -1.787   1.001  -1.085  0.00  0.00    +0.079 C 
ATOM     15  C3* UNL     1      -3.224   1.251  -0.689  0.00  0.00    +0.144 C 
ATOM     16  C4* UNL     1      -3.512   0.128   0.302  0.00  0.00    +0.173 C 
BRANCH  15  17
ATOM     17  O3* UNL     1      -3.294   2.508  -0.019  0.00  0.00    -0.382 OA
ATOM     18  H3* UNL     1      -3.111   3.222  -0.650  0.00  0.00    +0.210 HD
ENDBRANCH  15  17
BRANCH  16  19
ATOM     19  C5* UNL     1      -4.116  -1.101  -0.364  0.00  0.00    +0.169 C 
BRANCH  19  20
ATOM     20  O5* UNL     1      -4.338  -2.090   0.626  0.00  0.00    -0.379 OA
ATOM     21  H5* UNL     1      -4.723  -2.879   0.214  0.00  0.00    +0.211 HD
ENDBRANCH  19  20
ENDBRANCH  16  19
ENDBRANCH   2  13
BRANCH  10  22
ATOM     22  N   UNL     1       5.420   0.059  -0.042  0.00  0.00    -0.346 N 
ATOM     23  H   UNL     1       5.882   0.919   0.088  0.00  0.00    +0.143 HD
ATOM     24  H   UNL     1       5.942  -0.762  -0.193  0.00  0.00    +0.143 HD
ENDBRANCH  10  22
TORSDOF 5
