REMARK  Name = 122641
REMARK  4 active torsions:
REMARK  status: ('A' for Active; 'I' for Inactive)
REMARK    1  A    between atoms: C_2  and  N_17
REMARK    2  A    between atoms: C_4  and  C_21
REMARK    3  A    between atoms: C_5  and  N_8
REMARK    4  A    between atoms: C_21  and  O_22
REMARK                            x       y       z     vdW  Elec       q    Type
REMARK                         _______ _______ _______ _____ _____    ______ ____
ROOT
ATOM      1  O   UNL     1      -0.391   1.302   0.833  0.00  0.00    -0.335 OA
ATOM      2  C   UNL     1      -2.239  -0.051   0.229  0.00  0.00    +0.105 C 
ATOM      3  C   UNL     1      -0.981  -0.883   0.116  0.00  0.00    +0.073 C 
ATOM      4  C   UNL     1      -1.674   1.363   0.184  0.00  0.00    +0.164 C 
ATOM      5  C   UNL     1       0.002  -0.073   0.942  0.00  0.00    +0.201 C 
ENDROOT
BRANCH   5   8
ATOM      6  O   UNL     1       1.875  -1.948   1.985  0.00  0.00    -0.252 OA
ATOM      7  O   UNL     1       5.176  -0.491  -0.867  0.00  0.00    -0.270 OA
ATOM      8  N   UNL     1       1.359  -0.219   0.504  0.00  0.00    -0.219 N 
ATOM      9  N   UNL     1       3.512  -1.211   0.558  0.00  0.00    -0.236 N 
ATOM     10  C   UNL     1       1.820   0.611  -0.511  0.00  0.00    +0.071 C 
ATOM     11  C   UNL     1       2.216  -1.180   1.083  0.00  0.00    +0.315 C 
ATOM     12  C   UNL     1       3.062   0.578  -1.011  0.00  0.00    +0.047 C 
ATOM     13  C   UNL     1       4.023  -0.409  -0.452  0.00  0.00    +0.250 C 
ATOM     14  C   UNL     1       3.537   1.481  -2.104  0.00  0.00    +0.037 C 
ATOM     15  H   UNL     1       4.128  -1.874   0.946  0.00  0.00    +0.159 HD
ENDBRANCH   5   8
BRANCH   2  17
ATOM     16  O   UNL     1      -4.400  -1.979   0.281  0.00  0.00    -0.275 OA
ATOM     17  N   UNL     1      -3.183  -0.325  -0.815  0.00  0.00    -0.303 N 
ATOM     18  C   UNL     1      -4.189  -1.270  -0.699  0.00  0.00    +0.223 C 
ATOM     19  C   UNL     1      -5.053  -1.337  -1.930  0.00  0.00    +0.095 C 
ATOM     20  H   UNL     1      -3.114   0.185  -1.655  0.00  0.00    +0.149 HD
ENDBRANCH   2  17
BRANCH   4  21
ATOM     21  C   UNL     1      -2.548   2.387   0.885  0.00  0.00    +0.168 C 
BRANCH  21  22
ATOM     22  O   UNL     1      -1.924   3.655   0.790  0.00  0.00    -0.379 OA
ATOM     23  H   UNL     1      -2.473   4.320   1.235  0.00  0.00    +0.211 HD
ENDBRANCH  21  22
ENDBRANCH   4  21
TORSDOF 4
