REMARK  Name = 122659
REMARK  12 active torsions:
REMARK  status: ('A' for Active; 'I' for Inactive)
REMARK    1  A    between atoms: C_1  and  C_16
REMARK    2  A    between atoms: C_2  and  C_33
REMARK    3  A    between atoms: C_3  and  O_10
REMARK    4  A    between atoms: C_4  and  O_12
REMARK    5  A    between atoms: C_5  and  C_8
REMARK    6  A    between atoms: C_6  and  O_14
REMARK    7  A    between atoms: C_16  and  C_17
REMARK    8  A    between atoms: C_18  and  O_27
REMARK    9  A    between atoms: C_19  and  O_29
REMARK   10  A    between atoms: C_21  and  C_25
REMARK   11  A    between atoms: C_22  and  O_31
REMARK   12  A    between atoms: C_33  and  C_34
REMARK                            x       y       z     vdW  Elec       q    Type
REMARK                         _______ _______ _______ _____ _____    ______ ____
ROOT
ATOM      1  C   UNL     1       0.892   0.563   1.255  0.00  0.00    +0.050 A 
ATOM      2  C   UNL     1       2.674  -0.756   0.323  0.00  0.00    +0.049 A 
ATOM      3  C   UNL     1       1.446  -0.685   0.968  0.00  0.00    +0.132 A 
ATOM      4  C   UNL     1       1.570   1.727   0.894  0.00  0.00    +0.138 A 
ATOM      5  C   UNL     1       2.802   1.644   0.247  0.00  0.00    +0.102 A 
ATOM      6  C   UNL     1       3.357   0.397  -0.040  0.00  0.00    +0.138 A 
ENDROOT
BRANCH   5   8
ATOM      7  O   UNL     1       4.320   3.406   0.645  0.00  0.00    -0.291 OA
ATOM      8  C   UNL     1       3.511   2.862  -0.130  0.00  0.00    +0.179 C 
ATOM      9  C   UNL     1       3.270   3.496  -1.494  0.00  0.00    +0.077 C 
ENDBRANCH   5   8
BRANCH   3  10
ATOM     10  O   UNL     1       0.784  -1.824   1.321  0.00  0.00    -0.506 OA
ATOM     11  H   UNL     1      -0.044  -1.768   1.756  0.00  0.00    +0.292 HD
ENDBRANCH   3  10
BRANCH   4  12
ATOM     12  O   UNL     1       1.024   2.946   1.176  0.00  0.00    -0.506 OA
ATOM     13  H   UNL     1       0.196   2.999   1.611  0.00  0.00    +0.292 HD
ENDBRANCH   4  12
BRANCH   6  14
ATOM     14  O   UNL     1       4.564   0.312  -0.672  0.00  0.00    -0.506 OA
ATOM     15  H   UNL     1       4.935  -0.527  -0.863  0.00  0.00    +0.292 HD
ENDBRANCH   6  14
BRANCH   1  16
ATOM     16  C   UNL     1      -0.430   0.651   1.949  0.00  0.00    +0.065 C 
BRANCH  16  17
ATOM     17  C   UNL     1      -1.610   0.325   1.059  0.00  0.00    +0.050 A 
ATOM     18  C   UNL     1      -2.252  -0.895   1.202  0.00  0.00    +0.137 A 
ATOM     19  C   UNL     1      -2.028   1.252   0.118  0.00  0.00    +0.138 A 
ATOM     20  C   UNL     1      -3.340  -1.195   0.383  0.00  0.00    +0.046 A 
ATOM     21  C   UNL     1      -3.117   0.952  -0.701  0.00  0.00    +0.102 A 
ATOM     22  C   UNL     1      -3.772  -0.272  -0.569  0.00  0.00    +0.138 A 
ATOM     23  C   UNL     1      -4.043  -2.508   0.525  0.00  0.00    +0.037 C 
BRANCH  21  25
ATOM     24  O   UNL     1      -4.428   2.776  -1.421  0.00  0.00    -0.291 OA
ATOM     25  C   UNL     1      -3.569   1.918  -1.696  0.00  0.00    +0.179 C 
ATOM     26  C   UNL     1      -2.991   1.891  -3.105  0.00  0.00    +0.077 C 
ENDBRANCH  21  25
BRANCH  18  27
ATOM     27  O   UNL     1      -1.829  -1.798   2.134  0.00  0.00    -0.472 OA
ATOM     28  C   UNL     1      -2.415  -1.710   3.430  0.00  0.00    +0.252 C 
ENDBRANCH  18  27
BRANCH  19  29
ATOM     29  O   UNL     1      -1.385   2.450  -0.008  0.00  0.00    -0.506 OA
ATOM     30  H   UNL     1      -0.655   2.649   0.543  0.00  0.00    +0.292 HD
ENDBRANCH  19  29
BRANCH  22  31
ATOM     31  O   UNL     1      -4.838  -0.569  -1.369  0.00  0.00    -0.506 OA
ATOM     32  H   UNL     1      -5.277  -1.391  -1.278  0.00  0.00    +0.292 HD
ENDBRANCH  22  31
ENDBRANCH  16  17
ENDBRANCH   1  16
BRANCH   2  33
ATOM     33  C   UNL     1       3.274  -2.105   0.015  0.00  0.00    +0.058 C 
BRANCH  33  34
ATOM     34  C   UNL     1       2.857  -2.622  -1.333  0.00  0.00    -0.030 C 
ATOM     35  C   UNL     1       2.174  -3.749  -1.612  0.00  0.00    -0.048 C 
ATOM     36  C   UNL     1       1.787  -4.210  -2.988  0.00  0.00    +0.026 C 
ATOM     37  C   UNL     1       1.742  -4.671  -0.504  0.00  0.00    +0.026 C 
ENDBRANCH  33  34
ENDBRANCH   2  33
TORSDOF 12
