REMARK  Name = 122619
REMARK  4 active torsions:
REMARK  status: ('A' for Active; 'I' for Inactive)
REMARK    1  A    between atoms: N_1  and  C_12
REMARK    2  A    between atoms: C_13  and  O_16
REMARK    3  A    between atoms: C_15  and  C_18
REMARK    4  A    between atoms: C_18  and  O_19
REMARK                            x       y       z     vdW  Elec       q    Type
REMARK                         _______ _______ _______ _____ _____    ______ ____
ROOT
ATOM      1  N   UNL     1      -0.212  -0.259  -0.133  0.00  0.00    -0.247 N 
ATOM      2  N   UNL     1      -1.635  -1.893   0.397  0.00  0.00    -0.242 NA
ATOM      3  N   UNL     1      -1.787   1.542  -0.553  0.00  0.00    -0.228 NA
ATOM      4  N   UNL     1      -4.090   0.803  -0.226  0.00  0.00    -0.229 NA
ATOM      5  C   UNL     1      -1.464   0.284  -0.219  0.00  0.00    +0.152 C 
ATOM      6  C   UNL     1      -0.369  -1.569   0.239  0.00  0.00    +0.223 C 
ATOM      7  C   UNL     1      -2.331  -0.745   0.114  0.00  0.00    +0.140 C 
ATOM      8  C   UNL     1      -3.690  -0.449   0.103  0.00  0.00    +0.143 C 
ATOM      9  C   UNL     1      -3.128   1.707  -0.529  0.00  0.00    +0.253 C 
ATOM     10  N   UNL     1      -4.641  -1.432   0.429  0.00  0.00    -0.342 N 
ATOM     11  H   UNL     1      -5.600  -1.212   0.419  0.00  0.00    +0.144 HD
ATOM     12  H   UNL     1      -4.347  -2.341   0.668  0.00  0.00    +0.144 HD
ENDROOT
BRANCH   1  15
ATOM     13  F   UNL     1       3.336   2.084  -0.423  0.00  0.00    -0.232 F 
ATOM     14  O   UNL     1       2.002  -0.518  -0.944  0.00  0.00    -0.333 OA
ATOM     15  C   UNL     1       1.058   0.417  -0.388  0.00  0.00    +0.225 C 
ATOM     16  C   UNL     1       1.714   0.992   0.856  0.00  0.00    +0.193 C 
ATOM     17  C   UNL     1       3.162   1.030   0.427  0.00  0.00    +0.221 C 
ATOM     18  C   UNL     1       3.307  -0.246  -0.385  0.00  0.00    +0.181 C 
BRANCH  16  19
ATOM     19  O   UNL     1       1.215   2.276   1.170  0.00  0.00    -0.378 OA
ATOM     20  H   UNL     1       0.286   2.205   1.439  0.00  0.00    +0.211 HD
ENDBRANCH  16  19
BRANCH  18  21
ATOM     21  C   UNL     1       3.728  -1.443   0.454  0.00  0.00    +0.170 C 
BRANCH  21  22
ATOM     22  O   UNL     1       3.824  -2.578  -0.389  0.00  0.00    -0.379 OA
ATOM     23  H   UNL     1       4.092  -3.349   0.136  0.00  0.00    +0.211 HD
ENDBRANCH  21  22
ENDBRANCH  18  21
ENDBRANCH   1  15
TORSDOF 4
