REMARK  Name = 122624
REMARK  4 active torsions:
REMARK  status: ('A' for Active; 'I' for Inactive)
REMARK    1  A    between atoms: C_4  and  C_11
REMARK    2  A    between atoms: C_7  and  O_15
REMARK    3  A    between atoms: O_15  and  C_16
REMARK    4  A    between atoms: C_16  and  C_17
REMARK                            x       y       z     vdW  Elec       q    Type
REMARK                         _______ _______ _______ _____ _____    ______ ____
ROOT
ATOM      1  S   UNL     1       4.434  -1.077   0.840  0.00  0.00    -0.116 S 
ATOM      2  O   UNL     1       0.784  -3.375  -0.850  0.00  0.00    -0.226 OA
ATOM      3  N   UNL     1       1.951  -1.614   0.108  0.00  0.00    -0.228 N 
ATOM      4  C   UNL     1       1.908  -0.281   0.697  0.00  0.00    +0.167 C 
ATOM      5  C   UNL     1       3.116  -0.096   1.602  0.00  0.00    +0.088 C 
ATOM      6  C   UNL     1       3.287  -2.185  -0.008  0.00  0.00    +0.156 C 
ATOM      7  C   UNL     1       0.798  -2.263  -0.327  0.00  0.00    +0.406 C 
ENDROOT
BRANCH   4  11
ATOM      8  S   UNL     1      -0.167   3.878   0.838  0.00  0.00    -0.117 S 
ATOM      9  O   UNL     1       2.495   0.439  -1.487  0.00  0.00    -0.273 OA
ATOM     10  N   UNL     1       1.226   1.892  -0.202  0.00  0.00    -0.268 N 
ATOM     11  C   UNL     1       1.909   0.705  -0.436  0.00  0.00    +0.245 C 
ATOM     12  C   UNL     1       1.157   2.934  -1.219  0.00  0.00    +0.106 C 
ATOM     13  C   UNL     1       0.420   2.173   0.979  0.00  0.00    +0.152 C 
ATOM     14  C   UNL     1       0.947   4.269  -0.530  0.00  0.00    +0.081 C 
ENDBRANCH   4  11
BRANCH   7  15
ATOM     15  O   UNL     1      -0.329  -1.517  -0.101  0.00  0.00    -0.430 OA
BRANCH  15  16
ATOM     16  C   UNL     1      -1.566  -2.109  -0.512  0.00  0.00    +0.237 C 
BRANCH  16  17
ATOM     17  C   UNL     1      -2.690  -1.167  -0.194  0.00  0.00    +0.021 C 
ATOM     18  C   UNL     1      -3.324  -1.244   1.042  0.00  0.00    -0.001 C 
ATOM     19  C   UNL     1      -3.087  -0.225  -1.136  0.00  0.00    -0.001 C 
ATOM     20  C   UNL     1      -4.368  -0.368   1.338  0.00  0.00    -0.000 C 
ATOM     21  C   UNL     1      -4.131   0.651  -0.839  0.00  0.00    -0.000 C 
ATOM     22  C   UNL     1      -4.772   0.579   0.398  0.00  0.00    -0.000 C 
ENDBRANCH  16  17
ENDBRANCH  15  16
ENDBRANCH   7  15
TORSDOF 4
