122641
  -OEChem-03292013323D

 37 38  0     1  0  0  0  0  0999 V2000
   -0.3914    1.3024    0.8331 O   0  0  0  0  0  0  0  0  0  0  0  0
   -1.9239    3.6553    0.7902 O   0  0  0  0  0  0  0  0  0  0  0  0
    1.8753   -1.9480    1.9850 O   0  0  0  0  0  0  0  0  0  0  0  0
   -4.4003   -1.9793    0.2807 O   0  0  0  0  0  0  0  0  0  0  0  0
    5.1759   -0.4912   -0.8667 O   0  0  0  0  0  0  0  0  0  0  0  0
    1.3591   -0.2190    0.5036 N   0  0  0  0  0  0  0  0  0  0  0  0
   -3.1833   -0.3247   -0.8150 N   0  0  0  0  0  0  0  0  0  0  0  0
    3.5123   -1.2113    0.5576 N   0  0  0  0  0  0  0  0  0  0  0  0
   -2.2388   -0.0515    0.2288 C   0  0  1  0  0  0  0  0  0  0  0  0
   -0.9805   -0.8832    0.1155 C   0  0  0  0  0  0  0  0  0  0  0  0
   -1.6742    1.3631    0.1836 C   0  0  1  0  0  0  0  0  0  0  0  0
    0.0018   -0.0735    0.9421 C   0  0  2  0  0  0  0  0  0  0  0  0
   -2.5480    2.3874    0.8855 C   0  0  0  0  0  0  0  0  0  0  0  0
    1.8204    0.6105   -0.5109 C   0  0  0  0  0  0  0  0  0  0  0  0
    2.2157   -1.1800    1.0828 C   0  0  0  0  0  0  0  0  0  0  0  0
   -4.1885   -1.2700   -0.6994 C   0  0  0  0  0  0  0  0  0  0  0  0
    3.0617    0.5780   -1.0112 C   0  0  0  0  0  0  0  0  0  0  0  0
    4.0229   -0.4092   -0.4517 C   0  0  0  0  0  0  0  0  0  0  0  0
   -5.0533   -1.3365   -1.9296 C   0  0  0  0  0  0  0  0  0  0  0  0
    3.5372    1.4807   -2.1038 C   0  0  0  0  0  0  0  0  0  0  0  0
   -2.7074   -0.2483    1.2020 H   0  0  0  0  0  0  0  0  0  0  0  0
   -1.0999   -1.9065    0.4855 H   0  0  0  0  0  0  0  0  0  0  0  0
   -0.6606   -0.9554   -0.9325 H   0  0  0  0  0  0  0  0  0  0  0  0
   -1.4815    1.6843   -0.8483 H   0  0  0  0  0  0  0  0  0  0  0  0
   -0.0781   -0.3516    2.0000 H   0  0  0  0  0  0  0  0  0  0  0  0
   -2.6497    2.1551    1.9502 H   0  0  0  0  0  0  0  0  0  0  0  0
   -3.5452    2.4471    0.4393 H   0  0  0  0  0  0  0  0  0  0  0  0
   -3.0787    0.1712   -1.6958 H   0  0  0  0  0  0  0  0  0  0  0  0
    1.1087    1.3135   -0.9305 H   0  0  0  0  0  0  0  0  0  0  0  0
   -1.8633    3.8848   -0.1528 H   0  0  0  0  0  0  0  0  0  0  0  0
    4.1467   -1.8960    0.9595 H   0  0  0  0  0  0  0  0  0  0  0  0
   -5.7452   -2.1795   -1.8493 H   0  0  0  0  0  0  0  0  0  0  0  0
   -5.6262   -0.4100   -2.0254 H   0  0  0  0  0  0  0  0  0  0  0  0
   -4.4322   -1.4755   -2.8191 H   0  0  0  0  0  0  0  0  0  0  0  0
    4.3816    2.0865   -1.7590 H   0  0  0  0  0  0  0  0  0  0  0  0
    2.7520    2.1661   -2.4399 H   0  0  0  0  0  0  0  0  0  0  0  0
    3.8601    0.8948   -2.9705 H   0  0  0  0  0  0  0  0  0  0  0  0
  1 11  1  0  0  0  0
  1 12  1  0  0  0  0
  2 13  1  0  0  0  0
  2 30  1  0  0  0  0
  3 15  2  0  0  0  0
  4 16  2  0  0  0  0
  5 18  2  0  0  0  0
  6 12  1  0  0  0  0
  6 14  1  0  0  0  0
  6 15  1  0  0  0  0
  7  9  1  0  0  0  0
  7 16  1  0  0  0  0
  7 28  1  0  0  0  0
  8 15  1  0  0  0  0
  8 18  1  0  0  0  0
  8 31  1  0  0  0  0
  9 10  1  0  0  0  0
  9 11  1  0  0  0  0
  9 21  1  0  0  0  0
 10 12  1  0  0  0  0
 10 22  1  0  0  0  0
 10 23  1  0  0  0  0
 11 13  1  0  0  0  0
 11 24  1  0  0  0  0
 12 25  1  0  0  0  0
 13 26  1  0  0  0  0
 13 27  1  0  0  0  0
 14 17  2  0  0  0  0
 14 29  1  0  0  0  0
 16 19  1  0  0  0  0
 17 18  1  0  0  0  0
 17 20  1  0  0  0  0
 19 32  1  0  0  0  0
 19 33  1  0  0  0  0
 19 34  1  0  0  0  0
 20 35  1  0  0  0  0
 20 36  1  0  0  0  0
 20 37  1  0  0  0  0
M  END
> <PUBCHEM_COMPOUND_CID>
122641

> <PUBCHEM_CONFORMER_RMSD>
0.8

> <PUBCHEM_CONFORMER_DIVERSEORDER>
1
15
8
80
73
18
63
40
50
48
82
43
75
36
38
3
39
37
71
33
23
21
47
42
68
83
29
66
26
54
60
41
32
78
51
67
74
77
16
9
27
69
72
62
13
76
34
52
12
84
4
61
79
53
65
70
2
64
45
58
11
44
49
55
46
14
56
25
30
57
28
19
20
17
81
59
35
24
5
31
22
6
10
7

> <PUBCHEM_MMFF94_PARTIAL_CHARGES>
23
1 -0.56
11 0.28
12 0.58
13 0.28
14 -0.04
15 0.69
16 0.57
17 -0.12
18 0.62
19 0.06
2 -0.68
20 0.14
28 0.37
29 0.15
3 -0.57
30 0.4
31 0.37
4 -0.57
5 -0.57
6 -0.47
7 -0.73
8 -0.49
9 0.3

> <PUBCHEM_EFFECTIVE_ROTOR_COUNT>
5

> <PUBCHEM_PHARMACOPHORE_FEATURES>
10
1 1 acceptor
1 2 acceptor
1 2 donor
1 3 acceptor
1 4 acceptor
1 5 acceptor
1 7 donor
1 8 donor
5 1 9 10 11 12 rings
6 6 8 14 15 17 18 rings

> <PUBCHEM_HEAVY_ATOM_COUNT>
20

> <PUBCHEM_ATOM_DEF_STEREO_COUNT>
0

> <PUBCHEM_ATOM_UDEF_STEREO_COUNT>
3

> <PUBCHEM_BOND_DEF_STEREO_COUNT>
0

> <PUBCHEM_BOND_UDEF_STEREO_COUNT>
0

> <PUBCHEM_ISOTOPIC_ATOM_COUNT>
0

> <PUBCHEM_COMPONENT_COUNT>
1

> <PUBCHEM_CACTVS_TAUTO_COUNT>
6

> <PUBCHEM_CONFORMER_ID>
0001DF1100000001

> <PUBCHEM_MMFF94_ENERGY>
41.5654

> <PUBCHEM_FEATURE_SELFOVERLAP>
50.752

> <PUBCHEM_SHAPE_FINGERPRINT>
11543360 7 17240473745786196159
11578080 2 18046029771392587596
11725454 13 14563079381693774159
11796584 16 17272581521364005790
12553582 1 18342731962351432403
12714826 92 17704069573510545841
12730499 353 16588024615020617827
12788726 201 18341047411837477401
13009979 54 18120363268647561274
13583140 156 17058912378539116166
13675066 3 12679191509012687247
15842332 3 18116993286682219907
16752209 62 18271516529489766875
1813 80 17774440611469836365
18222031 100 17774147042018454463
192875 21 18333733550425569516
19784866 140 18410014372857383563
200 152 18333449854560233503
20645477 70 16515679988392210130
22620623 9 17775007856401421357
22950370 63 18341058527155161091
23402539 116 18411422803901750909
23402655 69 17530675502925413375
23557571 272 17774724151740572136
23559900 14 18263080084149188336
23598291 2 18116710703841674242
238078 22 18337114583146298459
25147074 1 18190175694095203537
266924 1 18261952942843608737
3060560 45 17676203589798476814
312423 11 18335428932482541666
474 4 17677067767140609344
495365 180 14418397889332014576
5352402 22 15123514734779131727
57096353 35 18334864934578036884
603831 33 18408037403331397411
6049 1 17060327505332198193
633830 44 17752516225020936652
7164475 11 18340201895257664669
7471813 234 18411130364200971092
7615 1 18188485766161510728
7970288 3 18059009609396013231

> <PUBCHEM_SHAPE_MULTIPOLES>
367.3
9.62
2.47
1.6
1.31
2.16
0.42
-4.19
5.18
2.2
-0.84
-0.38
-0.15
-2.48

> <PUBCHEM_SHAPE_SELFOVERLAP>
763.106

> <PUBCHEM_SHAPE_VOLUME>
209.6

> <PUBCHEM_COORDINATE_TYPE>
2
5
10

$$$$
