REMARK  Name = 122678117
REMARK  5 active torsions:
REMARK  status: ('A' for Active; 'I' for Inactive)
REMARK    1  A    between atoms: C_1  and  C_23
REMARK    2  A    between atoms: C_2  and  C_9
REMARK    3  A    between atoms: N_8  and  C_15
REMARK    4  A    between atoms: C_23  and  C_24
REMARK    5  A    between atoms: C_29  and  C_32
REMARK                            x       y       z     vdW  Elec       q    Type
REMARK                         _______ _______ _______ _____ _____    ______ ____
ROOT
ATOM      1  C   UNL     1      -1.436  -2.871  -0.179  0.00  0.00    +0.071 C 
ATOM      2  C   UNL     1      -2.759  -2.253   0.298  0.00  0.00    +0.084 C 
ATOM      3  C   UNL     1      -1.653  -4.224  -0.864  0.00  0.00    +0.008 C 
ATOM      4  C   UNL     1      -3.576  -3.237   1.142  0.00  0.00    +0.010 C 
ATOM      5  C   UNL     1      -3.785  -4.568   0.428  0.00  0.00    +0.001 C 
ATOM      6  C   UNL     1      -2.456  -5.184   0.006  0.00  0.00    +0.000 C 
ENDROOT
BRANCH   2   9
ATOM      7  O   UNL     1      -2.333  -1.139   2.353  0.00  0.00    -0.275 OA
ATOM      8  N   UNL     1      -2.460   0.112   0.363  0.00  0.00    -0.282 N 
ATOM      9  C   UNL     1      -2.490  -1.040   1.140  0.00  0.00    +0.226 C 
ATOM     10  H   UNL     1      -2.612  -0.010  -0.602  0.00  0.00    +0.155 HD
BRANCH   8  15
ATOM     11  O   UNL     1      -2.434   1.872  -2.215  0.00  0.00    -0.269 OA
ATOM     12  N   UNL     1      -1.952   3.596   0.902  0.00  0.00    -0.204 N 
ATOM     13  N   UNL     1      -1.811   3.218   2.179  0.00  0.00    -0.175 NA
ATOM     14  N   UNL     1      -2.428   4.128  -1.766  0.00  0.00    -0.298 N 
ATOM     15  C   UNL     1      -2.235   1.439   0.799  0.00  0.00    +0.091 C 
ATOM     16  C   UNL     1      -2.208   2.577   0.024  0.00  0.00    +0.137 C 
ATOM     17  C   UNL     1      -1.771   4.967   0.474  0.00  0.00    +0.138 C 
ATOM     18  C   UNL     1      -1.991   1.894   2.114  0.00  0.00    +0.134 C 
ATOM     19  C   UNL     1      -2.568   5.215  -0.802  0.00  0.00    +0.113 C 
ATOM     20  C   UNL     1      -2.369   2.786  -1.396  0.00  0.00    +0.262 C 
ATOM     21  H   UNL     1      -2.373   4.353  -2.723  0.00  0.00    +0.150 HD
ENDBRANCH   8  15
ENDBRANCH   2   9
BRANCH   1  23
ATOM     22  O   UNL     1      -1.326  -1.635  -2.208  0.00  0.00    -0.291 OA
ATOM     23  C   UNL     1      -0.764  -1.960  -1.164  0.00  0.00    +0.173 C 
BRANCH  23  24
ATOM     24  C   UNL     1       0.602  -1.447  -0.862  0.00  0.00    +0.035 C 
ATOM     25  C   UNL     1       1.480  -2.213  -0.094  0.00  0.00    +0.003 C 
ATOM     26  C   UNL     1       1.003  -0.202  -1.346  0.00  0.00    +0.003 C 
ATOM     27  C   UNL     1       2.759  -1.733   0.189  0.00  0.00    +0.002 C 
ATOM     28  C   UNL     1       2.282   0.278  -1.063  0.00  0.00    +0.002 C 
ATOM     29  C   UNL     1       3.160  -0.488  -0.296  0.00  0.00    +0.019 C 
BRANCH  29  32
ATOM     30  N   UNL     1       4.705   1.318   0.094  0.00  0.00    -0.182 NA
ATOM     31  N   UNL     1       6.019   1.380   0.368  0.00  0.00    -0.240 N 
ATOM     32  C   UNL     1       4.477   0.005  -0.004  0.00  0.00    +0.099 C 
ATOM     33  C   UNL     1       5.636  -0.765   0.205  0.00  0.00    +0.032 C 
ATOM     34  C   UNL     1       6.624   0.160   0.445  0.00  0.00    +0.045 C 
ATOM     35  C   UNL     1       8.059   0.013   0.735  0.00  0.00    +0.049 C 
ATOM     36  H   UNL     1       6.501   2.228   0.500  0.00  0.00    +0.174 HD
ENDBRANCH  29  32
ENDBRANCH  23  24
ENDBRANCH   1  23
TORSDOF 5
