122653
  -OEChem-03292013323D

 32 33  0     1  0  0  0  0  0999 V2000
    1.8553   -0.7450    0.7218 O   0  0  0  0  0  0  0  0  0  0  0  0
    1.2100    2.4704   -0.7133 O   0  0  0  0  0  0  0  0  0  0  0  0
    3.7813    1.0575   -1.7106 O   0  0  0  0  0  0  0  0  0  0  0  0
    4.1823   -2.2467    1.2255 O   0  0  0  0  0  0  0  0  0  0  0  0
   -4.5195    0.4616    0.2766 O   0  0  0  0  0  0  0  0  0  0  0  0
   -0.3655   -0.2688    0.0563 N   0  0  0  0  0  0  0  0  0  0  0  0
   -1.8472   -1.7367   -0.7139 N   0  0  0  0  0  0  0  0  0  0  0  0
   -4.6722   -1.5943   -0.7277 N   0  0  0  0  0  0  0  0  0  0  0  0
    1.5598    1.0983   -0.7650 C   0  0  1  0  0  0  0  0  0  0  0  0
    3.0380    0.8833   -0.5193 C   0  0  1  0  0  0  0  0  0  0  0  0
    0.9360    0.3111    0.3819 C   0  0  2  0  0  0  0  0  0  0  0  0
    3.0604   -0.5596   -0.0405 C   0  0  1  0  0  0  0  0  0  0  0  0
    4.2631   -0.8883    0.8257 C   0  0  0  0  0  0  0  0  0  0  0  0
   -1.5967    0.2792    0.2913 C   0  0  0  0  0  0  0  0  0  0  0  0
   -0.5685   -1.4795   -0.5493 C   0  0  0  0  0  0  0  0  0  0  0  0
   -2.4936   -0.6441   -0.1925 C   0  0  0  0  0  0  0  0  0  0  0  0
   -1.8442    1.5350    0.9060 C   0  0  0  0  0  0  0  0  0  0  0  0
   -3.9229   -0.5416   -0.1841 C   0  0  0  0  0  0  0  0  0  0  0  0
   -2.0559    2.6081    1.4310 C   0  0  0  0  0  0  0  0  0  0  0  0
    1.2648    0.7124   -1.7487 H   0  0  0  0  0  0  0  0  0  0  0  0
    3.4173    1.5830    0.2344 H   0  0  0  0  0  0  0  0  0  0  0  0
    0.8048    0.9264    1.2794 H   0  0  0  0  0  0  0  0  0  0  0  0
    3.0178   -1.2638   -0.8813 H   0  0  0  0  0  0  0  0  0  0  0  0
    4.2706   -0.2756    1.7332 H   0  0  0  0  0  0  0  0  0  0  0  0
    5.1975   -0.7360    0.2769 H   0  0  0  0  0  0  0  0  0  0  0  0
    0.2485    2.5319   -0.8421 H   0  0  0  0  0  0  0  0  0  0  0  0
    3.4502    0.4287   -2.3740 H   0  0  0  0  0  0  0  0  0  0  0  0
    0.2426   -2.1271   -0.8534 H   0  0  0  0  0  0  0  0  0  0  0  0
    4.9618   -2.4296    1.7773 H   0  0  0  0  0  0  0  0  0  0  0  0
   -4.2320   -2.4214   -1.1181 H   0  0  0  0  0  0  0  0  0  0  0  0
   -5.6859   -1.5574   -0.7464 H   0  0  0  0  0  0  0  0  0  0  0  0
   -2.2413    3.5502    1.8916 H   0  0  0  0  0  0  0  0  0  0  0  0
  1 11  1  0  0  0  0
  1 12  1  0  0  0  0
  2  9  1  0  0  0  0
  2 26  1  0  0  0  0
  3 10  1  0  0  0  0
  3 27  1  0  0  0  0
  4 13  1  0  0  0  0
  4 29  1  0  0  0  0
  5 18  2  0  0  0  0
  6 11  1  0  0  0  0
  6 14  1  0  0  0  0
  6 15  1  0  0  0  0
  7 15  2  0  0  0  0
  7 16  1  0  0  0  0
  8 18  1  0  0  0  0
  8 30  1  0  0  0  0
  8 31  1  0  0  0  0
  9 10  1  0  0  0  0
  9 11  1  0  0  0  0
  9 20  1  0  0  0  0
 10 12  1  0  0  0  0
 10 21  1  0  0  0  0
 11 22  1  0  0  0  0
 12 13  1  0  0  0  0
 12 23  1  0  0  0  0
 13 24  1  0  0  0  0
 13 25  1  0  0  0  0
 14 16  2  0  0  0  0
 14 17  1  0  0  0  0
 15 28  1  0  0  0  0
 16 18  1  0  0  0  0
 17 19  3  0  0  0  0
 19 32  1  0  0  0  0
M  END
> <PUBCHEM_COMPOUND_CID>
122653

> <PUBCHEM_CONFORMER_RMSD>
0.6

> <PUBCHEM_CONFORMER_DIVERSEORDER>
1
202
257
306
286
346
252
121
335
333
47
309
203
162
125
8
356
60
362
304
261
375
359
311
14
208
265
13
348
83
180
238
181
370
72
330
385
357
21
136
344
165
177
41
146
29
325
143
271
347
251
243
88
223
182
371
75
365
246
274
300
374
7
244
230
316
222
211
187
324
367
69
363
364
172
214
108
3
86
173
339
77
386
378
382
90
159
73
299
194
284
270
253
312
372
2
354
150
369
44
133
129
228
256
114
183
9
384
184
360
22
46
381
5
350
26
248
36
341
260
313
380
227
104
302
221
120
175
345
103
368
76
383
107
95
305
119
163
320
93
49
239
209
116
48
303
200
212
213
137
99
132
15
276
334
161
220
198
199
215
361
351
218
319
109
171
279
176
53
25
318
237
40
57
190
234
204
135
191
23
282
229
115
35
65
164
332
154
317
245
11
236
273
272
59
10
123
145
205
315
117
206
296
31
373
250
63
98
281
6
258
366
153
105
352
338
322
27
147
38
64
224
160
337
87
54
89
277
43
267
113
30
264
355
247
111
84
192
155
235
118
79
377
170
201
37
45
254
353
101
80
329
379
278
71
259
110
266
85
288
127
242
68
17
321
294
231
179
12
331
342
307
55
51
287
178
33
131
216
91
174
156
314
144
20
336
4
102
97
189
152
290
134
34
92
58
193
67
130
141
66
289
225
94
32
82
283
56
140
327
96
241
349
142
197
50
280
233
166
310
343
19
106
340
185
157
240
226
18
112
297
148
255
42
186
24
285
100
81
62
207
167
292
376
122
196
16
61
158
128
126
268
28
262
293
328
358
263
301
149
291
295
210
219
39
217
326
249
124
52
298
139
323
78
74
308
275
195
168
188
169
232
151
70
138
269

> <PUBCHEM_MMFF94_PARTIAL_CHARGES>
26
1 -0.56
10 0.28
11 0.54
12 0.28
13 0.28
14 -0.13
15 0.04
16 0.14
17 -0.02
18 0.72
19 -0.18
2 -0.68
26 0.4
27 0.4
28 0.15
29 0.4
3 -0.68
30 0.37
31 0.37
32 0.18
4 -0.68
5 -0.57
6 0.05
7 -0.57
8 -0.8
9 0.28

> <PUBCHEM_EFFECTIVE_ROTOR_COUNT>
4

> <PUBCHEM_PHARMACOPHORE_FEATURES>
13
1 1 acceptor
1 19 hydrophobe
1 2 acceptor
1 2 donor
1 3 acceptor
1 3 donor
1 4 acceptor
1 4 donor
1 5 acceptor
1 8 donor
3 6 7 15 cation
5 1 9 10 11 12 rings
5 6 7 14 15 16 rings

> <PUBCHEM_HEAVY_ATOM_COUNT>
19

> <PUBCHEM_ATOM_DEF_STEREO_COUNT>
0

> <PUBCHEM_ATOM_UDEF_STEREO_COUNT>
4

> <PUBCHEM_BOND_DEF_STEREO_COUNT>
0

> <PUBCHEM_BOND_UDEF_STEREO_COUNT>
0

> <PUBCHEM_ISOTOPIC_ATOM_COUNT>
0

> <PUBCHEM_COMPONENT_COUNT>
1

> <PUBCHEM_CACTVS_TAUTO_COUNT>
2

> <PUBCHEM_CONFORMER_ID>
0001DF1D00000001

> <PUBCHEM_MMFF94_ENERGY>
34.1412

> <PUBCHEM_FEATURE_SELFOVERLAP>
65.977

> <PUBCHEM_SHAPE_FINGERPRINT>
10062212 137 18343015610518141975
11132069 177 17632584829547157177
11578080 2 18191839328467255672
12236239 1 18409167714575698362
12788726 201 18200888338990454177
13009979 54 18340212877826637976
13140716 1 18200027494564074715
13538477 17 18339644554478894806
13581323 91 18060416906663257186
13760787 5 18260829315248941047
13862211 1 18130499834417665823
14178342 30 18128257774782205530
15375462 478 18272082790514495573
15442244 35 18337392643381110200
16752209 62 18202006503777091545
16945 1 18130794468282146895
17862501 102 18411976932055812163
1813 80 17751084605290207574
192875 21 18410569582936670841
19422 9 18334862684273714490
200 152 18408880750514816907
20510252 161 17846782879734074257
20559304 39 18412262852613596984
20645476 183 18264495163977490607
20645477 70 17385442120441000554
21267235 1 18409736144812794650
22112679 90 18337393747298624560
23048698 100 17967816054578140458
23402539 116 18060126631625591949
23463225 33 18336826403498687822
23557571 272 16988574463083049032
23558518 356 18125732188468988411
23559900 14 17704080607513910780
23598291 2 18262811661672879836
25147074 1 18335713702263761644
2748010 2 17840323124625197263
312423 11 18335152959580385826
474 4 17825957197844824740
5104073 3 18412826914926768451
6992083 37 18265621987344421600
7615 1 18409173186248313768
77492 1 18336273374771890928
9981440 41 17470444501059578872

> <PUBCHEM_SHAPE_MULTIPOLES>
346.72
8.43
2.3
1.15
0.11
0.82
0.02
-3.01
-0.25
0.54
-0.33
-0.86
0.26
-2.24

> <PUBCHEM_SHAPE_SELFOVERLAP>
733.048

> <PUBCHEM_SHAPE_VOLUME>
194.3

> <PUBCHEM_COORDINATE_TYPE>
2
5
10

$$$$
