122631
  -OEChem-03292013323D

 33 35  0     1  0  0  0  0  0999 V2000
   -2.2460   -0.2527    0.8800 O   0  0  0  0  0  0  0  0  0  0  0  0
   -3.2944    2.5083   -0.0192 O   0  0  0  0  0  0  0  0  0  0  0  0
   -4.3380   -2.0897    0.6263 O   0  0  0  0  0  0  0  0  0  0  0  0
    1.3149    2.3177    0.4492 O   0  0  0  0  0  0  0  0  0  0  0  0
   -0.0314   -0.3848    0.0400 N   0  0  0  0  0  0  0  0  0  0  0  0
    1.1526   -2.2562   -0.3039 N   0  0  0  0  0  0  0  0  0  0  0  0
    3.3148    1.1786    0.2034 N   0  0  0  0  0  0  0  0  0  0  0  0
    5.4201    0.0588   -0.0418 N   0  0  0  0  0  0  0  0  0  0  0  0
   -1.1977    0.4730    0.2147 C   0  0  1  0  0  0  0  0  0  0  0  0
   -1.7871    1.0009   -1.0853 C   0  0  0  0  0  0  0  0  0  0  0  0
   -3.2241    1.2513   -0.6887 C   0  0  1  0  0  0  0  0  0  0  0  0
   -3.5124    0.1282    0.3019 C   0  0  1  0  0  0  0  0  0  0  0  0
   -4.1156   -1.1010   -0.3638 C   0  0  0  0  0  0  0  0  0  0  0  0
    1.2815   -0.0127    0.0634 C   0  0  0  0  0  0  0  0  0  0  0  0
   -0.0571   -1.7421   -0.1831 C   0  0  0  0  0  0  0  0  0  0  0  0
    1.9688   -1.1810   -0.1500 C   0  0  0  0  0  0  0  0  0  0  0  0
    1.9141    1.2632    0.2567 C   0  0  0  0  0  0  0  0  0  0  0  0
    3.3847   -1.1642   -0.1875 C   0  0  0  0  0  0  0  0  0  0  0  0
    4.0525    0.0045   -0.0123 C   0  0  0  0  0  0  0  0  0  0  0  0
   -0.9159    1.2900    0.8869 H   0  0  0  0  0  0  0  0  0  0  0  0
   -1.7427    0.2386   -1.8721 H   0  0  0  0  0  0  0  0  0  0  0  0
   -1.2587    1.8931   -1.4351 H   0  0  0  0  0  0  0  0  0  0  0  0
   -3.9081    1.2849   -1.5415 H   0  0  0  0  0  0  0  0  0  0  0  0
   -4.1515    0.4563    1.1294 H   0  0  0  0  0  0  0  0  0  0  0  0
   -3.4474   -1.5286   -1.1180 H   0  0  0  0  0  0  0  0  0  0  0  0
   -5.0738   -0.8641   -0.8355 H   0  0  0  0  0  0  0  0  0  0  0  0
   -0.9803   -2.3012   -0.2536 H   0  0  0  0  0  0  0  0  0  0  0  0
   -4.2146    2.6315    0.2702 H   0  0  0  0  0  0  0  0  0  0  0  0
    3.9184   -2.0942   -0.3568 H   0  0  0  0  0  0  0  0  0  0  0  0
   -3.4803   -2.2895    1.0389 H   0  0  0  0  0  0  0  0  0  0  0  0
    3.8533    2.0309    0.3297 H   0  0  0  0  0  0  0  0  0  0  0  0
    5.9620   -0.7821   -0.1960 H   0  0  0  0  0  0  0  0  0  0  0  0
    5.8813    0.9493    0.0938 H   0  0  0  0  0  0  0  0  0  0  0  0
  1  9  1  0  0  0  0
  1 12  1  0  0  0  0
  2 11  1  0  0  0  0
  2 28  1  0  0  0  0
  3 13  1  0  0  0  0
  3 30  1  0  0  0  0
  4 17  2  0  0  0  0
  5  9  1  0  0  0  0
  5 14  1  0  0  0  0
  5 15  1  0  0  0  0
  6 15  2  0  0  0  0
  6 16  1  0  0  0  0
  7 17  1  0  0  0  0
  7 19  1  0  0  0  0
  7 31  1  0  0  0  0
  8 19  1  0  0  0  0
  8 32  1  0  0  0  0
  8 33  1  0  0  0  0
  9 10  1  0  0  0  0
  9 20  1  0  0  0  0
 10 11  1  0  0  0  0
 10 21  1  0  0  0  0
 10 22  1  0  0  0  0
 11 12  1  0  0  0  0
 11 23  1  0  0  0  0
 12 13  1  0  0  0  0
 12 24  1  0  0  0  0
 13 25  1  0  0  0  0
 13 26  1  0  0  0  0
 14 16  2  0  0  0  0
 14 17  1  0  0  0  0
 15 27  1  0  0  0  0
 16 18  1  0  0  0  0
 18 19  2  0  0  0  0
 18 29  1  0  0  0  0
M  END
> <PUBCHEM_COMPOUND_CID>
122631

> <PUBCHEM_CONFORMER_RMSD>
0.6

> <PUBCHEM_CONFORMER_DIVERSEORDER>
1
10
11
6
4
5
9
2
8
3
7

> <PUBCHEM_MMFF94_PARTIAL_CHARGES>
25
1 -0.56
11 0.28
12 0.28
13 0.28
14 -0.24
15 0.04
16 0.18
17 0.71
18 -0.1
19 0.21
2 -0.68
27 0.15
28 0.4
29 0.15
3 -0.68
30 0.4
31 0.37
32 0.4
33 0.4
4 -0.57
5 0.05
6 -0.57
7 -0.54
8 -0.9
9 0.54

> <PUBCHEM_EFFECTIVE_ROTOR_COUNT>
3

> <PUBCHEM_PHARMACOPHORE_FEATURES>
13
1 1 acceptor
1 2 acceptor
1 2 donor
1 3 acceptor
1 3 donor
1 4 acceptor
1 7 donor
1 8 cation
1 8 donor
3 5 6 15 cation
5 1 9 10 11 12 rings
5 5 6 14 15 16 rings
6 7 14 16 17 18 19 rings

> <PUBCHEM_HEAVY_ATOM_COUNT>
19

> <PUBCHEM_ATOM_DEF_STEREO_COUNT>
3

> <PUBCHEM_ATOM_UDEF_STEREO_COUNT>
0

> <PUBCHEM_BOND_DEF_STEREO_COUNT>
0

> <PUBCHEM_BOND_UDEF_STEREO_COUNT>
0

> <PUBCHEM_ISOTOPIC_ATOM_COUNT>
0

> <PUBCHEM_COMPONENT_COUNT>
1

> <PUBCHEM_CACTVS_TAUTO_COUNT>
6

> <PUBCHEM_CONFORMER_ID>
0001DF0700000001

> <PUBCHEM_MMFF94_ENERGY>
44.2327

> <PUBCHEM_FEATURE_SELFOVERLAP>
66.121

> <PUBCHEM_SHAPE_FINGERPRINT>
10366900 7 18113902701267638859
10608611 8 18337388253798017613
11471102 20 18340763728867748652
11615757 297 18060140950730058643
12236239 1 17203609267862773281
12403259 226 18339074994739694473
12403259 415 18343578577282245504
12403260 363 18336540603109822612
12670546 56 16805593760032823296
13862211 1 18412822470020997894
15196674 1 18411136901251523302
15219456 202 18336265639482874285
16945 1 18272928281108265214
17802600 8 18410008870571474911
18186145 218 18131357388408128474
19591789 44 18411418423288823150
200 152 18131344216107428655
20645477 56 18261393274799537653
20645477 70 18057881338244612614
21267235 1 18340495533893240710
21524375 3 18411139177378936054
221490 88 18411143515021741366
23402539 116 17749103400641305935
23402655 69 18271802367799731652
23557571 272 18113616785874830277
23559900 14 18409720790494531041
25 1 18338511933253987716
2748010 2 18270402836206715242
2871803 45 18335693975500180615
3286 77 18409165553732635356
350125 39 18338802341594070220
3545911 37 18410573942777161493
4990 188 18059582360601050646
5104073 3 18411416168330383482
58051976 378 18413668006962453567
81228 2 17477743045979681602
9709674 26 18410017615368171235

> <PUBCHEM_SHAPE_MULTIPOLES>
347.61
8.81
2.23
0.76
1.55
0.12
-0.06
-0.43
0.08
-1.06
0.04
-0.37
0.05
0.67

> <PUBCHEM_SHAPE_SELFOVERLAP>
757.714

> <PUBCHEM_SHAPE_VOLUME>
189.6

> <PUBCHEM_COORDINATE_TYPE>
2
5
10

$$$$
