122608237
  -OEChem-03292013293D

 64 67  0     1  0  0  0  0  0999 V2000
   -1.3038   -0.2485    1.0877 O   0  0  0  0  0  0  0  0  0  0  0  0
   -2.9680    1.3266   -2.1996 O   0  0  0  0  0  0  0  0  0  0  0  0
   -4.8199    0.4782    1.7923 O   0  0  0  0  0  0  0  0  0  0  0  0
    3.2309   -2.6831    0.7048 O   0  0  0  0  0  0  0  0  0  0  0  0
    2.8180    0.0610    0.3021 O   0  0  0  0  0  0  0  0  0  0  0  0
    3.1645   -0.6976   -1.8434 O   0  0  0  0  0  0  0  0  0  0  0  0
    3.8750    3.4342    1.0263 O   0  0  0  0  0  0  0  0  0  0  0  0
   -2.5628   -0.6968   -0.8652 C   0  0  1  0  0  0  0  0  0  0  0  0
   -1.1054   -0.5902   -0.3208 C   0  0  2  0  0  0  0  0  0  0  0  0
   -3.1825   -1.4573    0.3087 C   0  0  2  0  0  0  0  0  0  0  0  0
   -2.6687   -0.5716    1.4480 C   0  0  2  0  0  0  0  0  0  0  0  0
   -3.3656    0.6274   -1.0246 C   0  0  1  0  0  0  0  0  0  0  0  0
   -0.3880   -2.0137   -0.3286 C   0  0  2  0  0  0  0  0  0  0  0  0
   -3.3000    1.5540    0.2106 C   0  0  2  0  0  0  0  0  0  0  0  0
   -3.4494    0.7501    1.5196 C   0  0  1  0  0  0  0  0  0  0  0  0
   -2.6243   -2.8500    0.4143 C   0  0  0  0  0  0  0  0  0  0  0  0
   -0.1945    0.4058   -1.0365 C   0  0  0  0  0  0  0  0  0  0  0  0
   -1.3491   -3.1089    0.0978 C   0  0  0  0  0  0  0  0  0  0  0  0
    0.8858   -2.0900    0.5753 C   0  0  0  0  0  0  0  0  0  0  0  0
   -4.3159    2.6953    0.1036 C   0  0  0  0  0  0  0  0  0  0  0  0
    0.5168    1.3241   -0.3475 C   0  0  0  0  0  0  0  0  0  0  0  0
   -0.0193    0.1911   -2.5237 C   0  0  0  0  0  0  0  0  0  0  0  0
    2.2285   -2.1826   -0.1783 C   0  0  1  0  0  0  0  0  0  0  0  0
    1.7795    1.9997   -0.8435 C   0  0  2  0  0  0  0  0  0  0  0  0
    3.0084    1.4647   -0.0406 C   0  0  1  0  0  0  0  0  0  0  0  0
    2.7935   -0.8716   -0.6899 C   0  0  0  0  0  0  0  0  0  0  0  0
    1.6333    3.5187   -0.8308 C   0  0  0  0  0  0  0  0  0  0  0  0
    3.2565    2.1800    1.2857 C   0  0  1  0  0  0  0  0  0  0  0  0
    4.2845   -3.3091   -0.0113 C   0  0  0  0  0  0  0  0  0  0  0  0
    4.1421    1.3600    2.2078 C   0  0  0  0  0  0  0  0  0  0  0  0
   -2.5985   -1.2604   -1.8057 H   0  0  0  0  0  0  0  0  0  0  0  0
   -4.2742   -1.5185    0.2522 H   0  0  0  0  0  0  0  0  0  0  0  0
   -2.6839   -1.0824    2.4173 H   0  0  0  0  0  0  0  0  0  0  0  0
   -4.4175    0.3560   -1.1883 H   0  0  0  0  0  0  0  0  0  0  0  0
   -0.1130   -2.2679   -1.3604 H   0  0  0  0  0  0  0  0  0  0  0  0
   -2.3126    2.0327    0.2167 H   0  0  0  0  0  0  0  0  0  0  0  0
   -3.0624    1.3648    2.3414 H   0  0  0  0  0  0  0  0  0  0  0  0
   -3.2781   -3.6512    0.7430 H   0  0  0  0  0  0  0  0  0  0  0  0
   -0.9821   -4.1297    0.1524 H   0  0  0  0  0  0  0  0  0  0  0  0
    0.9173   -1.2548    1.2841 H   0  0  0  0  0  0  0  0  0  0  0  0
    0.8271   -2.9785    1.2204 H   0  0  0  0  0  0  0  0  0  0  0  0
   -5.3394    2.3187    0.0060 H   0  0  0  0  0  0  0  0  0  0  0  0
   -4.1068    3.3220   -0.7697 H   0  0  0  0  0  0  0  0  0  0  0  0
   -4.2709    3.3360    0.9905 H   0  0  0  0  0  0  0  0  0  0  0  0
   -3.1164    0.7347   -2.9566 H   0  0  0  0  0  0  0  0  0  0  0  0
    0.3324    1.4503    0.7171 H   0  0  0  0  0  0  0  0  0  0  0  0
   -4.8590   -0.0224    2.6251 H   0  0  0  0  0  0  0  0  0  0  0  0
   -0.9472   -0.1418   -2.9951 H   0  0  0  0  0  0  0  0  0  0  0  0
    0.7365   -0.5703   -2.7283 H   0  0  0  0  0  0  0  0  0  0  0  0
    0.2610    1.1144   -3.0400 H   0  0  0  0  0  0  0  0  0  0  0  0
    2.1016   -2.8682   -1.0259 H   0  0  0  0  0  0  0  0  0  0  0  0
    1.9627    1.7146   -1.8851 H   0  0  0  0  0  0  0  0  0  0  0  0
    3.9069    1.5547   -0.6666 H   0  0  0  0  0  0  0  0  0  0  0  0
    1.3845    3.9070    0.1623 H   0  0  0  0  0  0  0  0  0  0  0  0
    0.8261    3.8275   -1.5056 H   0  0  0  0  0  0  0  0  0  0  0  0
    2.5506    4.0035   -1.1802 H   0  0  0  0  0  0  0  0  0  0  0  0
    2.3115    2.3687    1.8076 H   0  0  0  0  0  0  0  0  0  0  0  0
    5.0063   -3.6919    0.7159 H   0  0  0  0  0  0  0  0  0  0  0  0
    4.8052   -2.6013   -0.6625 H   0  0  0  0  0  0  0  0  0  0  0  0
    3.9091   -4.1559   -0.5945 H   0  0  0  0  0  0  0  0  0  0  0  0
    5.0847    1.0956    1.7153 H   0  0  0  0  0  0  0  0  0  0  0  0
    3.6534    0.4439    2.5532 H   0  0  0  0  0  0  0  0  0  0  0  0
    4.4119    1.9447    3.0947 H   0  0  0  0  0  0  0  0  0  0  0  0
    3.9958    3.8856    1.8790 H   0  0  0  0  0  0  0  0  0  0  0  0
  1  9  1  0  0  0  0
  1 11  1  0  0  0  0
  2 12  1  0  0  0  0
  2 45  1  0  0  0  0
  3 15  1  0  0  0  0
  3 47  1  0  0  0  0
  4 23  1  0  0  0  0
  4 29  1  0  0  0  0
  5 25  1  0  0  0  0
  5 26  1  0  0  0  0
  6 26  2  0  0  0  0
  7 28  1  0  0  0  0
  7 64  1  0  0  0  0
  8  9  1  0  0  0  0
  8 10  1  0  0  0  0
  8 12  1  0  0  0  0
  8 31  1  0  0  0  0
  9 13  1  0  0  0  0
  9 17  1  0  0  0  0
 10 11  1  0  0  0  0
 10 16  1  0  0  0  0
 10 32  1  0  0  0  0
 11 15  1  0  0  0  0
 11 33  1  0  0  0  0
 12 14  1  0  0  0  0
 12 34  1  0  0  0  0
 13 18  1  0  0  0  0
 13 19  1  0  0  0  0
 13 35  1  0  0  0  0
 14 15  1  0  0  0  0
 14 20  1  0  0  0  0
 14 36  1  0  0  0  0
 15 37  1  0  0  0  0
 16 18  2  0  0  0  0
 16 38  1  0  0  0  0
 17 21  2  0  0  0  0
 17 22  1  0  0  0  0
 18 39  1  0  0  0  0
 19 23  1  0  0  0  0
 19 40  1  0  0  0  0
 19 41  1  0  0  0  0
 20 42  1  0  0  0  0
 20 43  1  0  0  0  0
 20 44  1  0  0  0  0
 21 24  1  0  0  0  0
 21 46  1  0  0  0  0
 22 48  1  0  0  0  0
 22 49  1  0  0  0  0
 22 50  1  0  0  0  0
 23 26  1  0  0  0  0
 23 51  1  0  0  0  0
 24 25  1  0  0  0  0
 24 27  1  0  0  0  0
 24 52  1  0  0  0  0
 25 28  1  0  0  0  0
 25 53  1  0  0  0  0
 27 54  1  0  0  0  0
 27 55  1  0  0  0  0
 27 56  1  0  0  0  0
 28 30  1  0  0  0  0
 28 57  1  0  0  0  0
 29 58  1  0  0  0  0
 29 59  1  0  0  0  0
 29 60  1  0  0  0  0
 30 61  1  0  0  0  0
 30 62  1  0  0  0  0
 30 63  1  0  0  0  0
M  END
> <PUBCHEM_COMPOUND_CID>
122608237

> <PUBCHEM_CONFORMER_RMSD>
0.8

> <PUBCHEM_CONFORMER_DIVERSEORDER>
1
5
6
2
4
3

> <PUBCHEM_MMFF94_PARTIAL_CHARGES>
30
1 -0.56
10 0.14
11 0.28
12 0.28
13 0.14
15 0.28
16 -0.29
17 -0.28
18 -0.29
2 -0.68
21 -0.29
22 0.14
23 0.34
24 0.14
25 0.28
26 0.66
28 0.28
29 0.28
3 -0.68
38 0.15
39 0.15
4 -0.56
45 0.4
46 0.15
47 0.4
5 -0.43
6 -0.57
64 0.4
7 -0.68
9 0.42

> <PUBCHEM_EFFECTIVE_ROTOR_COUNT>
3.8

> <PUBCHEM_PHARMACOPHORE_FEATURES>
11
1 1 acceptor
1 2 acceptor
1 2 donor
1 3 acceptor
1 3 donor
1 4 acceptor
1 6 acceptor
1 7 acceptor
1 7 donor
8 1 8 9 10 11 12 14 15 rings
8 1 8 9 10 11 13 16 18 rings

> <PUBCHEM_HEAVY_ATOM_COUNT>
30

> <PUBCHEM_ATOM_DEF_STEREO_COUNT>
12

> <PUBCHEM_ATOM_UDEF_STEREO_COUNT>
0

> <PUBCHEM_BOND_DEF_STEREO_COUNT>
1

> <PUBCHEM_BOND_UDEF_STEREO_COUNT>
0

> <PUBCHEM_ISOTOPIC_ATOM_COUNT>
0

> <PUBCHEM_COMPONENT_COUNT>
1

> <PUBCHEM_CACTVS_TAUTO_COUNT>
1

> <PUBCHEM_CONFORMER_ID>
074EDA6D00000001

> <PUBCHEM_MMFF94_ENERGY>
110.0439

> <PUBCHEM_FEATURE_SELFOVERLAP>
56.764

> <PUBCHEM_SHAPE_FINGERPRINT>
10675989 125 15737946730865536228
10863032 1 18342739641109184507
1100329 8 18267585693499292235
11370993 70 18267574887409022336
11456790 92 17756717338771329937
11578080 2 18408036316657354773
11640471 11 17560794485174791692
12156800 1 11542391245660855607
12422481 6 18194374794217474418
12553582 1 18266747878941034582
12633257 1 18189612911672373832
12655364 131 17839135802881977346
12788726 201 17689727359418648702
12930653 34 18197496440192279122
13140716 1 18410292471704976083
13224815 77 18338800116658423777
13383661 66 12256748043779480472
13583140 156 17987794245184803753
14178342 30 18265894846679728226
14223421 5 18265903646988674351
14466204 15 17836084463949891577
14790565 3 17976550407725511420
14955137 171 18048901618554848667
15295992 7 18265620892380773745
16945 1 18261677068399101319
17980427 23 17560791075165995978
18981168 100 18411412942709658171
20600515 1 17979940227806552846
20691752 17 17822010964560149722
21033648 29 18114739322590535237
21756936 100 17482828258037841784
22749437 52 18268987751208305240
23559900 14 18341328916515202126
350125 39 18335154072478146727
4340502 62 18271544065147262947
460360 51 17967520268775810839
469060 322 17834128811206399939
5252454 2 18336000734526902150
6287921 2 18117009968403860014
7097593 13 18409173241708075845

> <PUBCHEM_SHAPE_MULTIPOLES>
576.3
8.33
4.13
1.78
0.05
0.3
0.21
-2.22
-3.06
2.93
-0.39
-0.02
-0.72
0.98

> <PUBCHEM_SHAPE_SELFOVERLAP>
1224.055

> <PUBCHEM_SHAPE_VOLUME>
318.4

> <PUBCHEM_COORDINATE_TYPE>
2
5
10

$$$$
