REMARK  Name = 122636
REMARK  4 active torsions:
REMARK  status: ('A' for Active; 'I' for Inactive)
REMARK    1  A    between atoms: N_1  and  C1*_14
REMARK    2  A    between atoms: C3*_16  and  O3*_18
REMARK    3  A    between atoms: C4*_17  and  C5*_20
REMARK    4  A    between atoms: C5*_20  and  O5*_21
REMARK                            x       y       z     vdW  Elec       q    Type
REMARK                         _______ _______ _______ _____ _____    ______ ____
ROOT
ATOM      1  N   UNL     1       0.128  -0.122   0.082  0.00  0.00    -0.222 NA
ATOM      2  N   UNL     1       1.518  -1.825  -0.278  0.00  0.00    -0.252 NA
ATOM      3  N   UNL     1       4.106   0.797   0.118  0.00  0.00    -0.229 NA
ATOM      4  N   UNL     1       4.504  -1.518  -0.320  0.00  0.00    -0.342 N 
ATOM      5  C   UNL     1       1.392   0.412   0.137  0.00  0.00    +0.128 C 
ATOM      6  C   UNL     1       0.259  -1.463  -0.169  0.00  0.00    +0.203 C 
ATOM      7  C   UNL     1       2.239  -0.669  -0.089  0.00  0.00    +0.105 C 
ATOM      8  C   UNL     1       1.853   1.702   0.358  0.00  0.00    +0.016 C 
ATOM      9  C   UNL     1       3.617  -0.450  -0.095  0.00  0.00    +0.140 C 
ATOM     10  C   UNL     1       3.236   1.815   0.333  0.00  0.00    +0.097 C 
ATOM     11  H   UNL     1       5.476  -1.358  -0.323  0.00  0.00    +0.144 HD
ATOM     12  H   UNL     1       4.154  -2.425  -0.475  0.00  0.00    +0.144 HD
ENDROOT
BRANCH   1  14
ATOM     13  O4* UNL     1      -2.099  -0.262   0.888  0.00  0.00    -0.338 OA
ATOM     14  C1* UNL     1      -1.131   0.593   0.255  0.00  0.00    +0.181 C 
ATOM     15  C2* UNL     1      -1.759   1.079  -1.043  0.00  0.00    +0.079 C 
ATOM     16  C3* UNL     1      -3.221   1.155  -0.665  0.00  0.00    +0.144 C 
ATOM     17  C4* UNL     1      -3.393  -0.015   0.298  0.00  0.00    +0.173 C 
BRANCH  16  18
ATOM     18  O3* UNL     1      -3.443   2.381   0.029  0.00  0.00    -0.382 OA
ATOM     19  H3* UNL     1      -3.334   3.124  -0.584  0.00  0.00    +0.210 HD
ENDBRANCH  16  18
BRANCH  17  20
ATOM     20  C5* UNL     1      -3.842  -1.290  -0.403  0.00  0.00    +0.169 C 
BRANCH  20  21
ATOM     21  O5* UNL     1      -3.964  -2.319   0.563  0.00  0.00    -0.379 OA
ATOM     22  H5* UNL     1      -4.250  -3.138   0.129  0.00  0.00    +0.211 HD
ENDBRANCH  20  21
ENDBRANCH  17  20
ENDBRANCH   1  14
TORSDOF 4
