REMARK  Name = 122647
REMARK  8 active torsions:
REMARK  status: ('A' for Active; 'I' for Inactive)
REMARK    1  A    between atoms: C_2  and  O_7
REMARK    2  A    between atoms: C_3  and  O_9
REMARK    3  A    between atoms: C_4  and  O_11
REMARK    4  A    between atoms: C_5  and  C_23
REMARK    5  A    between atoms: C_6  and  O_13
REMARK    6  A    between atoms: O_13  and  C_14
REMARK    7  A    between atoms: C_19  and  N_20
REMARK    8  A    between atoms: C_23  and  O_24
REMARK                            x       y       z     vdW  Elec       q    Type
REMARK                         _______ _______ _______ _____ _____    ______ ____
ROOT
ATOM      1  O   UNL     1       0.981  -0.705   0.850  0.00  0.00    -0.316 OA
ATOM      2  C   UNL     1       2.669   1.194  -0.494  0.00  0.00    +0.173 C 
ATOM      3  C   UNL     1       3.095  -0.262  -0.299  0.00  0.00    +0.169 C 
ATOM      4  C   UNL     1       1.666   1.615   0.582  0.00  0.00    +0.210 C 
ATOM      5  C   UNL     1       1.857  -1.162  -0.184  0.00  0.00    +0.177 C 
ATOM      6  C   UNL     1       0.501   0.630   0.661  0.00  0.00    +0.318 C 
ENDROOT
BRANCH   2   7
ATOM      7  O   UNL     1       3.802   2.056  -0.429  0.00  0.00    -0.379 OA
ATOM      8  H   UNL     1       4.445   1.797  -1.107  0.00  0.00    +0.211 HD
ENDBRANCH   2   7
BRANCH   3   9
ATOM      9  O   UNL     1       3.871  -0.687  -1.417  0.00  0.00    -0.379 OA
ATOM     10  H   UNL     1       4.656  -0.123  -1.497  0.00  0.00    +0.211 HD
ENDBRANCH   3   9
BRANCH   4  11
ATOM     11  O   UNL     1       2.304   1.637   1.860  0.00  0.00    -0.377 OA
ATOM     12  H   UNL     1       3.050   2.257   1.839  0.00  0.00    +0.211 HD
ENDBRANCH   4  11
BRANCH   6  13
ATOM     13  O   UNL     1      -0.315   0.756  -0.498  0.00  0.00    -0.451 OA
BRANCH  13  14
ATOM     14  C   UNL     1      -1.649   0.484  -0.345  0.00  0.00    +0.141 C 
ATOM     15  C   UNL     1      -2.050  -0.777   0.083  0.00  0.00    +0.038 C 
ATOM     16  C   UNL     1      -2.589   1.471  -0.621  0.00  0.00    +0.038 C 
ATOM     17  C   UNL     1      -3.408  -1.054   0.237  0.00  0.00    +0.017 C 
ATOM     18  C   UNL     1      -3.947   1.194  -0.466  0.00  0.00    +0.017 C 
ATOM     19  C   UNL     1      -4.357  -0.069  -0.038  0.00  0.00    +0.042 C 
BRANCH  19  20
ATOM     20  N   UNL     1      -5.730  -0.349   0.119  0.00  0.00    -0.357 N 
ATOM     21  H   UNL     1      -6.020  -1.240   0.421  0.00  0.00    +0.142 HD
ATOM     22  H   UNL     1      -6.399   0.347  -0.074  0.00  0.00    +0.142 HD
ENDBRANCH  19  20
ENDBRANCH  13  14
ENDBRANCH   6  13
BRANCH   5  23
ATOM     23  C   UNL     1       2.241  -2.601   0.148  0.00  0.00    +0.169 C 
BRANCH  23  24
ATOM     24  O   UNL     1       1.057  -3.371   0.251  0.00  0.00    -0.379 OA
ATOM     25  H   UNL     1       1.286  -4.289   0.462  0.00  0.00    +0.211 HD
ENDBRANCH  23  24
ENDBRANCH   5  23
TORSDOF 8
