REMARK  Name = 122652
REMARK  8 active torsions:
REMARK  status: ('A' for Active; 'I' for Inactive)
REMARK    1  A    between atoms: N_1  and  C_13
REMARK    2  A    between atoms: C_13  and  C_14
REMARK    3  A    between atoms: C_14  and  C_16
REMARK    4  A    between atoms: C_14  and  O_17
REMARK    5  A    between atoms: O_17  and  C_18
REMARK    6  A    between atoms: C_18  and  P_19
REMARK    7  A    between atoms: P_19  and  O_21
REMARK    8  A    between atoms: P_19  and  O_23
REMARK                            x       y       z     vdW  Elec       q    Type
REMARK                         _______ _______ _______ _____ _____    ______ ____
ROOT
ATOM      1  N   UNL     1       1.012  -1.562  -0.095  0.00  0.00    -0.269 N 
ATOM      2  N   UNL     1       2.830  -1.141  -1.280  0.00  0.00    -0.242 NA
ATOM      3  N   UNL     1       1.010   0.344   1.405  0.00  0.00    -0.228 NA
ATOM      4  N   UNL     1       2.915   1.802   0.959  0.00  0.00    -0.229 NA
ATOM      5  C   UNL     1       1.502  -0.404   0.406  0.00  0.00    +0.151 C 
ATOM      6  C   UNL     1       2.639  -0.154  -0.346  0.00  0.00    +0.140 C 
ATOM      7  C   UNL     1       1.828  -1.976  -1.099  0.00  0.00    +0.221 C 
ATOM      8  C   UNL     1       3.355   0.999  -0.040  0.00  0.00    +0.143 C 
ATOM      9  C   UNL     1       1.786   1.430   1.610  0.00  0.00    +0.253 C 
ATOM     10  N   UNL     1       4.520   1.331  -0.753  0.00  0.00    -0.342 N 
ATOM     11  H   UNL     1       5.019   2.149  -0.527  0.00  0.00    +0.144 HD
ATOM     12  H   UNL     1       4.836   0.746  -1.479  0.00  0.00    +0.144 HD
ENDROOT
BRANCH   1  13
ATOM     13  C   UNL     1      -0.190  -2.260   0.360  0.00  0.00    +0.126 C 
BRANCH  13  14
ATOM     14  C   UNL     1      -1.445  -1.808  -0.389  0.00  0.00    +0.171 C 
BRANCH  14  16
ATOM     15  F   UNL     1      -2.849  -2.242   1.433  0.00  0.00    -0.232 F 
ATOM     16  C   UNL     1      -2.677  -2.543   0.115  0.00  0.00    +0.224 C 
ENDBRANCH  14  16
BRANCH  14  17
ATOM     17  O   UNL     1      -1.633  -0.418  -0.158  0.00  0.00    -0.340 OA
BRANCH  17  18
ATOM     18  C   UNL     1      -2.786   0.071  -0.828  0.00  0.00    +0.258 C 
BRANCH  18  19
ATOM     19  P   UNL     1      -2.832   1.810  -0.448  0.00  0.00    +0.367 P 
ATOM     20  O   UNL     1      -1.617   2.579  -0.874  0.00  0.00    -0.256 OA
BRANCH  19  21
ATOM     21  O   UNL     1      -3.149   1.846   1.137  0.00  0.00    -0.322 OA
ATOM     22  H   UNL     1      -3.193   2.767   1.437  0.00  0.00    +0.220 HD
ENDBRANCH  19  21
BRANCH  19  23
ATOM     23  O   UNL     1      -4.220   2.298  -1.116  0.00  0.00    -0.322 OA
ATOM     24  H   UNL     1      -4.337   3.248  -0.960  0.00  0.00    +0.220 HD
ENDBRANCH  19  23
ENDBRANCH  18  19
ENDBRANCH  17  18
ENDBRANCH  14  17
ENDBRANCH  13  14
ENDBRANCH   1  13
TORSDOF 8
