REMARK  Name = 122653
REMARK  7 active torsions:
REMARK  status: ('A' for Active; 'I' for Inactive)
REMARK    1  A    between atoms: N_1  and  C1*_9
REMARK    2  A    between atoms: C_3  and  C_23
REMARK    3  A    between atoms: C_5  and  C_20
REMARK    4  A    between atoms: C2*_7  and  O2*_11
REMARK    5  A    between atoms: C3*_8  and  O3*_13
REMARK    6  A    between atoms: C4*_10  and  C5*_15
REMARK    7  A    between atoms: C5*_15  and  O5*_16
REMARK                            x       y       z     vdW  Elec       q    Type
REMARK                         _______ _______ _______ _____ _____    ______ ____
ROOT
ATOM      1  N   UNL     1      -0.365  -0.269   0.056  0.00  0.00    -0.213 NA
ATOM      2  N   UNL     1      -1.847  -1.737  -0.714  0.00  0.00    -0.250 NA
ATOM      3  C   UNL     1      -1.597   0.279   0.291  0.00  0.00    +0.171 C 
ATOM      4  C   UNL     1      -0.569  -1.480  -0.549  0.00  0.00    +0.204 C 
ATOM      5  C   UNL     1      -2.494  -0.644  -0.193  0.00  0.00    +0.135 C 
ENDROOT
BRANCH   1   9
ATOM      6  O4* UNL     1       1.855  -0.745   0.722  0.00  0.00    -0.336 OA
ATOM      7  C2* UNL     1       1.560   1.098  -0.765  0.00  0.00    +0.183 C 
ATOM      8  C3* UNL     1       3.038   0.883  -0.519  0.00  0.00    +0.171 C 
ATOM      9  C1* UNL     1       0.936   0.311   0.382  0.00  0.00    +0.208 C 
ATOM     10  C4* UNL     1       3.060  -0.560  -0.041  0.00  0.00    +0.175 C 
BRANCH   7  11
ATOM     11  O2* UNL     1       1.210   2.470  -0.713  0.00  0.00    -0.378 OA
ATOM     12  H2* UNL     1       1.624   2.938  -1.456  0.00  0.00    +0.211 HD
ENDBRANCH   7  11
BRANCH   8  13
ATOM     13  O3* UNL     1       3.781   1.058  -1.711  0.00  0.00    -0.379 OA
ATOM     14  H3* UNL     1       3.743   1.988  -1.983  0.00  0.00    +0.211 HD
ENDBRANCH   8  13
BRANCH  10  15
ATOM     15  C5* UNL     1       4.263  -0.888   0.826  0.00  0.00    +0.169 C 
BRANCH  15  16
ATOM     16  O5* UNL     1       4.182  -2.247   1.226  0.00  0.00    -0.379 OA
ATOM     17  H5* UNL     1       4.947  -2.467   1.780  0.00  0.00    +0.211 HD
ENDBRANCH  15  16
ENDBRANCH  10  15
ENDBRANCH   1   9
BRANCH   5  20
ATOM     18  O   UNL     1      -4.519   0.462   0.277  0.00  0.00    -0.269 OA
ATOM     19  N   UNL     1      -4.672  -1.594  -0.728  0.00  0.00    -0.324 N 
ATOM     20  C   UNL     1      -3.923  -0.542  -0.184  0.00  0.00    +0.258 C 
ATOM     21  H   UNL     1      -5.656  -1.547  -0.733  0.00  0.00    +0.145 HD
ATOM     22  H   UNL     1      -4.215  -2.381  -1.104  0.00  0.00    +0.145 HD
ENDBRANCH   5  20
BRANCH   3  23
ATOM     23  C   UNL     1      -1.844   1.535   0.906  0.00  0.00    -0.056 C 
ATOM     24  C   UNL     1      -2.056   2.608   1.431  0.00  0.00    -0.012 C 
ENDBRANCH   3  23
TORSDOF 7
