REMARK  Name = 122668
REMARK  7 active torsions:
REMARK  status: ('A' for Active; 'I' for Inactive)
REMARK    1  A    between atoms: C_1  and  N_24
REMARK    2  A    between atoms: C_2  and  C_11
REMARK    3  A    between atoms: C_3  and  N_23
REMARK    4  A    between atoms: C_12  and  C_19
REMARK    5  A    between atoms: N_24  and  C_25
REMARK    6  A    between atoms: N_24  and  C_27
REMARK    7  A    between atoms: C_27  and  C_28
REMARK                            x       y       z     vdW  Elec       q    Type
REMARK                         _______ _______ _______ _____ _____    ______ ____
ROOT
ATOM      1  C   UNL     1      -1.233   0.888   0.237  0.00  0.00    +0.071 C 
ATOM      2  C   UNL     1       1.460   0.162   0.297  0.00  0.00    -0.006 C 
ATOM      3  C   UNL     1      -0.290   1.649  -0.454  0.00  0.00    +0.156 C 
ATOM      4  C   UNL     1      -0.829  -0.235   0.958  0.00  0.00    +0.016 C 
ATOM      5  C   UNL     1       1.057   1.286  -0.424  0.00  0.00    +0.022 C 
ATOM      6  C   UNL     1       0.517  -0.599   0.988  0.00  0.00    -0.002 C 
ENDROOT
BRANCH   2  11
ATOM      7  N   UNL     1       4.694  -1.452  -0.617  0.00  0.00    -0.337 NA
ATOM      8  N   UNL     1       5.039  -0.087   1.338  0.00  0.00    -0.317 NA
ATOM      9  N   UNL     1       3.248   1.136   2.283  0.00  0.00    -0.335 N 
ATOM     10  N   UNL     1       6.807  -1.304   0.392  0.00  0.00    -0.283 N 
ATOM     11  C   UNL     1       2.857  -0.216   0.328  0.00  0.00    +0.138 C 
ATOM     12  C   UNL     1       3.399  -1.073  -0.608  0.00  0.00    +0.112 C 
ATOM     13  C   UNL     1       3.733   0.250   1.288  0.00  0.00    +0.178 C 
ATOM     14  C   UNL     1       5.446  -0.929   0.370  0.00  0.00    +0.196 C 
ATOM     15  H   UNL     1       3.858   1.479   2.975  0.00  0.00    +0.144 HD
ATOM     16  H   UNL     1       2.302   1.407   2.281  0.00  0.00    +0.144 HD
ATOM     17  H   UNL     1       7.160  -1.918  -0.293  0.00  0.00    +0.156 HD
ATOM     18  H   UNL     1       7.404  -0.952   1.091  0.00  0.00    +0.156 HD
BRANCH  12  19
ATOM     19  C   UNL     1       2.558  -1.650  -1.701  0.00  0.00    +0.056 C 
ATOM     20  C   UNL     1       2.550  -0.772  -2.948  0.00  0.00    +0.008 C 
ENDBRANCH  12  19
ENDBRANCH   2  11
BRANCH   3  23
ATOM     21  O   UNL     1       0.208   3.451  -1.805  0.00  0.00    -0.126 OA
ATOM     22  O   UNL     1      -1.885   3.125  -1.226  0.00  0.00    -0.126 OA
ATOM     23  N   UNL     1      -0.675   2.800  -1.199  0.00  0.00    +0.059 N 
ENDBRANCH   3  23
BRANCH   1  24
ATOM     24  N   UNL     1      -2.603   1.235   0.222  0.00  0.00    -0.302 N 
BRANCH  24  25
ATOM     25  C   UNL     1      -3.146   2.114   1.237  0.00  0.00    +0.091 C 
ATOM     26  C   UNL     1      -3.428   1.334   2.507  0.00  0.00    +0.023 C 
ENDBRANCH  24  25
BRANCH  24  27
ATOM     27  C   UNL     1      -3.480   0.703  -0.799  0.00  0.00    +0.118 C 
BRANCH  27  28
ATOM     28  C   UNL     1      -3.925  -0.688  -0.441  0.00  0.00    -0.002 C 
ATOM     29  C   UNL     1      -3.172  -1.778  -0.861  0.00  0.00    -0.003 C 
ATOM     30  C   UNL     1      -5.082  -0.867   0.306  0.00  0.00    -0.003 C 
ATOM     31  C   UNL     1      -3.585  -3.068  -0.528  0.00  0.00    -0.000 C 
ATOM     32  C   UNL     1      -5.495  -2.157   0.638  0.00  0.00    -0.000 C 
ATOM     33  C   UNL     1      -4.746  -3.258   0.221  0.00  0.00    -0.000 C 
ENDBRANCH  27  28
ENDBRANCH  24  27
ENDBRANCH   1  24
TORSDOF 7
