REMARK  Name = 122633
REMARK  9 active torsions:
REMARK  status: ('A' for Active; 'I' for Inactive)
REMARK    1  A    between atoms: N_1  and  C_2
REMARK    2  A    between atoms: N_1  and  N_3
REMARK    3  A    between atoms: C_2  and  C_12
REMARK    4  A    between atoms: C_2  and  C_23
REMARK    5  A    between atoms: N_3  and  C_6
REMARK    6  A    between atoms: N_11  and  C_12
REMARK    7  A    between atoms: N_11  and  N_13
REMARK    8  A    between atoms: C_12  and  C_21
REMARK    9  A    between atoms: N_13  and  C_16
REMARK                            x       y       z     vdW  Elec       q    Type
REMARK                         _______ _______ _______ _____ _____    ______ ____
ROOT
ATOM      1  C   UNL     1       0.705  -0.308   0.792  0.00  0.00    +0.116 C 
ENDROOT
BRANCH   1   2
ATOM      2  C   UNL     1       0.961  -1.466   1.725  0.00  0.00    +0.021 C 
ATOM      3  C   UNL     1       0.619  -2.784   1.054  0.00  0.00    +0.002 C 
ENDBRANCH   1   2
BRANCH   1   4
ATOM      4  N   UNL     1       1.536   0.238  -0.037  0.00  0.00    -0.097 NA
BRANCH   4   5
ATOM      5  N   UNL     1       2.797  -0.343  -0.011  0.00  0.00    -0.145 NA
BRANCH   5   8
ATOM      6  N   UNL     1       4.937  -0.121  -1.068  0.00  0.00    -0.369 N 
ATOM      7  N   UNL     1       3.216   1.268  -1.647  0.00  0.00    -0.369 N 
ATOM      8  C   UNL     1       3.621   0.221  -0.854  0.00  0.00    +0.207 C 
ATOM      9  H   UNL     1       5.343  -0.858  -0.557  0.00  0.00    +0.159 HD
ATOM     10  H   UNL     1       5.472   0.372  -1.731  0.00  0.00    +0.159 HD
ATOM     11  H   UNL     1       2.293   1.604  -1.585  0.00  0.00    +0.159 HD
ATOM     12  H   UNL     1       3.850   1.681  -2.277  0.00  0.00    +0.159 HD
ENDBRANCH   5   8
ENDBRANCH   4   5
ENDBRANCH   1   4
BRANCH   1  13
ATOM     13  C   UNL     1      -0.685   0.263   0.802  0.00  0.00    +0.116 C 
BRANCH  13  14
ATOM     14  C   UNL     1      -0.944   1.382   1.780  0.00  0.00    +0.021 C 
ATOM     15  C   UNL     1      -0.672   2.731   1.139  0.00  0.00    +0.002 C 
ENDBRANCH  13  14
BRANCH  13  16
ATOM     16  N   UNL     1      -1.514  -0.248  -0.052  0.00  0.00    -0.097 NA
BRANCH  16  17
ATOM     17  N   UNL     1      -2.775   0.332  -0.006  0.00  0.00    -0.145 NA
BRANCH  17  20
ATOM     18  N   UNL     1      -4.893   0.244  -0.983  0.00  0.00    -0.369 N 
ATOM     19  N   UNL     1      -3.312  -1.212  -1.760  0.00  0.00    -0.369 N 
ATOM     20  C   UNL     1      -3.596  -0.197  -0.875  0.00  0.00    +0.207 C 
ATOM     21  H   UNL     1      -5.216   0.969  -0.401  0.00  0.00    +0.159 HD
ATOM     22  H   UNL     1      -5.498  -0.165  -1.643  0.00  0.00    +0.159 HD
ATOM     23  H   UNL     1      -2.412  -1.612  -1.777  0.00  0.00    +0.159 HD
ATOM     24  H   UNL     1      -4.007  -1.538  -2.375  0.00  0.00    +0.159 HD
ENDBRANCH  17  20
ENDBRANCH  16  17
ENDBRANCH  13  16
ENDBRANCH   1  13
TORSDOF 9
