REMARK  Name = 122759
REMARK  5 active torsions:
REMARK  status: ('A' for Active; 'I' for Inactive)
REMARK    1  A    between atoms: CA_1  and  N_3
REMARK    2  A    between atoms: CA_1  and  C_10
REMARK    3  A    between atoms: CA_1  and  CB_13
REMARK    4  A    between atoms: C_10  and  O_11
REMARK    5  A    between atoms: CB_13  and  CG_15
REMARK                            x       y       z     vdW  Elec       q    Type
REMARK                         _______ _______ _______ _____ _____    ______ ____
ROOT
ATOM      1  CA  UNL     1      -2.070  -0.341   0.416  0.00  0.00    +0.177 C 
ENDROOT
BRANCH   1   3
ATOM      2  O   UNL     1      -2.726   2.426   0.981  0.00  0.00    -0.253 OA
ATOM      3  N   UNL     1      -1.763   0.813  -0.391  0.00  0.00    -0.281 N 
ATOM      4  N   UNL     1      -1.706   3.035  -0.984  0.00  0.00    -0.313 N 
ATOM      5  C   ACE A   0      -2.118   2.111  -0.041  0.00  0.00    +0.298 C 
ATOM      6  H   UNL     1      -1.275   0.676  -1.235  0.00  0.00    +0.151 HD
ATOM      7  H   UNL     1      -1.898   3.992  -0.852  0.00  0.00    +0.146 HD
ATOM      8  H   UNL     1      -1.222   2.736  -1.787  0.00  0.00    +0.146 HD
ENDBRANCH   1   3
BRANCH   1  10
ATOM      9  OXT UNL     1      -2.723  -2.633   0.001  0.00  0.00    -0.248 OA
ATOM     10  C   UNL     1      -2.354  -1.556  -0.455  0.00  0.00    +0.332 C 
BRANCH  10  11
ATOM     11  O   UNL     1      -2.177  -1.357  -1.784  0.00  0.00    -0.479 OA
ATOM     12  H   UNL     1      -1.895  -0.521  -2.099  0.00  0.00    +0.295 HD
ENDBRANCH  10  11
ENDBRANCH   1  10
BRANCH   1  13
ATOM     13  CB  UNL     1      -0.930  -0.632   1.421  0.00  0.00    +0.059 C 
BRANCH  13  15
ATOM     14  NE1 UNL     1       2.033  -2.112  -0.117  0.00  0.00    -0.312 N 
ATOM     15  CG  UNL     1       0.362  -0.963   0.787  0.00  0.00    -0.004 C 
ATOM     16  CD2 UNL     1       1.388  -0.046   0.423  0.00  0.00    +0.011 C 
ATOM     17  CE2 UNL     1       2.424  -0.793  -0.142  0.00  0.00    +0.048 C 
ATOM     18  CD1 UNL     1       0.788  -2.225   0.442  0.00  0.00    +0.058 C 
ATOM     19  CE3 UNL     1       1.534   1.352   0.520  0.00  0.00    +0.001 C 
ATOM     20  CZ2 UNL     1       3.604  -0.209  -0.616  0.00  0.00    +0.015 C 
ATOM     21  CZ3 UNL     1       2.709   1.950   0.049  0.00  0.00    +0.000 C 
ATOM     22  CH2 UNL     1       3.727   1.180  -0.509  0.00  0.00    +0.001 C 
ATOM     23  HE1 UNL     1       2.570  -2.866  -0.453  0.00  0.00    +0.152 HD
ENDBRANCH  13  15
ENDBRANCH   1  13
TORSDOF 5
