122720
  -OEChem-03292013323D

 43 47  0     1  0  0  0  0  0999 V2000
   -6.4289    1.0849   -0.4790 O   0  0  0  0  0  0  0  0  0  0  0  0
   -3.5962    2.1123   -1.8576 O   0  0  0  0  0  0  0  0  0  0  0  0
   -5.5246   -1.3687    1.5834 O   0  0  0  0  0  0  0  0  0  0  0  0
   -1.0229    1.3923   -1.3459 O   0  0  0  0  0  0  0  0  0  0  0  0
    1.1326    1.0858    1.6694 O   0  0  0  0  0  0  0  0  0  0  0  0
    3.1701   -1.7887   -2.3504 O   0  0  0  0  0  0  0  0  0  0  0  0
    5.5644   -1.0275   -1.7842 O   0  0  0  0  0  0  0  0  0  0  0  0
   -5.1220    1.4699   -0.1690 C   0  0  1  0  0  0  0  0  0  0  0  0
   -5.6633   -0.0816   -0.4061 C   0  0  1  0  0  0  0  0  0  0  0  0
   -3.8441    1.3947   -0.9055 C   0  0  0  0  0  0  0  0  0  0  0  0
   -4.9530   -0.7570    0.6988 C   0  0  0  0  0  0  0  0  0  0  0  0
   -2.9262    0.3667   -0.3062 C   0  0  0  0  0  0  0  0  0  0  0  0
   -3.4628   -0.6361    0.5469 C   0  0  0  0  0  0  0  0  0  0  0  0
   -1.5550    0.4341   -0.5350 C   0  0  0  0  0  0  0  0  0  0  0  0
   -2.6183   -1.5382    1.1876 C   0  0  0  0  0  0  0  0  0  0  0  0
   -0.7165   -0.4826    0.1024 C   0  0  0  0  0  0  0  0  0  0  0  0
   -1.2428   -1.4555    0.9616 C   0  0  0  0  0  0  0  0  0  0  0  0
    0.7391   -0.4183   -0.1246 C   0  0  0  0  0  0  0  0  0  0  0  0
   -0.3553   -2.4406    1.6559 C   0  0  0  0  0  0  0  0  0  0  0  0
    1.6056    0.4115    0.7609 C   0  0  0  0  0  0  0  0  0  0  0  0
    3.0604    0.4096    0.5073 C   0  0  0  0  0  0  0  0  0  0  0  0
    1.2747   -1.1281   -1.1270 C   0  0  0  0  0  0  0  0  0  0  0  0
    3.5996   -0.3336   -0.5435 C   0  0  0  0  0  0  0  0  0  0  0  0
    2.7239   -1.1339   -1.4161 C   0  0  0  0  0  0  0  0  0  0  0  0
    3.9048    1.1655    1.3296 C   0  0  0  0  0  0  0  0  0  0  0  0
    4.9802   -0.3229   -0.7742 C   0  0  0  0  0  0  0  0  0  0  0  0
    5.2807    1.1742    1.0978 C   0  0  0  0  0  0  0  0  0  0  0  0
    5.8173    0.4315    0.0479 C   0  0  0  0  0  0  0  0  0  0  0  0
    6.1786    1.9802    1.9750 C   0  0  0  0  0  0  0  0  0  0  0  0
   -5.0200    1.8693    0.8365 H   0  0  0  0  0  0  0  0  0  0  0  0
   -5.5323   -0.5692   -1.3684 H   0  0  0  0  0  0  0  0  0  0  0  0
   -3.0271   -2.3073    1.8370 H   0  0  0  0  0  0  0  0  0  0  0  0
    0.3917   -1.9275    2.2703 H   0  0  0  0  0  0  0  0  0  0  0  0
   -0.9223   -3.0939    2.3287 H   0  0  0  0  0  0  0  0  0  0  0  0
    0.1479   -3.0868    0.9295 H   0  0  0  0  0  0  0  0  0  0  0  0
    0.6585   -1.7408   -1.7795 H   0  0  0  0  0  0  0  0  0  0  0  0
   -1.7200    1.9526   -1.7203 H   0  0  0  0  0  0  0  0  0  0  0  0
    3.4995    1.7515    2.1510 H   0  0  0  0  0  0  0  0  0  0  0  0
    6.8892    0.4386   -0.1359 H   0  0  0  0  0  0  0  0  0  0  0  0
    7.1828    1.5453    2.0220 H   0  0  0  0  0  0  0  0  0  0  0  0
    6.2579    3.0027    1.5927 H   0  0  0  0  0  0  0  0  0  0  0  0
    5.7975    2.0164    3.0012 H   0  0  0  0  0  0  0  0  0  0  0  0
    4.9014   -1.5203   -2.2901 H   0  0  0  0  0  0  0  0  0  0  0  0
  1  8  1  0  0  0  0
  1  9  1  0  0  0  0
  2 10  2  0  0  0  0
  3 11  2  0  0  0  0
  4 14  1  0  0  0  0
  4 37  1  0  0  0  0
  5 20  2  0  0  0  0
  6 24  2  0  0  0  0
  7 26  1  0  0  0  0
  7 43  1  0  0  0  0
  8  9  1  0  0  0  0
  8 10  1  0  0  0  0
  8 30  1  0  0  0  0
  9 11  1  0  0  0  0
  9 31  1  0  0  0  0
 10 12  1  0  0  0  0
 11 13  1  0  0  0  0
 12 13  2  0  0  0  0
 12 14  1  0  0  0  0
 13 15  1  0  0  0  0
 14 16  2  0  0  0  0
 15 17  2  0  0  0  0
 15 32  1  0  0  0  0
 16 17  1  0  0  0  0
 16 18  1  0  0  0  0
 17 19  1  0  0  0  0
 18 20  1  0  0  0  0
 18 22  2  0  0  0  0
 19 33  1  0  0  0  0
 19 34  1  0  0  0  0
 19 35  1  0  0  0  0
 20 21  1  0  0  0  0
 21 23  2  0  0  0  0
 21 25  1  0  0  0  0
 22 24  1  0  0  0  0
 22 36  1  0  0  0  0
 23 24  1  0  0  0  0
 23 26  1  0  0  0  0
 25 27  2  0  0  0  0
 25 38  1  0  0  0  0
 26 28  2  0  0  0  0
 27 28  1  0  0  0  0
 27 29  1  0  0  0  0
 28 39  1  0  0  0  0
 29 40  1  0  0  0  0
 29 41  1  0  0  0  0
 29 42  1  0  0  0  0
M  END
> <PUBCHEM_COMPOUND_CID>
122720

> <PUBCHEM_CONFORMER_RMSD>
0.6

> <PUBCHEM_CONFORMER_DIVERSEORDER>
1
2

> <PUBCHEM_MMFF94_PARTIAL_CHARGES>
37
1 -0.3
10 0.48
11 0.48
12 0.09
13 0.09
14 0.08
15 -0.15
16 0.03
17 -0.14
18 -0.01
19 0.14
2 -0.57
20 0.47
21 0.09
22 -0.14
23 0.09
24 0.47
25 -0.15
26 0.08
27 -0.14
28 -0.15
29 0.14
3 -0.57
30 0.1
31 0.1
32 0.15
36 0.15
37 0.45
38 0.15
39 0.15
4 -0.53
43 0.45
5 -0.57
6 -0.57
7 -0.53
8 0.05
9 0.05

> <PUBCHEM_EFFECTIVE_ROTOR_COUNT>
1.2

> <PUBCHEM_PHARMACOPHORE_FEATURES>
11
1 1 acceptor
1 2 acceptor
1 3 acceptor
1 4 donor
1 5 acceptor
1 6 acceptor
1 7 donor
6 12 13 14 15 16 17 rings
6 18 20 21 22 23 24 rings
6 21 23 25 26 27 28 rings
7 1 8 9 10 11 12 13 rings

> <PUBCHEM_HEAVY_ATOM_COUNT>
29

> <PUBCHEM_ATOM_DEF_STEREO_COUNT>
0

> <PUBCHEM_ATOM_UDEF_STEREO_COUNT>
2

> <PUBCHEM_BOND_DEF_STEREO_COUNT>
0

> <PUBCHEM_BOND_UDEF_STEREO_COUNT>
0

> <PUBCHEM_ISOTOPIC_ATOM_COUNT>
0

> <PUBCHEM_COMPONENT_COUNT>
1

> <PUBCHEM_CACTVS_TAUTO_COUNT>
998

> <PUBCHEM_CONFORMER_ID>
0001DF6000000001

> <PUBCHEM_MMFF94_ENERGY>
133.2771

> <PUBCHEM_FEATURE_SELFOVERLAP>
55.85

> <PUBCHEM_SHAPE_FINGERPRINT>
10 15 18336819901197926440
10319926 262 18114173130263567514
11497681 19 17273400885386734775
12035758 1 18337394949488274993
12166972 35 15123505921543079490
12236239 1 16081090397951462546
12390115 104 18190180092785909621
12403259 415 18413394232635095058
12596602 18 15574721321649014057
12616971 3 15285358431293299059
12730499 353 18202567272045661678
12838862 33 17822839924188612613
13140716 1 17679034931271778339
13402501 40 18411978078754369688
13533116 47 18262233305783148578
13782708 43 18412548678160836806
13911987 19 17631741594402490016
14294032 229 17241325742960209741
14341114 328 16008750191023665857
14840074 17 16415481570751319960
15081414 286 17846217787072520320
15183329 4 15123790694997131329
1577012 14 16226051101873881935
17349148 13 15791734096302238165
173720 79 17022902341473181407
17844677 252 17703797976716392969
200 152 16487258754969357258
20554085 129 18113888343666520529
20612939 158 17203328905783648324
20645477 70 17775570819271211310
21033648 29 18410575093258307776
21033650 10 17460050486902830388
21792961 116 18342189830610579078
23557571 272 18261403238632638396
23559900 14 18261403191731428790
3004659 81 13182737082636639832
34797466 226 18262252109239082724
4098825 35 17489592213047709985
4340502 62 18260258643113243810
469060 322 17822874008595607433
5104073 3 18041839502687500891
70251023 43 17130159602606457878
9849439 229 17392460118647203189
9981440 41 17458347408185076563

> <PUBCHEM_SHAPE_MULTIPOLES>
555.72
15.24
1.96
1.82
0.28
0.07
0.14
-5.19
-0.79
-0.03
-0.18
1.16
0.27
3.89

> <PUBCHEM_SHAPE_SELFOVERLAP>
1264.62

> <PUBCHEM_SHAPE_VOLUME>
288.7

> <PUBCHEM_COORDINATE_TYPE>
2
5
10

$$$$
