REMARK  Name = 122790
REMARK  6 active torsions:
REMARK  status: ('A' for Active; 'I' for Inactive)
REMARK    1  A    between atoms: C_1  and  C_15
REMARK    2  A    between atoms: C_2  and  C_23
REMARK    3  A    between atoms: C_15  and  S_16
REMARK    4  A    between atoms: S_16  and  C_19
REMARK    5  A    between atoms: C_23  and  S_24
REMARK    6  A    between atoms: S_24  and  C_27
REMARK                            x       y       z     vdW  Elec       q    Type
REMARK                         _______ _______ _______ _____ _____    ______ ____
ROOT
ATOM      1  C   UNL     1      -1.394   0.000   0.471  0.00  0.00    -0.011 A 
ATOM      2  C   UNL     1       1.394  -0.001   0.470  0.00  0.00    -0.011 A 
ATOM      3  C   UNL     1      -0.706   1.225   0.471  0.00  0.00    -0.003 A 
ATOM      4  C   UNL     1       0.707   1.224   0.471  0.00  0.00    -0.003 A 
ATOM      5  C   UNL     1      -0.707  -1.225   0.470  0.00  0.00    -0.003 A 
ATOM      6  C   UNL     1       0.706  -1.226   0.470  0.00  0.00    -0.003 A 
ATOM      7  C   UNL     1      -1.392   2.450   0.471  0.00  0.00    -0.000 C 
ATOM      8  C   UNL     1       1.394   2.449   0.471  0.00  0.00    -0.000 C 
ATOM      9  C   UNL     1      -1.394  -2.450   0.470  0.00  0.00    -0.000 C 
ATOM     10  C   UNL     1       1.392  -2.452   0.470  0.00  0.00    -0.000 C 
ATOM     11  C   UNL     1      -0.694   3.658   0.471  0.00  0.00    -0.000 C 
ATOM     12  C   UNL     1       0.697   3.658   0.471  0.00  0.00    -0.000 C 
ATOM     13  C   UNL     1      -0.697  -3.659   0.470  0.00  0.00    -0.000 C 
ATOM     14  C   UNL     1       0.694  -3.659   0.470  0.00  0.00    -0.000 C 
ENDROOT
BRANCH   1  15
ATOM     15  C   UNL     1      -2.899   0.001   0.472  0.00  0.00    +0.091 C 
BRANCH  15  16
ATOM     16  S   UNL     1      -3.584   0.002  -1.207  0.00  0.00    -0.076 S 
BRANCH  16  19
ATOM     17  N   UNL     1      -6.097   0.001  -2.006  0.00  0.00    -0.338 N 
ATOM     18  N   UNL     1      -5.759   0.002   0.331  0.00  0.00    -0.280 NA
ATOM     19  C   UNL     1      -5.316   0.003  -0.885  0.00  0.00    +0.145 C 
ATOM     20  H   UNL     1      -5.679   0.002  -2.898  0.00  0.00    +0.144 HD
ATOM     21  H   UNL     1      -7.078  -0.001  -1.923  0.00  0.00    +0.144 HD
ATOM     22  H   UNL     1      -5.127   0.003   1.086  0.00  0.00    +0.189 HD
ENDBRANCH  16  19
ENDBRANCH  15  16
ENDBRANCH   1  15
BRANCH   2  23
ATOM     23  C   UNL     1       2.899  -0.001   0.472  0.00  0.00    +0.091 C 
BRANCH  23  24
ATOM     24  S   UNL     1       3.584   0.000  -1.207  0.00  0.00    -0.076 S 
BRANCH  24  27
ATOM     25  N   UNL     1       6.098   0.003  -2.006  0.00  0.00    -0.338 N 
ATOM     26  N   UNL     1       5.759  -0.001   0.331  0.00  0.00    -0.280 NA
ATOM     27  C   UNL     1       5.316   0.000  -0.885  0.00  0.00    +0.145 C 
ATOM     28  H   UNL     1       5.680   0.004  -2.898  0.00  0.00    +0.144 HD
ATOM     29  H   UNL     1       7.078   0.005  -1.922  0.00  0.00    +0.144 HD
ATOM     30  H   UNL     1       5.126  -0.004   1.086  0.00  0.00    +0.189 HD
ENDBRANCH  24  27
ENDBRANCH  23  24
ENDBRANCH   2  23
TORSDOF 6
