REMARK  Name = 122707128
REMARK  9 active torsions:
REMARK  status: ('A' for Active; 'I' for Inactive)
REMARK    1  A    between atoms: N_1  and  C_34
REMARK    2  A    between atoms: C_14  and  O_17
REMARK    3  A    between atoms: O_17  and  C_19
REMARK    4  A    between atoms: C_20  and  O_24
REMARK    5  A    between atoms: C_21  and  O_26
REMARK    6  A    between atoms: C_22  and  O_28
REMARK    7  A    between atoms: C_23  and  C_31
REMARK    8  A    between atoms: C_31  and  O_32
REMARK    9  A    between atoms: C_34  and  C_35
REMARK                            x       y       z     vdW  Elec       q    Type
REMARK                         _______ _______ _______ _____ _____    ______ ____
ROOT
ATOM      1  N   UNL     1      -4.070   0.641  -1.028  0.00  0.00    +0.391 N 
ATOM      2  C   UNL     1      -1.558   1.608   0.139  0.00  0.00    +0.015 C 
ATOM      3  C   UNL     1      -2.936   1.730   0.859  0.00  0.00    -0.015 C 
ATOM      4  C   UNL     1      -3.814   0.535   0.425  0.00  0.00    -0.053 C 
ATOM      5  C   UNL     1      -1.835   1.658  -1.390  0.00  0.00    -0.019 C 
ATOM      6  C   UNL     1      -0.889   0.261   0.456  0.00  0.00    -0.024 C 
ATOM      7  C   UNL     1      -3.182  -0.790   0.903  0.00  0.00    +0.005 C 
ATOM      8  C   UNL     1      -2.863   0.619  -1.855  0.00  0.00    -0.076 C 
ATOM      9  C   UNL     1      -1.676  -0.865   0.789  0.00  0.00    -0.028 C 
ATOM     10  C   UNL     1      -0.673   2.818   0.510  0.00  0.00    +0.004 C 
ATOM     11  C   UNL     1      -2.846   1.859   2.388  0.00  0.00    -0.002 C 
ATOM     12  C   UNL     1       0.505   0.095   0.363  0.00  0.00    +0.032 C 
ATOM     13  C   UNL     1      -1.057  -2.098   1.056  0.00  0.00    -0.002 C 
ATOM     14  C   UNL     1       1.106  -1.138   0.624  0.00  0.00    +0.141 C 
ATOM     15  C   UNL     1       0.326  -2.233   0.975  0.00  0.00    +0.037 C 
ATOM     16  H   UNL     1      -4.469   1.574  -1.134  0.00  0.00    -0.079 HD
ENDROOT
BRANCH  14  17
ATOM     17  O   UNL     1       2.458  -1.268   0.531  0.00  0.00    -0.451 OA
BRANCH  17  19
ATOM     18  O   UNL     1       3.388   0.394  -0.875  0.00  0.00    -0.307 OA
ATOM     19  C   UNL     1       3.050  -0.986  -0.736  0.00  0.00    +0.318 C 
ATOM     20  C   UNL     1       4.296  -1.849  -0.941  0.00  0.00    +0.210 C 
ATOM     21  C   UNL     1       5.397  -1.463   0.046  0.00  0.00    +0.173 C 
ATOM     22  C   UNL     1       5.653   0.045  -0.004  0.00  0.00    +0.178 C 
ATOM     23  C   UNL     1       4.349   0.834   0.082  0.00  0.00    +0.246 C 
BRANCH  20  24
ATOM     24  O   UNL     1       3.943  -3.218  -0.783  0.00  0.00    -0.377 OA
ATOM     25  H   UNL     1       3.244  -3.447  -1.415  0.00  0.00    +0.211 HD
ENDBRANCH  20  24
BRANCH  21  26
ATOM     26  O   UNL     1       6.611  -2.127  -0.308  0.00  0.00    -0.379 OA
ATOM     27  H   UNL     1       6.474  -3.087  -0.283  0.00  0.00    +0.211 HD
ENDBRANCH  21  26
BRANCH  22  28
ATOM     28  O   UNL     1       6.482   0.415   1.096  0.00  0.00    -0.379 OA
ATOM     29  H   UNL     1       7.316  -0.079   1.053  0.00  0.00    +0.211 HD
ENDBRANCH  22  28
BRANCH  23  31
ATOM     30  O   UNL     1       4.057   2.823  -1.253  0.00  0.00    -0.247 OA
ATOM     31  C   UNL     1       4.569   2.263  -0.295  0.00  0.00    +0.344 C 
BRANCH  31  32
ATOM     32  O   UNL     1       5.420   2.862   0.574  0.00  0.00    -0.478 OA
ATOM     33  H   UNL     1       5.778   2.375   1.290  0.00  0.00    +0.295 HD
ENDBRANCH  31  32
ENDBRANCH  23  31
ENDBRANCH  17  19
ENDBRANCH  14  17
BRANCH   1  34
ATOM     34  C   UNL     1      -5.065  -0.310  -1.514  0.00  0.00    -0.051 C 
BRANCH  34  35
ATOM     35  C   UNL     1      -6.437   0.028  -1.010  0.00  0.00    -0.058 C 
ATOM     36  C   UNL     1      -7.256  -0.724  -0.249  0.00  0.00    -0.050 C 
ATOM     37  C   UNL     1      -8.625  -0.323   0.223  0.00  0.00    +0.026 C 
ATOM     38  C   UNL     1      -6.827  -2.096   0.201  0.00  0.00    +0.026 C 
ENDBRANCH  34  35
ENDBRANCH   1  34
TORSDOF 9
