REMARK  Name = 122706486
REMARK  7 active torsions:
REMARK  status: ('A' for Active; 'I' for Inactive)
REMARK    1  A    between atoms: O_1  and  C_3
REMARK    2  A    between atoms: O_1  and  C_17
REMARK    3  A    between atoms: C_6  and  C_10
REMARK    4  A    between atoms: C_10  and  O_11
REMARK    5  A    between atoms: C_14  and  O_19
REMARK    6  A    between atoms: C_15  and  O_21
REMARK    7  A    between atoms: C_16  and  O_23
REMARK                            x       y       z     vdW  Elec       q    Type
REMARK                         _______ _______ _______ _____ _____    ______ ____
ROOT
ATOM      1  O   UNL     1      -0.701  -0.709  -0.448  0.00  0.00    -0.451 OA
ENDROOT
BRANCH   1   3
ATOM      2  O   UNL     1       4.717  -1.101  -0.129  0.00  0.00    -0.286 OA
ATOM      3  C   UNL     1       0.662  -0.801  -0.366  0.00  0.00    +0.142 C 
ATOM      4  C   UNL     1       1.426   0.342  -0.128  0.00  0.00    +0.047 C 
ATOM      5  C   UNL     1       1.287  -2.038  -0.522  0.00  0.00    +0.040 C 
ATOM      6  C   UNL     1       2.815   0.247  -0.045  0.00  0.00    +0.117 C 
ATOM      7  C   UNL     1       2.677  -2.132  -0.439  0.00  0.00    +0.045 C 
ATOM      8  C   UNL     1       3.440  -0.990  -0.201  0.00  0.00    +0.202 C 
BRANCH   6  10
ATOM      9  O   UNL     1       4.408   1.963  -0.538  0.00  0.00    -0.245 OA
ATOM     10  C   UNL     1       3.556   1.483   0.209  0.00  0.00    +0.341 C 
BRANCH  10  11
ATOM     11  O   UNL     1       3.199   2.062   1.384  0.00  0.00    -0.477 OA
ATOM     12  H   UNL     1       2.545   1.663   1.924  0.00  0.00    +0.295 HD
ENDBRANCH  10  11
ENDBRANCH   6  10
ENDBRANCH   1   3
BRANCH   1  17
ATOM     13  O   UNL     1      -1.445   1.215   0.720  0.00  0.00    -0.316 OA
ATOM     14  C   UNL     1      -3.754  -0.284  -0.174  0.00  0.00    +0.173 C 
ATOM     15  C   UNL     1      -2.774  -0.818   0.871  0.00  0.00    +0.210 C 
ATOM     16  C   UNL     1      -3.698   1.243  -0.220  0.00  0.00    +0.169 C 
ATOM     17  C   UNL     1      -1.378  -0.214   0.706  0.00  0.00    +0.318 C 
ATOM     18  C   UNL     1      -2.261   1.740  -0.324  0.00  0.00    +0.178 C 
BRANCH  14  19
ATOM     19  O   UNL     1      -5.069  -0.700   0.201  0.00  0.00    -0.379 OA
ATOM     20  H   UNL     1      -5.106  -1.668   0.230  0.00  0.00    +0.211 HD
ENDBRANCH  14  19
BRANCH  15  21
ATOM     21  O   UNL     1      -2.686  -2.236   0.788  0.00  0.00    -0.377 OA
ATOM     22  H   UNL     1      -3.570  -2.622   0.893  0.00  0.00    +0.211 HD
ENDBRANCH  15  21
BRANCH  16  23
ATOM     23  O   UNL     1      -4.421   1.728  -1.345  0.00  0.00    -0.379 OA
ATOM     24  H   UNL     1      -5.340   1.422  -1.296  0.00  0.00    +0.211 HD
ENDBRANCH  16  23
ENDBRANCH   1  17
TORSDOF 7
