REMARK  Name = 122797
REMARK  5 active torsions:
REMARK  status: ('A' for Active; 'I' for Inactive)
REMARK    1  A    between atoms: C_7  and  C_18
REMARK    2  A    between atoms: C_8  and  O_30
REMARK    3  A    between atoms: C_21  and  O_24
REMARK    4  A    between atoms: C_22  and  O_26
REMARK    5  A    between atoms: C_23  and  O_28
REMARK                            x       y       z     vdW  Elec       q    Type
REMARK                         _______ _______ _______ _____ _____    ______ ____
ROOT
ATOM      1  O   UNL     1      -1.603   3.639   0.463  0.00  0.00    -0.448 OA
ATOM      2  O   UNL     1      -2.352   2.605  -1.453  0.00  0.00    -0.250 OA
ATOM      3  O   UNL     1       3.883  -2.470  -1.424  0.00  0.00    -0.435 OA
ATOM      4  O   UNL     1       5.140  -1.412   0.338  0.00  0.00    -0.435 OA
ATOM      5  C   UNL     1       0.241   2.301   0.886  0.00  0.00    +0.086 C 
ATOM      6  C   UNL     1      -0.115   2.163  -0.584  0.00  0.00    +0.113 C 
ATOM      7  C   UNL     1       0.096   0.725  -1.080  0.00  0.00    +0.055 C 
ATOM      8  C   UNL     1       1.735   2.097   1.100  0.00  0.00    +0.137 C 
ATOM      9  C   UNL     1       1.479   0.216  -0.650  0.00  0.00    -0.016 C 
ATOM     10  C   UNL     1      -0.370   3.644   1.208  0.00  0.00    +0.212 C 
ATOM     11  C   UNL     1       2.226   0.844   0.394  0.00  0.00    +0.004 C 
ATOM     12  C   UNL     1      -1.489   2.784  -0.609  0.00  0.00    +0.317 C 
ATOM     13  C   UNL     1       2.006  -0.916  -1.302  0.00  0.00    +0.036 C 
ATOM     14  C   UNL     1       3.480   0.325   0.765  0.00  0.00    +0.038 C 
ATOM     15  C   UNL     1       3.237  -1.391  -0.902  0.00  0.00    +0.176 C 
ATOM     16  C   UNL     1       3.953  -0.789   0.103  0.00  0.00    +0.176 C 
ATOM     17  C   UNL     1       5.088  -2.479  -0.631  0.00  0.00    +0.429 C 
ENDROOT
BRANCH   7  18
ATOM     18  C   UNL     1      -0.978  -0.199  -0.586  0.00  0.00    -0.012 C 
ATOM     19  C   UNL     1      -2.145  -0.356  -1.325  0.00  0.00    +0.036 C 
ATOM     20  C   UNL     1      -0.796  -0.890   0.607  0.00  0.00    +0.036 C 
ATOM     21  C   UNL     1      -1.795  -1.749   1.067  0.00  0.00    +0.175 C 
ATOM     22  C   UNL     1      -3.143  -1.214  -0.866  0.00  0.00    +0.175 C 
ATOM     23  C   UNL     1      -2.969  -1.911   0.330  0.00  0.00    +0.202 C 
BRANCH  21  24
ATOM     24  O   UNL     1      -1.612  -2.423   2.237  0.00  0.00    -0.468 OA
ATOM     25  C   UNL     1      -2.058  -1.782   3.430  0.00  0.00    +0.253 C 
ENDBRANCH  21  24
BRANCH  22  26
ATOM     26  O   UNL     1      -4.284  -1.365  -1.595  0.00  0.00    -0.468 OA
ATOM     27  C   UNL     1      -5.361  -0.476  -1.304  0.00  0.00    +0.253 C 
ENDBRANCH  22  26
BRANCH  23  28
ATOM     28  O   UNL     1      -3.944  -2.752   0.778  0.00  0.00    -0.501 OA
ATOM     29  H   UNL     1      -3.827  -3.220   1.581  0.00  0.00    +0.292 HD
ENDBRANCH  23  28
ENDBRANCH   7  18
BRANCH   8  30
ATOM     30  O   UNL     1       2.451   3.228   0.605  0.00  0.00    -0.380 OA
ATOM     31  H   UNL     1       2.140   4.030   1.054  0.00  0.00    +0.211 HD
ENDBRANCH   8  30
TORSDOF 5
