REMARK  Name = 122706239
REMARK  5 active torsions:
REMARK  status: ('A' for Active; 'I' for Inactive)
REMARK    1  A    between atoms: C_2  and  N_18
REMARK    2  A    between atoms: C_3  and  O_22
REMARK    3  A    between atoms: C_4  and  C_24
REMARK    4  A    between atoms: C_5  and  N_6
REMARK    5  A    between atoms: C_24  and  O_25
REMARK                            x       y       z     vdW  Elec       q    Type
REMARK                         _______ _______ _______ _____ _____    ______ ____
ROOT
ATOM      1  O   UNL     1       2.052  -0.496  -0.993  0.00  0.00    -0.338 OA
ATOM      2  C   UNL     1       3.198   0.981   0.477  0.00  0.00    -0.004 C 
ATOM      3  C   UNL     1       1.722   0.996   0.821  0.00  0.00    +0.140 C 
ATOM      4  C   UNL     1       3.331  -0.287  -0.356  0.00  0.00    +0.129 C 
ATOM      5  C   UNL     1       1.083   0.417  -0.437  0.00  0.00    +0.220 C 
ENDROOT
BRANCH   5   6
ATOM      6  N   UNL     1      -0.235  -0.271  -0.163  0.00  0.00    -0.247 N 
ATOM      7  N   UNL     1      -1.668  -1.894   0.367  0.00  0.00    -0.242 NA
ATOM      8  N   UNL     1      -1.793   1.554  -0.542  0.00  0.00    -0.228 NA
ATOM      9  N   UNL     1      -4.100   0.836  -0.192  0.00  0.00    -0.229 NA
ATOM     10  C   UNL     1      -1.480   0.288  -0.227  0.00  0.00    +0.152 C 
ATOM     11  C   UNL     1      -0.400  -1.582   0.197  0.00  0.00    +0.223 C 
ATOM     12  C   UNL     1      -2.354  -0.735   0.105  0.00  0.00    +0.140 C 
ATOM     13  C   UNL     1      -3.710  -0.424   0.116  0.00  0.00    +0.143 C 
ATOM     14  C   UNL     1      -3.131   1.734  -0.498  0.00  0.00    +0.253 C 
ATOM     15  N   UNL     1      -4.668  -1.400   0.442  0.00  0.00    -0.342 N 
ATOM     16  H   UNL     1      -5.624  -1.169   0.447  0.00  0.00    +0.144 HD
ATOM     17  H   UNL     1      -4.381  -2.315   0.667  0.00  0.00    +0.144 HD
ENDBRANCH   5   6
BRANCH   2  18
ATOM     18  N   UNL     1       3.541   2.152  -0.384  0.00  0.00    +0.385 N 
ATOM     19  H   UNL     1       3.457   3.010   0.161  0.00  0.00    -0.089 HD
ATOM     20  H   UNL     1       2.903   2.189  -1.178  0.00  0.00    -0.089 HD
ATOM     21  H   UNL     1       4.499   2.056  -0.722  0.00  0.00    -0.089 HD
ENDBRANCH   2  18
BRANCH   3  22
ATOM     22  O   UNL     1       1.228   2.285   1.127  0.00  0.00    -0.382 OA
ATOM     23  H   UNL     1       1.660   2.614   1.931  0.00  0.00    +0.210 HD
ENDBRANCH   3  22
BRANCH   4  24
ATOM     24  C   UNL     1       3.644  -1.512   0.495  0.00  0.00    +0.165 C 
BRANCH  24  25
ATOM     25  O   UNL     1       3.739  -2.640  -0.356  0.00  0.00    -0.380 OA
ATOM     26  H   UNL     1       3.938  -3.429   0.173  0.00  0.00    +0.211 HD
ENDBRANCH  24  25
ENDBRANCH   4  24
TORSDOF 5
