REMARK  Name = 122706012
REMARK  12 active torsions:
REMARK  status: ('A' for Active; 'I' for Inactive)
REMARK    1  A    between atoms: N_1  and  C_6
REMARK    2  A    between atoms: N_1  and  C_25
REMARK    3  A    between atoms: C_2  and  O_8
REMARK    4  A    between atoms: C_2  and  C_22
REMARK    5  A    between atoms: C_5  and  N_12
REMARK    6  A    between atoms: C_7  and  O_10
REMARK    7  A    between atoms: N_12  and  CA_14
REMARK    8  A    between atoms: CA_14  and  C_17
REMARK    9  A    between atoms: CA_14  and  CB_18
REMARK   10  A    between atoms: CB_18  and  OG1_20
REMARK   11  A    between atoms: C_22  and  O_23
REMARK   12  A    between atoms: C_25  and  C_28
REMARK                            x       y       z     vdW  Elec       q    Type
REMARK                         _______ _______ _______ _____ _____    ______ ____
ROOT
ATOM      1  C   UNK A   0      -0.687  -2.153   0.021  0.00  0.00    +0.122 C 
ATOM      2  C   UNK A   0       0.667  -1.456  -0.167  0.00  0.00    +0.053 C 
ATOM      3  C   UNK A   0      -1.817  -1.334  -0.599  0.00  0.00    +0.075 C 
ATOM      4  C   UNK A   0       0.653   0.016   0.191  0.00  0.00    +0.115 C 
ATOM      5  C   UNK A   0      -1.788   0.107  -0.129  0.00  0.00    +0.077 C 
ATOM      6  C   UNK A   0      -0.486   0.731   0.231  0.00  0.00    +0.141 C 
ENDROOT
BRANCH   1   7
ATOM      7  O   UNK A   0      -0.958  -2.295   1.420  0.00  0.00    -0.384 OA
ATOM      8  H   UNK A   0      -0.984  -1.419   1.835  0.00  0.00    +0.210 HD
ENDBRANCH   1   7
BRANCH   6   9
ATOM      9  O   UNK A   0      -0.481   2.067   0.582  0.00  0.00    -0.473 OA
ATOM     10  C   UNK A   0      -0.644   2.219   1.978  0.00  0.00    +0.252 C 
ENDBRANCH   6   9
BRANCH   4  11
ATOM     11  N   THR A   1       1.881   0.553   0.479  0.00  0.00    -0.283 NA
ATOM     12  H   THR A   1       1.930   1.280   1.142  0.00  0.00    +0.124 HD
BRANCH  11  13
ATOM     13  CA  THR A   1       3.099   0.108  -0.139  0.00  0.00    +0.186 C 
BRANCH  13  16
ATOM     14  O   THR A   1       3.837   0.534   2.088  0.00  0.00    -0.244 OA
ATOM     15  OXT THR A   1       5.349   0.613   0.381  0.00  0.00    -0.244 OA
ATOM     16  C   THR A   1       4.198   0.446   0.881  0.00  0.00    +0.381 C 
ENDBRANCH  13  16
BRANCH  13  17
ATOM     17  CB  THR A   1       3.256   0.713  -1.538  0.00  0.00    +0.136 C 
ATOM     18  CG2 THR A   1       3.305   2.237  -1.508  0.00  0.00    +0.034 C 
BRANCH  17  19
ATOM     19  OG1 THR A   1       4.449   0.228  -2.153  0.00  0.00    -0.383 OA
ATOM     20  HG1 THR A   1       4.430  -0.741  -2.178  0.00  0.00    +0.210 HD
ENDBRANCH  17  19
ENDBRANCH  13  17
ENDBRANCH  11  13
ENDBRANCH   4  11
BRANCH   5  21
ATOM     21  N   UNK A   0      -2.887   0.793  -0.082  0.00  0.00    -0.227 NA
BRANCH  21  22
ATOM     22  C   UNK A   0      -4.074   0.045  -0.462  0.00  0.00    +0.225 C 
BRANCH  22  25
ATOM     23  O   UNK A   0      -5.172   2.036  -1.071  0.00  0.00    -0.244 OA
ATOM     24  O   UNK A   0      -6.155   0.647   0.458  0.00  0.00    -0.244 OA
ATOM     25  C   UNK A   0      -5.248   1.005  -0.345  0.00  0.00    +0.386 C 
ENDBRANCH  22  25
ENDBRANCH  21  22
ENDBRANCH   5  21
BRANCH   1  26
ATOM     26  C   UNK A   0      -0.656  -3.559  -0.583  0.00  0.00    +0.164 C 
BRANCH  26  27
ATOM     27  O   UNK A   0       0.359  -4.300   0.065  0.00  0.00    -0.380 OA
ATOM     28  H   UNK A   0       0.393  -5.196  -0.306  0.00  0.00    +0.211 HD
ENDBRANCH  26  27
ENDBRANCH   1  26
TORSDOF 12
