REMARK  Name = 122739
REMARK  5 active torsions:
REMARK  status: ('A' for Active; 'I' for Inactive)
REMARK    1  A    between atoms: C_7  and  C_25
REMARK    2  A    between atoms: C_8  and  O_22
REMARK    3  A    between atoms: C_11  and  C_26
REMARK    4  A    between atoms: C_26  and  O_27
REMARK    5  A    between atoms: O_27  and  C_29
REMARK                            x       y       z     vdW  Elec       q    Type
REMARK                         _______ _______ _______ _____ _____    ______ ____
ROOT
ATOM      1  O   UNL     1      -0.426   0.526  -2.317  0.00  0.00    -0.448 OA
ATOM      2  O   UNL     1      -1.248  -2.612   0.303  0.00  0.00    -0.291 OA
ATOM      3  O   UNL     1      -0.977  -1.644  -2.510  0.00  0.00    -0.250 OA
ATOM      4  C   UNL     1      -0.171   1.405  -0.024  0.00  0.00    +0.051 C 
ATOM      5  C   UNL     1      -1.463   0.607   0.435  0.00  0.00    +0.048 C 
ATOM      6  C   UNL     1      -1.913  -0.446  -0.640  0.00  0.00    +0.147 C 
ATOM      7  C   UNL     1       1.139   0.519   0.177  0.00  0.00    +0.072 C 
ATOM      8  C   UNL     1      -2.674   1.458   0.947  0.00  0.00    +0.112 C 
ATOM      9  C   UNL     1      -3.386  -0.255  -1.079  0.00  0.00    +0.023 C 
ATOM     10  C   UNL     1       0.008   2.729   0.766  0.00  0.00    +0.004 C 
ATOM     11  C   UNL     1       2.520   1.244  -0.015  0.00  0.00    +0.048 C 
ATOM     12  C   UNL     1      -4.162  -0.528   0.210  0.00  0.00    +0.029 C 
ATOM     13  C   UNL     1      -0.434   1.716  -1.514  0.00  0.00    +0.209 C 
ATOM     14  C   UNL     1      -3.932   0.605   1.230  0.00  0.00    +0.034 C 
ATOM     15  C   UNL     1      -2.098  -1.756   0.121  0.00  0.00    +0.178 C 
ATOM     16  C   UNL     1       1.323   3.457   0.489  0.00  0.00    +0.000 C 
ATOM     17  C   UNL     1       2.542   2.583   0.753  0.00  0.00    +0.004 C 
ATOM     18  C   UNL     1      -1.059  -0.590  -1.885  0.00  0.00    +0.323 C 
ATOM     19  C   UNL     1      -3.490  -1.802   0.657  0.00  0.00    +0.013 C 
ATOM     20  C   UNL     1       2.843   1.480  -1.508  0.00  0.00    +0.004 C 
ATOM     21  C   UNL     1      -3.997  -2.831   1.335  0.00  0.00    -0.002 C 
ENDROOT
BRANCH   8  22
ATOM     22  O   UNL     1      -3.023   2.485   0.023  0.00  0.00    -0.384 OA
ATOM     23  H   UNL     1      -2.243   3.030  -0.166  0.00  0.00    +0.210 HD
ENDBRANCH   8  22
BRANCH   7  25
ATOM     24  O   UNL     1       1.096  -1.319   1.744  0.00  0.00    -0.288 OA
ATOM     25  C   UNL     1       1.123  -0.108   1.553  0.00  0.00    +0.207 C 
ENDBRANCH   7  25
BRANCH  11  26
ATOM     26  C   UNL     1       3.686   0.363   0.512  0.00  0.00    +0.209 C 
BRANCH  26  27
ATOM     27  O   UNL     1       3.645  -0.856  -0.190  0.00  0.00    -0.448 OA
BRANCH  27  29
ATOM     28  O   UNL     1       5.483  -1.629   0.977  0.00  0.00    -0.250 OA
ATOM     29  C   UNL     1       4.607  -1.781   0.137  0.00  0.00    +0.318 C 
ATOM     30  C   UNL     1       4.440  -3.023  -0.686  0.00  0.00    +0.121 C 
ENDBRANCH  27  29
ENDBRANCH  26  27
ENDBRANCH  11  26
TORSDOF 5
