122762
  -OEChem-03292013323D

 55 56  0     1  0  0  0  0  0999 V2000
    3.0456   -2.3536   -0.0526 P   0  0  1  0  0  0  0  0  0  0  0  0
    2.6600   -0.1189   -1.9554 P   0  0  1  0  0  0  0  0  0  0  0  0
   -0.2392   -1.2080    0.9103 O   0  0  0  0  0  0  0  0  0  0  0  0
    2.0412   -2.8693    1.1054 O   0  0  0  0  0  0  0  0  0  0  0  0
    1.5490    1.0651   -1.7572 O   0  0  0  0  0  0  0  0  0  0  0  0
    2.3635   -0.9975   -0.6111 O   0  0  0  0  0  0  0  0  0  0  0  0
   -3.0316    1.7069    0.1927 O   0  0  0  0  0  0  0  0  0  0  0  0
    4.3412   -1.8115    0.7506 O   0  0  0  0  0  0  0  0  0  0  0  0
    3.3569   -3.3713   -1.1115 O   0  0  0  0  0  0  0  0  0  0  0  0
    2.2950   -0.9533   -3.1642 O   0  5  0  0  0  0  0  0  0  0  0  0
    4.0361    0.4986   -1.8330 O   0  0  0  0  0  0  0  0  0  0  0  0
    0.7267    3.9431    0.4082 N   0  3  0  0  0  0  0  0  0  0  0  0
   -2.3947   -0.5078    0.3174 N   0  0  0  0  0  0  0  0  0  0  0  0
   -4.2865    0.2309   -0.9899 N   0  0  0  0  0  0  0  0  0  0  0  0
   -5.5693   -1.2868   -2.1977 N   0  0  0  0  0  0  0  0  0  0  0  0
    0.1665   -1.8172    2.1474 C   0  0  2  0  0  0  0  0  0  0  0  0
   -0.3459   -0.9066    3.2493 C   0  0  0  0  0  0  0  0  0  0  0  0
   -1.6473   -0.4247    2.6576 C   0  0  0  0  0  0  0  0  0  0  0  0
   -1.2853   -0.2652    1.1917 C   0  0  1  0  0  0  0  0  0  0  0  0
    1.6718   -1.9974    2.1623 C   0  0  0  0  0  0  0  0  0  0  0  0
    0.5507    2.9721   -0.7012 C   0  0  0  0  0  0  0  0  0  0  0  0
   -0.3951    4.9904    0.3984 C   0  0  0  0  0  0  0  0  0  0  0  0
    2.0677    4.6783    0.2805 C   0  0  0  0  0  0  0  0  0  0  0  0
    0.7010    3.2287    1.7664 C   0  0  0  0  0  0  0  0  0  0  0  0
    1.6915    1.9740   -0.6781 C   0  0  0  0  0  0  0  0  0  0  0  0
   -2.6555   -1.8097   -0.0857 C   0  0  0  0  0  0  0  0  0  0  0  0
   -3.2328    0.5394   -0.1465 C   0  0  0  0  0  0  0  0  0  0  0  0
   -3.6642   -2.1271   -0.8950 C   0  0  0  0  0  0  0  0  0  0  0  0
   -4.5167   -1.0017   -1.3592 C   0  0  0  0  0  0  0  0  0  0  0  0
   -0.3283   -2.7953    2.1914 H   0  0  0  0  0  0  0  0  0  0  0  0
   -0.4680   -1.4224    4.2056 H   0  0  0  0  0  0  0  0  0  0  0  0
    0.3267   -0.0534    3.4002 H   0  0  0  0  0  0  0  0  0  0  0  0
   -2.0110    0.5048    3.1053 H   0  0  0  0  0  0  0  0  0  0  0  0
   -2.4228   -1.1873    2.8023 H   0  0  0  0  0  0  0  0  0  0  0  0
   -0.8798    0.7305    1.0029 H   0  0  0  0  0  0  0  0  0  0  0  0
    2.0003   -2.4467    3.1045 H   0  0  0  0  0  0  0  0  0  0  0  0
    2.1764   -1.0318    2.0481 H   0  0  0  0  0  0  0  0  0  0  0  0
   -0.4185    2.4732   -0.5910 H   0  0  0  0  0  0  0  0  0  0  0  0
    0.5303    3.5206   -1.6510 H   0  0  0  0  0  0  0  0  0  0  0  0
   -0.3527    5.5243   -0.5554 H   0  0  0  0  0  0  0  0  0  0  0  0
   -1.3495    4.4664    0.5041 H   0  0  0  0  0  0  0  0  0  0  0  0
   -0.2409    5.6802    1.2333 H   0  0  0  0  0  0  0  0  0  0  0  0
    2.1662    5.0449   -0.7453 H   0  0  0  0  0  0  0  0  0  0  0  0
    2.0607    5.5202    0.9806 H   0  0  0  0  0  0  0  0  0  0  0  0
    2.8881    4.0088    0.5502 H   0  0  0  0  0  0  0  0  0  0  0  0
   -0.2258    2.6567    1.8389 H   0  0  0  0  0  0  0  0  0  0  0  0
    1.5824    2.5949    1.8804 H   0  0  0  0  0  0  0  0  0  0  0  0
    0.7199    3.9960    2.5476 H   0  0  0  0  0  0  0  0  0  0  0  0
    2.6641    2.4536   -0.8023 H   0  0  0  0  0  0  0  0  0  0  0  0
    1.7030    1.3777    0.2363 H   0  0  0  0  0  0  0  0  0  0  0  0
   -2.0188   -2.5992    0.2956 H   0  0  0  0  0  0  0  0  0  0  0  0
   -3.8775   -3.1413   -1.2050 H   0  0  0  0  0  0  0  0  0  0  0  0
    5.1434   -1.5634    0.2436 H   0  0  0  0  0  0  0  0  0  0  0  0
   -6.1770   -0.5500   -2.5393 H   0  0  0  0  0  0  0  0  0  0  0  0
   -5.7735   -2.2329   -2.5025 H   0  0  0  0  0  0  0  0  0  0  0  0
  1  4  1  0  0  0  0
  1  6  1  0  0  0  0
  1  8  1  0  0  0  0
  1  9  2  0  0  0  0
  2  5  1  0  0  0  0
  2  6  1  0  0  0  0
  2 10  1  0  0  0  0
  2 11  2  0  0  0  0
  3 16  1  0  0  0  0
  3 19  1  0  0  0  0
  4 20  1  0  0  0  0
  5 25  1  0  0  0  0
  7 27  2  0  0  0  0
  8 53  1  0  0  0  0
 12 21  1  0  0  0  0
 12 22  1  0  0  0  0
 12 23  1  0  0  0  0
 12 24  1  0  0  0  0
 13 19  1  0  0  0  0
 13 26  1  0  0  0  0
 13 27  1  0  0  0  0
 14 27  1  0  0  0  0
 14 29  2  0  0  0  0
 15 29  1  0  0  0  0
 15 54  1  0  0  0  0
 15 55  1  0  0  0  0
 16 17  1  0  0  0  0
 16 20  1  0  0  0  0
 16 30  1  0  0  0  0
 17 18  1  0  0  0  0
 17 31  1  0  0  0  0
 17 32  1  0  0  0  0
 18 19  1  0  0  0  0
 18 33  1  0  0  0  0
 18 34  1  0  0  0  0
 19 35  1  0  0  0  0
 20 36  1  0  0  0  0
 20 37  1  0  0  0  0
 21 25  1  0  0  0  0
 21 38  1  0  0  0  0
 21 39  1  0  0  0  0
 22 40  1  0  0  0  0
 22 41  1  0  0  0  0
 22 42  1  0  0  0  0
 23 43  1  0  0  0  0
 23 44  1  0  0  0  0
 23 45  1  0  0  0  0
 24 46  1  0  0  0  0
 24 47  1  0  0  0  0
 24 48  1  0  0  0  0
 25 49  1  0  0  0  0
 25 50  1  0  0  0  0
 26 28  2  0  0  0  0
 26 51  1  0  0  0  0
 28 29  1  0  0  0  0
 28 52  1  0  0  0  0
M  CHG  2  10  -1  12   1
M  END
> <PUBCHEM_COMPOUND_CID>
122762

> <PUBCHEM_CONFORMER_RMSD>
1.6

> <PUBCHEM_CONFORMER_DIVERSEORDER>
1
43
60
5
54
24
52
21
18
55
44
33
58
36
2
26
66
35
47
20
9
65
31
27
38
34
32
56
57
4
22
25
64
30
61
12
10
40
13
49
15
23
59
51
19
50
7
63
46
17
11
45
41
62
29
16
28
6
39
3
37
48
53
42
8
14

> <PUBCHEM_MMFF94_PARTIAL_CHARGES>
32
1 1.51
10 -0.95
11 -0.95
12 -1.01
13 -0.47
14 -0.66
15 -0.85
16 0.28
19 0.58
2 1.44
20 0.28
21 0.5
22 0.5
23 0.5
24 0.5
25 0.28
26 -0.04
27 0.84
28 -0.14
29 0.49
3 -0.56
4 -0.55
5 -0.55
51 0.15
52 0.15
53 0.5
54 0.4
55 0.4
6 -0.54
7 -0.57
8 -0.77
9 -0.7

> <PUBCHEM_EFFECTIVE_ROTOR_COUNT>
11

> <PUBCHEM_PHARMACOPHORE_FEATURES>
11
1 10 acceptor
1 11 acceptor
1 12 cation
1 14 donor
1 15 donor
1 3 acceptor
1 7 acceptor
1 8 acceptor
1 9 acceptor
5 3 16 17 18 19 rings
6 13 14 26 27 28 29 rings

> <PUBCHEM_HEAVY_ATOM_COUNT>
29

> <PUBCHEM_ATOM_DEF_STEREO_COUNT>
0

> <PUBCHEM_ATOM_UDEF_STEREO_COUNT>
2

> <PUBCHEM_BOND_DEF_STEREO_COUNT>
0

> <PUBCHEM_BOND_UDEF_STEREO_COUNT>
0

> <PUBCHEM_ISOTOPIC_ATOM_COUNT>
0

> <PUBCHEM_COMPONENT_COUNT>
1

> <PUBCHEM_CACTVS_TAUTO_COUNT>
3

> <PUBCHEM_CONFORMER_ID>
0001DF8A00000001

> <PUBCHEM_MMFF94_ENERGY>
51.0623

> <PUBCHEM_FEATURE_SELFOVERLAP>
55.889

> <PUBCHEM_SHAPE_FINGERPRINT>
11578080 2 16984631473332022242
12156800 1 13340299151959892448
12539773 59 17756156587397681485
12788726 201 17978816531107676116
133893 2 17913230898644017584
13773456 73 16082195455173237379
14068700 675 18262227804230443042
14114206 34 17831064295947822052
14114207 22 17462807121794808504
14955137 171 18193846951252942009
15297060 5 16830919639957652625
20600515 1 17560515076098183577
21860390 5 18194095607735768648
23419403 2 16812299711357138176
23559900 14 18196627753530403911
238 59 17980210999423944492
35225 105 17333686806857529648
445580 2 9074678998184840971
581034 39 17119159929321203217
6438718 38 17471034483573570946

> <PUBCHEM_SHAPE_MULTIPOLES>
531.76
7.58
5.56
2.87
7.93
7.41
-0.64
-3.96
6.03
-5.7
-1.33
-0.27
-1.48
-0.17

> <PUBCHEM_SHAPE_SELFOVERLAP>
1048.652

> <PUBCHEM_SHAPE_VOLUME>
321.1

> <PUBCHEM_COORDINATE_TYPE>
2
5
10

$$$$
