REMARK  Name = 122720
REMARK  3 active torsions:
REMARK  status: ('A' for Active; 'I' for Inactive)
REMARK    1  A    between atoms: C_10  and  O_30
REMARK    2  A    between atoms: C_12  and  C_17
REMARK    3  A    between atoms: C_24  and  O_28
REMARK                            x       y       z     vdW  Elec       q    Type
REMARK                         _______ _______ _______ _____ _____    ______ ____
ROOT
ATOM      1  O   UNL     1      -6.429   1.085  -0.479  0.00  0.00    -0.337 OA
ATOM      2  O   UNL     1      -3.596   2.112  -1.858  0.00  0.00    -0.289 OA
ATOM      3  O   UNL     1      -5.525  -1.369   1.583  0.00  0.00    -0.289 OA
ATOM      4  C   UNL     1      -5.122   1.470  -0.169  0.00  0.00    +0.211 C 
ATOM      5  C   UNL     1      -5.663  -0.082  -0.406  0.00  0.00    +0.211 C 
ATOM      6  C   UNL     1      -3.844   1.395  -0.905  0.00  0.00    +0.206 C 
ATOM      7  C   UNL     1      -4.953  -0.757   0.699  0.00  0.00    +0.203 C 
ATOM      8  C   UNL     1      -2.926   0.367  -0.306  0.00  0.00    +0.074 C 
ATOM      9  C   UNL     1      -3.463  -0.636   0.547  0.00  0.00    +0.043 C 
ATOM     10  C   UNL     1      -1.555   0.434  -0.535  0.00  0.00    +0.136 C 
ATOM     11  C   UNL     1      -2.618  -1.538   1.188  0.00  0.00    -0.001 C 
ATOM     12  C   UNL     1      -0.717  -0.483   0.102  0.00  0.00    +0.033 C 
ATOM     13  C   UNL     1      -1.243  -1.456   0.962  0.00  0.00    -0.019 C 
ATOM     14  C   UNL     1      -0.355  -2.441   1.656  0.00  0.00    +0.031 C 
ENDROOT
BRANCH  12  17
ATOM     15  O   UNL     1       1.133   1.086   1.669  0.00  0.00    -0.287 OA
ATOM     16  O   UNL     1       3.170  -1.789  -2.350  0.00  0.00    -0.286 OA
ATOM     17  C   UNL     1       0.739  -0.418  -0.125  0.00  0.00    +0.045 C 
ATOM     18  C   UNL     1       1.606   0.411   0.761  0.00  0.00    +0.196 C 
ATOM     19  C   UNL     1       3.060   0.410   0.507  0.00  0.00    +0.045 C 
ATOM     20  C   UNL     1       1.275  -1.128  -1.127  0.00  0.00    +0.045 C 
ATOM     21  C   UNL     1       3.600  -0.334  -0.543  0.00  0.00    +0.076 C 
ATOM     22  C   UNL     1       2.724  -1.134  -1.416  0.00  0.00    +0.199 C 
ATOM     23  C   UNL     1       3.905   1.165   1.330  0.00  0.00    -0.001 C 
ATOM     24  C   UNL     1       4.980  -0.323  -0.774  0.00  0.00    +0.136 C 
ATOM     25  C   UNL     1       5.281   1.174   1.098  0.00  0.00    -0.019 C 
ATOM     26  C   UNL     1       5.817   0.431   0.048  0.00  0.00    +0.032 C 
ATOM     27  C   UNL     1       6.179   1.980   1.975  0.00  0.00    +0.031 C 
BRANCH  24  28
ATOM     28  O   UNL     1       5.564  -1.028  -1.784  0.00  0.00    -0.505 OA
ATOM     29  H   UNL     1       5.037  -1.547  -2.359  0.00  0.00    +0.292 HD
ENDBRANCH  24  28
ENDBRANCH  12  17
BRANCH  10  30
ATOM     30  O   UNL     1      -1.023   1.392  -1.346  0.00  0.00    -0.505 OA
ATOM     31  H   UNL     1      -1.584   2.008  -1.774  0.00  0.00    +0.292 HD
ENDBRANCH  10  30
TORSDOF 3
