REMARK  Name = 122851
REMARK  6 active torsions:
REMARK  status: ('A' for Active; 'I' for Inactive)
REMARK    1  A    between atoms: C_4  and  C_29
REMARK    2  A    between atoms: C_10  and  O_27
REMARK    3  A    between atoms: C_15  and  C_17
REMARK    4  A    between atoms: C_18  and  O_23
REMARK    5  A    between atoms: C_22  and  O_25
REMARK    6  A    between atoms: C_29  and  O_30
REMARK                            x       y       z     vdW  Elec       q    Type
REMARK                         _______ _______ _______ _____ _____    ______ ____
ROOT
ATOM      1  O   UNL     1       4.269   0.914  -0.099  0.00  0.00    -0.480 OA
ATOM      2  O   UNL     1      -0.294   2.193   0.000  0.00  0.00    -0.421 OA
ATOM      3  O   UNL     1      -2.472   2.869   0.025  0.00  0.00    -0.244 OA
ATOM      4  C   UNL     1       5.280  -0.100   0.052  0.00  0.00    +0.160 C 
ATOM      5  C   UNL     1       4.951  -1.360  -0.766  0.00  0.00    +0.047 C 
ATOM      6  C   UNL     1       3.598  -1.938  -0.374  0.00  0.00    +0.036 C 
ATOM      7  C   UNL     1       2.576  -0.844  -0.278  0.00  0.00    +0.046 C 
ATOM      8  C   UNL     1       2.965   0.496  -0.141  0.00  0.00    +0.140 C 
ATOM      9  C   UNL     1       5.470  -0.396   1.547  0.00  0.00    +0.046 C 
ATOM     10  C   UNL     1       1.209  -1.168  -0.296  0.00  0.00    +0.140 C 
ATOM     11  C   UNL     1       0.240  -0.165  -0.205  0.00  0.00    +0.069 C 
ATOM     12  C   UNL     1       2.001   1.502  -0.058  0.00  0.00    +0.074 C 
ATOM     13  C   UNL     1       0.652   1.155  -0.090  0.00  0.00    +0.155 C 
ATOM     14  C   UNL     1      -1.184  -0.457  -0.223  0.00  0.00    +0.013 C 
ATOM     15  C   UNL     1      -2.093   0.527  -0.143  0.00  0.00    +0.079 C 
ATOM     16  C   UNL     1      -1.664   1.948  -0.031  0.00  0.00    +0.346 C 
ENDROOT
BRANCH  15  17
ATOM     17  C   UNL     1      -3.526   0.179  -0.150  0.00  0.00    +0.040 C 
ATOM     18  C   UNL     1      -4.212  -0.073   1.039  0.00  0.00    +0.137 C 
ATOM     19  C   UNL     1      -4.198   0.104  -1.371  0.00  0.00    +0.006 C 
ATOM     20  C   UNL     1      -5.568  -0.401   1.007  0.00  0.00    +0.073 C 
ATOM     21  C   UNL     1      -5.554  -0.223  -1.402  0.00  0.00    +0.037 C 
ATOM     22  C   UNL     1      -6.239  -0.475  -0.213  0.00  0.00    +0.137 C 
BRANCH  18  23
ATOM     23  O   UNL     1      -3.580  -0.007   2.246  0.00  0.00    -0.505 OA
ATOM     24  H   UNL     1      -2.670   0.212   2.287  0.00  0.00    +0.292 HD
ENDBRANCH  18  23
BRANCH  22  25
ATOM     25  O   UNL     1      -7.561  -0.794  -0.245  0.00  0.00    -0.505 OA
ATOM     26  H   UNL     1      -8.022  -0.964   0.554  0.00  0.00    +0.292 HD
ENDBRANCH  22  25
ENDBRANCH  15  17
BRANCH  10  27
ATOM     27  O   UNL     1       0.833  -2.477  -0.407  0.00  0.00    -0.472 OA
ATOM     28  C   UNL     1       0.663  -3.203   0.807  0.00  0.00    +0.252 C 
ENDBRANCH  10  27
BRANCH   4  29
ATOM     29  C   UNL     1       6.577   0.517  -0.492  0.00  0.00    +0.177 C 
BRANCH  29  30
ATOM     30  O   UNL     1       6.861   1.678   0.261  0.00  0.00    -0.379 OA
ATOM     31  H   UNL     1       7.679   2.084  -0.067  0.00  0.00    +0.211 HD
ENDBRANCH  29  30
ENDBRANCH   4  29
TORSDOF 6
