REMARK  Name = 122850
REMARK  5 active torsions:
REMARK  status: ('A' for Active; 'I' for Inactive)
REMARK    1  A    between atoms: C_3  and  C_12
REMARK    2  A    between atoms: C_4  and  O_20
REMARK    3  A    between atoms: C_8  and  O_22
REMARK    4  A    between atoms: C_11  and  O_24
REMARK    5  A    between atoms: C_17  and  O_18
REMARK                            x       y       z     vdW  Elec       q    Type
REMARK                         _______ _______ _______ _____ _____    ______ ____
ROOT
ATOM      1  O   UNL     1       0.087  -0.905  -0.046  0.00  0.00    -0.471 OA
ATOM      2  O   UNL     1       1.790   2.829  -0.065  0.00  0.00    -0.288 OA
ATOM      3  C   UNL     1      -0.638   0.247   0.413  0.00  0.00    +0.222 C 
ATOM      4  C   UNL     1      -0.210   1.508  -0.341  0.00  0.00    +0.217 C 
ATOM      5  C   UNL     1       1.273   1.720  -0.131  0.00  0.00    +0.209 C 
ATOM      6  C   UNL     1       2.087   0.492  -0.045  0.00  0.00    +0.105 C 
ATOM      7  C   UNL     1       1.447  -0.749  -0.024  0.00  0.00    +0.148 C 
ATOM      8  C   UNL     1       3.482   0.569  -0.014  0.00  0.00    +0.142 C 
ATOM      9  C   UNL     1       2.208  -1.919  -0.007  0.00  0.00    +0.074 C 
ATOM     10  C   UNL     1       4.237  -0.604   0.022  0.00  0.00    +0.073 C 
ATOM     11  C   UNL     1       3.601  -1.846   0.020  0.00  0.00    +0.140 C 
ENDROOT
BRANCH   3  12
ATOM     12  C   UNL     1      -2.114  -0.047   0.226  0.00  0.00    +0.020 C 
ATOM     13  C   UNL     1      -2.954  -0.122   1.335  0.00  0.00    +0.002 C 
ATOM     14  C   UNL     1      -2.626  -0.240  -1.056  0.00  0.00    +0.002 C 
ATOM     15  C   UNL     1      -4.312  -0.392   1.162  0.00  0.00    +0.036 C 
ATOM     16  C   UNL     1      -3.983  -0.510  -1.228  0.00  0.00    +0.036 C 
ATOM     17  C   UNL     1      -4.826  -0.586  -0.120  0.00  0.00    +0.134 C 
BRANCH  17  18
ATOM     18  O   UNL     1      -6.151  -0.850  -0.288  0.00  0.00    -0.506 OA
ATOM     19  H   UNL     1      -6.717  -0.901   0.457  0.00  0.00    +0.292 HD
ENDBRANCH  17  18
ENDBRANCH   3  12
BRANCH   4  20
ATOM     20  O   UNL     1      -0.895   2.638   0.170  0.00  0.00    -0.374 OA
ATOM     21  H   UNL     1      -1.850   2.521   0.045  0.00  0.00    +0.211 HD
ENDBRANCH   4  20
BRANCH   8  22
ATOM     22  O   UNL     1       4.155   1.753  -0.029  0.00  0.00    -0.505 OA
ATOM     23  H   UNL     1       3.681   2.561  -0.053  0.00  0.00    +0.292 HD
ENDBRANCH   8  22
BRANCH  11  24
ATOM     24  O   UNL     1       4.342  -2.988   0.046  0.00  0.00    -0.505 OA
ATOM     25  H   UNL     1       3.916  -3.823   0.045  0.00  0.00    +0.292 HD
ENDBRANCH  11  24
TORSDOF 5
