REMARK  Name = 122873
REMARK  3 active torsions:
REMARK  status: ('A' for Active; 'I' for Inactive)
REMARK    1  A    between atoms: N_2  and  C_11
REMARK    2  A    between atoms: C_11  and  C_16
REMARK    3  A    between atoms: P_12  and  O_19
REMARK                            x       y       z     vdW  Elec       q    Type
REMARK                         _______ _______ _______ _____ _____    ______ ____
ROOT
ATOM      1  O   UNL     1       1.231   1.199   1.710  0.00  0.00    -0.193 OA
ATOM      2  N   UNL     1       1.427  -0.713   0.434  0.00  0.00    -0.202 N 
ATOM      3  N   UNL     1       3.051   1.047   0.362  0.00  0.00    -0.306 NA
ATOM      4  N   UNL     1       4.912   0.886  -1.023  0.00  0.00    -0.332 N 
ATOM      5  C   UNL     1       2.153  -1.424  -0.494  0.00  0.00    +0.081 C 
ATOM      6  C   UNL     1       1.869   0.547   0.881  0.00  0.00    +0.274 C 
ATOM      7  C   UNL     1       3.292  -0.960  -1.006  0.00  0.00    +0.065 C 
ATOM      8  C   UNL     1       3.740   0.371  -0.520  0.00  0.00    +0.193 C 
ATOM      9  H   UNL     1       5.234   1.765  -0.719  0.00  0.00    +0.145 HD
ATOM     10  H   UNL     1       5.429   0.375  -1.687  0.00  0.00    +0.145 HD
ENDROOT
BRANCH   2  11
ATOM     11  C   UNL     1       0.194  -1.304   0.935  0.00  0.00    +0.141 C 
BRANCH  11  16
ATOM     12  P   UNL     1      -3.605   0.457  -0.477  0.00  0.00    +0.370 P 
ATOM     13  O   UNL     1      -1.082   0.531   0.102  0.00  0.00    -0.340 OA
ATOM     14  O   UNL     1      -3.377  -1.124  -0.216  0.00  0.00    -0.290 OA
ATOM     15  O   UNL     1      -4.657   0.783  -1.496  0.00  0.00    -0.255 OA
ATOM     16  C   UNL     1      -0.996  -0.899   0.076  0.00  0.00    +0.167 C 
ATOM     17  C   UNL     1      -2.288  -1.501   0.620  0.00  0.00    +0.183 C 
ATOM     18  C   UNL     1      -1.978   1.042  -0.883  0.00  0.00    +0.258 C 
BRANCH  12  19
ATOM     19  O   UNL     1      -3.888   1.063   0.995  0.00  0.00    -0.322 OA
ATOM     20  H   UNL     1      -4.768   0.787   1.295  0.00  0.00    +0.220 HD
ENDBRANCH  12  19
ENDBRANCH  11  16
ENDBRANCH   2  11
TORSDOF 3
