122978
  -OEChem-03292013323D

 65 67  0     1  0  0  0  0  0999 V2000
    4.8452   -1.9073    0.5079 S   0  0  0  0  0  0  0  0  0  0  0  0
   -6.1374    1.8060    0.5314 O   0  0  0  0  0  0  0  0  0  0  0  0
   -4.6950   -2.5860   -0.2920 O   0  0  0  0  0  0  0  0  0  0  0  0
    5.3833   -1.4853    1.7967 O   0  0  0  0  0  0  0  0  0  0  0  0
    5.0028   -3.3029    0.1127 O   0  0  0  0  0  0  0  0  0  0  0  0
   -3.8532    1.3678    0.5961 N   0  0  0  0  0  0  0  0  0  0  0  0
   -5.4455   -0.3930    0.1160 N   0  0  0  0  0  0  0  0  0  0  0  0
   -1.9363   -1.5250    0.1208 N   0  0  0  0  0  0  0  0  0  0  0  0
    5.5114   -0.8990   -0.7304 N   0  0  2  0  0  0  0  0  0  0  0  0
   -1.5114    0.6106    0.5986 N   0  0  0  0  0  0  0  0  0  0  0  0
    7.4395    2.2762   -0.2743 N   0  0  0  0  0  0  0  0  0  0  0  0
   -2.8587    0.4084    0.4635 C   0  0  0  0  0  0  0  0  0  0  0  0
   -3.1473   -0.8963    0.1698 C   0  0  0  0  0  0  0  0  0  0  0  0
   -3.4961    2.7457    0.9098 C   0  0  0  0  0  0  0  0  0  0  0  0
   -5.2100    0.9955    0.4245 C   0  0  0  0  0  0  0  0  0  0  0  0
   -4.4641   -1.4092   -0.0293 C   0  0  0  0  0  0  0  0  0  0  0  0
   -6.8360   -0.7957   -0.0658 C   0  0  0  0  0  0  0  0  0  0  0  0
   -0.9823   -0.5766    0.3856 C   0  0  0  0  0  0  0  0  0  0  0  0
   -3.2589    3.5831   -0.3412 C   0  0  0  0  0  0  0  0  0  0  0  0
    0.4248   -0.8963    0.4142 C   0  0  0  0  0  0  0  0  0  0  0  0
    5.7291    0.5336   -0.4052 C   0  0  0  0  0  0  0  0  0  0  0  0
    3.1433   -1.5199    0.4740 C   0  0  0  0  0  0  0  0  0  0  0  0
   -7.2932   -0.6667   -1.5138 C   0  0  0  0  0  0  0  0  0  0  0  0
    7.2005    0.8740   -0.5920 C   0  0  0  0  0  0  0  0  0  0  0  0
    0.9217   -1.9269   -0.3837 C   0  0  0  0  0  0  0  0  0  0  0  0
    1.2872   -0.1776    1.2421 C   0  0  0  0  0  0  0  0  0  0  0  0
    2.2808   -2.2386   -0.3539 C   0  0  0  0  0  0  0  0  0  0  0  0
    2.6464   -0.4894    1.2721 C   0  0  0  0  0  0  0  0  0  0  0  0
    5.0034   -1.0837   -2.1136 C   0  0  0  0  0  0  0  0  0  0  0  0
   -2.8642    5.0182   -0.0226 C   0  0  0  0  0  0  0  0  0  0  0  0
   -8.7495   -1.0642   -1.7085 C   0  0  0  0  0  0  0  0  0  0  0  0
    8.8392    2.4898    0.0982 C   0  0  0  0  0  0  0  0  0  0  0  0
    7.0803    3.1306   -1.4077 C   0  0  0  0  0  0  0  0  0  0  0  0
   -2.6106    2.7525    1.5567 H   0  0  0  0  0  0  0  0  0  0  0  0
   -4.3110    3.1923    1.4922 H   0  0  0  0  0  0  0  0  0  0  0  0
   -7.4786   -0.1862    0.5800 H   0  0  0  0  0  0  0  0  0  0  0  0
   -6.9564   -1.8345    0.2641 H   0  0  0  0  0  0  0  0  0  0  0  0
   -1.7844   -2.5083   -0.0630 H   0  0  0  0  0  0  0  0  0  0  0  0
   -4.1642    3.5892   -0.9603 H   0  0  0  0  0  0  0  0  0  0  0  0
   -2.4699    3.1254   -0.9502 H   0  0  0  0  0  0  0  0  0  0  0  0
    5.4368    0.7473    0.6286 H   0  0  0  0  0  0  0  0  0  0  0  0
    5.0801    1.1530   -1.0342 H   0  0  0  0  0  0  0  0  0  0  0  0
   -6.6630   -1.2907   -2.1589 H   0  0  0  0  0  0  0  0  0  0  0  0
   -7.1579    0.3667   -1.8551 H   0  0  0  0  0  0  0  0  0  0  0  0
    7.7676    0.2288    0.0935 H   0  0  0  0  0  0  0  0  0  0  0  0
    7.5485    0.6175   -1.6013 H   0  0  0  0  0  0  0  0  0  0  0  0
    0.2797   -2.4972   -1.0503 H   0  0  0  0  0  0  0  0  0  0  0  0
    0.9200    0.6278    1.8738 H   0  0  0  0  0  0  0  0  0  0  0  0
    2.6472   -3.0396   -0.9897 H   0  0  0  0  0  0  0  0  0  0  0  0
    3.2996    0.0862    1.9217 H   0  0  0  0  0  0  0  0  0  0  0  0
    4.0280   -0.6070   -2.2436 H   0  0  0  0  0  0  0  0  0  0  0  0
    5.7080   -0.6437   -2.8265 H   0  0  0  0  0  0  0  0  0  0  0  0
    4.9255   -2.1478   -2.3531 H   0  0  0  0  0  0  0  0  0  0  0  0
   -2.7042    5.5821   -0.9468 H   0  0  0  0  0  0  0  0  0  0  0  0
   -1.9380    5.0480    0.5600 H   0  0  0  0  0  0  0  0  0  0  0  0
   -3.6488    5.5203    0.5522 H   0  0  0  0  0  0  0  0  0  0  0  0
   -9.0348   -0.9573   -2.7596 H   0  0  0  0  0  0  0  0  0  0  0  0
   -9.4108   -0.4301   -1.1095 H   0  0  0  0  0  0  0  0  0  0  0  0
   -8.9124   -2.1060   -1.4150 H   0  0  0  0  0  0  0  0  0  0  0  0
    9.5276    2.2144   -0.7091 H   0  0  0  0  0  0  0  0  0  0  0  0
    9.0129    3.5403    0.3571 H   0  0  0  0  0  0  0  0  0  0  0  0
    9.0960    1.9042    0.9881 H   0  0  0  0  0  0  0  0  0  0  0  0
    7.2479    4.1843   -1.1563 H   0  0  0  0  0  0  0  0  0  0  0  0
    7.6672    2.8991   -2.3044 H   0  0  0  0  0  0  0  0  0  0  0  0
    6.0186    3.0453   -1.6587 H   0  0  0  0  0  0  0  0  0  0  0  0
  1  4  2  0  0  0  0
  1  5  2  0  0  0  0
  1  9  1  0  0  0  0
  1 22  1  0  0  0  0
  2 15  2  0  0  0  0
  3 16  2  0  0  0  0
  6 12  1  0  0  0  0
  6 14  1  0  0  0  0
  6 15  1  0  0  0  0
  7 15  1  0  0  0  0
  7 16  1  0  0  0  0
  7 17  1  0  0  0  0
  8 13  1  0  0  0  0
  8 18  1  0  0  0  0
  8 38  1  0  0  0  0
  9 21  1  0  0  0  0
  9 29  1  0  0  0  0
 10 12  1  0  0  0  0
 10 18  2  0  0  0  0
 11 24  1  0  0  0  0
 11 32  1  0  0  0  0
 11 33  1  0  0  0  0
 12 13  2  0  0  0  0
 13 16  1  0  0  0  0
 14 19  1  0  0  0  0
 14 34  1  0  0  0  0
 14 35  1  0  0  0  0
 17 23  1  0  0  0  0
 17 36  1  0  0  0  0
 17 37  1  0  0  0  0
 18 20  1  0  0  0  0
 19 30  1  0  0  0  0
 19 39  1  0  0  0  0
 19 40  1  0  0  0  0
 20 25  2  0  0  0  0
 20 26  1  0  0  0  0
 21 24  1  0  0  0  0
 21 41  1  0  0  0  0
 21 42  1  0  0  0  0
 22 27  2  0  0  0  0
 22 28  1  0  0  0  0
 23 31  1  0  0  0  0
 23 43  1  0  0  0  0
 23 44  1  0  0  0  0
 24 45  1  0  0  0  0
 24 46  1  0  0  0  0
 25 27  1  0  0  0  0
 25 47  1  0  0  0  0
 26 28  2  0  0  0  0
 26 48  1  0  0  0  0
 27 49  1  0  0  0  0
 28 50  1  0  0  0  0
 29 51  1  0  0  0  0
 29 52  1  0  0  0  0
 29 53  1  0  0  0  0
 30 54  1  0  0  0  0
 30 55  1  0  0  0  0
 30 56  1  0  0  0  0
 31 57  1  0  0  0  0
 31 58  1  0  0  0  0
 31 59  1  0  0  0  0
 32 60  1  0  0  0  0
 32 61  1  0  0  0  0
 32 62  1  0  0  0  0
 33 63  1  0  0  0  0
 33 64  1  0  0  0  0
 33 65  1  0  0  0  0
M  END
> <PUBCHEM_COMPOUND_CID>
122978

> <PUBCHEM_CONFORMER_RMSD>
1

> <PUBCHEM_CONFORMER_DIVERSEORDER>
4
62
78
51
81
3
50
27
47
12
44
10
22
58
41
37
43
83
29
46
68
48
56
38
40
65
77
35
80
45
16
24
75
59
66
72
55
79
52
53
30
39
18
74
42
34
20
17
36
73
1
61
57
21
15
63
71
32
54
70
60
82
19
69
76
64
25
49
9
6
11
33
7
31
26
67
28
13
23
5
14
8
2

> <PUBCHEM_MMFF94_PARTIAL_CHARGES>
34
1 1.45
10 -0.57
11 -0.81
12 0.29
13 -0.24
14 0.3
15 0.69
16 0.71
17 0.3
18 0.13
2 -0.57
20 0.05
21 0.36
22 -0.01
24 0.27
25 -0.15
26 -0.15
27 -0.15
28 -0.15
29 0.36
3 -0.57
32 0.27
33 0.27
38 0.27
4 -0.65
47 0.15
48 0.15
49 0.15
5 -0.65
50 0.15
6 -0.42
7 -0.42
8 0.03
9 -0.85

> <PUBCHEM_EFFECTIVE_ROTOR_COUNT>
10

> <PUBCHEM_PHARMACOPHORE_FEATURES>
12
1 11 cation
1 2 acceptor
1 3 acceptor
1 30 hydrophobe
1 31 hydrophobe
1 4 acceptor
1 5 acceptor
1 8 donor
3 8 10 18 cation
5 8 10 12 13 18 rings
6 20 22 25 26 27 28 rings
6 6 7 12 13 15 16 rings

> <PUBCHEM_HEAVY_ATOM_COUNT>
33

> <PUBCHEM_ATOM_DEF_STEREO_COUNT>
0

> <PUBCHEM_ATOM_UDEF_STEREO_COUNT>
0

> <PUBCHEM_BOND_DEF_STEREO_COUNT>
0

> <PUBCHEM_BOND_UDEF_STEREO_COUNT>
0

> <PUBCHEM_ISOTOPIC_ATOM_COUNT>
0

> <PUBCHEM_COMPONENT_COUNT>
1

> <PUBCHEM_CACTVS_TAUTO_COUNT>
3

> <PUBCHEM_CONFORMER_ID>
0001E06200000004

> <PUBCHEM_MMFF94_ENERGY>
49.1412

> <PUBCHEM_FEATURE_SELFOVERLAP>
61.029

> <PUBCHEM_SHAPE_FINGERPRINT>
10595046 47 18409730621242135658
10673678 19 18342184393065937326
11101153 10 18408608054430712421
11315181 36 18334012805463350747
11456790 92 11674873364998185455
11476731 38 18411140277354527823
11991303 11 16845287289220644614
12107183 9 17325481108228929355
12236239 1 18040437646774112523
12717326 25 11455890304252213677
13782708 43 17489296491533141999
14118638 360 18344148090193445960
15183329 4 18411702058522989242
15276724 80 18409166576066811693
15289351 153 18408601458362726504
15361156 5 18342174505656063775
15419008 145 18114733843051230552
1577012 14 18410577249664349377
15961568 22 18407761447319662028
16087824 20 18268986485791761349
21049683 271 18272089448225949489
21150785 3 18060702809888530054
21792934 111 15068608375721398758
23522609 53 17915765126737734137
23559900 14 18201428178188832897
23569943 247 11239733945544827900
335352 9 18342731920187366407
34797466 226 18131080311847447758
3918712 181 18336543820104390884
4073 2 18260552250856250922
4197921 191 18411134714628048714
445580 167 18411980273709004645
45377200 153 15553875736923182935
5265222 85 18272937141309935543
6057620 51 18410006676197244731

> <PUBCHEM_SHAPE_MULTIPOLES>
629.61
25.07
4.23
1.29
10.64
5.4
-0.36
7.42
-9.05
1.15
-0.31
0.45
-0.2
-2.64

> <PUBCHEM_SHAPE_SELFOVERLAP>
1301.015

> <PUBCHEM_SHAPE_VOLUME>
364.6

> <PUBCHEM_COORDINATE_TYPE>
2
5
10

$$$$
