REMARK  Name = 122978
REMARK  10 active torsions:
REMARK  status: ('A' for Active; 'I' for Inactive)
REMARK    1  A    between atoms: N_3  and  C_31
REMARK    2  A    between atoms: N_4  and  C_34
REMARK    3  A    between atoms: C_11  and  C_14
REMARK    4  A    between atoms: C_15  and  S_20
REMARK    5  A    between atoms: S_20  and  N_23
REMARK    6  A    between atoms: N_23  and  C_25
REMARK    7  A    between atoms: C_25  and  C_26
REMARK    8  A    between atoms: C_26  and  N_27
REMARK    9  A    between atoms: C_31  and  C_32
REMARK   10  A    between atoms: C_34  and  C_35
REMARK                            x       y       z     vdW  Elec       q    Type
REMARK                         _______ _______ _______ _____ _____    ______ ____
ROOT
ATOM      1  O   UNL     1      -6.137   1.806   0.531  0.00  0.00    -0.246 OA
ATOM      2  O   UNL     1      -4.695  -2.586  -0.292  0.00  0.00    -0.265 OA
ATOM      3  N   UNL     1      -3.853   1.368   0.596  0.00  0.00    -0.269 N 
ATOM      4  N   UNL     1      -5.446  -0.393   0.116  0.00  0.00    -0.248 N 
ATOM      5  N   UNL     1      -1.936  -1.525   0.121  0.00  0.00    -0.310 N 
ATOM      6  N   UNL     1      -1.511   0.611   0.599  0.00  0.00    -0.301 N 
ATOM      7  C   UNL     1      -2.859   0.408   0.464  0.00  0.00    +0.132 A 
ATOM      8  C   UNL     1      -3.147  -0.896   0.170  0.00  0.00    +0.133 A 
ATOM      9  C   UNL     1      -5.210   0.996   0.424  0.00  0.00    +0.335 A 
ATOM     10  C   UNL     1      -4.464  -1.409  -0.029  0.00  0.00    +0.280 A 
ATOM     11  C   UNL     1      -0.982  -0.577   0.386  0.00  0.00    +0.169 C 
ATOM     12  H   UNL     1      -1.778  -2.478  -0.069  0.00  0.00    +0.149 HD
ATOM     13  H   UNL     1      -1.044   1.452   0.807  0.00  0.00    +0.150 HD
ENDROOT
BRANCH  11  14
ATOM     14  C   UNL     1       0.425  -0.896   0.414  0.00  0.00    +0.014 C 
ATOM     15  C   UNL     1       3.143  -1.520   0.474  0.00  0.00    +0.122 C 
ATOM     16  C   UNL     1       0.922  -1.927  -0.384  0.00  0.00    +0.000 C 
ATOM     17  C   UNL     1       1.287  -0.178   1.242  0.00  0.00    +0.000 C 
ATOM     18  C   UNL     1       2.281  -2.239  -0.354  0.00  0.00    +0.020 C 
ATOM     19  C   UNL     1       2.646  -0.489   1.272  0.00  0.00    +0.020 C 
BRANCH  15  20
ATOM     20  S   UNL     1       4.845  -1.907   0.508  0.00  0.00    +0.063 S 
ATOM     21  O   UNL     1       5.383  -1.485   1.797  0.00  0.00    -0.153 OA
ATOM     22  O   UNL     1       5.003  -3.303   0.113  0.00  0.00    -0.153 OA
BRANCH  20  23
ATOM     23  N   UNL     1       5.511  -0.899  -0.730  0.00  0.00    -0.156 NA
ATOM     24  C   UNL     1       5.003  -1.084  -2.114  0.00  0.00    +0.115 C 
BRANCH  23  25
ATOM     25  C   UNL     1       5.729   0.534  -0.405  0.00  0.00    +0.073 C 
BRANCH  25  26
ATOM     26  C   UNL     1       7.200   0.874  -0.592  0.00  0.00    -0.058 C 
BRANCH  26  27
ATOM     27  N   UNL     1       7.439   2.276  -0.274  0.00  0.00    +0.385 N 
ATOM     28  C   UNL     1       8.839   2.490   0.098  0.00  0.00    -0.101 C 
ATOM     29  C   UNL     1       7.080   3.131  -1.408  0.00  0.00    -0.101 C 
ATOM     30  H   UNL     1       6.851   2.527   0.520  0.00  0.00    -0.080 HD
ENDBRANCH  26  27
ENDBRANCH  25  26
ENDBRANCH  23  25
ENDBRANCH  20  23
ENDBRANCH  15  20
ENDBRANCH  11  14
BRANCH   3  31
ATOM     31  C   UNL     1      -3.496   2.746   0.910  0.00  0.00    +0.112 C 
BRANCH  31  32
ATOM     32  C   UNL     1      -3.259   3.583  -0.341  0.00  0.00    +0.025 C 
ATOM     33  C   UNL     1      -2.864   5.018  -0.023  0.00  0.00    +0.002 C 
ENDBRANCH  31  32
ENDBRANCH   3  31
BRANCH   4  34
ATOM     34  C   UNL     1      -6.836  -0.796  -0.066  0.00  0.00    +0.114 C 
BRANCH  34  35
ATOM     35  C   UNL     1      -7.293  -0.667  -1.514  0.00  0.00    +0.025 C 
ATOM     36  C   UNL     1      -8.749  -1.064  -1.708  0.00  0.00    +0.002 C 
ENDBRANCH  34  35
ENDBRANCH   4  34
TORSDOF 10
