REMARK  Name = 12308750
REMARK  3 active torsions:
REMARK  status: ('A' for Active; 'I' for Inactive)
REMARK    1  A    between atoms: C_9  and  C_18
REMARK    2  A    between atoms: C_9  and  O_22
REMARK    3  A    between atoms: C_13  and  O_24
REMARK                            x       y       z     vdW  Elec       q    Type
REMARK                         _______ _______ _______ _____ _____    ______ ____
ROOT
ATOM      1  O   UNL     1       0.266  -0.871   2.414  0.00  0.00    -0.413 OA
ATOM      2  O   UNL     1       1.868   2.099  -0.819  0.00  0.00    -0.452 OA
ATOM      3  O   UNL     1       0.093  -2.605   0.805  0.00  0.00    -0.412 OA
ATOM      4  O   UNL     1       1.927   0.662   2.751  0.00  0.00    -0.250 OA
ATOM      5  O   UNL     1       0.650  -3.434  -1.261  0.00  0.00    -0.247 OA
ATOM      6  O   UNL     1       3.609   1.039  -1.847  0.00  0.00    -0.250 OA
ATOM      7  C   UNL     1      -0.334  -0.368   0.185  0.00  0.00    +0.148 C 
ATOM      8  C   UNL     1       1.028   0.303   0.505  0.00  0.00    +0.149 C 
ATOM      9  C   UNL     1      -1.330   0.831   0.222  0.00  0.00    +0.102 C 
ATOM     10  C   UNL     1       0.874   1.779   0.151  0.00  0.00    +0.182 C 
ATOM     11  C   UNL     1      -0.522   1.943  -0.446  0.00  0.00    +0.071 C 
ATOM     12  C   UNL     1      -0.471  -1.381   1.303  0.00  0.00    +0.350 C 
ATOM     13  C   UNL     1      -0.441  -1.268  -1.043  0.00  0.00    +0.220 C 
ATOM     14  C   UNL     1       2.316  -0.126  -0.174  0.00  0.00    +0.124 C 
ATOM     15  C   UNL     1       1.150   0.086   2.004  0.00  0.00    +0.323 C 
ATOM     16  C   UNL     1       0.171  -2.557  -0.560  0.00  0.00    +0.347 C 
ATOM     17  C   UNL     1       2.683   1.035  -1.048  0.00  0.00    +0.318 C 
ENDROOT
BRANCH   9  18
ATOM     18  C   UNL     1      -2.681   0.631  -0.456  0.00  0.00    +0.023 C 
ATOM     19  C   UNL     1      -2.473   0.253  -1.933  0.00  0.00    +0.002 C 
ATOM     20  C   UNL     1      -3.457  -0.496   0.249  0.00  0.00    +0.002 C 
ATOM     21  C   UNL     1      -3.501   1.931  -0.380  0.00  0.00    +0.002 C 
ENDBRANCH   9  18
BRANCH   9  22
ATOM     22  O   UNL     1      -1.587   1.251   1.568  0.00  0.00    -0.386 OA
ATOM     23  H   UNL     1      -0.745   1.388   2.030  0.00  0.00    +0.210 HD
ENDBRANCH   9  22
BRANCH  13  24
ATOM     24  O   UNL     1       0.161  -0.739  -2.192  0.00  0.00    -0.374 OA
ATOM     25  H   UNL     1      -0.285   0.086  -2.440  0.00  0.00    +0.211 HD
ENDBRANCH  13  24
TORSDOF 3
