REMARK  Name = 12305198
REMARK  4 active torsions:
REMARK  status: ('A' for Active; 'I' for Inactive)
REMARK    1  A    between atoms: C_4  and  O_28
REMARK    2  A    between atoms: C_9  and  O_30
REMARK    3  A    between atoms: C_10  and  C_23
REMARK    4  A    between atoms: C_20  and  O_32
REMARK                            x       y       z     vdW  Elec       q    Type
REMARK                         _______ _______ _______ _____ _____    ______ ____
ROOT
ATOM      1  O   UNL     1      -0.300   2.957   0.643  0.00  0.00    -0.293 OA
ATOM      2  C   UNL     1       0.854  -0.788  -0.600  0.00  0.00    +0.028 C 
ATOM      3  C   UNL     1       1.897   0.326  -0.271  0.00  0.00    +0.036 C 
ATOM      4  C   UNL     1      -0.542  -0.542   0.038  0.00  0.00    +0.095 C 
ATOM      5  C   UNL     1       3.314   0.015  -0.924  0.00  0.00    +0.003 C 
ATOM      6  C   UNL     1      -1.139   0.859  -0.235  0.00  0.00    +0.080 C 
ATOM      7  C   UNL     1       3.781  -1.423  -0.515  0.00  0.00    +0.002 C 
ATOM      8  C   UNL     1       1.373  -2.197  -0.250  0.00  0.00    +0.002 C 
ATOM      9  C   UNL     1       1.301   1.702  -0.638  0.00  0.00    +0.167 C 
ATOM     10  C   UNL     1      -2.265   0.976   0.838  0.00  0.00    +0.034 C 
ATOM     11  C   UNL     1      -0.575  -0.666   1.575  0.00  0.00    +0.028 C 
ATOM     12  C   UNL     1       2.736  -2.490  -0.859  0.00  0.00    +0.000 C 
ATOM     13  C   UNL     1      -0.059   1.925   0.013  0.00  0.00    +0.179 C 
ATOM     14  C   UNL     1       4.447   0.997  -0.496  0.00  0.00    +0.003 C 
ATOM     15  C   UNL     1      -1.652   0.305   2.077  0.00  0.00    +0.007 C 
ATOM     16  C   UNL     1       4.174  -1.518   0.981  0.00  0.00    +0.029 C 
ATOM     17  C   UNL     1       3.239   0.113  -2.471  0.00  0.00    +0.000 C 
ATOM     18  C   UNL     1      -1.655   1.076  -1.666  0.00  0.00    +0.010 C 
ATOM     19  C   UNL     1       4.806   0.924   0.987  0.00  0.00    +0.029 C 
ATOM     20  C   UNL     1       5.224  -0.486   1.387  0.00  0.00    +0.111 C 
ENDROOT
BRANCH  10  23
ATOM     21  O   UNL     1      -5.079  -1.553   0.364  0.00  0.00    -0.418 OA
ATOM     22  O   UNL     1      -7.158  -1.281  -0.514  0.00  0.00    -0.244 OA
ATOM     23  C   UNL     1      -3.576   0.335   0.484  0.00  0.00    +0.016 C 
ATOM     24  C   UNL     1      -4.599   1.150  -0.118  0.00  0.00    +0.006 C 
ATOM     25  C   UNL     1      -3.854  -0.955   0.695  0.00  0.00    +0.179 C 
ATOM     26  C   UNL     1      -5.784   0.628  -0.452  0.00  0.00    +0.082 C 
ATOM     27  C   UNL     1      -6.071  -0.801  -0.209  0.00  0.00    +0.346 C 
ENDBRANCH  10  23
BRANCH   4  28
ATOM     28  O   UNL     1      -1.435  -1.550  -0.465  0.00  0.00    -0.386 OA
ATOM     29  H   UNL     1      -1.450  -1.513  -1.434  0.00  0.00    +0.210 HD
ENDBRANCH   4  28
BRANCH   9  30
ATOM     30  O   UNL     1       2.128   2.753  -0.162  0.00  0.00    -0.377 OA
ATOM     31  H   UNL     1       3.015   2.665  -0.545  0.00  0.00    +0.211 HD
ENDBRANCH   9  30
BRANCH  20  32
ATOM     32  O   UNL     1       6.469  -0.793   0.763  0.00  0.00    -0.384 OA
ATOM     33  H   UNL     1       6.743  -1.690   1.012  0.00  0.00    +0.210 HD
ENDBRANCH  20  32
TORSDOF 4
