12309123
  -OEChem-03292013303D

 47 50  0     1  0  0  0  0  0999 V2000
   -5.5705    0.8680    1.0812 O   0  0  0  0  0  0  0  0  0  0  0  0
   -3.1166   -2.2206   -0.8081 O   0  0  0  0  0  0  0  0  0  0  0  0
   -0.9508    2.8311    0.4120 O   0  0  0  0  0  0  0  0  0  0  0  0
   -0.2757   -2.6418    0.1894 O   0  0  0  0  0  0  0  0  0  0  0  0
   -4.2279    0.8409   -1.8817 O   0  0  0  0  0  0  0  0  0  0  0  0
    2.1978   -2.2356   -0.0838 O   0  0  0  0  0  0  0  0  0  0  0  0
    1.5401    3.0629    0.1170 O   0  0  0  0  0  0  0  0  0  0  0  0
    4.7322   -1.9971   -0.3817 O   0  0  0  0  0  0  0  0  0  0  0  0
   -4.4147    0.3244    0.4441 C   0  0  2  0  0  0  0  0  0  0  0  0
   -4.1433   -1.0522    1.0506 C   0  0  0  0  0  0  0  0  0  0  0  0
   -3.2312    1.2729    0.6511 C   0  0  0  0  0  0  0  0  0  0  0  0
   -2.8719   -1.7013    0.4975 C   0  0  2  0  0  0  0  0  0  0  0  0
   -1.8763    0.6406    0.4460 C   0  0  0  0  0  0  0  0  0  0  0  0
   -1.7028   -0.7530    0.4070 C   0  0  0  0  0  0  0  0  0  0  0  0
   -0.7538    1.4795    0.3425 C   0  0  0  0  0  0  0  0  0  0  0  0
   -0.4107   -1.2815    0.2419 C   0  0  0  0  0  0  0  0  0  0  0  0
   -4.8168    0.2173   -0.9999 C   0  0  0  0  0  0  0  0  0  0  0  0
    0.5287    0.9431    0.1819 C   0  0  0  0  0  0  0  0  0  0  0  0
    0.7003   -0.4378    0.1306 C   0  0  0  0  0  0  0  0  0  0  0  0
    2.0470   -1.0209   -0.0398 C   0  0  0  0  0  0  0  0  0  0  0  0
    1.6909    1.8483    0.0695 C   0  0  0  0  0  0  0  0  0  0  0  0
   -5.9735   -0.6922   -1.3146 C   0  0  0  0  0  0  0  0  0  0  0  0
    3.2097   -0.1175   -0.1560 C   0  0  0  0  0  0  0  0  0  0  0  0
    3.0379    1.2673   -0.1031 C   0  0  0  0  0  0  0  0  0  0  0  0
    4.4914   -0.6564   -0.3201 C   0  0  0  0  0  0  0  0  0  0  0  0
    4.1478    2.1134   -0.2145 C   0  0  0  0  0  0  0  0  0  0  0  0
    5.5947    0.1903   -0.4310 C   0  0  0  0  0  0  0  0  0  0  0  0
    5.4232    1.5722   -0.3782 C   0  0  0  0  0  0  0  0  0  0  0  0
    4.9949   -2.6643    0.8504 C   0  0  0  0  0  0  0  0  0  0  0  0
   -5.0020   -1.7229    0.9272 H   0  0  0  0  0  0  0  0  0  0  0  0
   -4.0322   -0.9268    2.1375 H   0  0  0  0  0  0  0  0  0  0  0  0
   -3.2612    1.6521    1.6825 H   0  0  0  0  0  0  0  0  0  0  0  0
   -3.3436    2.1554    0.0081 H   0  0  0  0  0  0  0  0  0  0  0  0
   -2.6154   -2.5448    1.1502 H   0  0  0  0  0  0  0  0  0  0  0  0
   -5.6740    1.7891    0.7861 H   0  0  0  0  0  0  0  0  0  0  0  0
   -3.7766   -2.9292   -0.7198 H   0  0  0  0  0  0  0  0  0  0  0  0
   -5.6641   -1.7377   -1.3027 H   0  0  0  0  0  0  0  0  0  0  0  0
   -6.7977   -0.5358   -0.6150 H   0  0  0  0  0  0  0  0  0  0  0  0
   -6.3450   -0.4563   -2.3170 H   0  0  0  0  0  0  0  0  0  0  0  0
   -0.1578    3.3146    0.1382 H   0  0  0  0  0  0  0  0  0  0  0  0
    0.6533   -2.9035    0.2667 H   0  0  0  0  0  0  0  0  0  0  0  0
    4.0405    3.1941   -0.1765 H   0  0  0  0  0  0  0  0  0  0  0  0
    6.5931   -0.2193   -0.5603 H   0  0  0  0  0  0  0  0  0  0  0  0
    6.2837    2.2292   -0.4651 H   0  0  0  0  0  0  0  0  0  0  0  0
    4.2753   -2.3811    1.6255 H   0  0  0  0  0  0  0  0  0  0  0  0
    6.0100   -2.4330    1.1880 H   0  0  0  0  0  0  0  0  0  0  0  0
    4.9209   -3.7419    0.6799 H   0  0  0  0  0  0  0  0  0  0  0  0
  1  9  1  0  0  0  0
  1 35  1  0  0  0  0
  2 12  1  0  0  0  0
  2 36  1  0  0  0  0
  3 15  1  0  0  0  0
  3 40  1  0  0  0  0
  4 16  1  0  0  0  0
  4 41  1  0  0  0  0
  5 17  2  0  0  0  0
  6 20  2  0  0  0  0
  7 21  2  0  0  0  0
  8 25  1  0  0  0  0
  8 29  1  0  0  0  0
  9 10  1  0  0  0  0
  9 11  1  0  0  0  0
  9 17  1  0  0  0  0
 10 12  1  0  0  0  0
 10 30  1  0  0  0  0
 10 31  1  0  0  0  0
 11 13  1  0  0  0  0
 11 32  1  0  0  0  0
 11 33  1  0  0  0  0
 12 14  1  0  0  0  0
 12 34  1  0  0  0  0
 13 14  2  0  0  0  0
 13 15  1  0  0  0  0
 14 16  1  0  0  0  0
 15 18  2  0  0  0  0
 16 19  2  0  0  0  0
 17 22  1  0  0  0  0
 18 19  1  0  0  0  0
 18 21  1  0  0  0  0
 19 20  1  0  0  0  0
 20 23  1  0  0  0  0
 21 24  1  0  0  0  0
 22 37  1  0  0  0  0
 22 38  1  0  0  0  0
 22 39  1  0  0  0  0
 23 24  2  0  0  0  0
 23 25  1  0  0  0  0
 24 26  1  0  0  0  0
 25 27  2  0  0  0  0
 26 28  2  0  0  0  0
 26 42  1  0  0  0  0
 27 28  1  0  0  0  0
 27 43  1  0  0  0  0
 28 44  1  0  0  0  0
 29 45  1  0  0  0  0
 29 46  1  0  0  0  0
 29 47  1  0  0  0  0
M  END
> <PUBCHEM_COMPOUND_CID>
12309123

> <PUBCHEM_CONFORMER_RMSD>
0.8

> <PUBCHEM_CONFORMER_DIVERSEORDER>
2
1

> <PUBCHEM_MMFF94_PARTIAL_CHARGES>
35
1 -0.68
11 0.14
12 0.42
13 -0.14
14 -0.14
15 0.08
16 0.08
17 0.45
18 0.09
19 0.09
2 -0.68
20 0.4
21 0.4
22 0.06
23 0.09
24 0.09
25 0.08
26 -0.15
27 -0.15
28 -0.15
29 0.28
3 -0.53
35 0.4
36 0.4
4 -0.53
40 0.45
41 0.45
42 0.15
43 0.15
44 0.15
5 -0.57
6 -0.57
7 -0.57
8 -0.36
9 0.34

> <PUBCHEM_EFFECTIVE_ROTOR_COUNT>
2.8

> <PUBCHEM_PHARMACOPHORE_FEATURES>
14
1 1 acceptor
1 1 donor
1 2 acceptor
1 2 donor
1 3 donor
1 4 donor
1 5 acceptor
1 6 acceptor
1 7 acceptor
1 8 acceptor
6 13 14 15 16 18 19 rings
6 18 19 20 21 23 24 rings
6 23 24 25 26 27 28 rings
6 9 10 11 12 13 14 rings

> <PUBCHEM_HEAVY_ATOM_COUNT>
29

> <PUBCHEM_ATOM_DEF_STEREO_COUNT>
2

> <PUBCHEM_ATOM_UDEF_STEREO_COUNT>
0

> <PUBCHEM_BOND_DEF_STEREO_COUNT>
0

> <PUBCHEM_BOND_UDEF_STEREO_COUNT>
0

> <PUBCHEM_ISOTOPIC_ATOM_COUNT>
0

> <PUBCHEM_COMPONENT_COUNT>
1

> <PUBCHEM_CACTVS_TAUTO_COUNT>
54

> <PUBCHEM_CONFORMER_ID>
00BBD28300000002

> <PUBCHEM_MMFF94_ENERGY>
103.8158

> <PUBCHEM_FEATURE_SELFOVERLAP>
71.127

> <PUBCHEM_SHAPE_FINGERPRINT>
10622 236 17987495156695594695
10693767 8 18201141205406713175
10906281 52 18269577016373315592
10967382 1 18339087098516430936
11578080 2 17096637708608376647
12011746 2 18410859875782018108
12107183 9 17906741302102329560
12166972 35 18114186319438272533
12236239 1 17846781802092921337
12403259 415 17967814916665203261
12403260 363 18339641118963766624
12788726 201 17560534892882634969
12838862 33 18338785815478072844
13140716 1 18410863169942832619
13402501 40 18335140916460491213
13533116 47 18412826867940473352
13583140 156 17167863084419643409
13782708 43 17748832916813395643
13862211 1 18340201899705840050
13944108 23 17108445201557309725
14294032 229 16342871933143159601
14790565 3 18339091457349541496
15183329 4 18410573985162007206
15196674 1 18410862083136628418
15230672 131 13866425009791982819
15420108 30 17263577508299810872
15788980 27 18186803607817822819
1601671 61 18408887369117572108
17349148 13 18060422404173884473
17857418 61 18342174449462201736
19591789 44 18337958896290826914
200 152 17989488528442181249
20028762 73 18201434723603837278
20511986 3 18271232894144207528
20775438 99 16692405854399251927
21033648 144 18408881862679212317
21033648 29 17749380469266713005
21267235 1 18339375105473884074
21279426 13 18335138631263518468
21421861 104 18113890556023207666
21521239 73 18271793671160922591
21859007 373 17678151846935249012
221357 26 18409719665329124989
22393880 68 18188196672429690471
23402539 116 18131635582135690273
23522609 53 17985577560955815392
23559900 14 18341331205812113392
3004659 81 18259988150589324746
335352 9 18411424998614208420
34797466 226 15841551928964704296
34934 24 18411702092861673947
350125 39 18410016512104317024
3680242 22 18336552607955086586
3882209 13 16962916053648208971
4015057 19 18411133667125637305
4073 2 18042414684581420722
46194498 28 17677329540891525837
5104073 3 18411143545307643746
5283173 99 18187357684495963677
59755656 215 18409453592326352420
9709674 26 18270410364846847254

> <PUBCHEM_SHAPE_MULTIPOLES>
549.85
13.15
2.88
0.99
1.1
0.14
-0.21
1.19
-2.35
-2.4
0.3
1.29
0.03
-0.55

> <PUBCHEM_SHAPE_SELFOVERLAP>
1239.699

> <PUBCHEM_SHAPE_VOLUME>
284.4

> <PUBCHEM_COORDINATE_TYPE>
2
5
10

$$$$
