REMARK  Name = 12303703
REMARK  9 active torsions:
REMARK  status: ('A' for Active; 'I' for Inactive)
REMARK    1  A    between atoms: C_4  and  O_17
REMARK    2  A    between atoms: C_11  and  C_28
REMARK    3  A    between atoms: O_17  and  C_19
REMARK    4  A    between atoms: C_19  and  C_20
REMARK    5  A    between atoms: C_20  and  C_22
REMARK    6  A    between atoms: C_22  and  O_23
REMARK    7  A    between atoms: C_22  and  C_25
REMARK    8  A    between atoms: C_25  and  O_26
REMARK    9  A    between atoms: C_28  and  O_29
REMARK                            x       y       z     vdW  Elec       q    Type
REMARK                         _______ _______ _______ _____ _____    ______ ____
ROOT
ATOM      1  O   UNL     1      -2.705   2.415   0.198  0.00  0.00    -0.449 OA
ATOM      2  O   UNL     1      -1.878   4.558   0.155  0.00  0.00    -0.245 OA
ATOM      3  C   UNL     1      -0.695   1.177   0.442  0.00  0.00    +0.109 C 
ATOM      4  C   UNL     1       0.303   0.106  -0.087  0.00  0.00    +0.177 C 
ATOM      5  C   UNL     1      -2.155   1.110  -0.057  0.00  0.00    +0.177 C 
ATOM      6  C   UNL     1       0.179  -1.342   0.459  0.00  0.00    +0.044 C 
ATOM      7  C   UNL     1      -0.438   2.612   0.051  0.00  0.00    +0.060 C 
ATOM      8  C   UNL     1      -3.015   0.113   0.656  0.00  0.00    +0.047 C 
ATOM      9  C   UNL     1      -0.991  -2.172  -0.012  0.00  0.00    +0.004 C 
ATOM     10  C   UNL     1      -1.719   3.351   0.132  0.00  0.00    +0.337 C 
ATOM     11  C   UNL     1      -3.889  -0.745   0.088  0.00  0.00    +0.033 C 
ATOM     12  C   UNL     1      -4.290  -1.993   0.858  0.00  0.00    +0.003 C 
ATOM     13  C   UNL     1      -3.273  -3.138   0.618  0.00  0.00    +0.000 C 
ATOM     14  C   UNL     1      -1.872  -2.647   0.896  0.00  0.00    +0.000 C 
ATOM     15  C   UNL     1       0.650   3.257  -0.380  0.00  0.00    +0.002 C 
ATOM     16  C   UNL     1      -1.109  -2.344  -1.500  0.00  0.00    +0.000 C 
ENDROOT
BRANCH   4  17
ATOM     17  O   UNL     1       1.634   0.498   0.300  0.00  0.00    -0.449 OA
BRANCH  17  19
ATOM     18  O   UNL     1       2.618  -0.985  -1.154  0.00  0.00    -0.245 OA
ATOM     19  C   UNL     1       2.630  -0.318  -0.127  0.00  0.00    +0.339 C 
BRANCH  19  20
ATOM     20  C   UNL     1       3.768  -0.333   0.841  0.00  0.00    +0.082 C 
ATOM     21  C   UNL     1       3.557  -0.119   2.150  0.00  0.00    +0.005 C 
BRANCH  20  22
ATOM     22  C   UNL     1       5.162  -0.576   0.308  0.00  0.00    +0.168 C 
BRANCH  22  23
ATOM     23  O   UNL     1       5.236  -1.895  -0.234  0.00  0.00    -0.377 OA
ATOM     24  H   UNL     1       4.979  -2.538   0.444  0.00  0.00    +0.211 HD
ENDBRANCH  22  23
BRANCH  22  25
ATOM     25  C   UNL     1       5.567   0.437  -0.763  0.00  0.00    +0.171 C 
BRANCH  25  26
ATOM     26  O   UNL     1       6.900   0.153  -1.178  0.00  0.00    -0.379 OA
ATOM     27  H   UNL     1       7.169   0.790  -1.859  0.00  0.00    +0.211 HD
ENDBRANCH  25  26
ENDBRANCH  22  25
ENDBRANCH  20  22
ENDBRANCH  19  20
ENDBRANCH  17  19
ENDBRANCH   4  17
BRANCH  11  28
ATOM     28  C   UNL     1      -4.384  -0.669  -1.328  0.00  0.00    +0.137 C 
BRANCH  28  29
ATOM     29  O   UNL     1      -5.790  -0.513  -1.333  0.00  0.00    -0.382 OA
ATOM     30  H   UNL     1      -6.107  -0.464  -2.248  0.00  0.00    +0.210 HD
ENDBRANCH  28  29
ENDBRANCH  11  28
TORSDOF 9
