12305005
  -OEChem-03292013303D

 39 41  0     1  0  0  0  0  0999 V2000
   -0.0518   -2.1599   -0.7522 O   0  0  0  0  0  0  0  0  0  0  0  0
    1.5015    1.0120   -0.8761 O   0  0  0  0  0  0  0  0  0  0  0  0
    2.6033   -1.7223   -0.6838 O   0  0  0  0  0  0  0  0  0  0  0  0
   -0.2785    0.3431   -2.1605 O   0  0  0  0  0  0  0  0  0  0  0  0
    4.4212    0.1054    1.1286 O   0  0  0  0  0  0  0  0  0  0  0  0
   -1.1129   -4.0475   -0.0016 O   0  0  0  0  0  0  0  0  0  0  0  0
    5.4025    2.4407   -0.0579 O   0  0  0  0  0  0  0  0  0  0  0  0
   -5.1505    2.4326   -0.3457 O   0  0  0  0  0  0  0  0  0  0  0  0
    0.3697   -0.9319   -0.1759 C   0  0  1  0  0  0  0  0  0  0  0  0
   -0.6023   -0.6721    0.9853 C   0  0  2  0  0  0  0  0  0  0  0  0
    1.8304   -0.9967    0.2705 C   0  0  2  0  0  0  0  0  0  0  0  0
    2.2197    0.4741    0.2500 C   0  0  1  0  0  0  0  0  0  0  0  0
   -0.9424   -2.0951    1.4221 C   0  0  0  0  0  0  0  0  0  0  0  0
    0.4530    0.1874   -1.1953 C   0  0  0  0  0  0  0  0  0  0  0  0
    3.7030    0.7496    0.0763 C   0  0  1  0  0  0  0  0  0  0  0  0
   -1.8241    0.1623    0.6275 C   0  0  0  0  0  0  0  0  0  0  0  0
   -0.7374   -2.8982    0.1706 C   0  0  0  0  0  0  0  0  0  0  0  0
    4.0065    2.2422    0.1380 C   0  0  0  0  0  0  0  0  0  0  0  0
   -2.0914    1.3318    1.3316 C   0  0  0  0  0  0  0  0  0  0  0  0
   -2.6647   -0.2517   -0.4008 C   0  0  0  0  0  0  0  0  0  0  0  0
   -3.2116    2.0957    1.0039 C   0  0  0  0  0  0  0  0  0  0  0  0
   -3.7848    0.5124   -0.7284 C   0  0  0  0  0  0  0  0  0  0  0  0
   -4.0583    1.6860   -0.0261 C   0  0  0  0  0  0  0  0  0  0  0  0
   -0.0944   -0.1658    1.8158 H   0  0  0  0  0  0  0  0  0  0  0  0
    1.9852   -1.4619    1.2487 H   0  0  0  0  0  0  0  0  0  0  0  0
    1.8465    0.9753    1.1523 H   0  0  0  0  0  0  0  0  0  0  0  0
   -1.9672   -2.2000    1.7883 H   0  0  0  0  0  0  0  0  0  0  0  0
   -0.2340   -2.4569    2.1743 H   0  0  0  0  0  0  0  0  0  0  0  0
    4.0756    0.3529   -0.8756 H   0  0  0  0  0  0  0  0  0  0  0  0
    2.2480   -2.6270   -0.7135 H   0  0  0  0  0  0  0  0  0  0  0  0
    3.4685    2.7938   -0.6388 H   0  0  0  0  0  0  0  0  0  0  0  0
    3.7498    2.6541    1.1197 H   0  0  0  0  0  0  0  0  0  0  0  0
   -1.4409    1.6643    2.1357 H   0  0  0  0  0  0  0  0  0  0  0  0
   -2.4848   -1.1603   -0.9650 H   0  0  0  0  0  0  0  0  0  0  0  0
    5.3643    0.3081    1.0047 H   0  0  0  0  0  0  0  0  0  0  0  0
   -3.4192    3.0093    1.5544 H   0  0  0  0  0  0  0  0  0  0  0  0
   -4.4370    0.1823   -1.5326 H   0  0  0  0  0  0  0  0  0  0  0  0
    5.5636    3.3984   -0.0094 H   0  0  0  0  0  0  0  0  0  0  0  0
   -5.6220    2.0026   -1.0797 H   0  0  0  0  0  0  0  0  0  0  0  0
  1  9  1  0  0  0  0
  1 17  1  0  0  0  0
  2 12  1  0  0  0  0
  2 14  1  0  0  0  0
  3 11  1  0  0  0  0
  3 30  1  0  0  0  0
  4 14  2  0  0  0  0
  5 15  1  0  0  0  0
  5 35  1  0  0  0  0
  6 17  2  0  0  0  0
  7 18  1  0  0  0  0
  7 38  1  0  0  0  0
  8 23  1  0  0  0  0
  8 39  1  0  0  0  0
  9 10  1  0  0  0  0
  9 11  1  0  0  0  0
  9 14  1  0  0  0  0
 10 13  1  0  0  0  0
 10 16  1  0  0  0  0
 10 24  1  0  0  0  0
 11 12  1  0  0  0  0
 11 25  1  0  0  0  0
 12 15  1  0  0  0  0
 12 26  1  0  0  0  0
 13 17  1  0  0  0  0
 13 27  1  0  0  0  0
 13 28  1  0  0  0  0
 15 18  1  0  0  0  0
 15 29  1  0  0  0  0
 16 19  2  0  0  0  0
 16 20  1  0  0  0  0
 18 31  1  0  0  0  0
 18 32  1  0  0  0  0
 19 21  1  0  0  0  0
 19 33  1  0  0  0  0
 20 22  2  0  0  0  0
 20 34  1  0  0  0  0
 21 23  2  0  0  0  0
 21 36  1  0  0  0  0
 22 23  1  0  0  0  0
 22 37  1  0  0  0  0
M  END
> <PUBCHEM_COMPOUND_CID>
12305005

> <PUBCHEM_CONFORMER_RMSD>
0.8

> <PUBCHEM_CONFORMER_DIVERSEORDER>
1
4
5
7
9
6
2
3
8

> <PUBCHEM_MMFF94_PARTIAL_CHARGES>
31
1 -0.43
10 0.14
11 0.28
12 0.28
13 0.06
14 0.66
15 0.28
16 -0.14
17 0.66
18 0.28
19 -0.15
2 -0.43
20 -0.15
21 -0.15
22 -0.15
23 0.08
3 -0.68
30 0.4
33 0.15
34 0.15
35 0.4
36 0.15
37 0.15
38 0.4
39 0.45
4 -0.57
5 -0.68
6 -0.57
7 -0.68
8 -0.53
9 0.34

> <PUBCHEM_EFFECTIVE_ROTOR_COUNT>
4.2

> <PUBCHEM_PHARMACOPHORE_FEATURES>
12
1 3 acceptor
1 3 donor
1 4 acceptor
1 5 acceptor
1 5 donor
1 6 acceptor
1 7 acceptor
1 7 donor
1 8 donor
5 1 9 10 13 17 rings
5 2 9 11 12 14 rings
6 16 19 20 21 22 23 rings

> <PUBCHEM_HEAVY_ATOM_COUNT>
23

> <PUBCHEM_ATOM_DEF_STEREO_COUNT>
5

> <PUBCHEM_ATOM_UDEF_STEREO_COUNT>
0

> <PUBCHEM_BOND_DEF_STEREO_COUNT>
0

> <PUBCHEM_BOND_UDEF_STEREO_COUNT>
0

> <PUBCHEM_ISOTOPIC_ATOM_COUNT>
0

> <PUBCHEM_COMPONENT_COUNT>
1

> <PUBCHEM_CACTVS_TAUTO_COUNT>
4

> <PUBCHEM_CONFORMER_ID>
00BBC26D00000001

> <PUBCHEM_MMFF94_ENERGY>
60.3662

> <PUBCHEM_FEATURE_SELFOVERLAP>
60.929

> <PUBCHEM_SHAPE_FINGERPRINT>
10764073 3 15001030024371580889
10863032 1 18202281368714867559
10948715 1 18411979152522177487
11370993 70 18410290285603324873
11640471 11 18272088228381078497
12107183 9 18262787477081250058
121448 382 18272928341259140403
12173636 292 18198617942406006036
12293681 160 17917711284052502233
12403259 415 18336281058579153289
12633257 1 18114730578411225688
12788726 201 17756441700006333691
12892183 10 17530970180531365416
13134695 92 17473274171553185423
13140716 1 18262243209650373747
13149001 5 12893911862025251685
13583140 156 17417246684423376674
13994607 96 18129105691421068093
14142880 1 18117267271489258028
14466204 15 17832701271509277288
14787075 74 18271517715132732231
15061688 2 18409167692847836217
16945 1 18267037230476218210
17093844 174 18270118063165139640
17980427 26 18267575810716507583
18186145 218 18269849622411404067
19784866 140 11743843551306324557
19784866 34 18340770339075975721
204376 136 18409731742360267217
20510252 161 18341620372985392043
21524375 3 18272084959441318593
22149856 69 18120123640624120137
22182313 1 18266485206830115519
23184049 59 18040997284927492018
23227448 37 18268148849711864104
23558518 356 18188215406592336683
23559900 14 18130225957032288762
2748010 2 18191897593861139851
283562 15 17902506331241845466
2838139 119 17774994661729547664
298252 57 17274813636635314591
4340502 62 18188782635303135305
474 4 18339924805637943593
5104073 3 17970330728820596984
633830 44 18200878348986123029
7364860 26 17979073778431962339
84936 182 18127971914686311417
9981440 41 18341888649490672642

> <PUBCHEM_SHAPE_MULTIPOLES>
426.37
8.16
3.32
1.26
3.6
2.31
0.15
-9.09
-0.38
-0.66
-0.3
-0.3
-0.02
0.05

> <PUBCHEM_SHAPE_SELFOVERLAP>
929.7

> <PUBCHEM_SHAPE_VOLUME>
232.5

> <PUBCHEM_COORDINATE_TYPE>
2
5
10

$$$$
