REMARK  Name = 12301973
REMARK  6 active torsions:
REMARK  status: ('A' for Active; 'I' for Inactive)
REMARK    1  A    between atoms: C_3  and  O_18
REMARK    2  A    between atoms: C_4  and  O_20
REMARK    3  A    between atoms: C_6  and  O_22
REMARK    4  A    between atoms: C_10  and  O_24
REMARK    5  A    between atoms: C_11  and  O_26
REMARK    6  A    between atoms: C_16  and  O_28
REMARK                            x       y       z     vdW  Elec       q    Type
REMARK                         _______ _______ _______ _____ _____    ______ ____
ROOT
ATOM      1  O   UNL     1      -2.723  -2.353  -0.029  0.00  0.00    -0.283 OA
ATOM      2  O   UNL     1      -2.246   2.962  -0.291  0.00  0.00    -0.286 OA
ATOM      3  C   UNL     1       3.711  -0.983  -0.288  0.00  0.00    +0.120 C 
ATOM      4  C   UNL     1       3.799   0.414   0.347  0.00  0.00    +0.166 C 
ATOM      5  C   UNL     1       2.360  -1.654   0.024  0.00  0.00    +0.059 C 
ATOM      6  C   UNL     1       2.659   1.329  -0.131  0.00  0.00    +0.164 C 
ATOM      7  C   UNL     1       1.164  -0.729  -0.051  0.00  0.00    +0.015 A 
ATOM      8  C   UNL     1       1.296   0.672  -0.088  0.00  0.00    +0.040 A 
ATOM      9  C   UNL     1       4.856  -1.882   0.191  0.00  0.00    +0.032 C 
ATOM     10  C   UNL     1      -0.119  -1.304  -0.041  0.00  0.00    +0.133 A 
ATOM     11  C   UNL     1       0.137   1.466  -0.163  0.00  0.00    +0.135 A 
ATOM     12  C   UNL     1      -1.264  -0.503  -0.096  0.00  0.00    +0.081 A 
ATOM     13  C   UNL     1      -1.135   0.882  -0.161  0.00  0.00    +0.079 A 
ATOM     14  C   UNL     1      -2.598  -1.135  -0.089  0.00  0.00    +0.232 C 
ATOM     15  C   UNL     1      -2.331   1.742  -0.231  0.00  0.00    +0.202 C 
ATOM     16  C   UNL     1      -3.785  -0.248  -0.158  0.00  0.00    +0.181 C 
ATOM     17  C   UNL     1      -3.652   1.081  -0.224  0.00  0.00    +0.082 C 
ENDROOT
BRANCH   3  18
ATOM     18  O   UNL     1       3.865  -0.871  -1.708  0.00  0.00    -0.384 OA
ATOM     19  H   UNL     1       3.161  -0.308  -2.066  0.00  0.00    +0.210 HD
ENDBRANCH   3  18
BRANCH   4  20
ATOM     20  O   UNL     1       3.791   0.323   1.773  0.00  0.00    -0.379 OA
ATOM     21  H   UNL     1       4.514  -0.256   2.064  0.00  0.00    +0.211 HD
ENDBRANCH   4  20
BRANCH   6  22
ATOM     22  O   UNL     1       2.670   2.529   0.641  0.00  0.00    -0.377 OA
ATOM     23  H   UNL     1       3.551   2.932   0.600  0.00  0.00    +0.211 HD
ENDBRANCH   6  22
BRANCH  10  24
ATOM     24  O   UNL     1      -0.216  -2.667   0.030  0.00  0.00    -0.506 OA
ATOM     25  H   UNL     1       0.561  -3.190   0.066  0.00  0.00    +0.292 HD
ENDBRANCH  10  24
BRANCH  11  26
ATOM     26  O   UNL     1       0.274   2.821  -0.279  0.00  0.00    -0.506 OA
ATOM     27  H   UNL     1       1.127   3.208  -0.280  0.00  0.00    +0.292 HD
ENDBRANCH  11  26
BRANCH  16  28
ATOM     28  O   UNL     1      -5.018  -0.867  -0.152  0.00  0.00    -0.468 OA
ATOM     29  C   UNL     1      -5.493  -1.024   1.171  0.00  0.00    +0.253 C 
ENDBRANCH  16  28
TORSDOF 6
