REMARK  Name = 12306674
REMARK  4 active torsions:
REMARK  status: ('A' for Active; 'I' for Inactive)
REMARK    1  A    between atoms: C_6  and  O_18
REMARK    2  A    between atoms: C_7  and  C_22
REMARK    3  A    between atoms: C_12  and  O_20
REMARK    4  A    between atoms: C_23  and  C_26
REMARK                            x       y       z     vdW  Elec       q    Type
REMARK                         _______ _______ _______ _____ _____    ______ ____
ROOT
ATOM      1  O   UNL     1       0.859  -2.523   0.959  0.00  0.00    -0.270 OA
ATOM      2  N   UNL     1      -0.277  -0.705   0.119  0.00  0.00    -0.251 N 
ATOM      3  N   UNL     1       1.735   1.590   0.497  0.00  0.00    -0.308 N 
ATOM      4  C   UNL     1      -0.360   0.656  -0.434  0.00  0.00    +0.131 C 
ATOM      5  C   UNL     1      -1.875   0.910  -0.612  0.00  0.00    +0.052 C 
ATOM      6  C   UNL     1       0.292   1.650   0.522  0.00  0.00    +0.205 C 
ATOM      7  C   UNL     1      -2.489  -0.343  -0.069  0.00  0.00    -0.005 C 
ATOM      8  C   UNL     1      -1.544  -1.202   0.319  0.00  0.00    +0.064 C 
ATOM      9  C   UNL     1       0.869  -1.411   0.428  0.00  0.00    +0.254 C 
ATOM     10  C   UNL     1       2.556   0.527   0.177  0.00  0.00    +0.085 C 
ATOM     11  C   UNL     1       2.195  -0.829   0.077  0.00  0.00    +0.070 C 
ATOM     12  C   UNL     1       3.900   0.858  -0.126  0.00  0.00    +0.143 C 
ATOM     13  C   UNL     1       3.157  -1.786  -0.316  0.00  0.00    +0.006 C 
ATOM     14  C   UNL     1       4.843  -0.095  -0.512  0.00  0.00    +0.013 C 
ATOM     15  C   UNL     1       4.468  -1.423  -0.611  0.00  0.00    -0.001 C 
ATOM     16  C   UNL     1       6.250   0.295  -0.825  0.00  0.00    +0.034 C 
ATOM     17  H   UNL     1       2.198   2.423   0.743  0.00  0.00    +0.149 HD
ENDROOT
BRANCH   6  18
ATOM     18  O   UNL     1      -0.204   1.515   1.850  0.00  0.00    -0.366 OA
ATOM     19  H   UNL     1       0.233   2.162   2.426  0.00  0.00    +0.212 HD
ENDBRANCH   6  18
BRANCH  12  20
ATOM     20  O   UNL     1       4.301   2.168  -0.046  0.00  0.00    -0.505 OA
ATOM     21  H   UNL     1       3.689   2.830   0.211  0.00  0.00    +0.292 HD
ENDBRANCH  12  20
BRANCH   7  22
ATOM     22  C   UNL     1      -3.902  -0.539  -0.005  0.00  0.00    +0.002 C 
ATOM     23  C   UNL     1      -4.794   0.378  -0.417  0.00  0.00    +0.057 C 
BRANCH  23  26
ATOM     24  O   UNL     1      -6.712  -0.943   0.128  0.00  0.00    -0.270 OA
ATOM     25  N   UNL     1      -7.015   1.149  -0.783  0.00  0.00    -0.325 N 
ATOM     26  C   UNL     1      -6.251   0.103  -0.319  0.00  0.00    +0.243 C 
ATOM     27  H   UNL     1      -7.997   1.085  -0.769  0.00  0.00    +0.145 HD
ATOM     28  H   UNL     1      -6.579   1.961  -1.128  0.00  0.00    +0.145 HD
ENDBRANCH  23  26
ENDBRANCH   7  22
TORSDOF 4
