REMARK  Name = 12305769
REMARK  7 active torsions:
REMARK  status: ('A' for Active; 'I' for Inactive)
REMARK    1  A    between atoms: C_3  and  O_11
REMARK    2  A    between atoms: C_3  and  C_17
REMARK    3  A    between atoms: C_7  and  O_13
REMARK    4  A    between atoms: C_10  and  O_15
REMARK    5  A    between atoms: C_17  and  C_18
REMARK    6  A    between atoms: C_21  and  O_24
REMARK    7  A    between atoms: C_23  and  O_26
REMARK                            x       y       z     vdW  Elec       q    Type
REMARK                         _______ _______ _______ _____ _____    ______ ____
ROOT
ATOM      1  O   UNL     1      -0.400  -0.352   0.564  0.00  0.00    -0.451 OA
ATOM      2  O   UNL     1      -1.813   2.783  -0.306  0.00  0.00    -0.285 OA
ATOM      3  C   UNL     1      -0.184   1.058   0.316  0.00  0.00    +0.286 C 
ATOM      4  C   UNL     1      -1.536   1.626  -0.056  0.00  0.00    +0.242 C 
ATOM      5  C   UNL     1      -2.466   0.529  -0.037  0.00  0.00    +0.109 C 
ATOM      6  C   UNL     1      -1.733  -0.581   0.334  0.00  0.00    +0.150 C 
ATOM      7  C   UNL     1      -3.818   0.485  -0.306  0.00  0.00    +0.143 C 
ATOM      8  C   UNL     1      -2.342  -1.815   0.451  0.00  0.00    +0.074 C 
ATOM      9  C   UNL     1      -4.445  -0.756  -0.191  0.00  0.00    +0.073 C 
ATOM     10  C   UNL     1      -3.713  -1.898   0.185  0.00  0.00    +0.140 C 
ENDROOT
BRANCH   3  11
ATOM     11  O   UNL     1       0.259   1.737   1.478  0.00  0.00    -0.349 OA
ATOM     12  H   UNL     1       1.127   1.394   1.742  0.00  0.00    +0.214 HD
ENDBRANCH   3  11
BRANCH   7  13
ATOM     13  O   UNL     1      -4.520   1.586  -0.666  0.00  0.00    -0.505 OA
ATOM     14  H   UNL     1      -4.088   2.414  -0.740  0.00  0.00    +0.292 HD
ENDBRANCH   7  13
BRANCH  10  15
ATOM     15  O   UNL     1      -4.349  -3.099   0.291  0.00  0.00    -0.505 OA
ATOM     16  H   UNL     1      -3.868  -3.863   0.541  0.00  0.00    +0.292 HD
ENDBRANCH  10  15
BRANCH   3  17
ATOM     17  C   UNL     1       0.804   1.215  -0.833  0.00  0.00    +0.104 C 
BRANCH  17  18
ATOM     18  C   UNL     1       2.157   0.656  -0.485  0.00  0.00    -0.012 C 
ATOM     19  C   UNL     1       2.438  -0.675  -0.761  0.00  0.00    +0.036 C 
ATOM     20  C   UNL     1       3.105   1.479   0.108  0.00  0.00    -0.001 C 
ATOM     21  C   UNL     1       3.693  -1.193  -0.439  0.00  0.00    +0.167 C 
ATOM     22  C   UNL     1       4.359   0.960   0.431  0.00  0.00    +0.039 C 
ATOM     23  C   UNL     1       4.653  -0.376   0.157  0.00  0.00    +0.167 C 
BRANCH  21  24
ATOM     24  O   UNL     1       3.968  -2.499  -0.711  0.00  0.00    -0.503 OA
ATOM     25  H   UNL     1       3.317  -3.042  -1.112  0.00  0.00    +0.292 HD
ENDBRANCH  21  24
BRANCH  23  26
ATOM     26  O   UNL     1       5.881  -0.871   0.476  0.00  0.00    -0.503 OA
ATOM     27  H   UNL     1       6.087  -1.767   0.295  0.00  0.00    +0.292 HD
ENDBRANCH  23  26
ENDBRANCH  17  18
ENDBRANCH   3  17
TORSDOF 7
