REMARK  Name = 12309904
REMARK  5 active torsions:
REMARK  status: ('A' for Active; 'I' for Inactive)
REMARK    1  A    between atoms: C_3  and  C_12
REMARK    2  A    between atoms: C_8  and  O_22
REMARK    3  A    between atoms: C_10  and  O_24
REMARK    4  A    between atoms: C_15  and  O_18
REMARK    5  A    between atoms: C_17  and  O_20
REMARK                            x       y       z     vdW  Elec       q    Type
REMARK                         _______ _______ _______ _____ _____    ______ ____
ROOT
ATOM      1  O   UNL     1       0.421  -0.514  -0.021  0.00  0.00    -0.471 OA
ATOM      2  O   UNL     1       1.866   3.323  -0.158  0.00  0.00    -0.291 OA
ATOM      3  C   UNL     1      -0.343   0.578   0.516  0.00  0.00    +0.196 C 
ATOM      4  C   UNL     1      -0.045   1.875  -0.232  0.00  0.00    +0.117 C 
ATOM      5  C   UNL     1       2.325   1.010  -0.044  0.00  0.00    +0.072 C 
ATOM      6  C   UNL     1       1.426   2.180  -0.123  0.00  0.00    +0.180 C 
ATOM      7  C   UNL     1       1.770  -0.273  -0.019  0.00  0.00    +0.178 C 
ATOM      8  C   UNL     1       2.607  -1.390  -0.022  0.00  0.00    +0.202 C 
ATOM      9  C   UNL     1       3.711   1.181  -0.036  0.00  0.00    +0.009 C 
ATOM     10  C   UNL     1       3.992  -1.222  -0.017  0.00  0.00    +0.171 C 
ATOM     11  C   UNL     1       4.543   0.060  -0.019  0.00  0.00    +0.040 C 
ENDROOT
BRANCH   3  12
ATOM     12  C   UNL     1      -1.812   0.223   0.431  0.00  0.00    +0.021 C 
ATOM     13  C   UNL     1      -2.410   0.029  -0.814  0.00  0.00    +0.039 C 
ATOM     14  C   UNL     1      -2.566   0.090   1.596  0.00  0.00    +0.002 C 
ATOM     15  C   UNL     1      -3.764  -0.298  -0.893  0.00  0.00    +0.167 C 
ATOM     16  C   UNL     1      -3.920  -0.236   1.518  0.00  0.00    +0.040 C 
ATOM     17  C   UNL     1      -4.519  -0.430   0.273  0.00  0.00    +0.167 C 
BRANCH  15  18
ATOM     18  O   UNL     1      -4.338  -0.485  -2.114  0.00  0.00    -0.503 OA
ATOM     19  H   UNL     1      -3.824  -0.394  -2.892  0.00  0.00    +0.292 HD
ENDBRANCH  15  18
BRANCH  17  20
ATOM     20  O   UNL     1      -5.841  -0.750   0.208  0.00  0.00    -0.503 OA
ATOM     21  H   UNL     1      -6.251  -0.882  -0.624  0.00  0.00    +0.292 HD
ENDBRANCH  17  20
ENDBRANCH   3  12
BRANCH   8  22
ATOM     22  O   UNL     1       2.077  -2.647  -0.019  0.00  0.00    -0.501 OA
ATOM     23  H   UNL     1       1.147  -2.763  -0.023  0.00  0.00    +0.292 HD
ENDBRANCH   8  22
BRANCH  10  24
ATOM     24  O   UNL     1       4.821  -2.304  -0.011  0.00  0.00    -0.503 OA
ATOM     25  H   UNL     1       4.461  -3.169  -0.009  0.00  0.00    +0.292 HD
ENDBRANCH  10  24
TORSDOF 5
