REMARK  Name = 12305005
REMARK  7 active torsions:
REMARK  status: ('A' for Active; 'I' for Inactive)
REMARK    1  A    between atoms: C_6  and  C_12
REMARK    2  A    between atoms: C_7  and  O_20
REMARK    3  A    between atoms: C_8  and  C_22
REMARK    4  A    between atoms: C_17  and  O_18
REMARK    5  A    between atoms: C_22  and  O_23
REMARK    6  A    between atoms: C_22  and  C_25
REMARK    7  A    between atoms: C_25  and  O_26
REMARK                            x       y       z     vdW  Elec       q    Type
REMARK                         _______ _______ _______ _____ _____    ______ ____
ROOT
ATOM      1  O   UNL     1      -0.052  -2.160  -0.752  0.00  0.00    -0.442 OA
ATOM      2  O   UNL     1       1.502   1.012  -0.876  0.00  0.00    -0.445 OA
ATOM      3  O   UNL     1      -0.279   0.343  -2.160  0.00  0.00    -0.246 OA
ATOM      4  O   UNL     1      -1.113  -4.048  -0.002  0.00  0.00    -0.250 OA
ATOM      5  C   UNL     1       0.370  -0.932  -0.176  0.00  0.00    +0.255 C 
ATOM      6  C   UNL     1      -0.602  -0.672   0.985  0.00  0.00    +0.083 C 
ATOM      7  C   UNL     1       1.830  -0.997   0.271  0.00  0.00    +0.201 C 
ATOM      8  C   UNL     1       2.220   0.474   0.250  0.00  0.00    +0.229 C 
ATOM      9  C   UNL     1      -0.942  -2.095   1.422  0.00  0.00    +0.118 C 
ATOM     10  C   UNL     1       0.453   0.187  -1.195  0.00  0.00    +0.357 C 
ATOM     11  C   UNL     1      -0.737  -2.898   0.171  0.00  0.00    +0.318 C 
ENDROOT
BRANCH   6  12
ATOM     12  C   UNL     1      -1.824   0.162   0.627  0.00  0.00    -0.018 C 
ATOM     13  C   UNL     1      -2.091   1.332   1.332  0.00  0.00    -0.001 C 
ATOM     14  C   UNL     1      -2.665  -0.252  -0.401  0.00  0.00    -0.001 C 
ATOM     15  C   UNL     1      -3.212   2.096   1.004  0.00  0.00    +0.036 C 
ATOM     16  C   UNL     1      -3.785   0.512  -0.728  0.00  0.00    +0.036 C 
ATOM     17  C   UNL     1      -4.058   1.686  -0.026  0.00  0.00    +0.134 C 
BRANCH  17  18
ATOM     18  O   UNL     1      -5.151   2.433  -0.346  0.00  0.00    -0.506 OA
ATOM     19  H   UNL     1      -5.334   3.221   0.127  0.00  0.00    +0.292 HD
ENDBRANCH  17  18
ENDBRANCH   6  12
BRANCH   7  20
ATOM     20  O   UNL     1       2.603  -1.722  -0.684  0.00  0.00    -0.377 OA
ATOM     21  H   UNL     1       2.348  -2.658  -0.663  0.00  0.00    +0.211 HD
ENDBRANCH   7  20
BRANCH   8  22
ATOM     22  C   UNL     1       3.703   0.750   0.076  0.00  0.00    +0.182 C 
BRANCH  22  23
ATOM     23  O   UNL     1       4.421   0.105   1.129  0.00  0.00    -0.378 OA
ATOM     24  H   UNL     1       4.241  -0.848   1.107  0.00  0.00    +0.211 HD
ENDBRANCH  22  23
BRANCH  22  25
ATOM     25  C   UNL     1       4.006   2.242   0.138  0.00  0.00    +0.170 C 
BRANCH  25  26
ATOM     26  O   UNL     1       5.402   2.441  -0.058  0.00  0.00    -0.379 OA
ATOM     27  H   UNL     1       5.603   3.389  -0.020  0.00  0.00    +0.211 HD
ENDBRANCH  25  26
ENDBRANCH  22  25
ENDBRANCH   8  22
TORSDOF 7
