REMARK  Name = 12309366
REMARK  6 active torsions:
REMARK  status: ('A' for Active; 'I' for Inactive)
REMARK    1  A    between atoms: C_2  and  O_20
REMARK    2  A    between atoms: C_5  and  C_28
REMARK    3  A    between atoms: C_6  and  O_22
REMARK    4  A    between atoms: C_8  and  O_24
REMARK    5  A    between atoms: C_19  and  O_26
REMARK    6  A    between atoms: C_28  and  O_30
REMARK                            x       y       z     vdW  Elec       q    Type
REMARK                         _______ _______ _______ _____ _____    ______ ____
ROOT
ATOM      1  C   UNL     1      -2.298  -0.139  -0.587  0.00  0.00    +0.052 C 
ATOM      2  C   UNL     1      -1.388  -1.332  -0.088  0.00  0.00    +0.091 C 
ATOM      3  C   UNL     1       0.122  -1.134  -0.366  0.00  0.00    +0.032 C 
ATOM      4  C   UNL     1       0.692   0.185   0.206  0.00  0.00    +0.035 C 
ATOM      5  C   UNL     1      -3.243   0.155   0.638  0.00  0.00    +0.032 C 
ATOM      6  C   UNL     1      -1.455   1.132  -0.933  0.00  0.00    +0.139 C 
ATOM      7  C   UNL     1       2.192   0.413  -0.264  0.00  0.00    +0.017 C 
ATOM      8  C   UNL     1      -0.243   1.401  -0.023  0.00  0.00    +0.138 C 
ATOM      9  C   UNL     1      -1.743  -1.514   1.400  0.00  0.00    +0.027 C 
ATOM     10  C   UNL     1      -3.210  -1.121   1.472  0.00  0.00    +0.005 C 
ATOM     11  C   UNL     1       0.966  -2.324   0.138  0.00  0.00    +0.028 C 
ATOM     12  C   UNL     1      -3.133  -0.550  -1.827  0.00  0.00    +0.005 C 
ATOM     13  C   UNL     1       3.010  -0.877  -0.105  0.00  0.00    -0.047 C 
ATOM     14  C   UNL     1       2.816   1.524   0.634  0.00  0.00    +0.006 C 
ATOM     15  C   UNL     1       2.442  -2.079   0.088  0.00  0.00    -0.034 C 
ATOM     16  C   UNL     1       2.272   0.835  -1.751  0.00  0.00    +0.004 C 
ATOM     17  C   UNL     1       4.515  -0.753  -0.169  0.00  0.00    +0.051 C 
ATOM     18  C   UNL     1       4.332   1.666   0.502  0.00  0.00    +0.030 C 
ATOM     19  C   UNL     1       5.035   0.339   0.761  0.00  0.00    +0.115 C 
ENDROOT
BRANCH   2  20
ATOM     20  O   UNL     1      -1.790  -2.566  -0.711  0.00  0.00    -0.387 OA
ATOM     21  H   UNL     1      -1.595  -2.526  -1.661  0.00  0.00    +0.210 HD
ENDBRANCH   2  20
BRANCH   6  22
ATOM     22  O   UNL     1      -0.937   1.052  -2.266  0.00  0.00    -0.382 OA
ATOM     23  H   UNL     1      -1.663   0.883  -2.886  0.00  0.00    +0.210 HD
ENDBRANCH   6  22
BRANCH   8  24
ATOM     24  O   UNL     1      -0.668   1.875   1.256  0.00  0.00    -0.382 OA
ATOM     25  H   UNL     1       0.108   2.039   1.814  0.00  0.00    +0.210 HD
ENDBRANCH   8  24
BRANCH  19  26
ATOM     26  O   UNL     1       6.432   0.520   0.549  0.00  0.00    -0.384 OA
ATOM     27  H   UNL     1       6.895  -0.317   0.711  0.00  0.00    +0.210 HD
ENDBRANCH  19  26
BRANCH   5  28
ATOM     28  C   UNL     1      -4.668   0.606   0.335  0.00  0.00    +0.111 C 
ATOM     29  C   UNL     1      -5.435   0.924   1.605  0.00  0.00    +0.032 C 
BRANCH  28  30
ATOM     30  O   UNL     1      -4.618   1.760  -0.493  0.00  0.00    -0.384 OA
ATOM     31  H   UNL     1      -4.127   1.556  -1.304  0.00  0.00    +0.210 HD
ENDBRANCH  28  30
ENDBRANCH   5  28
TORSDOF 6
