REMARK  Name = 12305580
REMARK  5 active torsions:
REMARK  status: ('A' for Active; 'I' for Inactive)
REMARK    1  A    between atoms: C_7  and  O_23
REMARK    2  A    between atoms: C_8  and  O_25
REMARK    3  A    between atoms: C_9  and  O_27
REMARK    4  A    between atoms: C_11  and  O_29
REMARK    5  A    between atoms: O_29  and  C_31
REMARK                            x       y       z     vdW  Elec       q    Type
REMARK                         _______ _______ _______ _____ _____    ______ ____
ROOT
ATOM      1  O   UNL     1       0.486   0.747   2.170  0.00  0.00    -0.332 OA
ATOM      2  O   UNL     1       2.798   1.175  -1.592  0.00  0.00    -0.291 OA
ATOM      3  C   UNL     1      -0.895   0.077   0.203  0.00  0.00    +0.067 C 
ATOM      4  C   UNL     1       1.664  -0.015   0.247  0.00  0.00    +0.129 C 
ATOM      5  C   UNL     1       0.376  -0.678  -0.367  0.00  0.00    +0.020 C 
ATOM      6  C   UNL     1      -0.787   1.542  -0.385  0.00  0.00    +0.038 C 
ATOM      7  C   UNL     1       1.273   1.236   1.066  0.00  0.00    +0.217 C 
ATOM      8  C   UNL     1       0.377   2.261   0.337  0.00  0.00    +0.162 C 
ATOM      9  C   UNL     1       2.474  -1.077   1.063  0.00  0.00    +0.126 C 
ATOM     10  C   UNL     1      -2.148   2.338  -0.527  0.00  0.00    +0.003 C 
ATOM     11  C   UNL     1      -2.235  -0.567  -0.221  0.00  0.00    +0.171 C 
ATOM     12  C   UNL     1      -0.731   0.116   1.749  0.00  0.00    +0.148 C 
ATOM     13  C   UNL     1       0.384  -2.219  -0.230  0.00  0.00    +0.001 C 
ATOM     14  C   UNL     1       2.943  -2.050  -0.026  0.00  0.00    +0.053 C 
ATOM     15  C   UNL     1       2.658   0.184  -0.897  0.00  0.00    +0.175 C 
ATOM     16  C   UNL     1       1.747  -2.864  -0.542  0.00  0.00    +0.007 C 
ATOM     17  C   UNL     1      -3.249   1.734   0.363  0.00  0.00    +0.004 C 
ATOM     18  C   UNL     1      -3.476   0.240   0.175  0.00  0.00    +0.044 C 
ATOM     19  C   UNL     1       3.426  -1.083  -1.081  0.00  0.00    +0.015 C 
ATOM     20  C   UNL     1      -2.616   2.274  -2.006  0.00  0.00    +0.000 C 
ATOM     21  C   UNL     1      -2.056   3.841  -0.180  0.00  0.00    +0.000 C 
ATOM     22  C   UNL     1       4.394  -1.242  -1.983  0.00  0.00    -0.002 C 
ENDROOT
BRANCH   7  23
ATOM     23  O   UNL     1       2.435   1.889   1.572  0.00  0.00    -0.361 OA
ATOM     24  H   UNL     1       2.996   1.243   2.029  0.00  0.00    +0.213 HD
ENDBRANCH   7  23
BRANCH   8  25
ATOM     25  O   UNL     1       1.149   3.018  -0.587  0.00  0.00    -0.380 OA
ATOM     26  H   UNL     1       0.577   3.658  -1.039  0.00  0.00    +0.211 HD
ENDBRANCH   8  25
BRANCH   9  27
ATOM     27  O   UNL     1       3.596  -0.514   1.737  0.00  0.00    -0.384 OA
ATOM     28  H   UNL     1       3.288   0.099   2.422  0.00  0.00    +0.210 HD
ENDBRANCH   9  27
BRANCH  11  29
ATOM     29  O   UNL     1      -2.407  -1.886   0.296  0.00  0.00    -0.452 OA
BRANCH  29  31
ATOM     30  O   UNL     1      -4.428  -2.068  -0.807  0.00  0.00    -0.250 OA
ATOM     31  C   UNL     1      -3.555  -2.522  -0.081  0.00  0.00    +0.317 C 
ATOM     32  C   UNL     1      -3.599  -3.888   0.533  0.00  0.00    +0.121 C 
ENDBRANCH  29  31
ENDBRANCH  11  29
TORSDOF 5
