REMARK  Name = 12306850
REMARK  4 active torsions:
REMARK  status: ('A' for Active; 'I' for Inactive)
REMARK    1  A    between atoms: C_6  and  O_20
REMARK    2  A    between atoms: C_9  and  O_22
REMARK    3  A    between atoms: C_11  and  O_24
REMARK    4  A    between atoms: C_14  and  O_26
REMARK                            x       y       z     vdW  Elec       q    Type
REMARK                         _______ _______ _______ _____ _____    ______ ____
ROOT
ATOM      1  O   UNL     1      -1.657   2.395  -0.252  0.00  0.00    -0.448 OA
ATOM      2  O   UNL     1       2.966   0.321   1.607  0.00  0.00    -0.448 OA
ATOM      3  O   UNL     1       3.751  -0.242  -0.491  0.00  0.00    -0.250 OA
ATOM      4  O   UNL     1      -3.468   2.074   1.119  0.00  0.00    -0.247 OA
ATOM      5  C   UNL     1      -1.133  -0.596  -0.459  0.00  0.00    +0.064 C 
ATOM      6  C   UNL     1       0.441  -0.884  -0.190  0.00  0.00    +0.131 C 
ATOM      7  C   UNL     1       1.328   0.359   0.218  0.00  0.00    +0.180 C 
ATOM      8  C   UNL     1      -1.556  -2.034  -0.866  0.00  0.00    +0.008 C 
ATOM      9  C   UNL     1       0.954   1.662  -0.673  0.00  0.00    +0.140 C 
ATOM     10  C   UNL     1      -1.150   0.455  -1.544  0.00  0.00    +0.051 C 
ATOM     11  C   UNL     1       0.366  -2.109   0.721  0.00  0.00    +0.136 C 
ATOM     12  C   UNL     1      -0.581   1.611  -0.712  0.00  0.00    +0.194 C 
ATOM     13  C   UNL     1      -0.815  -2.936   0.155  0.00  0.00    +0.032 C 
ATOM     14  C   UNL     1      -2.116   0.040   0.659  0.00  0.00    +0.212 C 
ATOM     15  C   UNL     1       1.546   0.589   1.746  0.00  0.00    +0.224 C 
ATOM     16  C   UNL     1       2.870   0.074   0.277  0.00  0.00    +0.324 C 
ATOM     17  C   UNL     1      -3.038  -2.368  -0.975  0.00  0.00    +0.000 C 
ATOM     18  C   UNL     1       1.482   2.983  -0.129  0.00  0.00    +0.034 C 
ATOM     19  C   UNL     1      -2.504   1.596   0.527  0.00  0.00    +0.344 C 
ENDROOT
BRANCH   6  20
ATOM     20  O   UNL     1       1.016  -1.347  -1.440  0.00  0.00    -0.384 OA
ATOM     21  H   UNL     1       1.086  -0.603  -2.059  0.00  0.00    +0.210 HD
ENDBRANCH   6  20
BRANCH   9  22
ATOM     22  O   UNL     1       1.477   1.478  -1.988  0.00  0.00    -0.382 OA
ATOM     23  H   UNL     1       1.151   0.640  -2.352  0.00  0.00    +0.210 HD
ENDBRANCH   9  22
BRANCH  11  24
ATOM     24  O   UNL     1       1.571  -2.856   0.703  0.00  0.00    -0.382 OA
ATOM     25  H   UNL     1       2.292  -2.316   1.062  0.00  0.00    +0.210 HD
ENDBRANCH  11  24
BRANCH  14  26
ATOM     26  O   UNL     1      -1.749  -0.264   1.984  0.00  0.00    -0.374 OA
ATOM     27  H   UNL     1      -1.518  -1.203   2.049  0.00  0.00    +0.211 HD
ENDBRANCH  14  26
TORSDOF 4
