12302117
  -OEChem-03292013303D

 62 66  0     1  0  0  0  0  0999 V2000
    1.6796    1.2717   -0.7266 O   0  0  0  0  0  0  0  0  0  0  0  0
   -3.5687    1.5594    1.2445 O   0  0  0  0  0  0  0  0  0  0  0  0
   -7.2037    0.2737   -0.4419 O   0  0  0  0  0  0  0  0  0  0  0  0
   -3.6094   -1.9722   -1.8171 O   0  0  0  0  0  0  0  0  0  0  0  0
    5.5022    1.2996   -0.5075 O   0  0  0  0  0  0  0  0  0  0  0  0
    7.4258    0.5536   -1.4620 O   0  0  0  0  0  0  0  0  0  0  0  0
    0.8712    0.5460    0.2122 C   0  0  1  0  0  0  0  0  0  0  0  0
   -0.5942    0.5572   -0.3066 C   0  0  1  0  0  0  0  0  0  0  0  0
    1.4651   -0.8803    0.3782 C   0  0  2  0  0  0  0  0  0  0  0  0
   -1.5356   -0.4001    0.4826 C   0  0  1  0  0  0  0  0  0  0  0  0
   -2.9962   -0.3836   -0.0946 C   0  0  2  0  0  0  0  0  0  0  0  0
   -3.5348    1.0802   -0.1147 C   0  0  2  0  0  0  0  0  0  0  0  0
    0.4826   -1.7891    1.1631 C   0  0  0  0  0  0  0  0  0  0  0  0
   -0.9258   -1.8117    0.5754 C   0  0  0  0  0  0  0  0  0  0  0  0
    2.7305   -0.6322    1.2602 C   0  0  2  0  0  0  0  0  0  0  0  0
   -1.1753    1.9864   -0.3612 C   0  0  0  0  0  0  0  0  0  0  0  0
    1.0761    1.1808    1.6005 C   0  0  0  0  0  0  0  0  0  0  0  0
   -2.6094    2.0273   -0.8917 C   0  0  0  0  0  0  0  0  0  0  0  0
    2.3229    0.5169    2.2018 C   0  0  0  0  0  0  0  0  0  0  0  0
   -3.9591   -1.2672    0.7453 C   0  0  0  0  0  0  0  0  0  0  0  0
   -4.9771    1.1440   -0.6457 C   0  0  0  0  0  0  0  0  0  0  0  0
    1.8043   -1.5579   -0.9656 C   0  0  0  0  0  0  0  0  0  0  0  0
   -5.4146   -1.1757    0.2729 C   0  0  0  0  0  0  0  0  0  0  0  0
   -5.9198    0.2607    0.1750 C   0  0  2  0  0  0  0  0  0  0  0  0
   -2.9665   -0.9796   -1.4917 C   0  0  0  0  0  0  0  0  0  0  0  0
    3.9907   -0.2780    0.5242 C   0  0  0  0  0  0  0  0  0  0  0  0
    4.8975   -1.3367    0.1642 C   0  0  0  0  0  0  0  0  0  0  0  0
    4.3253    0.9697    0.1794 C   0  0  0  0  0  0  0  0  0  0  0  0
    6.0326   -1.0750   -0.4912 C   0  0  0  0  0  0  0  0  0  0  0  0
    6.3837    0.3121   -0.8614 C   0  0  0  0  0  0  0  0  0  0  0  0
   -0.5483    0.2105   -1.3467 H   0  0  0  0  0  0  0  0  0  0  0  0
   -1.5993   -0.0281    1.5145 H   0  0  0  0  0  0  0  0  0  0  0  0
    0.4069   -1.4706    2.2104 H   0  0  0  0  0  0  0  0  0  0  0  0
    0.8723   -2.8148    1.1964 H   0  0  0  0  0  0  0  0  0  0  0  0
   -0.9103   -2.2945   -0.4073 H   0  0  0  0  0  0  0  0  0  0  0  0
   -1.5406   -2.4466    1.2225 H   0  0  0  0  0  0  0  0  0  0  0  0
    2.9401   -1.5151    1.8806 H   0  0  0  0  0  0  0  0  0  0  0  0
   -0.5497    2.6212   -0.9999 H   0  0  0  0  0  0  0  0  0  0  0  0
   -1.1540    2.4375    0.6381 H   0  0  0  0  0  0  0  0  0  0  0  0
    0.2256    1.0091    2.2678 H   0  0  0  0  0  0  0  0  0  0  0  0
    1.2289    2.2637    1.5296 H   0  0  0  0  0  0  0  0  0  0  0  0
   -2.9705    3.0601   -0.8050 H   0  0  0  0  0  0  0  0  0  0  0  0
   -2.6127    1.7845   -1.9604 H   0  0  0  0  0  0  0  0  0  0  0  0
    3.1071    1.2453    2.4321 H   0  0  0  0  0  0  0  0  0  0  0  0
    2.0440    0.0937    3.1766 H   0  0  0  0  0  0  0  0  0  0  0  0
   -3.9102   -0.9676    1.8000 H   0  0  0  0  0  0  0  0  0  0  0  0
   -3.6659   -2.3233    0.7155 H   0  0  0  0  0  0  0  0  0  0  0  0
   -5.0198    0.8572   -1.7042 H   0  0  0  0  0  0  0  0  0  0  0  0
   -5.3549    2.1743   -0.6034 H   0  0  0  0  0  0  0  0  0  0  0  0
    2.2367   -2.5514   -0.8015 H   0  0  0  0  0  0  0  0  0  0  0  0
    0.9125   -1.6910   -1.5860 H   0  0  0  0  0  0  0  0  0  0  0  0
    2.5140   -0.9865   -1.5711 H   0  0  0  0  0  0  0  0  0  0  0  0
   -5.5809   -1.6899   -0.6787 H   0  0  0  0  0  0  0  0  0  0  0  0
   -6.0485   -1.7233    0.9831 H   0  0  0  0  0  0  0  0  0  0  0  0
   -6.0365    0.6811    1.1809 H   0  0  0  0  0  0  0  0  0  0  0  0
    1.4648    0.9654   -1.6234 H   0  0  0  0  0  0  0  0  0  0  0  0
   -2.3474   -0.4688   -2.2448 H   0  0  0  0  0  0  0  0  0  0  0  0
   -3.9149    2.4682    1.2345 H   0  0  0  0  0  0  0  0  0  0  0  0
    4.6490   -2.3585    0.4310 H   0  0  0  0  0  0  0  0  0  0  0  0
    3.7814    1.8808    0.3791 H   0  0  0  0  0  0  0  0  0  0  0  0
   -7.7912   -0.2871    0.0927 H   0  0  0  0  0  0  0  0  0  0  0  0
    6.7201   -1.8664   -0.7662 H   0  0  0  0  0  0  0  0  0  0  0  0
  1  7  1  0  0  0  0
  1 56  1  0  0  0  0
  2 12  1  0  0  0  0
  2 58  1  0  0  0  0
  3 24  1  0  0  0  0
  3 61  1  0  0  0  0
  4 25  2  0  0  0  0
  5 28  1  0  0  0  0
  5 30  1  0  0  0  0
  6 30  2  0  0  0  0
  7  8  1  0  0  0  0
  7  9  1  0  0  0  0
  7 17  1  0  0  0  0
  8 10  1  0  0  0  0
  8 16  1  0  0  0  0
  8 31  1  0  0  0  0
  9 13  1  0  0  0  0
  9 15  1  0  0  0  0
  9 22  1  0  0  0  0
 10 11  1  0  0  0  0
 10 14  1  0  0  0  0
 10 32  1  0  0  0  0
 11 12  1  0  0  0  0
 11 20  1  0  0  0  0
 11 25  1  0  0  0  0
 12 18  1  0  0  0  0
 12 21  1  0  0  0  0
 13 14  1  0  0  0  0
 13 33  1  0  0  0  0
 13 34  1  0  0  0  0
 14 35  1  0  0  0  0
 14 36  1  0  0  0  0
 15 19  1  0  0  0  0
 15 26  1  0  0  0  0
 15 37  1  0  0  0  0
 16 18  1  0  0  0  0
 16 38  1  0  0  0  0
 16 39  1  0  0  0  0
 17 19  1  0  0  0  0
 17 40  1  0  0  0  0
 17 41  1  0  0  0  0
 18 42  1  0  0  0  0
 18 43  1  0  0  0  0
 19 44  1  0  0  0  0
 19 45  1  0  0  0  0
 20 23  1  0  0  0  0
 20 46  1  0  0  0  0
 20 47  1  0  0  0  0
 21 24  1  0  0  0  0
 21 48  1  0  0  0  0
 21 49  1  0  0  0  0
 22 50  1  0  0  0  0
 22 51  1  0  0  0  0
 22 52  1  0  0  0  0
 23 24  1  0  0  0  0
 23 53  1  0  0  0  0
 23 54  1  0  0  0  0
 24 55  1  0  0  0  0
 25 57  1  0  0  0  0
 26 27  1  0  0  0  0
 26 28  2  0  0  0  0
 27 29  2  0  0  0  0
 27 59  1  0  0  0  0
 28 60  1  0  0  0  0
 29 30  1  0  0  0  0
 29 62  1  0  0  0  0
M  END
> <PUBCHEM_COMPOUND_CID>
12302117

> <PUBCHEM_CONFORMER_RMSD>
0.8

> <PUBCHEM_CONFORMER_DIVERSEORDER>
1
2
3
4

> <PUBCHEM_MMFF94_PARTIAL_CHARGES>
24
1 -0.68
11 0.06
12 0.28
15 0.14
2 -0.68
24 0.28
25 0.45
26 -0.14
27 -0.15
28 -0.07
29 -0.14
3 -0.68
30 0.71
4 -0.57
5 -0.23
56 0.4
57 0.06
58 0.4
59 0.15
6 -0.57
60 0.15
61 0.4
62 0.15
7 0.28

> <PUBCHEM_EFFECTIVE_ROTOR_COUNT>
4.2

> <PUBCHEM_PHARMACOPHORE_FEATURES>
13
1 1 acceptor
1 1 donor
1 2 acceptor
1 2 donor
1 3 acceptor
1 3 donor
1 4 acceptor
1 6 acceptor
5 7 9 15 17 19 rings
6 11 12 20 21 23 24 rings
6 5 26 27 28 29 30 rings
6 7 8 9 10 13 14 rings
6 8 10 11 12 16 18 rings

> <PUBCHEM_HEAVY_ATOM_COUNT>
30

> <PUBCHEM_ATOM_DEF_STEREO_COUNT>
8

> <PUBCHEM_ATOM_UDEF_STEREO_COUNT>
0

> <PUBCHEM_BOND_DEF_STEREO_COUNT>
0

> <PUBCHEM_BOND_UDEF_STEREO_COUNT>
0

> <PUBCHEM_ISOTOPIC_ATOM_COUNT>
0

> <PUBCHEM_COMPONENT_COUNT>
1

> <PUBCHEM_CACTVS_TAUTO_COUNT>
1

> <PUBCHEM_CONFORMER_ID>
00BBB72500000001

> <PUBCHEM_MMFF94_ENERGY>
118.1543

> <PUBCHEM_FEATURE_SELFOVERLAP>
66.169

> <PUBCHEM_SHAPE_FINGERPRINT>
10670039 82 18187363203966665268
11524674 6 16343982520452043575
12011746 2 18412261739853090065
12107698 1 16845573115052103017
12166972 35 17346595300816128041
12236239 1 17167859738228357528
12403259 415 18343291578782380976
12596602 18 16805321084906084313
12788726 201 18340764823768392305
13224815 77 18261383443239127777
13533116 47 16515957069901889018
13631057 29 16081943683810629451
13782708 43 16127801015339094975
13914758 101 13973689399672188755
14617045 38 18273215274801680727
14790565 3 18261114058263500500
14840074 17 17675926490696634717
14856354 85 17417817261510728453
15183329 4 17704076187744578114
15575132 122 17676763184849378725
15788980 27 18202843257853551758
17349148 13 18040147414005338994
18608769 82 18335988657638704195
18681886 176 18188207701309776569
21267235 1 18336267925175784579
21792961 116 18201164256944290638
221357 26 18273492364532425288
22224240 67 13334740158603704792
22393880 68 17775276205715508406
23402539 116 18333729121913120230
23522609 53 18269580293592521392
23559900 14 18341888649200710361
2838139 119 17894912941232573924
335352 9 18334290977715400661
34797466 226 18342464742450110468
350125 39 18408040706451534665
3545911 37 18131066031059933291
4073 2 17458634427358112602
4325135 7 18186241727670091060
4340502 62 14273453673999891992
497634 4 18335985281240508453
5265222 85 18271812384301587758
5486654 2 18187083966055648355
59755656 215 18060420196571607839
59755656 520 17749105599923596275

> <PUBCHEM_SHAPE_MULTIPOLES>
582.17
15.5
1.96
1.42
6.86
0.01
0.2
0.95
-4.74
-0.75
-0.17
0.51
-0.08
-0.3

> <PUBCHEM_SHAPE_SELFOVERLAP>
1271.712

> <PUBCHEM_SHAPE_VOLUME>
310.5

> <PUBCHEM_COORDINATE_TYPE>
2
5
10

$$$$
