REMARK  Name = 12305202
REMARK  4 active torsions:
REMARK  status: ('A' for Active; 'I' for Inactive)
REMARK    1  A    between atoms: C_2  and  O_28
REMARK    2  A    between atoms: C_8  and  C_23
REMARK    3  A    between atoms: C_16  and  O_30
REMARK    4  A    between atoms: C_20  and  O_32
REMARK                            x       y       z     vdW  Elec       q    Type
REMARK                         _______ _______ _______ _____ _____    ______ ____
ROOT
ATOM      1  O   UNL     1       0.530   3.059  -0.587  0.00  0.00    -0.288 OA
ATOM      2  C   UNL     1       0.593  -0.530  -0.090  0.00  0.00    +0.098 C 
ATOM      3  C   UNL     1      -0.794  -0.711   0.576  0.00  0.00    +0.046 C 
ATOM      4  C   UNL     1       1.208   0.860   0.146  0.00  0.00    +0.085 C 
ATOM      5  C   UNL     1      -3.255   0.226   0.791  0.00  0.00    +0.018 C 
ATOM      6  C   UNL     1      -1.754   0.472   0.397  0.00  0.00    -0.006 C 
ATOM      7  C   UNL     1      -3.753  -1.252   0.566  0.00  0.00    +0.006 C 
ATOM      8  C   UNL     1       2.369   0.909  -0.896  0.00  0.00    +0.035 C 
ATOM      9  C   UNL     1       0.610  -0.672  -1.625  0.00  0.00    +0.028 C 
ATOM     10  C   UNL     1      -1.409  -2.058   0.158  0.00  0.00    +0.006 C 
ATOM     11  C   UNL     1      -2.707  -2.314   0.892  0.00  0.00    +0.001 C 
ATOM     12  C   UNL     1       1.774   0.194  -2.124  0.00  0.00    +0.007 C 
ATOM     13  C   UNL     1      -4.249   1.186   0.042  0.00  0.00    +0.006 C 
ATOM     14  C   UNL     1       0.183   1.944  -0.190  0.00  0.00    +0.207 C 
ATOM     15  C   UNL     1      -4.320  -1.442  -0.855  0.00  0.00    +0.030 C 
ATOM     16  C   UNL     1      -1.271   1.690   0.050  0.00  0.00    +0.160 C 
ATOM     17  C   UNL     1       1.653   1.124   1.593  0.00  0.00    +0.011 C 
ATOM     18  C   UNL     1      -3.351   0.527   2.310  0.00  0.00    +0.004 C 
ATOM     19  C   UNL     1      -5.648   0.606  -0.141  0.00  0.00    +0.030 C 
ATOM     20  C   UNL     1      -5.609  -0.632  -1.036  0.00  0.00    +0.111 C 
ENDROOT
BRANCH   8  23
ATOM     21  O   UNL     1       5.123  -1.647  -0.232  0.00  0.00    -0.418 OA
ATOM     22  O   UNL     1       7.184  -1.372   0.687  0.00  0.00    -0.244 OA
ATOM     23  C   UNL     1       3.660   0.260  -0.478  0.00  0.00    +0.016 C 
ATOM     24  C   UNL     1       4.683   1.083   0.113  0.00  0.00    +0.006 C 
ATOM     25  C   UNL     1       3.919  -1.043  -0.622  0.00  0.00    +0.179 C 
ATOM     26  C   UNL     1       5.849   0.557   0.502  0.00  0.00    +0.082 C 
ATOM     27  C   UNL     1       6.115  -0.887   0.332  0.00  0.00    +0.346 C 
ENDBRANCH   8  23
BRANCH   2  28
ATOM     28  O   UNL     1       1.481  -1.514   0.465  0.00  0.00    -0.386 OA
ATOM     29  H   UNL     1       1.483  -1.440   1.432  0.00  0.00    +0.210 HD
ENDBRANCH   2  28
BRANCH  16  30
ATOM     30  O   UNL     1      -2.071   2.813  -0.027  0.00  0.00    -0.503 OA
ATOM     31  H   UNL     1      -2.995   2.739   0.111  0.00  0.00    +0.292 HD
ENDBRANCH  16  30
BRANCH  20  32
ATOM     32  O   UNL     1      -6.743  -1.436  -0.719  0.00  0.00    -0.384 OA
ATOM     33  H   UNL     1      -6.741  -2.231  -1.275  0.00  0.00    +0.210 HD
ENDBRANCH  20  32
TORSDOF 4
