REMARK  Name = 12309123
REMARK  6 active torsions:
REMARK  status: ('A' for Active; 'I' for Inactive)
REMARK    1  A    between atoms: C_3  and  C_22
REMARK    2  A    between atoms: C_3  and  O_24
REMARK    3  A    between atoms: C_6  and  O_26
REMARK    4  A    between atoms: C_9  and  O_28
REMARK    5  A    between atoms: C_10  and  O_30
REMARK    6  A    between atoms: C_17  and  O_32
REMARK                            x       y       z     vdW  Elec       q    Type
REMARK                         _______ _______ _______ _____ _____    ______ ____
ROOT
ATOM      1  O   UNL     1       2.198  -2.236  -0.084  0.00  0.00    -0.286 OA
ATOM      2  O   UNL     1       1.540   3.063   0.117  0.00  0.00    -0.286 OA
ATOM      3  C   UNL     1      -4.415   0.324   0.444  0.00  0.00    +0.146 C 
ATOM      4  C   UNL     1      -4.143  -1.052   1.051  0.00  0.00    +0.068 C 
ATOM      5  C   UNL     1      -3.231   1.273   0.651  0.00  0.00    +0.063 C 
ATOM      6  C   UNL     1      -2.872  -1.701   0.497  0.00  0.00    +0.138 C 
ATOM      7  C   UNL     1      -1.876   0.641   0.446  0.00  0.00    +0.016 A 
ATOM      8  C   UNL     1      -1.703  -0.753   0.407  0.00  0.00    +0.037 A 
ATOM      9  C   UNL     1      -0.754   1.480   0.343  0.00  0.00    +0.133 A 
ATOM     10  C   UNL     1      -0.411  -1.282   0.242  0.00  0.00    +0.135 A 
ATOM     11  C   UNL     1       0.529   0.943   0.182  0.00  0.00    +0.078 A 
ATOM     12  C   UNL     1       0.700  -0.438   0.131  0.00  0.00    +0.078 A 
ATOM     13  C   UNL     1       2.047  -1.021  -0.040  0.00  0.00    +0.202 C 
ATOM     14  C   UNL     1       1.691   1.848   0.070  0.00  0.00    +0.199 C 
ATOM     15  C   UNL     1       3.210  -0.117  -0.156  0.00  0.00    +0.076 C 
ATOM     16  C   UNL     1       3.038   1.267  -0.103  0.00  0.00    +0.045 C 
ATOM     17  C   UNL     1       4.491  -0.656  -0.320  0.00  0.00    +0.142 C 
ATOM     18  C   UNL     1       4.148   2.113  -0.214  0.00  0.00    +0.003 C 
ATOM     19  C   UNL     1       5.595   0.190  -0.431  0.00  0.00    +0.037 C 
ATOM     20  C   UNL     1       5.423   1.572  -0.378  0.00  0.00    +0.003 C 
ENDROOT
BRANCH   3  22
ATOM     21  O   UNL     1      -4.228   0.841  -1.882  0.00  0.00    -0.294 OA
ATOM     22  C   UNL     1      -4.817   0.217  -1.000  0.00  0.00    +0.175 C 
ATOM     23  C   UNL     1      -5.973  -0.692  -1.315  0.00  0.00    +0.075 C 
ENDBRANCH   3  22
BRANCH   3  24
ATOM     24  O   UNL     1      -5.571   0.868   1.081  0.00  0.00    -0.379 OA
ATOM     25  H   UNL     1      -5.398   0.972   2.030  0.00  0.00    +0.211 HD
ENDBRANCH   3  24
BRANCH   6  26
ATOM     26  O   UNL     1      -3.117  -2.221  -0.808  0.00  0.00    -0.380 OA
ATOM     27  H   UNL     1      -3.866  -2.835  -0.776  0.00  0.00    +0.211 HD
ENDBRANCH   6  26
BRANCH   9  28
ATOM     28  O   UNL     1      -0.951   2.831   0.412  0.00  0.00    -0.506 OA
ATOM     29  H   UNL     1      -1.816   3.173   0.520  0.00  0.00    +0.292 HD
ENDBRANCH   9  28
BRANCH  10  30
ATOM     30  O   UNL     1      -0.276  -2.642   0.189  0.00  0.00    -0.506 OA
ATOM     31  H   UNL     1      -1.031  -3.191   0.266  0.00  0.00    +0.292 HD
ENDBRANCH  10  30
BRANCH  17  32
ATOM     32  O   UNL     1       4.732  -1.997  -0.382  0.00  0.00    -0.471 OA
ATOM     33  C   UNL     1       4.995  -2.664   0.850  0.00  0.00    +0.252 C 
ENDBRANCH  17  32
TORSDOF 6
