REMARK  Name = 12302117
REMARK  5 active torsions:
REMARK  status: ('A' for Active; 'I' for Inactive)
REMARK    1  A    between atoms: C_1  and  O_26
REMARK    2  A    between atoms: C_5  and  C_33
REMARK    3  A    between atoms: C_6  and  O_28
REMARK    4  A    between atoms: C_9  and  C_21
REMARK    5  A    between atoms: C_18  and  O_30
REMARK                            x       y       z     vdW  Elec       q    Type
REMARK                         _______ _______ _______ _____ _____    ______ ____
ROOT
ATOM      1  C   UNL     1       0.871   0.546   0.212  0.00  0.00    +0.088 C 
ATOM      2  C   UNL     1      -0.594   0.557  -0.307  0.00  0.00    +0.025 C 
ATOM      3  C   UNL     1       1.465  -0.880   0.378  0.00  0.00    +0.026 C 
ATOM      4  C   UNL     1      -1.536  -0.400   0.483  0.00  0.00    +0.011 C 
ATOM      5  C   UNL     1      -2.996  -0.384  -0.095  0.00  0.00    +0.081 C 
ATOM      6  C   UNL     1      -3.535   1.080  -0.115  0.00  0.00    +0.097 C 
ATOM      7  C   UNL     1       0.483  -1.789   1.163  0.00  0.00    +0.003 C 
ATOM      8  C   UNL     1      -0.926  -1.812   0.575  0.00  0.00    +0.001 C 
ATOM      9  C   UNL     1       2.731  -0.632   1.260  0.00  0.00    +0.028 C 
ATOM     10  C   UNL     1      -1.175   1.986  -0.361  0.00  0.00    +0.005 C 
ATOM     11  C   UNL     1       1.076   1.181   1.601  0.00  0.00    +0.027 C 
ATOM     12  C   UNL     1      -2.609   2.027  -0.892  0.00  0.00    +0.027 C 
ATOM     13  C   UNL     1       2.323   0.517   2.202  0.00  0.00    +0.007 C 
ATOM     14  C   UNL     1      -3.959  -1.267   0.745  0.00  0.00    +0.012 C 
ATOM     15  C   UNL     1      -4.977   1.144  -0.646  0.00  0.00    +0.057 C 
ATOM     16  C   UNL     1       1.804  -1.558  -0.966  0.00  0.00    +0.003 C 
ATOM     17  C   UNL     1      -5.415  -1.176   0.273  0.00  0.00    +0.030 C 
ATOM     18  C   UNL     1      -5.920   0.261   0.175  0.00  0.00    +0.113 C 
ENDROOT
BRANCH   9  21
ATOM     19  O   UNL     1       5.502   1.300  -0.507  0.00  0.00    -0.418 OA
ATOM     20  O   UNL     1       7.426   0.554  -1.462  0.00  0.00    -0.244 OA
ATOM     21  C   UNL     1       3.991  -0.278   0.524  0.00  0.00    +0.015 C 
ATOM     22  C   UNL     1       4.897  -1.337   0.164  0.00  0.00    +0.006 C 
ATOM     23  C   UNL     1       4.325   0.970   0.179  0.00  0.00    +0.179 C 
ATOM     24  C   UNL     1       6.033  -1.075  -0.491  0.00  0.00    +0.082 C 
ATOM     25  C   UNL     1       6.384   0.312  -0.861  0.00  0.00    +0.346 C 
ENDBRANCH   9  21
BRANCH   1  26
ATOM     26  O   UNL     1       1.680   1.272  -0.727  0.00  0.00    -0.387 OA
ATOM     27  H   UNL     1       1.568   0.891  -1.612  0.00  0.00    +0.210 HD
ENDBRANCH   1  26
BRANCH   6  28
ATOM     28  O   UNL     1      -3.569   1.559   1.244  0.00  0.00    -0.386 OA
ATOM     29  H   UNL     1      -2.674   1.535   1.618  0.00  0.00    +0.210 HD
ENDBRANCH   6  28
BRANCH  18  30
ATOM     30  O   UNL     1      -7.204   0.274  -0.442  0.00  0.00    -0.384 OA
ATOM     31  H   UNL     1      -7.524   1.187  -0.503  0.00  0.00    +0.210 HD
ENDBRANCH  18  30
BRANCH   5  33
ATOM     32  O   UNL     1      -3.609  -1.972  -1.817  0.00  0.00    -0.288 OA
ATOM     33  C   UNL     1      -2.966  -0.980  -1.492  0.00  0.00    +0.209 C 
ENDBRANCH   5  33
TORSDOF 5
