REMARK  Name = 12309986
REMARK  6 active torsions:
REMARK  status: ('A' for Active; 'I' for Inactive)
REMARK    1  A    between atoms: C_6  and  C_26
REMARK    2  A    between atoms: C_8  and  O_22
REMARK    3  A    between atoms: C_10  and  O_18
REMARK    4  A    between atoms: C_13  and  O_20
REMARK    5  A    between atoms: O_22  and  C_24
REMARK    6  A    between atoms: C_26  and  O_27
REMARK                            x       y       z     vdW  Elec       q    Type
REMARK                         _______ _______ _______ _____ _____    ______ ____
ROOT
ATOM      1  O   UNL     1      -0.160   2.189  -1.768  0.00  0.00    -0.351 OA
ATOM      2  O   UNL     1      -0.503  -0.821  -1.772  0.00  0.00    -0.349 OA
ATOM      3  O   UNL     1      -4.408   0.779   0.901  0.00  0.00    -0.289 OA
ATOM      4  C   UNL     1       0.566   0.847   0.281  0.00  0.00    +0.074 C 
ATOM      5  C   UNL     1       0.648   1.171  -1.198  0.00  0.00    +0.151 C 
ATOM      6  C   UNL     1      -0.849   0.113   0.537  0.00  0.00    +0.093 C 
ATOM      7  C   UNL     1       0.749  -0.139  -1.890  0.00  0.00    +0.173 C 
ATOM      8  C   UNL     1       1.741  -0.229   0.349  0.00  0.00    +0.200 C 
ATOM      9  C   UNL     1       1.259   2.420  -1.795  0.00  0.00    +0.172 C 
ATOM     10  C   UNL     1       1.895  -0.783  -1.095  0.00  0.00    +0.180 C 
ATOM     11  C   UNL     1      -0.956  -1.110  -0.439  0.00  0.00    +0.142 C 
ATOM     12  C   UNL     1       0.827   2.053   1.191  0.00  0.00    +0.006 C 
ATOM     13  C   UNL     1      -2.086   1.030   0.287  0.00  0.00    +0.176 C 
ATOM     14  C   UNL     1      -2.340  -1.678  -0.588  0.00  0.00    +0.002 C 
ATOM     15  C   UNL     1      -3.408   0.275   0.391  0.00  0.00    +0.196 C 
ATOM     16  C   UNL     1      -3.480  -1.090  -0.200  0.00  0.00    +0.013 C 
ATOM     17  C   UNL     1      -4.826  -1.729  -0.328  0.00  0.00    +0.034 C 
ENDROOT
BRANCH  10  18
ATOM     18  O   UNL     1       1.857  -2.195  -1.149  0.00  0.00    -0.379 OA
ATOM     19  H   UNL     1       1.957  -2.486  -2.069  0.00  0.00    +0.211 HD
ENDBRANCH  10  18
BRANCH  13  20
ATOM     20  O   UNL     1      -2.147   2.099   1.218  0.00  0.00    -0.377 OA
ATOM     21  H   UNL     1      -1.321   2.606   1.183  0.00  0.00    +0.211 HD
ENDBRANCH  13  20
BRANCH   8  22
ATOM     22  O   UNL     1       2.990   0.360   0.708  0.00  0.00    -0.450 OA
BRANCH  22  24
ATOM     23  O   UNL     1       4.053  -1.666   0.387  0.00  0.00    -0.250 OA
ATOM     24  C   UNL     1       4.067  -0.479   0.684  0.00  0.00    +0.318 C 
ATOM     25  C   UNL     1       5.301   0.273   1.080  0.00  0.00    +0.121 C 
ENDBRANCH  22  24
ENDBRANCH   8  22
BRANCH   6  26
ATOM     26  C   UNL     1      -0.929  -0.399   2.008  0.00  0.00    +0.143 C 
BRANCH  26  27
ATOM     27  O   UNL     1       0.139  -1.292   2.197  0.00  0.00    -0.382 OA
ATOM     28  H   UNL     1       0.120  -1.632   3.106  0.00  0.00    +0.210 HD
ENDBRANCH  26  27
ENDBRANCH   6  26
TORSDOF 6
