REMARK  Name = 1231560
REMARK  7 active torsions:
REMARK  status: ('A' for Active; 'I' for Inactive)
REMARK    1  A    between atoms: N_4  and  C_23
REMARK    2  A    between atoms: C_8  and  C_11
REMARK    3  A    between atoms: C_13  and  O_19
REMARK    4  A    between atoms: C_15  and  O_17
REMARK    5  A    between atoms: O_19  and  C_20
REMARK    6  A    between atoms: C_26  and  C_30
REMARK    7  A    between atoms: C_30  and  O_31
REMARK                            x       y       z     vdW  Elec       q    Type
REMARK                         _______ _______ _______ _____ _____    ______ ____
ROOT
ATOM      1  S   UNL     1      -0.574   0.525   0.746  0.00  0.00    -0.048 S 
ATOM      2  O   UNL     1       0.294   0.579  -2.976  0.00  0.00    -0.269 OA
ATOM      3  N   UNL     1       1.402   0.564  -0.906  0.00  0.00    -0.233 N 
ATOM      4  N   UNL     1       2.002   0.542   1.404  0.00  0.00    -0.224 NA
ATOM      5  C   UNL     1      -0.942   0.542  -0.934  0.00  0.00    +0.086 C 
ATOM      6  C   UNL     1       1.143   0.546   0.445  0.00  0.00    +0.169 C 
ATOM      7  C   UNL     1       0.297   0.564  -1.753  0.00  0.00    +0.260 C 
ATOM      8  C   UNL     1      -2.169   0.537  -1.457  0.00  0.00    +0.011 C 
ATOM      9  C   UNL     1       2.762   0.583  -1.424  0.00  0.00    +0.122 C 
ENDROOT
BRANCH   8  11
ATOM     10 CL   UNL     1      -5.926   3.188   0.877  0.00  0.00    -0.079 Cl
ATOM     11  C   UNL     1      -3.433   0.515  -0.698  0.00  0.00    +0.005 C 
ATOM     12  C   UNL     1      -4.013  -0.702  -0.384  0.00  0.00    +0.040 C 
ATOM     13  C   UNL     1      -5.209  -0.723   0.334  0.00  0.00    +0.173 C 
ATOM     14  C   UNL     1      -4.014   1.713  -0.315  0.00  0.00    +0.015 C 
ATOM     15  C   UNL     1      -5.807   0.474   0.728  0.00  0.00    +0.178 C 
ATOM     16  C   UNL     1      -5.210   1.692   0.403  0.00  0.00    +0.094 C 
BRANCH  15  17
ATOM     17  O   UNL     1      -6.976   0.437   1.430  0.00  0.00    -0.502 OA
ATOM     18  H   UNL     1      -7.369  -0.386   1.643  0.00  0.00    +0.292 HD
ENDBRANCH  15  17
BRANCH  13  19
ATOM     19  O   UNL     1      -5.782  -1.919   0.644  0.00  0.00    -0.472 OA
BRANCH  19  20
ATOM     20  C   UNL     1      -5.559  -2.998  -0.262  0.00  0.00    +0.206 C 
ATOM     21  C   UNL     1      -6.746  -3.937  -0.211  0.00  0.00    +0.051 C 
ENDBRANCH  19  20
ENDBRANCH  13  19
ENDBRANCH   8  11
BRANCH   4  23
ATOM     22 CL   UNL     1       7.687   0.659  -0.226  0.00  0.00    -0.082 Cl
ATOM     23  C   UNL     1       3.354   0.559   1.017  0.00  0.00    +0.084 C 
ATOM     24  C   UNL     1       4.028  -0.640   0.812  0.00  0.00    +0.026 C 
ATOM     25  C   UNL     1       4.005   1.775   0.841  0.00  0.00    +0.020 C 
ATOM     26  C   UNL     1       5.369  -0.623   0.427  0.00  0.00    +0.087 C 
ATOM     27  C   UNL     1       5.346   1.793   0.457  0.00  0.00    +0.013 C 
ATOM     28  C   UNL     1       6.028   0.594   0.250  0.00  0.00    +0.064 C 
BRANCH  26  30
ATOM     29  O   UNL     1       6.552  -2.274  -0.837  0.00  0.00    -0.245 OA
ATOM     30  C   UNL     1       6.041  -1.901   0.222  0.00  0.00    +0.339 C 
BRANCH  30  31
ATOM     31  O   UNL     1       6.051  -2.666   1.345  0.00  0.00    -0.477 OA
ATOM     32  H   UNL     1       5.652  -2.349   2.132  0.00  0.00    +0.295 HD
ENDBRANCH  30  31
ENDBRANCH  26  30
ENDBRANCH   4  23
TORSDOF 7
