12310757
  -OEChem-03292013303D

 50 52  0     0  0  0  0  0  0999 V2000
   -2.3898   -4.6819   -0.5227 O   0  0  0  0  0  0  0  0  0  0  0  0
   -0.1351    0.2518   -0.1883 O   0  0  0  0  0  0  0  0  0  0  0  0
   -4.6879   -0.9956   -0.7830 O   0  0  0  0  0  0  0  0  0  0  0  0
   -3.6823    3.5324    0.1907 O   0  0  0  0  0  0  0  0  0  0  0  0
    1.5383    3.4513    0.5536 O   0  0  0  0  0  0  0  0  0  0  0  0
   -1.1566    4.1367    0.4958 O   0  0  0  0  0  0  0  0  0  0  0  0
    6.0600   -0.8405    0.0661 O   0  0  0  0  0  0  0  0  0  0  0  0
   -1.4830   -4.0663    0.3946 C   0  0  0  0  0  0  0  0  0  0  0  0
   -1.8998   -2.5924    0.5741 C   0  0  0  0  0  0  0  0  0  0  0  0
   -1.9598   -1.7730   -0.7286 C   0  0  0  0  0  0  0  0  0  0  0  0
   -2.3948   -0.3634   -0.4825 C   0  0  0  0  0  0  0  0  0  0  0  0
   -1.4527    0.6297   -0.2131 C   0  0  0  0  0  0  0  0  0  0  0  0
   -0.0788   -4.1325   -0.2151 C   0  0  0  0  0  0  0  0  0  0  0  0
   -1.5186   -4.8476    1.7099 C   0  0  0  0  0  0  0  0  0  0  0  0
   -1.8672    1.9401    0.0146 C   0  0  0  0  0  0  0  0  0  0  0  0
   -3.7513   -0.0405   -0.5221 C   0  0  0  0  0  0  0  0  0  0  0  0
   -3.2248    2.2676   -0.0245 C   0  0  0  0  0  0  0  0  0  0  0  0
   -4.1652    1.2724   -0.2934 C   0  0  0  0  0  0  0  0  0  0  0  0
   -0.8533    2.9685    0.2938 C   0  0  0  0  0  0  0  0  0  0  0  0
    0.8238    1.2139    0.0869 C   0  0  0  0  0  0  0  0  0  0  0  0
    0.5576    2.5129    0.3153 C   0  0  0  0  0  0  0  0  0  0  0  0
    2.1958    0.6758    0.0822 C   0  0  0  0  0  0  0  0  0  0  0  0
    2.7620    0.1954    1.2631 C   0  0  0  0  0  0  0  0  0  0  0  0
    2.9289    0.6464   -1.1045 C   0  0  0  0  0  0  0  0  0  0  0  0
    4.0606   -0.3139    1.2576 C   0  0  0  0  0  0  0  0  0  0  0  0
    4.2274    0.1370   -1.1102 C   0  0  0  0  0  0  0  0  0  0  0  0
    4.7934   -0.3433    0.0710 C   0  0  0  0  0  0  0  0  0  0  0  0
    6.7530   -0.8410   -1.1812 C   0  0  0  0  0  0  0  0  0  0  0  0
   -2.8959   -2.5674    1.0373 H   0  0  0  0  0  0  0  0  0  0  0  0
   -1.2189   -2.1051    1.2849 H   0  0  0  0  0  0  0  0  0  0  0  0
   -2.6374   -2.2546   -1.4446 H   0  0  0  0  0  0  0  0  0  0  0  0
   -0.9870   -1.7716   -1.2322 H   0  0  0  0  0  0  0  0  0  0  0  0
    0.6487   -3.5697    0.3788 H   0  0  0  0  0  0  0  0  0  0  0  0
   -0.0613   -3.7641   -1.2458 H   0  0  0  0  0  0  0  0  0  0  0  0
    0.2629   -5.1730   -0.2732 H   0  0  0  0  0  0  0  0  0  0  0  0
   -1.2708   -5.9023    1.5458 H   0  0  0  0  0  0  0  0  0  0  0  0
   -2.5244   -4.8294    2.1447 H   0  0  0  0  0  0  0  0  0  0  0  0
   -0.8183   -4.4331    2.4422 H   0  0  0  0  0  0  0  0  0  0  0  0
   -3.2819   -4.6331   -0.1385 H   0  0  0  0  0  0  0  0  0  0  0  0
   -5.2221    1.5271   -0.3238 H   0  0  0  0  0  0  0  0  0  0  0  0
   -5.5707   -0.5877   -0.7686 H   0  0  0  0  0  0  0  0  0  0  0  0
    2.2029    0.2108    2.1955 H   0  0  0  0  0  0  0  0  0  0  0  0
    2.4999    1.0169   -2.0326 H   0  0  0  0  0  0  0  0  0  0  0  0
   -2.9448    4.1351    0.3710 H   0  0  0  0  0  0  0  0  0  0  0  0
    2.4113    3.0273    0.5378 H   0  0  0  0  0  0  0  0  0  0  0  0
    4.4960   -0.6868    2.1806 H   0  0  0  0  0  0  0  0  0  0  0  0
    4.7399    0.1438   -2.0661 H   0  0  0  0  0  0  0  0  0  0  0  0
    6.9088    0.1765   -1.5553 H   0  0  0  0  0  0  0  0  0  0  0  0
    6.2562   -1.4823   -1.9171 H   0  0  0  0  0  0  0  0  0  0  0  0
    7.7439   -1.2703   -1.0003 H   0  0  0  0  0  0  0  0  0  0  0  0
  1  8  1  0  0  0  0
  1 39  1  0  0  0  0
  2 12  1  0  0  0  0
  2 20  1  0  0  0  0
  3 16  1  0  0  0  0
  3 41  1  0  0  0  0
  4 17  1  0  0  0  0
  4 44  1  0  0  0  0
  5 21  1  0  0  0  0
  5 45  1  0  0  0  0
  6 19  2  0  0  0  0
  7 27  1  0  0  0  0
  7 28  1  0  0  0  0
  8  9  1  0  0  0  0
  8 13  1  0  0  0  0
  8 14  1  0  0  0  0
  9 10  1  0  0  0  0
  9 29  1  0  0  0  0
  9 30  1  0  0  0  0
 10 11  1  0  0  0  0
 10 31  1  0  0  0  0
 10 32  1  0  0  0  0
 11 12  2  0  0  0  0
 11 16  1  0  0  0  0
 12 15  1  0  0  0  0
 13 33  1  0  0  0  0
 13 34  1  0  0  0  0
 13 35  1  0  0  0  0
 14 36  1  0  0  0  0
 14 37  1  0  0  0  0
 14 38  1  0  0  0  0
 15 17  2  0  0  0  0
 15 19  1  0  0  0  0
 16 18  2  0  0  0  0
 17 18  1  0  0  0  0
 18 40  1  0  0  0  0
 19 21  1  0  0  0  0
 20 21  2  0  0  0  0
 20 22  1  0  0  0  0
 22 23  2  0  0  0  0
 22 24  1  0  0  0  0
 23 25  1  0  0  0  0
 23 42  1  0  0  0  0
 24 26  2  0  0  0  0
 24 43  1  0  0  0  0
 25 27  2  0  0  0  0
 25 46  1  0  0  0  0
 26 27  1  0  0  0  0
 26 47  1  0  0  0  0
 28 48  1  0  0  0  0
 28 49  1  0  0  0  0
 28 50  1  0  0  0  0
M  END
> <PUBCHEM_COMPOUND_CID>
12310757

> <PUBCHEM_CONFORMER_RMSD>
0.8

> <PUBCHEM_CONFORMER_DIVERSEORDER>
1
10
4
7
9
8
6
5
3
2
11

> <PUBCHEM_MMFF94_PARTIAL_CHARGES>
34
1 -0.68
10 0.14
11 -0.14
12 0.08
15 0.09
16 0.08
17 0.08
18 -0.15
19 0.47
2 -0.16
20 0.05
21 0.09
22 0.03
23 -0.15
24 -0.15
25 -0.15
26 -0.15
27 0.08
28 0.28
3 -0.53
39 0.4
4 -0.53
40 0.15
41 0.45
42 0.15
43 0.15
44 0.45
45 0.45
46 0.15
47 0.15
5 -0.53
6 -0.57
7 -0.36
8 0.28

> <PUBCHEM_EFFECTIVE_ROTOR_COUNT>
5

> <PUBCHEM_PHARMACOPHORE_FEATURES>
12
1 1 acceptor
1 1 donor
1 2 acceptor
1 3 donor
1 4 donor
1 5 donor
1 6 acceptor
1 7 acceptor
3 8 13 14 hydrophobe
6 11 12 15 16 17 18 rings
6 2 12 15 19 20 21 rings
6 22 23 24 25 26 27 rings

> <PUBCHEM_HEAVY_ATOM_COUNT>
28

> <PUBCHEM_ATOM_DEF_STEREO_COUNT>
0

> <PUBCHEM_ATOM_UDEF_STEREO_COUNT>
0

> <PUBCHEM_BOND_DEF_STEREO_COUNT>
0

> <PUBCHEM_BOND_UDEF_STEREO_COUNT>
0

> <PUBCHEM_ISOTOPIC_ATOM_COUNT>
0

> <PUBCHEM_COMPONENT_COUNT>
1

> <PUBCHEM_CACTVS_TAUTO_COUNT>
24

> <PUBCHEM_CONFORMER_ID>
00BBD8E500000001

> <PUBCHEM_MMFF94_ENERGY>
93.4096

> <PUBCHEM_FEATURE_SELFOVERLAP>
60.926

> <PUBCHEM_SHAPE_FINGERPRINT>
10693767 8 17555145293975572463
107951 10 18268716017228082238
10940486 97 18261960734173260244
1100329 8 18338509872070761587
11756154 5 18262238940321110387
12147406 95 17837776994755546870
12236239 1 17968664796562880348
12553582 1 18410845586024722120
12788726 201 18339637850361941666
13140716 1 18123184864655587147
13402501 40 18059859424604299838
13726171 33 17908178634362179876
13785724 45 17688325889820319619
138480 1 16897645684689700419
13941206 138 18190749626391309314
14251757 5 18409172121164710334
14790565 3 18266460893162567360
14866123 147 18411140260001072563
15042514 8 18264773332320110235
15420108 30 17844534293531833193
15439362 3 17038939547783854244
15927050 60 18053662469901576437
16719943 64 18337671915013594538
16752209 62 18337942420564469625
167882 2 17471848109483543053
17627616 140 18119809101586157591
17859628 97 18337106744624845609
17909252 39 17833842942667750120
19319366 153 17748818627203877562
19958102 18 18263361387601527518
20028762 73 18272930570785140599
20775438 99 17119970746153252551
21133410 32 15938957771976832834
21267235 1 18412547604698346933
21279426 13 17902490908484193463
23184049 29 18049435143459854521
23366157 5 17397835574764139585
23466295 7 18191036783435647059
23559900 14 18272082782705990784
283562 15 18198341754392424097
3084891 72 18411413973723316197
3178227 256 18338248102836937809
335352 9 18341609288081476781
3383291 50 18409725201294588851
3882209 13 17118842642838859734
395649 100 18336272310738691062
4073 2 18411699894867001538
43471831 8 18122340177764247977
5265222 85 18409173177516324764
5309563 4 17185033315380733903
5385378 56 17907866107120182465
58902169 19 17749969791163201966
602551 16 18341043048066301936
9709674 26 18124869320653543957
9981440 41 18191874426970679681

> <PUBCHEM_SHAPE_MULTIPOLES>
535.14
10.17
6.09
1.09
16.21
5.8
-0.14
0.9
2.69
-7.14
-1.83
0.67
0.56
0.32

> <PUBCHEM_SHAPE_SELFOVERLAP>
1163.321

> <PUBCHEM_SHAPE_VOLUME>
292.3

> <PUBCHEM_COORDINATE_TYPE>
2
5
10

$$$$
