REMARK  Name = 12310288
REMARK  9 active torsions:
REMARK  status: ('A' for Active; 'I' for Inactive)
REMARK    1  A    between atoms: C_6  and  C_24
REMARK    2  A    between atoms: C_10  and  O_20
REMARK    3  A    between atoms: C_19  and  O_22
REMARK    4  A    between atoms: C_24  and  C_26
REMARK    5  A    between atoms: C_26  and  C_27
REMARK    6  A    between atoms: C_27  and  C_30
REMARK    7  A    between atoms: N_29  and  C_32
REMARK    8  A    between atoms: C_32  and  C_34
REMARK    9  A    between atoms: C_34  and  O_35
REMARK                            x       y       z     vdW  Elec       q    Type
REMARK                         _______ _______ _______ _____ _____    ______ ____
ROOT
ATOM      1  C   UNL     1      -1.022   0.934   0.347  0.00  0.00    +0.002 C 
ATOM      2  C   UNL     1      -0.236   0.574  -0.936  0.00  0.00    +0.000 C 
ATOM      3  C   UNL     1      -2.522   1.177   0.085  0.00  0.00    +0.027 C 
ATOM      4  C   UNL     1      -3.129  -0.131  -0.530  0.00  0.00    +0.002 C 
ATOM      5  C   UNL     1      -4.677  -0.008  -0.793  0.00  0.00    +0.000 C 
ATOM      6  C   UNL     1       1.185   0.442  -0.334  0.00  0.00    +0.000 C 
ATOM      7  C   UNL     1      -5.396   0.409   0.531  0.00  0.00    +0.005 C 
ATOM      8  C   UNL     1      -0.810  -0.734  -1.494  0.00  0.00    +0.000 C 
ATOM      9  C   UNL     1      -2.320  -0.624  -1.760  0.00  0.00    +0.000 C 
ATOM     10  C   UNL     1      -3.279   1.594   1.361  0.00  0.00    +0.110 C 
ATOM     11  C   UNL     1      -0.168   2.030   0.983  0.00  0.00    +0.000 C 
ATOM     12  C   UNL     1       1.281   1.635   0.642  0.00  0.00    +0.000 C 
ATOM     13  C   UNL     1      -4.790   1.679   1.140  0.00  0.00    +0.029 C 
ATOM     14  C   UNL     1      -5.307  -1.342  -1.290  0.00  0.00    +0.002 C 
ATOM     15  C   UNL     1      -0.279   1.670  -2.030  0.00  0.00    +0.000 C 
ATOM     16  C   UNL     1      -5.427  -0.723   1.578  0.00  0.00    +0.029 C 
ATOM     17  C   UNL     1      -4.970   1.044  -1.893  0.00  0.00    +0.000 C 
ATOM     18  C   UNL     1      -5.304  -2.453  -0.248  0.00  0.00    +0.029 C 
ATOM     19  C   UNL     1      -6.022  -2.013   1.021  0.00  0.00    +0.111 C 
ENDROOT
BRANCH  10  20
ATOM     20  O   UNL     1      -2.835   2.884   1.783  0.00  0.00    -0.384 OA
ATOM     21  H   UNL     1      -1.877   2.863   1.932  0.00  0.00    +0.210 HD
ENDBRANCH  10  20
BRANCH  19  22
ATOM     22  O   UNL     1      -5.910  -3.050   1.989  0.00  0.00    -0.384 OA
ATOM     23  H   UNL     1      -6.364  -2.783   2.804  0.00  0.00    +0.210 HD
ENDBRANCH  19  22
BRANCH   6  24
ATOM     24  C   UNL     1       2.342   0.390  -1.321  0.00  0.00    +0.000 C 
ATOM     25  C   UNL     1       2.148  -0.777  -2.296  0.00  0.00    +0.000 C 
BRANCH  24  26
ATOM     26  C   UNL     1       3.713   0.255  -0.628  0.00  0.00    +0.010 C 
BRANCH  26  27
ATOM     27  C   UNL     1       3.862  -1.041   0.170  0.00  0.00    +0.085 C 
BRANCH  27  30
ATOM     28  O   UNL     1       5.434  -1.288   1.995  0.00  0.00    -0.275 OA
ATOM     29  N   UNL     1       6.236  -1.193  -0.184  0.00  0.00    -0.295 N 
ATOM     30  C   UNL     1       5.244  -1.185   0.786  0.00  0.00    +0.223 C 
ATOM     31  H   UNL     1       5.969  -1.103  -1.127  0.00  0.00    +0.150 HD
BRANCH  29  32
ATOM     32  C   UNL     1       7.641  -1.325   0.125  0.00  0.00    +0.200 C 
BRANCH  32  34
ATOM     33  O   UNL     1       9.511   0.109   0.616  0.00  0.00    -0.248 OA
ATOM     34  C   UNL     1       8.320   0.001   0.351  0.00  0.00    +0.334 C 
BRANCH  34  35
ATOM     35  O   UNL     1       7.487   1.062   0.234  0.00  0.00    -0.479 OA
ATOM     36  H   UNL     1       6.583   0.927   0.030  0.00  0.00    +0.295 HD
ENDBRANCH  34  35
ENDBRANCH  32  34
ENDBRANCH  29  32
ENDBRANCH  27  30
ENDBRANCH  26  27
ENDBRANCH  24  26
ENDBRANCH   6  24
TORSDOF 9
