123134380
  -OEChem-03292013293D

 60 63  0     1  0  0  0  0  0999 V2000
    5.2800   -0.7629    1.4451 S   0  0  0  0  0  0  0  0  0  0  0  0
    5.4933   -2.2472    0.0412 S   0  0  0  0  0  0  0  0  0  0  0  0
    3.5758    2.0294    1.4812 O   0  0  0  0  0  0  0  0  0  0  0  0
    1.2330   -2.6202   -1.7207 O   0  0  0  0  0  0  0  0  0  0  0  0
    2.4343    1.5979   -0.5288 N   0  0  0  0  0  0  0  0  0  0  0  0
    0.3704   -2.0189    0.3774 N   0  0  0  0  0  0  0  0  0  0  0  0
    5.3580    2.4620   -1.0612 N   0  0  0  0  0  0  0  0  0  0  0  0
    2.8472   -3.8194    0.6842 N   0  0  0  0  0  0  0  0  0  0  0  0
    4.8436    1.2506   -0.4163 C   0  0  1  0  0  0  0  0  0  0  0  0
    2.7378   -2.4564    0.1565 C   0  0  1  0  0  0  0  0  0  0  0  0
   -3.2463   -1.2970    0.8960 C   0  0  0  0  0  0  0  0  0  0  0  0
   -1.2254    2.0540   -0.8873 C   0  0  0  0  0  0  0  0  0  0  0  0
    1.1093    1.9073   -0.2194 C   0  0  0  0  0  0  0  0  0  0  0  0
   -1.0108   -1.8546    0.1152 C   0  0  0  0  0  0  0  0  0  0  0  0
   -3.7511   -1.5270   -0.4061 C   0  0  0  0  0  0  0  0  0  0  0  0
   -1.5579    2.5282    0.4040 C   0  0  0  0  0  0  0  0  0  0  0  0
    3.8969   -2.1851   -0.8074 C   0  0  0  0  0  0  0  0  0  0  0  0
    5.9037    0.6860    0.5344 C   0  0  0  0  0  0  0  0  0  0  0  0
   -1.8735   -1.4652    1.1401 C   0  0  0  0  0  0  0  0  0  0  0  0
    0.1129    1.7479   -1.1831 C   0  0  0  0  0  0  0  0  0  0  0  0
    3.5630    1.6836    0.3029 C   0  0  0  0  0  0  0  0  0  0  0  0
    1.3663   -2.3906   -0.5216 C   0  0  0  0  0  0  0  0  0  0  0  0
    0.7823    2.3736    1.0504 C   0  0  0  0  0  0  0  0  0  0  0  0
   -1.5071   -2.0807   -1.1653 C   0  0  0  0  0  0  0  0  0  0  0  0
   -0.5421    2.6825    1.3616 C   0  0  0  0  0  0  0  0  0  0  0  0
   -2.8681   -1.9184   -1.4257 C   0  0  0  0  0  0  0  0  0  0  0  0
   -2.2411    1.8998   -1.8448 C   0  0  0  0  0  0  0  0  0  0  0  0
   -4.1292   -0.9057    1.9155 C   0  0  0  0  0  0  0  0  0  0  0  0
   -2.8963    2.8345    0.6997 C   0  0  0  0  0  0  0  0  0  0  0  0
   -5.1238   -1.3589   -0.6502 C   0  0  0  0  0  0  0  0  0  0  0  0
   -3.5656    2.2089   -1.5337 C   0  0  0  0  0  0  0  0  0  0  0  0
   -5.4903   -0.7434    1.6552 C   0  0  0  0  0  0  0  0  0  0  0  0
   -3.8925    2.6753   -0.2640 C   0  0  0  0  0  0  0  0  0  0  0  0
   -5.9866   -0.9697    0.3748 C   0  0  0  0  0  0  0  0  0  0  0  0
    4.6236    0.5420   -1.2132 H   0  0  0  0  0  0  0  0  0  0  0  0
    2.7359   -1.7388    0.9826 H   0  0  0  0  0  0  0  0  0  0  0  0
    3.7481   -1.2439   -1.3359 H   0  0  0  0  0  0  0  0  0  0  0  0
    3.9214   -2.9522   -1.5917 H   0  0  0  0  0  0  0  0  0  0  0  0
    6.1751    1.4349    1.2881 H   0  0  0  0  0  0  0  0  0  0  0  0
    6.8266    0.4258    0.0036 H   0  0  0  0  0  0  0  0  0  0  0  0
    0.3766    1.3802   -2.1737 H   0  0  0  0  0  0  0  0  0  0  0  0
   -1.4761   -1.2884    2.1384 H   0  0  0  0  0  0  0  0  0  0  0  0
    2.5909    1.2746   -1.4809 H   0  0  0  0  0  0  0  0  0  0  0  0
    0.6453   -1.8471    1.3420 H   0  0  0  0  0  0  0  0  0  0  0  0
   -0.9045   -2.3854   -2.0089 H   0  0  0  0  0  0  0  0  0  0  0  0
    1.4955    2.5257    1.8480 H   0  0  0  0  0  0  0  0  0  0  0  0
   -3.2354   -2.0996   -2.4338 H   0  0  0  0  0  0  0  0  0  0  0  0
   -0.7763    3.0456    2.3602 H   0  0  0  0  0  0  0  0  0  0  0  0
   -3.7632   -0.7222    2.9236 H   0  0  0  0  0  0  0  0  0  0  0  0
   -2.0091    1.5347   -2.8431 H   0  0  0  0  0  0  0  0  0  0  0  0
   -3.1751    3.1988    1.6862 H   0  0  0  0  0  0  0  0  0  0  0  0
   -5.5335   -1.5292   -1.6436 H   0  0  0  0  0  0  0  0  0  0  0  0
    4.6969    2.7797   -1.7695 H   0  0  0  0  0  0  0  0  0  0  0  0
    6.2214    2.2444   -1.5576 H   0  0  0  0  0  0  0  0  0  0  0  0
    2.1353   -3.9668    1.3991 H   0  0  0  0  0  0  0  0  0  0  0  0
    3.7456   -3.9301    1.1533 H   0  0  0  0  0  0  0  0  0  0  0  0
   -4.3420    2.0825   -2.2826 H   0  0  0  0  0  0  0  0  0  0  0  0
   -6.1623   -0.4394    2.4524 H   0  0  0  0  0  0  0  0  0  0  0  0
   -4.9242    2.9131   -0.0218 H   0  0  0  0  0  0  0  0  0  0  0  0
   -7.0461   -0.8423    0.1726 H   0  0  0  0  0  0  0  0  0  0  0  0
  1  2  1  0  0  0  0
  1 18  1  0  0  0  0
  2 17  1  0  0  0  0
  3 21  2  0  0  0  0
  4 22  2  0  0  0  0
  5 13  1  0  0  0  0
  5 21  1  0  0  0  0
  5 43  1  0  0  0  0
  6 14  1  0  0  0  0
  6 22  1  0  0  0  0
  6 44  1  0  0  0  0
  7  9  1  0  0  0  0
  7 53  1  0  0  0  0
  7 54  1  0  0  0  0
  8 10  1  0  0  0  0
  8 55  1  0  0  0  0
  8 56  1  0  0  0  0
  9 18  1  0  0  0  0
  9 21  1  0  0  0  0
  9 35  1  0  0  0  0
 10 17  1  0  0  0  0
 10 22  1  0  0  0  0
 10 36  1  0  0  0  0
 11 15  1  0  0  0  0
 11 19  1  0  0  0  0
 11 28  2  0  0  0  0
 12 16  1  0  0  0  0
 12 20  1  0  0  0  0
 12 27  2  0  0  0  0
 13 20  2  0  0  0  0
 13 23  1  0  0  0  0
 14 19  2  0  0  0  0
 14 24  1  0  0  0  0
 15 26  1  0  0  0  0
 15 30  2  0  0  0  0
 16 25  1  0  0  0  0
 16 29  2  0  0  0  0
 17 37  1  0  0  0  0
 17 38  1  0  0  0  0
 18 39  1  0  0  0  0
 18 40  1  0  0  0  0
 19 42  1  0  0  0  0
 20 41  1  0  0  0  0
 23 25  2  0  0  0  0
 23 46  1  0  0  0  0
 24 26  2  0  0  0  0
 24 45  1  0  0  0  0
 25 48  1  0  0  0  0
 26 47  1  0  0  0  0
 27 31  1  0  0  0  0
 27 50  1  0  0  0  0
 28 32  1  0  0  0  0
 28 49  1  0  0  0  0
 29 33  1  0  0  0  0
 29 51  1  0  0  0  0
 30 34  1  0  0  0  0
 30 52  1  0  0  0  0
 31 33  2  0  0  0  0
 31 57  1  0  0  0  0
 32 34  2  0  0  0  0
 32 58  1  0  0  0  0
 33 59  1  0  0  0  0
 34 60  1  0  0  0  0
M  END
> <PUBCHEM_COMPOUND_CID>
123134380

> <PUBCHEM_CONFORMER_RMSD>
1.6

> <PUBCHEM_CONFORMER_DIVERSEORDER>
1
43
35
12
76
27
66
5
33
18
71
9
2
25
6
70
3
15
65
22
72
74
17
57
64
32
38
21
61
75
77
19
37
24
26
11
69
54
62
60
14
67
63
23
40
36
47
34
4
31
10
28
45
51
73
53
8
56
46
44
39
29
7
68
41
49
58
42
20
50
30
48
78
52
16
13
59
55

> <PUBCHEM_MMFF94_PARTIAL_CHARGES>
50
1 -0.23
10 0.33
13 0.12
14 0.12
17 0.23
18 0.23
19 -0.15
2 -0.23
20 -0.15
21 0.57
22 0.57
23 -0.15
24 -0.15
25 -0.15
26 -0.15
27 -0.15
28 -0.15
29 -0.15
3 -0.57
30 -0.15
31 -0.15
32 -0.15
33 -0.15
34 -0.15
4 -0.57
41 0.15
42 0.15
43 0.37
44 0.37
45 0.15
46 0.15
47 0.15
48 0.15
49 0.15
5 -0.55
50 0.15
51 0.15
52 0.15
53 0.36
54 0.36
55 0.36
56 0.36
57 0.15
58 0.15
59 0.15
6 -0.55
60 0.15
7 -0.99
8 -0.99
9 0.33

> <PUBCHEM_EFFECTIVE_ROTOR_COUNT>
11

> <PUBCHEM_PHARMACOPHORE_FEATURES>
13
1 3 acceptor
1 4 acceptor
1 5 donor
1 6 donor
1 7 cation
1 7 donor
1 8 cation
1 8 donor
4 1 2 17 18 hydrophobe
6 11 14 15 19 24 26 rings
6 11 15 28 30 32 34 rings
6 12 13 16 20 23 25 rings
6 12 16 27 29 31 33 rings

> <PUBCHEM_HEAVY_ATOM_COUNT>
34

> <PUBCHEM_ATOM_DEF_STEREO_COUNT>
1

> <PUBCHEM_ATOM_UDEF_STEREO_COUNT>
1

> <PUBCHEM_BOND_DEF_STEREO_COUNT>
0

> <PUBCHEM_BOND_UDEF_STEREO_COUNT>
0

> <PUBCHEM_ISOTOPIC_ATOM_COUNT>
0

> <PUBCHEM_COMPONENT_COUNT>
1

> <PUBCHEM_CACTVS_TAUTO_COUNT>
993

> <PUBCHEM_CONFORMER_ID>
0756E1AC00000001

> <PUBCHEM_MMFF94_ENERGY>
84.3481

> <PUBCHEM_FEATURE_SELFOVERLAP>
66.024

> <PUBCHEM_SHAPE_FINGERPRINT>
10864689 126 17690285910739366614
1100329 8 18051130290048356905
11135609 12 18113341899045960405
11513181 2 18202005378438164775
12107698 1 18409166576378327242
12422481 6 18337686251782824937
12633257 1 17773049759183507113
12788726 201 18269005339505934272
13140716 1 18193563268272663497
13402501 40 18409166623163381747
13811026 1 18334297570400639587
14394314 77 18272092759234447073
14840074 17 18339647857319216990
15001296 14 18266737072818726410
15420108 30 17988652947129735247
15781502 13 15577276686036248915
15968369 153 18201428156165746372
20721686 56 18335704961989633147
20764821 26 18269545070575606902
3027735 51 18410291449428666345
338550 245 18407762534415373204
350125 39 18411420591935525472
373842 8 18338793404015105786
392239 28 18267874886453138690
4112364 45 17342973394320218097
460360 51 18335422314190957724
463206 1 18196932381895066035
469060 322 17096378241271229599
5081480 168 16771568174468479678
508706 21 18114180804610398287
5265222 85 18120382205211688228
56638632 10 17486751229103707144
59755656 215 18410577313761655053

> <PUBCHEM_SHAPE_MULTIPOLES>
675.74
12.89
4.63
1.63
6.92
0.26
0.04
-2.68
2.38
1.07
-0.37
-0.95
0.1
0.6

> <PUBCHEM_SHAPE_SELFOVERLAP>
1435.082

> <PUBCHEM_SHAPE_VOLUME>
377.7

> <PUBCHEM_COORDINATE_TYPE>
2
5
10

$$$$
