123131900
  -OEChem-03292013293D

 45 47  0     1  0  0  0  0  0999 V2000
   -2.9868   -0.1981   -0.8002 S   0  0  0  0  0  0  0  0  0  0  0  0
    1.9867   -1.0248   -1.2033 O   0  0  0  0  0  0  0  0  0  0  0  0
    3.8206   -0.4332    1.8407 O   0  0  0  0  0  0  0  0  0  0  0  0
    4.2843   -2.5110    0.0972 O   0  0  0  0  0  0  0  0  0  0  0  0
   -0.1665   -2.7914   -1.5100 O   0  0  0  0  0  0  0  0  0  0  0  0
    1.8692    1.1706   -0.1432 N   0  0  0  0  0  0  0  0  0  0  0  0
    1.4900    3.3440    0.1761 N   0  0  0  0  0  0  0  0  0  0  0  0
   -0.4085    0.3942   -0.4744 N   0  0  0  0  0  0  0  0  0  0  0  0
   -2.0036    2.2348   -0.3188 N   0  0  0  0  0  0  0  0  0  0  0  0
   -1.3256    4.4896    0.1084 N   0  0  0  0  0  0  0  0  0  0  0  0
    2.7554   -0.8890    1.0309 C   0  0  1  0  0  0  0  0  0  0  0  0
    2.6355   -0.1234   -0.2826 C   0  0  1  0  0  0  0  0  0  0  0  0
    2.9452   -2.3133    0.5486 C   0  0  1  0  0  0  0  0  0  0  0  0
    2.0273   -2.3658   -0.6660 C   0  0  1  0  0  0  0  0  0  0  0  0
    0.6045   -2.7844   -0.3214 C   0  0  0  0  0  0  0  0  0  0  0  0
    0.5168    1.3363   -0.2380 C   0  0  0  0  0  0  0  0  0  0  0  0
    2.4095    2.4042    0.1062 C   0  0  0  0  0  0  0  0  0  0  0  0
    0.3023    2.6905   -0.0371 C   0  0  0  0  0  0  0  0  0  0  0  0
   -1.0162    3.1322   -0.0840 C   0  0  0  0  0  0  0  0  0  0  0  0
   -1.6437    0.9406   -0.4967 C   0  0  0  0  0  0  0  0  0  0  0  0
   -4.5719   -1.7218    0.9921 C   0  0  0  0  0  0  0  0  0  0  0  0
   -3.4166   -0.7116    0.8858 C   0  0  0  0  0  0  0  0  0  0  0  0
   -4.2267   -3.0820    0.3822 C   0  0  0  0  0  0  0  0  0  0  0  0
   -5.8810   -1.1871    0.4076 C   0  0  0  0  0  0  0  0  0  0  0  0
    1.8261   -0.8081    1.6082 H   0  0  0  0  0  0  0  0  0  0  0  0
    3.6096    0.1620   -0.6983 H   0  0  0  0  0  0  0  0  0  0  0  0
    2.7348   -3.0638    1.3160 H   0  0  0  0  0  0  0  0  0  0  0  0
    2.4206   -3.0095   -1.4610 H   0  0  0  0  0  0  0  0  0  0  0  0
    0.1343   -2.0941    0.3843 H   0  0  0  0  0  0  0  0  0  0  0  0
    0.5918   -3.7915    0.1071 H   0  0  0  0  0  0  0  0  0  0  0  0
    3.8924   -1.0406    2.5967 H   0  0  0  0  0  0  0  0  0  0  0  0
    4.3476   -3.4231   -0.2342 H   0  0  0  0  0  0  0  0  0  0  0  0
    3.4734    2.5549    0.2280 H   0  0  0  0  0  0  0  0  0  0  0  0
   -1.0699   -3.0543   -1.2640 H   0  0  0  0  0  0  0  0  0  0  0  0
   -4.7424   -1.8877    2.0645 H   0  0  0  0  0  0  0  0  0  0  0  0
   -3.6778    0.1883    1.4548 H   0  0  0  0  0  0  0  0  0  0  0  0
   -2.5210   -1.1368    1.3535 H   0  0  0  0  0  0  0  0  0  0  0  0
   -0.5905    5.1613    0.2837 H   0  0  0  0  0  0  0  0  0  0  0  0
   -2.2913    4.7861    0.0696 H   0  0  0  0  0  0  0  0  0  0  0  0
   -5.8366   -1.0875   -0.6815 H   0  0  0  0  0  0  0  0  0  0  0  0
   -3.2958   -3.4732    0.8061 H   0  0  0  0  0  0  0  0  0  0  0  0
   -6.1267   -0.2084    0.8329 H   0  0  0  0  0  0  0  0  0  0  0  0
   -6.7081   -1.8668    0.6407 H   0  0  0  0  0  0  0  0  0  0  0  0
   -5.0191   -3.8087    0.5918 H   0  0  0  0  0  0  0  0  0  0  0  0
   -4.1088   -3.0252   -0.7046 H   0  0  0  0  0  0  0  0  0  0  0  0
  1 20  1  0  0  0  0
  1 22  1  0  0  0  0
  2 12  1  0  0  0  0
  2 14  1  0  0  0  0
  3 11  1  0  0  0  0
  3 31  1  0  0  0  0
  4 13  1  0  0  0  0
  4 32  1  0  0  0  0
  5 15  1  0  0  0  0
  5 34  1  0  0  0  0
  6 12  1  0  0  0  0
  6 16  1  0  0  0  0
  6 17  1  0  0  0  0
  7 17  2  0  0  0  0
  7 18  1  0  0  0  0
  8 16  2  0  0  0  0
  8 20  1  0  0  0  0
  9 19  1  0  0  0  0
  9 20  2  0  0  0  0
 10 19  1  0  0  0  0
 10 38  1  0  0  0  0
 10 39  1  0  0  0  0
 11 12  1  0  0  0  0
 11 13  1  0  0  0  0
 11 25  1  0  0  0  0
 12 26  1  0  0  0  0
 13 14  1  0  0  0  0
 13 27  1  0  0  0  0
 14 15  1  0  0  0  0
 14 28  1  0  0  0  0
 15 29  1  0  0  0  0
 15 30  1  0  0  0  0
 16 18  1  0  0  0  0
 17 33  1  0  0  0  0
 18 19  2  0  0  0  0
 21 22  1  0  0  0  0
 21 23  1  0  0  0  0
 21 24  1  0  0  0  0
 21 35  1  0  0  0  0
 22 36  1  0  0  0  0
 22 37  1  0  0  0  0
 23 41  1  0  0  0  0
 23 44  1  0  0  0  0
 23 45  1  0  0  0  0
 24 40  1  0  0  0  0
 24 42  1  0  0  0  0
 24 43  1  0  0  0  0
M  END
> <PUBCHEM_COMPOUND_CID>
123131900

> <PUBCHEM_CONFORMER_RMSD>
0.8

> <PUBCHEM_CONFORMER_DIVERSEORDER>
1
47
146
58
109
153
26
70
132
140
147
14
76
139
125
107
163
17
82
91
54
8
19
137
123
81
28
158
73
118
96
142
115
30
110
112
69
45
95
84
18
103
165
88
63
44
156
31
93
52
23
138
74
159
105
131
72
162
16
51
128
106
57
79
135
134
11
53
56
32
99
49
71
111
9
160
83
90
5
100
12
21
124
46
129
94
133
155
141
13
34
60
102
85
120
66
77
7
41
150
15
154
36
92
78
40
2
161
87
148
61
64
3
68
97
98
130
33
24
122
4
114
37
59
101
126
10
39
149
157
116
65
62
117
113
121
48
143
144
152
145
55
108
20
104
89
27
35
42
136
38
151
6
164
80
25
119
67
127
22
43
86
75
50
29

> <PUBCHEM_MMFF94_PARTIAL_CHARGES>
27
1 -0.33
10 -0.9
11 0.28
12 0.54
13 0.28
14 0.28
15 0.28
16 0.11
17 0.04
18 0.23
19 0.41
2 -0.56
20 0.72
22 0.23
3 -0.68
31 0.4
32 0.4
33 0.15
34 0.4
38 0.4
39 0.4
4 -0.68
5 -0.68
6 0.05
7 -0.57
8 -0.57
9 -0.62

> <PUBCHEM_EFFECTIVE_ROTOR_COUNT>
6

> <PUBCHEM_PHARMACOPHORE_FEATURES>
16
1 10 cation
1 10 donor
1 2 acceptor
1 3 acceptor
1 3 donor
1 4 acceptor
1 4 donor
1 5 acceptor
1 5 donor
3 21 23 24 hydrophobe
3 6 7 17 cation
3 6 8 16 cation
3 8 9 20 cation
5 2 11 12 13 14 rings
5 6 7 16 17 18 rings
6 8 9 16 18 19 20 rings

> <PUBCHEM_HEAVY_ATOM_COUNT>
24

> <PUBCHEM_ATOM_DEF_STEREO_COUNT>
4

> <PUBCHEM_ATOM_UDEF_STEREO_COUNT>
0

> <PUBCHEM_BOND_DEF_STEREO_COUNT>
0

> <PUBCHEM_BOND_UDEF_STEREO_COUNT>
0

> <PUBCHEM_ISOTOPIC_ATOM_COUNT>
0

> <PUBCHEM_COMPONENT_COUNT>
1

> <PUBCHEM_CACTVS_TAUTO_COUNT>
4

> <PUBCHEM_CONFORMER_ID>
0756D7FC00000001

> <PUBCHEM_MMFF94_ENERGY>
52.8024

> <PUBCHEM_FEATURE_SELFOVERLAP>
81.816

> <PUBCHEM_SHAPE_FINGERPRINT>
10493431 412 17693660728732523977
10616163 171 18051972511586354694
1100329 8 17618786198747191088
114674 6 18115871982717892915
12506688 2 18408327704766380145
12553582 1 18412823611870103047
12633257 1 18337402586578917707
13140716 1 18268711623518917864
13533116 47 18268154330970868355
138480 1 18338239370281785523
14117953 113 18343305821616959031
14178342 30 18194678168420127720
14251705 54 18410573946544445611
14787075 74 18041000678505888290
14790565 3 17398961955744976973
14863182 85 18045791348925049820
14866123 147 17977384933061649913
19591789 44 18122349240092592628
20645477 70 18263920102753974647
20739085 24 18339092595821699957
21197605 99 17039806525861759211
21279426 13 18187917358338501205
21421861 104 18336555996636914001
23184049 29 18336547110033041213
23559900 14 18335975411511079133
2748010 2 18127119771979263420
33824 294 18122067760825870929
3421961 26 18337956796009621209
5283268 108 18410299090265462091
5309563 4 18338520845538025539
5939293 188 18267875067042595167
6443956 14 18335990847960631413
9709674 26 17765991697369959062

> <PUBCHEM_SHAPE_MULTIPOLES>
449.38
8.29
5.11
1.07
10.34
3.27
-0.1
-7.16
-2.85
-1.12
0.21
-0.24
-0.56
0.44

> <PUBCHEM_SHAPE_SELFOVERLAP>
934.997

> <PUBCHEM_SHAPE_VOLUME>
259.6

> <PUBCHEM_COORDINATE_TYPE>
2
5
10

$$$$
