123131956
  -OEChem-03292013293D

 47 49  0     1  0  0  0  0  0999 V2000
    3.1865    3.4341    0.9123 Br  0  0  0  0  0  0  0  0  0  0  0  0
    0.1400   -3.1553   -0.6436 O   0  0  0  0  0  0  0  0  0  0  0  0
    2.5917   -3.3156    1.1210 O   0  0  0  0  0  0  0  0  0  0  0  0
    3.5622   -1.1943   -1.6945 O   0  0  0  0  0  0  0  0  0  0  0  0
    5.9906   -1.3361   -0.3139 O   0  0  0  0  0  0  0  0  0  0  0  0
   -5.0118    0.6729   -0.6442 O   0  0  0  0  0  0  0  0  0  0  0  0
   -3.7732   -3.6802    0.1565 O   0  0  0  0  0  0  0  0  0  0  0  0
   -0.4547   -0.4277    0.5343 N   0  0  0  0  0  0  0  0  0  0  0  0
   -2.4733    1.4387   -0.1504 N   0  0  0  0  0  0  0  0  0  0  0  0
   -2.1488   -2.0971    0.3423 N   0  0  0  0  0  0  0  0  0  0  0  0
   -4.4051   -1.5383   -0.2433 N   0  0  0  0  0  0  0  0  0  0  0  0
    1.0822   -2.1207   -0.3573 C   0  0  1  0  0  0  0  0  0  0  0  0
    0.6113   -1.3632    0.8898 C   0  0  0  0  0  0  0  0  0  0  0  0
    2.4820   -2.7422   -0.1810 C   0  0  1  0  0  0  0  0  0  0  0  0
    3.6218   -1.7229   -0.3682 C   0  0  1  0  0  0  0  0  0  0  0  0
   -0.1349    0.9450    0.4453 C   0  0  0  0  0  0  0  0  0  0  0  0
   -1.7525   -0.8597    0.2870 C   0  0  0  0  0  0  0  0  0  0  0  0
   -1.1567    1.8542    0.1032 C   0  0  0  0  0  0  0  0  0  0  0  0
   -2.7751    0.1834   -0.0715 C   0  0  0  0  0  0  0  0  0  0  0  0
    5.0003   -2.3474   -0.1571 C   0  0  0  0  0  0  0  0  0  0  0  0
    1.1537    1.4609    0.6799 C   0  0  0  0  0  0  0  0  0  0  0  0
   -0.8793    3.2265    0.0049 C   0  0  0  0  0  0  0  0  0  0  0  0
    0.4027    3.7125    0.2418 C   0  0  0  0  0  0  0  0  0  0  0  0
    1.4193    2.8291    0.5795 C   0  0  0  0  0  0  0  0  0  0  0  0
    0.6356    5.1836    0.1221 C   0  0  0  0  0  0  0  0  0  0  0  0
   -4.1949   -0.1845   -0.3547 C   0  0  0  0  0  0  0  0  0  0  0  0
   -3.4448   -2.4935    0.0912 C   0  0  0  0  0  0  0  0  0  0  0  0
    0.7251    5.6381   -1.3314 C   0  0  0  0  0  0  0  0  0  0  0  0
    1.0807   -1.4647   -1.2346 H   0  0  0  0  0  0  0  0  0  0  0  0
    0.1899   -2.0822    1.6072 H   0  0  0  0  0  0  0  0  0  0  0  0
    1.4347   -0.9158    1.4466 H   0  0  0  0  0  0  0  0  0  0  0  0
    2.6044   -3.5530   -0.9106 H   0  0  0  0  0  0  0  0  0  0  0  0
    3.5097   -0.8838    0.3262 H   0  0  0  0  0  0  0  0  0  0  0  0
    5.1023   -2.7738    0.8451 H   0  0  0  0  0  0  0  0  0  0  0  0
    5.1958   -3.1224   -0.9055 H   0  0  0  0  0  0  0  0  0  0  0  0
    1.9944    0.8232    0.9240 H   0  0  0  0  0  0  0  0  0  0  0  0
   -1.6819    3.9129   -0.2594 H   0  0  0  0  0  0  0  0  0  0  0  0
    0.1298   -3.7726    0.1071 H   0  0  0  0  0  0  0  0  0  0  0  0
    1.9186   -4.0130    1.1936 H   0  0  0  0  0  0  0  0  0  0  0  0
   -0.2046    5.7080    0.5981 H   0  0  0  0  0  0  0  0  0  0  0  0
    1.5112    5.5353    0.6734 H   0  0  0  0  0  0  0  0  0  0  0  0
    4.2918   -0.5580   -1.7871 H   0  0  0  0  0  0  0  0  0  0  0  0
   -5.3468   -1.8767   -0.4201 H   0  0  0  0  0  0  0  0  0  0  0  0
    1.5610    5.1514   -1.8452 H   0  0  0  0  0  0  0  0  0  0  0  0
    0.8812    6.7206   -1.3786 H   0  0  0  0  0  0  0  0  0  0  0  0
   -0.1913    5.4063   -1.8842 H   0  0  0  0  0  0  0  0  0  0  0  0
    6.8550   -1.7611   -0.1808 H   0  0  0  0  0  0  0  0  0  0  0  0
  1 24  1  0  0  0  0
  2 12  1  0  0  0  0
  2 38  1  0  0  0  0
  3 14  1  0  0  0  0
  3 39  1  0  0  0  0
  4 15  1  0  0  0  0
  4 42  1  0  0  0  0
  5 20  1  0  0  0  0
  5 47  1  0  0  0  0
  6 26  2  0  0  0  0
  7 27  2  0  0  0  0
  8 13  1  0  0  0  0
  8 16  1  0  0  0  0
  8 17  1  0  0  0  0
  9 18  1  0  0  0  0
  9 19  2  0  0  0  0
 10 17  2  0  0  0  0
 10 27  1  0  0  0  0
 11 26  1  0  0  0  0
 11 27  1  0  0  0  0
 11 43  1  0  0  0  0
 12 13  1  0  0  0  0
 12 14  1  0  0  0  0
 12 29  1  0  0  0  0
 13 30  1  0  0  0  0
 13 31  1  0  0  0  0
 14 15  1  0  0  0  0
 14 32  1  0  0  0  0
 15 20  1  0  0  0  0
 15 33  1  0  0  0  0
 16 18  2  0  0  0  0
 16 21  1  0  0  0  0
 17 19  1  0  0  0  0
 18 22  1  0  0  0  0
 19 26  1  0  0  0  0
 20 34  1  0  0  0  0
 20 35  1  0  0  0  0
 21 24  2  0  0  0  0
 21 36  1  0  0  0  0
 22 23  2  0  0  0  0
 22 37  1  0  0  0  0
 23 24  1  0  0  0  0
 23 25  1  0  0  0  0
 25 28  1  0  0  0  0
 25 40  1  0  0  0  0
 25 41  1  0  0  0  0
 28 44  1  0  0  0  0
 28 45  1  0  0  0  0
 28 46  1  0  0  0  0
M  END
> <PUBCHEM_COMPOUND_CID>
123131956

> <PUBCHEM_CONFORMER_RMSD>
0.8

> <PUBCHEM_CONFORMER_DIVERSEORDER>
2
23
53
74
11
76
64
3
39
75
24
14
60
35
43
50
41
80
56
19
20
17
29
54
13
40
62
58
81
67
15
77
68
70
32
57
45
51
28
55
12
8
79
73
36
22
66
7
65
21
33
46
5
42
49
78
1
31
61
27
18
47
52
71
59
4
25
6
38
72
26
16
9
10
34
69
37
48
63
44
30

> <PUBCHEM_MMFF94_PARTIAL_CHARGES>
34
1 -0.11
10 -0.66
11 -0.49
12 0.28
13 0.37
14 0.28
15 0.28
16 0.1
17 0.5
18 0.18
19 0.45
2 -0.68
20 0.28
21 -0.15
22 -0.15
23 -0.14
24 0.11
25 0.14
26 0.63
27 0.84
3 -0.68
36 0.15
37 0.15
38 0.4
39 0.4
4 -0.68
42 0.4
43 0.37
47 0.4
5 -0.68
6 -0.57
7 -0.57
8 -0.52
9 -0.63

> <PUBCHEM_EFFECTIVE_ROTOR_COUNT>
6

> <PUBCHEM_PHARMACOPHORE_FEATURES>
18
1 1 hydrophobe
1 10 donor
1 11 donor
1 2 acceptor
1 2 donor
1 28 hydrophobe
1 3 acceptor
1 3 donor
1 4 acceptor
1 4 donor
1 5 acceptor
1 5 donor
1 6 acceptor
1 7 acceptor
1 9 acceptor
6 10 11 17 19 26 27 rings
6 16 18 21 22 23 24 rings
6 8 9 16 17 18 19 rings

> <PUBCHEM_HEAVY_ATOM_COUNT>
28

> <PUBCHEM_ATOM_DEF_STEREO_COUNT>
3

> <PUBCHEM_ATOM_UDEF_STEREO_COUNT>
0

> <PUBCHEM_BOND_DEF_STEREO_COUNT>
0

> <PUBCHEM_BOND_UDEF_STEREO_COUNT>
0

> <PUBCHEM_ISOTOPIC_ATOM_COUNT>
0

> <PUBCHEM_COMPONENT_COUNT>
1

> <PUBCHEM_CACTVS_TAUTO_COUNT>
6

> <PUBCHEM_CONFORMER_ID>
0756D83400000002

> <PUBCHEM_MMFF94_ENERGY>
81.0339

> <PUBCHEM_FEATURE_SELFOVERLAP>
91.472

> <PUBCHEM_SHAPE_FINGERPRINT>
10050765 1 18267302226797901523
10411042 1 18411420617727227370
10670039 82 18194982751371015262
1100329 8 18196656194556048433
11578080 2 16736036463799844967
12173636 292 17545602253619254108
12553582 1 18339923689141709771
12788726 201 18118122459481249402
13140716 1 18412832403953163403
13540713 4 17970905794919035459
138480 1 18411136973891615904
14363568 33 18120673558507106339
14790565 3 17260755044682308576
15927050 60 17837774795943183214
15968369 26 18046336702639662606
16087824 20 18122628246096701801
19319366 153 17678180387019512859
19591789 44 17762332917983693937
19930381 70 18339078319234136216
20028762 73 17119164859537392519
20101258 96 18338811000116049776
20642791 105 17399502429970312994
20642791 35 18411413982023055299
20715895 44 16316396525694974980
21049683 271 18334584542212984581
21133410 171 14816936049035945472
21344244 246 18125986402924118983
23352939 185 18201157637660813545
23366157 5 18189892192142069547
23557571 272 17985829229418101726
23559900 14 18341039787531912169
24771750 20 18191599746674676477
3298306 158 18051980512968158388
3380486 145 18266479627836423091
4017518 198 17697599150189112132
4280585 95 18339350894854201162
463206 1 18336557048529049502
532947 4 18268992162408665488
6669772 16 17620200161999242044
9709674 26 18266170811662141699

> <PUBCHEM_SHAPE_MULTIPOLES>
527.03
8.28
7.4
0.95
2.87
5.87
0.13
-6.35
1.1
-7.71
1.12
-0.61
0.18
0.92

> <PUBCHEM_SHAPE_SELFOVERLAP>
1111.501

> <PUBCHEM_SHAPE_VOLUME>
301.4

> <PUBCHEM_COORDINATE_TYPE>
2
5
10

$$$$
