12310288
  -OEChem-03292013303D

 75 78  0     1  0  0  0  0  0999 V2000
   -2.8354    2.8837    1.7826 O   0  0  0  0  0  0  0  0  0  0  0  0
   -5.9103   -3.0505    1.9892 O   0  0  0  0  0  0  0  0  0  0  0  0
    5.4336   -1.2882    1.9952 O   0  0  0  0  0  0  0  0  0  0  0  0
    7.4873    1.0619    0.2344 O   0  0  0  0  0  0  0  0  0  0  0  0
    9.5108    0.1092    0.6157 O   0  0  0  0  0  0  0  0  0  0  0  0
    6.2356   -1.1927   -0.1836 N   0  0  0  0  0  0  0  0  0  0  0  0
   -1.0218    0.9341    0.3468 C   0  0  2  0  0  0  0  0  0  0  0  0
   -0.2360    0.5739   -0.9357 C   0  0  1  0  0  0  0  0  0  0  0  0
   -2.5218    1.1768    0.0851 C   0  0  1  0  0  0  0  0  0  0  0  0
   -3.1287   -0.1308   -0.5303 C   0  0  1  0  0  0  0  0  0  0  0  0
   -4.6768   -0.0081   -0.7926 C   0  0  2  0  0  0  0  0  0  0  0  0
    1.1848    0.4419   -0.3342 C   0  0  2  0  0  0  0  0  0  0  0  0
   -5.3961    0.4093    0.5312 C   0  0  2  0  0  0  0  0  0  0  0  0
   -0.8098   -0.7340   -1.4937 C   0  0  0  0  0  0  0  0  0  0  0  0
   -2.3196   -0.6236   -1.7598 C   0  0  0  0  0  0  0  0  0  0  0  0
   -3.2793    1.5943    1.3609 C   0  0  2  0  0  0  0  0  0  0  0  0
   -0.1678    2.0295    0.9825 C   0  0  0  0  0  0  0  0  0  0  0  0
    1.2807    1.6349    0.6416 C   0  0  0  0  0  0  0  0  0  0  0  0
   -4.7895    1.6791    1.1396 C   0  0  0  0  0  0  0  0  0  0  0  0
   -5.3070   -1.3421   -1.2902 C   0  0  0  0  0  0  0  0  0  0  0  0
   -0.2788    1.6701   -2.0300 C   0  0  0  0  0  0  0  0  0  0  0  0
    2.3420    0.3903   -1.3215 C   0  0  1  0  0  0  0  0  0  0  0  0
   -5.4272   -0.7234    1.5782 C   0  0  0  0  0  0  0  0  0  0  0  0
   -4.9702    1.0443   -1.8930 C   0  0  0  0  0  0  0  0  0  0  0  0
   -5.3043   -2.4534   -0.2479 C   0  0  0  0  0  0  0  0  0  0  0  0
   -6.0222   -2.0130    1.0208 C   0  0  1  0  0  0  0  0  0  0  0  0
    3.7126    0.2546   -0.6277 C   0  0  0  0  0  0  0  0  0  0  0  0
    2.1482   -0.7774   -2.2958 C   0  0  0  0  0  0  0  0  0  0  0  0
    3.8624   -1.0413    0.1699 C   0  0  0  0  0  0  0  0  0  0  0  0
    5.2438   -1.1855    0.7864 C   0  0  0  0  0  0  0  0  0  0  0  0
    7.6410   -1.3252    0.1252 C   0  0  0  0  0  0  0  0  0  0  0  0
    8.3198    0.0014    0.3508 C   0  0  0  0  0  0  0  0  0  0  0  0
   -0.9676    0.0757    1.0377 H   0  0  0  0  0  0  0  0  0  0  0  0
   -2.6088    1.9999   -0.6319 H   0  0  0  0  0  0  0  0  0  0  0  0
   -2.9891   -0.9117    0.2299 H   0  0  0  0  0  0  0  0  0  0  0  0
    1.1935   -0.4744    0.2725 H   0  0  0  0  0  0  0  0  0  0  0  0
   -6.4451    0.6381    0.2927 H   0  0  0  0  0  0  0  0  0  0  0  0
   -0.6378   -1.5569   -0.7880 H   0  0  0  0  0  0  0  0  0  0  0  0
   -0.3569   -1.0303   -2.4398 H   0  0  0  0  0  0  0  0  0  0  0  0
   -2.6678   -1.6170   -2.0621 H   0  0  0  0  0  0  0  0  0  0  0  0
   -2.4868    0.0365   -2.6166 H   0  0  0  0  0  0  0  0  0  0  0  0
   -3.0580    0.8976    2.1764 H   0  0  0  0  0  0  0  0  0  0  0  0
   -0.3987    3.0147    0.5622 H   0  0  0  0  0  0  0  0  0  0  0  0
   -0.3114    2.0848    2.0663 H   0  0  0  0  0  0  0  0  0  0  0  0
    1.8289    1.3494    1.5464 H   0  0  0  0  0  0  0  0  0  0  0  0
    1.7998    2.4932    0.1999 H   0  0  0  0  0  0  0  0  0  0  0  0
   -5.2797    1.9135    2.0938 H   0  0  0  0  0  0  0  0  0  0  0  0
   -5.0174    2.5405    0.4984 H   0  0  0  0  0  0  0  0  0  0  0  0
   -6.3518   -1.1573   -1.5781 H   0  0  0  0  0  0  0  0  0  0  0  0
   -4.8159   -1.6962   -2.2028 H   0  0  0  0  0  0  0  0  0  0  0  0
    0.1912    2.6034   -1.7041 H   0  0  0  0  0  0  0  0  0  0  0  0
    0.2365    1.3513   -2.9410 H   0  0  0  0  0  0  0  0  0  0  0  0
   -1.2988    1.9229   -2.3315 H   0  0  0  0  0  0  0  0  0  0  0  0
    2.3843    1.3184   -1.9051 H   0  0  0  0  0  0  0  0  0  0  0  0
   -6.0176   -0.4095    2.4490 H   0  0  0  0  0  0  0  0  0  0  0  0
   -4.4264   -0.9284    1.9759 H   0  0  0  0  0  0  0  0  0  0  0  0
   -6.0498    1.2020   -2.0026 H   0  0  0  0  0  0  0  0  0  0  0  0
   -4.5257    2.0194   -1.6803 H   0  0  0  0  0  0  0  0  0  0  0  0
   -4.5976    0.7186   -2.8697 H   0  0  0  0  0  0  0  0  0  0  0  0
   -5.7996   -3.3439   -0.6547 H   0  0  0  0  0  0  0  0  0  0  0  0
   -4.2797   -2.7719   -0.0216 H   0  0  0  0  0  0  0  0  0  0  0  0
   -7.0889   -1.8693    0.8146 H   0  0  0  0  0  0  0  0  0  0  0  0
    3.8887    1.1097    0.0363 H   0  0  0  0  0  0  0  0  0  0  0  0
    4.4895    0.3270   -1.3982 H   0  0  0  0  0  0  0  0  0  0  0  0
   -2.9983    3.5108    1.0575 H   0  0  0  0  0  0  0  0  0  0  0  0
    1.4797   -0.5082   -3.1162 H   0  0  0  0  0  0  0  0  0  0  0  0
    1.7878   -1.6866   -1.8050 H   0  0  0  0  0  0  0  0  0  0  0  0
    3.0977   -1.0305   -2.7837 H   0  0  0  0  0  0  0  0  0  0  0  0
   -4.9666   -3.1804    2.1846 H   0  0  0  0  0  0  0  0  0  0  0  0
    3.1424   -1.0792    0.9937 H   0  0  0  0  0  0  0  0  0  0  0  0
    3.6955   -1.9246   -0.4558 H   0  0  0  0  0  0  0  0  0  0  0  0
    5.9801   -1.1434   -1.1648 H   0  0  0  0  0  0  0  0  0  0  0  0
    7.7554   -1.9331    1.0274 H   0  0  0  0  0  0  0  0  0  0  0  0
    8.1151   -1.8199   -0.7270 H   0  0  0  0  0  0  0  0  0  0  0  0
    7.9520    1.9122    0.3864 H   0  0  0  0  0  0  0  0  0  0  0  0
  1 16  1  0  0  0  0
  1 65  1  0  0  0  0
  2 26  1  0  0  0  0
  2 69  1  0  0  0  0
  3 30  2  0  0  0  0
  4 32  1  0  0  0  0
  4 75  1  0  0  0  0
  5 32  2  0  0  0  0
  6 30  1  0  0  0  0
  6 31  1  0  0  0  0
  6 72  1  0  0  0  0
  7  8  1  0  0  0  0
  7  9  1  0  0  0  0
  7 17  1  0  0  0  0
  7 33  1  0  0  0  0
  8 12  1  0  0  0  0
  8 14  1  0  0  0  0
  8 21  1  0  0  0  0
  9 10  1  0  0  0  0
  9 16  1  0  0  0  0
  9 34  1  0  0  0  0
 10 11  1  0  0  0  0
 10 15  1  0  0  0  0
 10 35  1  0  0  0  0
 11 13  1  0  0  0  0
 11 20  1  0  0  0  0
 11 24  1  0  0  0  0
 12 18  1  0  0  0  0
 12 22  1  0  0  0  0
 12 36  1  0  0  0  0
 13 19  1  0  0  0  0
 13 23  1  0  0  0  0
 13 37  1  0  0  0  0
 14 15  1  0  0  0  0
 14 38  1  0  0  0  0
 14 39  1  0  0  0  0
 15 40  1  0  0  0  0
 15 41  1  0  0  0  0
 16 19  1  0  0  0  0
 16 42  1  0  0  0  0
 17 18  1  0  0  0  0
 17 43  1  0  0  0  0
 17 44  1  0  0  0  0
 18 45  1  0  0  0  0
 18 46  1  0  0  0  0
 19 47  1  0  0  0  0
 19 48  1  0  0  0  0
 20 25  1  0  0  0  0
 20 49  1  0  0  0  0
 20 50  1  0  0  0  0
 21 51  1  0  0  0  0
 21 52  1  0  0  0  0
 21 53  1  0  0  0  0
 22 27  1  0  0  0  0
 22 28  1  0  0  0  0
 22 54  1  0  0  0  0
 23 26  1  0  0  0  0
 23 55  1  0  0  0  0
 23 56  1  0  0  0  0
 24 57  1  0  0  0  0
 24 58  1  0  0  0  0
 24 59  1  0  0  0  0
 25 26  1  0  0  0  0
 25 60  1  0  0  0  0
 25 61  1  0  0  0  0
 26 62  1  0  0  0  0
 27 29  1  0  0  0  0
 27 63  1  0  0  0  0
 27 64  1  0  0  0  0
 28 66  1  0  0  0  0
 28 67  1  0  0  0  0
 28 68  1  0  0  0  0
 29 30  1  0  0  0  0
 29 70  1  0  0  0  0
 29 71  1  0  0  0  0
 31 32  1  0  0  0  0
 31 73  1  0  0  0  0
 31 74  1  0  0  0  0
M  END
> <PUBCHEM_COMPOUND_CID>
12310288

> <PUBCHEM_CONFORMER_RMSD>
1

> <PUBCHEM_CONFORMER_DIVERSEORDER>
4
11
5
3
10
12
16
9
15
8
13
2
6
7
14
1

> <PUBCHEM_MMFF94_PARTIAL_CHARGES>
16
1 -0.68
16 0.28
2 -0.68
26 0.28
29 0.06
3 -0.57
30 0.57
31 0.36
32 0.66
4 -0.65
5 -0.57
6 -0.73
65 0.4
69 0.4
72 0.37
75 0.5

> <PUBCHEM_EFFECTIVE_ROTOR_COUNT>
9.2

> <PUBCHEM_PHARMACOPHORE_FEATURES>
14
1 1 acceptor
1 1 donor
1 2 acceptor
1 2 donor
1 28 hydrophobe
1 3 acceptor
1 4 acceptor
1 5 acceptor
1 6 donor
3 4 5 32 anion
5 7 8 12 17 18 rings
6 11 13 20 23 25 26 rings
6 7 8 9 10 14 15 rings
6 9 10 11 13 16 19 rings

> <PUBCHEM_HEAVY_ATOM_COUNT>
32

> <PUBCHEM_ATOM_DEF_STEREO_COUNT>
10

> <PUBCHEM_ATOM_UDEF_STEREO_COUNT>
0

> <PUBCHEM_BOND_DEF_STEREO_COUNT>
0

> <PUBCHEM_BOND_UDEF_STEREO_COUNT>
0

> <PUBCHEM_ISOTOPIC_ATOM_COUNT>
0

> <PUBCHEM_COMPONENT_COUNT>
1

> <PUBCHEM_CACTVS_TAUTO_COUNT>
2

> <PUBCHEM_CONFORMER_ID>
00BBD71000000004

> <PUBCHEM_MMFF94_ENERGY>
103.532

> <PUBCHEM_FEATURE_SELFOVERLAP>
71.234

> <PUBCHEM_SHAPE_FINGERPRINT>
10 15 17632579331487910240
10577160 183 11963662357465589472
10670039 82 11169908394634436391
10674148 151 16008464327202425661
10675989 125 16402835774742647673
11273773 118 9439405739812327837
11315181 36 18343015584495065669
11796584 16 18113896014314827495
12422481 6 17203604895760353921
12596602 18 18408887347204827720
13540713 4 17201658644257343309
13782708 43 17458339737046404838
14849402 71 18129658725265862952
14856354 85 17560511897674691734
15064981 113 12036269732849650595
15183329 4 11818995180250418812
15728490 51 18408041827997181130
17093844 174 18114177510924623941
17780758 139 18413109446845046353
18603816 31 17603881030806579547
19611394 137 18131354150377587514
19958102 18 12901541309023205032
20567600 247 17458060469329690858
21033648 29 17131286662006439069
21223535 225 11887679455213318090
21796203 349 17702680997651401073
22122407 14 12895064163081024434
22393880 68 12829499181115244453
23569914 152 15072229011793576851
23569943 247 17681266665183705042
2747138 104 18272651247465336248
2838139 119 11311766285322630738
3383291 50 18412266168007720035
392239 28 16056878026911136771
4015057 19 16154004537686666517
4073 2 17917155983356375358
4938544 92 18265050245793775765
5104073 3 18059581329888281049
59755656 520 12463561894502290732
6009941 240 18335419033078829085
6523845 18 11963399514241521189
9953998 17 18131074805525262129
999808 66 18411703196499710875

> <PUBCHEM_SHAPE_MULTIPOLES>
624.22
21.59
2.35
1.96
46.93
0.06
0.31
9.31
-8.38
-3.43
-1.09
-1.71
0.22
0.12

> <PUBCHEM_SHAPE_SELFOVERLAP>
1301.349

> <PUBCHEM_SHAPE_VOLUME>
351.8

> <PUBCHEM_COORDINATE_TYPE>
2
5
10

$$$$
