REMARK  Name = 123132228
REMARK  4 active torsions:
REMARK  status: ('A' for Active; 'I' for Inactive)
REMARK    1  A    between atoms: N_2  and  C_22
REMARK    2  A    between atoms: C_6  and  C_12
REMARK    3  A    between atoms: C_13  and  S_18
REMARK    4  A    between atoms: C_22  and  C_24
REMARK                            x       y       z     vdW  Elec       q    Type
REMARK                         _______ _______ _______ _____ _____    ______ ____
ROOT
ATOM      1  N   UNL     1      -1.438  -1.052  -0.184  0.00  0.00    -0.203 N 
ATOM      2  N   UNL     1      -3.513   0.096  -0.074  0.00  0.00    -0.299 N 
ATOM      3  N   UNL     1      -1.471   1.263   0.082  0.00  0.00    -0.215 NA
ATOM      4  N   UNL     1       0.300  -2.390  -0.330  0.00  0.00    -0.131 NA
ATOM      5  N   UNL     1      -0.845  -3.151  -0.425  0.00  0.00    -0.128 NA
ATOM      6  C   UNL     1       0.655   0.084  -0.038  0.00  0.00    +0.053 C 
ATOM      7  C   UNL     1      -0.064  -1.133  -0.182  0.00  0.00    +0.166 C 
ATOM      8  C   UNL     1      -2.143   0.150  -0.054  0.00  0.00    +0.195 C 
ATOM      9  C   UNL     1      -0.094   1.200   0.090  0.00  0.00    +0.104 C 
ATOM     10  C   UNL     1      -1.874  -2.338  -0.337  0.00  0.00    +0.198 C 
ATOM     11  H   UNL     1      -3.953  -0.778  -0.180  0.00  0.00    +0.150 HD
ENDROOT
BRANCH   6  12
ATOM     12  C   UNL     1       2.129   0.187   0.009  0.00  0.00    +0.004 C 
ATOM     13  C   UNL     1       4.910   0.384   0.100  0.00  0.00    +0.106 C 
ATOM     14  C   UNL     1       2.806   0.944  -0.947  0.00  0.00    +0.001 C 
ATOM     15  C   UNL     1       2.843  -0.471   1.011  0.00  0.00    +0.001 C 
ATOM     16  C   UNL     1       4.197   1.042  -0.901  0.00  0.00    +0.018 C 
ATOM     17  C   UNL     1       4.234  -0.372   1.056  0.00  0.00    +0.018 C 
BRANCH  13  18
ATOM     18  S   UNL     1       6.651   0.508   0.156  0.00  0.00    +0.010 S 
ATOM     19  O   UNL     1       7.059   1.730  -0.523  0.00  0.00    -0.169 OA
ATOM     20  O   UNL     1       7.074   0.268   1.528  0.00  0.00    -0.169 OA
ATOM     21  C   UNL     1       7.223  -0.852  -0.838  0.00  0.00    +0.182 C 
ENDBRANCH  13  18
ENDBRANCH   6  12
BRANCH   2  22
ATOM     22  C   UNL     1      -4.324   1.267   0.051  0.00  0.00    +0.155 C 
BRANCH  22  24
ATOM     23  O   UNL     1      -6.202   0.042   0.996  0.00  0.00    -0.453 OA
ATOM     24  C   UNL     1      -5.783   0.902   0.030  0.00  0.00    +0.143 C 
ATOM     25  C   UNL     1      -6.831   1.262  -0.784  0.00  0.00    +0.038 C 
ATOM     26  C   UNL     1      -7.967   0.580  -0.288  0.00  0.00    +0.043 C 
ATOM     27  C   UNL     1      -7.532  -0.149   0.795  0.00  0.00    +0.179 C 
ENDBRANCH  22  24
ENDBRANCH   2  22
TORSDOF 4
