REMARK  Name = 12313740
REMARK  9 active torsions:
REMARK  status: ('A' for Active; 'I' for Inactive)
REMARK    1  A    between atoms: C_3  and  O_20
REMARK    2  A    between atoms: C_10  and  C_12
REMARK    3  A    between atoms: C_17  and  O_18
REMARK    4  A    between atoms: O_20  and  C_26
REMARK    5  A    between atoms: C_22  and  O_27
REMARK    6  A    between atoms: C_23  and  O_29
REMARK    7  A    between atoms: C_24  and  O_31
REMARK    8  A    between atoms: C_25  and  C_33
REMARK    9  A    between atoms: C_33  and  O_34
REMARK                            x       y       z     vdW  Elec       q    Type
REMARK                         _______ _______ _______ _____ _____    ______ ____
ROOT
ATOM      1  O   UNL     1      -0.771  -1.027   0.149  0.00  0.00    -0.450 OA
ATOM      2  O   UNL     1      -3.113   2.291   0.538  0.00  0.00    -0.286 OA
ATOM      3  C   UNL     1       1.834   1.475   0.627  0.00  0.00    +0.144 C 
ATOM      4  C   UNL     1       1.195   0.253   0.424  0.00  0.00    +0.075 C 
ATOM      5  C   UNL     1       1.084   2.645   0.756  0.00  0.00    +0.037 C 
ATOM      6  C   UNL     1      -0.198   0.202   0.349  0.00  0.00    +0.151 C 
ATOM      7  C   UNL     1      -0.947   1.371   0.478  0.00  0.00    +0.074 C 
ATOM      8  C   UNL     1      -0.308   2.597   0.682  0.00  0.00    +0.009 C 
ATOM      9  C   UNL     1      -2.418   1.293   0.400  0.00  0.00    +0.202 C 
ATOM     10  C   UNL     1      -2.998  -0.057   0.162  0.00  0.00    +0.077 C 
ATOM     11  C   UNL     1      -2.141  -1.084   0.057  0.00  0.00    +0.183 C 
ENDROOT
BRANCH  10  12
ATOM     12  C   UNL     1      -4.448  -0.269   0.025  0.00  0.00    +0.006 C 
ATOM     13  C   UNL     1      -5.224  -0.562   1.149  0.00  0.00    +0.003 C 
ATOM     14  C   UNL     1      -5.053  -0.177  -1.230  0.00  0.00    +0.003 C 
ATOM     15  C   UNL     1      -6.598  -0.762   1.018  0.00  0.00    +0.037 C 
ATOM     16  C   UNL     1      -6.427  -0.378  -1.361  0.00  0.00    +0.037 C 
ATOM     17  C   UNL     1      -7.200  -0.670  -0.237  0.00  0.00    +0.139 C 
BRANCH  17  18
ATOM     18  O   UNL     1      -8.540  -0.865  -0.364  0.00  0.00    -0.471 OA
ATOM     19  C   UNL     1      -9.091  -0.756  -1.676  0.00  0.00    +0.252 C 
ENDBRANCH  17  18
ENDBRANCH  10  12
BRANCH   3  20
ATOM     20  O   UNL     1       3.195   1.528   0.700  0.00  0.00    -0.450 OA
BRANCH  20  26
ATOM     21  O   UNL     1       4.114  -0.616   0.750  0.00  0.00    -0.316 OA
ATOM     22  C   UNL     1       6.151   0.121  -1.136  0.00  0.00    +0.173 C 
ATOM     23  C   UNL     1       6.214  -1.173  -0.325  0.00  0.00    +0.169 C 
ATOM     24  C   UNL     1       5.254   1.156  -0.457  0.00  0.00    +0.210 C 
ATOM     25  C   UNL     1       4.808  -1.649   0.049  0.00  0.00    +0.177 C 
ATOM     26  C   UNL     1       3.913   0.547  -0.049  0.00  0.00    +0.318 C 
BRANCH  22  27
ATOM     27  O   UNL     1       7.478   0.639  -1.245  0.00  0.00    -0.379 OA
ATOM     28  H   UNL     1       8.047  -0.017  -1.675  0.00  0.00    +0.211 HD
ENDBRANCH  22  27
BRANCH  23  29
ATOM     29  O   UNL     1       6.863  -2.181  -1.096  0.00  0.00    -0.379 OA
ATOM     30  H   UNL     1       7.755  -1.882  -1.334  0.00  0.00    +0.211 HD
ENDBRANCH  23  29
BRANCH  24  31
ATOM     31  O   UNL     1       5.001   2.230  -1.363  0.00  0.00    -0.377 OA
ATOM     32  H   UNL     1       5.842   2.630  -1.634  0.00  0.00    +0.211 HD
ENDBRANCH  24  31
BRANCH  25  33
ATOM     33  C   UNL     1       4.849  -2.874   0.957  0.00  0.00    +0.169 C 
BRANCH  33  34
ATOM     34  O   UNL     1       3.520  -3.249   1.269  0.00  0.00    -0.379 OA
ATOM     35  H   UNL     1       3.531  -4.028   1.847  0.00  0.00    +0.211 HD
ENDBRANCH  33  34
ENDBRANCH  25  33
ENDBRANCH  20  26
ENDBRANCH   3  20
TORSDOF 9
