REMARK  Name = 123131999
REMARK  5 active torsions:
REMARK  status: ('A' for Active; 'I' for Inactive)
REMARK    1  A    between atoms: C_5  and  O_19
REMARK    2  A    between atoms: C_6  and  O_21
REMARK    3  A    between atoms: C_7  and  N_12
REMARK    4  A    between atoms: C_9  and  C_24
REMARK    5  A    between atoms: C_24  and  O_25
REMARK                            x       y       z     vdW  Elec       q    Type
REMARK                         _______ _______ _______ _____ _____    ______ ____
ROOT
ATOM      1  O   UNL     1       0.196   0.989  -1.528  0.00  0.00    -0.333 OA
ATOM      2  O   UNL     1       1.045  -0.260   0.986  0.00  0.00    -0.342 OA
ATOM      3  C   UNL     1       1.516   1.139  -0.978  0.00  0.00    +0.173 C 
ATOM      4  C   UNL     1       1.315   1.068   0.529  0.00  0.00    +0.176 C 
ATOM      5  C   UNL     1       0.032   1.863   0.690  0.00  0.00    +0.187 C 
ATOM      6  C   UNL     1       2.465   0.073  -1.504  0.00  0.00    +0.143 C 
ATOM      7  C   UNL     1      -0.750   1.502  -0.573  0.00  0.00    +0.229 C 
ATOM      8  C   UNL     1       2.132  -1.300  -0.934  0.00  0.00    +0.073 C 
ATOM      9  C   UNL     1       1.970  -1.254   0.580  0.00  0.00    +0.216 C 
ENDROOT
BRANCH   7  12
ATOM     10  O   UNL     1      -3.006   1.836   1.093  0.00  0.00    -0.252 OA
ATOM     11  O   UNL     1      -4.481  -2.452   0.267  0.00  0.00    -0.270 OA
ATOM     12  N   UNL     1      -1.741   0.489  -0.336  0.00  0.00    -0.217 N 
ATOM     13  N   UNL     1      -3.739  -0.300   0.680  0.00  0.00    -0.236 N 
ATOM     14  C   UNL     1      -2.835   0.759   0.519  0.00  0.00    +0.315 C 
ATOM     15  C   UNL     1      -1.622  -0.753  -0.947  0.00  0.00    +0.076 C 
ATOM     16  C   UNL     1      -2.492  -1.752  -0.784  0.00  0.00    +0.074 C 
ATOM     17  C   UNL     1      -3.663  -1.554   0.094  0.00  0.00    +0.254 C 
ATOM     18  H   UNL     1      -4.509  -0.136   1.272  0.00  0.00    +0.159 HD
ENDBRANCH   7  12
BRANCH   5  19
ATOM     19  O   UNL     1       0.314   3.259   0.668  0.00  0.00    -0.378 OA
ATOM     20  H   UNL     1       0.810   3.501   1.465  0.00  0.00    +0.211 HD
ENDBRANCH   5  19
BRANCH   6  21
ATOM     21  O   UNL     1       2.421   0.019  -2.925  0.00  0.00    -0.382 OA
ATOM     22  H   UNL     1       2.632   0.893  -3.289  0.00  0.00    +0.210 HD
ENDBRANCH   6  21
BRANCH   9  24
ATOM     23  O   UNL     1       3.535  -0.175   2.077  0.00  0.00    -0.248 OA
ATOM     24  C   UNL     1       3.270  -1.092   1.313  0.00  0.00    +0.341 C 
BRANCH  24  25
ATOM     25  O   UNL     1       4.119  -2.104   1.012  0.00  0.00    -0.479 OA
ATOM     26  H   UNL     1       3.853  -2.777   0.417  0.00  0.00    +0.295 HD
ENDBRANCH  24  25
ENDBRANCH   9  24
TORSDOF 5
