REMARK  Name = 123131989
REMARK  7 active torsions:
REMARK  status: ('A' for Active; 'I' for Inactive)
REMARK    1  A    between atoms: C_11  and  C_20
REMARK    2  A    between atoms: C_13  and  O_17
REMARK    3  A    between atoms: C_15  and  C_23
REMARK    4  A    between atoms: C_20  and  O_21
REMARK    5  A    between atoms: C_23  and  C_24
REMARK    6  A    between atoms: C_24  and  C_26
REMARK    7  A    between atoms: C_26  and  O_27
REMARK                            x       y       z     vdW  Elec       q    Type
REMARK                         _______ _______ _______ _____ _____    ______ ____
ROOT
ATOM      1  O   UNL     1       0.160   2.240  -0.582  0.00  0.00    -0.483 OA
ATOM      2  C   UNL     1      -2.121   1.390  -0.265  0.00  0.00    +0.046 C 
ATOM      3  C   UNL     1      -1.606   0.087   0.386  0.00  0.00    +0.037 C 
ATOM      4  C   UNL     1      -1.132   2.559  -0.024  0.00  0.00    +0.134 C 
ATOM      5  C   UNL     1      -3.572   1.669   0.179  0.00  0.00    +0.030 C 
ATOM      6  C   UNL     1      -2.488  -1.098  -0.074  0.00  0.00    +0.037 C 
ATOM      7  C   UNL     1      -0.133  -0.096   0.095  0.00  0.00    +0.045 C 
ATOM      8  C   UNL     1       0.644   0.978  -0.363  0.00  0.00    +0.137 C 
ATOM      9  C   UNL     1      -1.585   3.917  -0.587  0.00  0.00    +0.044 C 
ATOM     10  C   UNL     1      -0.874   2.749   1.481  0.00  0.00    +0.044 C 
ATOM     11  C   UNL     1      -3.954  -0.785  -0.029  0.00  0.00    +0.049 C 
ATOM     12  C   UNL     1      -4.450   0.452   0.106  0.00  0.00    -0.024 C 
ATOM     13  C   UNL     1       0.505  -1.327   0.322  0.00  0.00    +0.132 C 
ATOM     14  C   UNL     1       2.004   0.805  -0.644  0.00  0.00    +0.033 C 
ATOM     15  C   UNL     1       2.613  -0.429  -0.437  0.00  0.00    -0.016 C 
ATOM     16  C   UNL     1       1.865  -1.494   0.053  0.00  0.00    +0.032 C 
ENDROOT
BRANCH  13  17
ATOM     17  O   UNL     1      -0.130  -2.399   0.874  0.00  0.00    -0.506 OA
ATOM     18  H   UNL     1      -1.044  -2.349   1.078  0.00  0.00    +0.292 HD
ENDBRANCH  13  17
BRANCH  11  20
ATOM     19  O   UNL     1      -6.005  -1.901   0.421  0.00  0.00    -0.245 OA
ATOM     20  C   UNL     1      -4.910  -1.894  -0.112  0.00  0.00    +0.334 C 
BRANCH  20  21
ATOM     21  O   UNL     1      -4.387  -2.886  -0.862  0.00  0.00    -0.477 OA
ATOM     22  H   UNL     1      -3.532  -2.792  -1.234  0.00  0.00    +0.295 HD
ENDBRANCH  20  21
ENDBRANCH  11  20
BRANCH  15  23
ATOM     23  C   UNL     1       4.065  -0.605  -0.728  0.00  0.00    +0.038 C 
BRANCH  23  24
ATOM     24  C   UNL     1       4.976  -0.291   0.465  0.00  0.00    +0.114 C 
BRANCH  24  26
ATOM     25  O   UNL     1       6.825  -0.916  -0.959  0.00  0.00    -0.250 OA
ATOM     26  C   UNL     1       6.430  -0.518   0.130  0.00  0.00    +0.314 C 
BRANCH  26  27
ATOM     27  O   UNL     1       7.262  -0.207   1.154  0.00  0.00    -0.480 OA
ATOM     28  H   UNL     1       6.910   0.094   1.969  0.00  0.00    +0.295 HD
ENDBRANCH  26  27
ENDBRANCH  24  26
ENDBRANCH  23  24
ENDBRANCH  15  23
TORSDOF 7
