12315200
  -OEChem-03292013303D

 38 39  0     1  0  0  0  0  0999 V2000
    0.7038   -0.5924   -0.0972 O   0  0  0  0  0  0  0  0  0  0  0  0
   -0.5650    1.2623    0.5299 O   0  0  0  0  0  0  0  0  0  0  0  0
    3.4275    1.4821   -1.2071 O   0  0  0  0  0  0  0  0  0  0  0  0
    3.1972   -1.1583    1.2905 O   0  0  0  0  0  0  0  0  0  0  0  0
    1.7670    2.8582    0.5239 O   0  0  0  0  0  0  0  0  0  0  0  0
    0.5747   -3.0039   -1.3832 O   0  0  0  0  0  0  0  0  0  0  0  0
   -1.5597   -1.5205    2.2362 O   0  0  0  0  0  0  0  0  0  0  0  0
    3.1548    0.9212    0.0770 C   0  0  2  0  0  0  0  0  0  0  0  0
    3.1451   -0.6063   -0.0241 C   0  0  2  0  0  0  0  0  0  0  0  0
    1.8177    1.4382    0.6204 C   0  0  2  0  0  0  0  0  0  0  0  0
    1.8769   -1.1084   -0.7358 C   0  0  1  0  0  0  0  0  0  0  0  0
    0.6280    0.8326   -0.1264 C   0  0  1  0  0  0  0  0  0  0  0  0
    1.7691   -2.6297   -0.7208 C   0  0  0  0  0  0  0  0  0  0  0  0
   -1.7462    0.8076    0.0115 C   0  0  0  0  0  0  0  0  0  0  0  0
   -2.6137    0.0453    0.7892 C   0  0  0  0  0  0  0  0  0  0  0  0
   -2.0705    1.1176   -1.3065 C   0  0  0  0  0  0  0  0  0  0  0  0
   -3.8142   -0.4108    0.2448 C   0  0  0  0  0  0  0  0  0  0  0  0
   -2.2782   -0.2941    2.2038 C   0  0  0  0  0  0  0  0  0  0  0  0
   -3.2712    0.6619   -1.8508 C   0  0  0  0  0  0  0  0  0  0  0  0
   -4.1430   -0.1025   -1.0753 C   0  0  0  0  0  0  0  0  0  0  0  0
    3.9551    1.2605    0.7454 H   0  0  0  0  0  0  0  0  0  0  0  0
    4.0300   -0.9595   -0.5653 H   0  0  0  0  0  0  0  0  0  0  0  0
    1.7427    1.1857    1.6856 H   0  0  0  0  0  0  0  0  0  0  0  0
    1.8630   -0.7657   -1.7787 H   0  0  0  0  0  0  0  0  0  0  0  0
    0.6250    1.1902   -1.1640 H   0  0  0  0  0  0  0  0  0  0  0  0
    1.7135   -3.0277    0.2974 H   0  0  0  0  0  0  0  0  0  0  0  0
    2.6158   -3.0931   -1.2356 H   0  0  0  0  0  0  0  0  0  0  0  0
    4.2930    1.1460   -1.4959 H   0  0  0  0  0  0  0  0  0  0  0  0
    2.3467   -0.9843    1.7279 H   0  0  0  0  0  0  0  0  0  0  0  0
    0.9007    3.1428    0.8620 H   0  0  0  0  0  0  0  0  0  0  0  0
   -0.1655   -2.5758   -0.9198 H   0  0  0  0  0  0  0  0  0  0  0  0
   -1.4153    1.7277   -1.9213 H   0  0  0  0  0  0  0  0  0  0  0  0
   -4.5018   -1.0087    0.8373 H   0  0  0  0  0  0  0  0  0  0  0  0
   -1.6731    0.4871    2.6761 H   0  0  0  0  0  0  0  0  0  0  0  0
   -3.1879   -0.4052    2.8048 H   0  0  0  0  0  0  0  0  0  0  0  0
   -3.5295    0.9056   -2.8772 H   0  0  0  0  0  0  0  0  0  0  0  0
   -5.0781   -0.4570   -1.4991 H   0  0  0  0  0  0  0  0  0  0  0  0
   -1.3614   -1.7103    3.1690 H   0  0  0  0  0  0  0  0  0  0  0  0
  1 11  1  0  0  0  0
  1 12  1  0  0  0  0
  2 12  1  0  0  0  0
  2 14  1  0  0  0  0
  3  8  1  0  0  0  0
  3 28  1  0  0  0  0
  4  9  1  0  0  0  0
  4 29  1  0  0  0  0
  5 10  1  0  0  0  0
  5 30  1  0  0  0  0
  6 13  1  0  0  0  0
  6 31  1  0  0  0  0
  7 18  1  0  0  0  0
  7 38  1  0  0  0  0
  8  9  1  0  0  0  0
  8 10  1  0  0  0  0
  8 21  1  0  0  0  0
  9 11  1  0  0  0  0
  9 22  1  0  0  0  0
 10 12  1  0  0  0  0
 10 23  1  0  0  0  0
 11 13  1  0  0  0  0
 11 24  1  0  0  0  0
 12 25  1  0  0  0  0
 13 26  1  0  0  0  0
 13 27  1  0  0  0  0
 14 15  1  0  0  0  0
 14 16  2  0  0  0  0
 15 17  2  0  0  0  0
 15 18  1  0  0  0  0
 16 19  1  0  0  0  0
 16 32  1  0  0  0  0
 17 20  1  0  0  0  0
 17 33  1  0  0  0  0
 18 34  1  0  0  0  0
 18 35  1  0  0  0  0
 19 20  2  0  0  0  0
 19 36  1  0  0  0  0
 20 37  1  0  0  0  0
M  END
> <PUBCHEM_COMPOUND_CID>
12315200

> <PUBCHEM_CONFORMER_RMSD>
0.8

> <PUBCHEM_CONFORMER_DIVERSEORDER>
1
46
44
37
41
23
22
36
29
45
50
51
39
8
47
31
2
43
40
18
7
38
28
15
35
21
33
49
25
24
42
26
30
17
13
12
3
20
10
52
48
19
9
27
6
4
14
34
5
32
16
11

> <PUBCHEM_MMFF94_PARTIAL_CHARGES>
29
1 -0.56
10 0.28
11 0.28
12 0.56
13 0.28
14 0.08
15 -0.14
16 -0.15
17 -0.15
18 0.42
19 -0.15
2 -0.36
20 -0.15
28 0.4
29 0.4
3 -0.68
30 0.4
31 0.4
32 0.15
33 0.15
36 0.15
37 0.15
38 0.4
4 -0.68
5 -0.68
6 -0.68
7 -0.68
8 0.28
9 0.28

> <PUBCHEM_EFFECTIVE_ROTOR_COUNT>
5.2

> <PUBCHEM_PHARMACOPHORE_FEATURES>
14
1 1 acceptor
1 2 acceptor
1 3 acceptor
1 3 donor
1 4 acceptor
1 4 donor
1 5 acceptor
1 5 donor
1 6 acceptor
1 6 donor
1 7 acceptor
1 7 donor
6 1 8 9 10 11 12 rings
6 14 15 16 17 19 20 rings

> <PUBCHEM_HEAVY_ATOM_COUNT>
20

> <PUBCHEM_ATOM_DEF_STEREO_COUNT>
5

> <PUBCHEM_ATOM_UDEF_STEREO_COUNT>
0

> <PUBCHEM_BOND_DEF_STEREO_COUNT>
0

> <PUBCHEM_BOND_UDEF_STEREO_COUNT>
0

> <PUBCHEM_ISOTOPIC_ATOM_COUNT>
0

> <PUBCHEM_COMPONENT_COUNT>
1

> <PUBCHEM_CACTVS_TAUTO_COUNT>
1

> <PUBCHEM_CONFORMER_ID>
00BBEA4000000001

> <PUBCHEM_MMFF94_ENERGY>
63.1082

> <PUBCHEM_FEATURE_SELFOVERLAP>
71.116

> <PUBCHEM_SHAPE_FINGERPRINT>
10366900 7 18334018289149864893
107287 299 18336840769974265460
11582403 64 16891101765533969757
11615757 297 18131634503861385893
12236239 1 17060340747106878157
12363563 72 18194964045907426878
12500047 106 17022617563735055706
12553582 1 18271815566186551368
12596599 1 17131283332916473551
13583140 156 17823685559693126968
14178342 30 17914609450043998488
14844126 61 16251386787552322079
15207287 21 18262226746787435971
15309172 13 18271818972185268520
15375358 24 18040996262941676745
16752209 62 15625944188801717193
16945 1 18272368663627595900
18186145 218 17822566106341979333
200 152 18059847359914447397
20645477 70 18409445873336503207
21639500 275 18343014527600749316
2255824 54 18201716310027800172
23526113 38 18189331286434728291
23557571 272 16951140580582658173
23559900 14 17603577517851518528
23598291 2 17344931623605872899
23728640 28 15819604147782262807
238 59 18340479058060745365
2748010 2 18122912194161535552
3060560 45 18343018921769070588
3472631 163 16515396374685219285
495365 180 18270945947189823073
5262128 65 18123470479738372747
633830 44 17773895231705909524
77492 1 17132116857477927561
81228 2 17474392374905026936
9709674 26 18186803552136540619

> <PUBCHEM_SHAPE_MULTIPOLES>
370.51
6.82
2.39
1.74
1.88
0.81
0.55
-0.27
-1.06
-2.22
-0.45
1.37
0.45
0.74

> <PUBCHEM_SHAPE_SELFOVERLAP>
774.308

> <PUBCHEM_SHAPE_VOLUME>
207.6

> <PUBCHEM_COORDINATE_TYPE>
2
5
10

$$$$
