REMARK  Name = 12314049
REMARK  9 active torsions:
REMARK  status: ('A' for Active; 'I' for Inactive)
REMARK    1  A    between atoms: CA_6  and  C_23
REMARK    2  A    between atoms: CA_7  and  N_12
REMARK    3  A    between atoms: C_13  and  C_15
REMARK    4  A    between atoms: C_15  and  C_16
REMARK    5  A    between atoms: C_16  and  C_17
REMARK    6  A    between atoms: C_17  and  C_18
REMARK    7  A    between atoms: C_18  and  C_19
REMARK    8  A    between atoms: C_19  and  C_20
REMARK    9  A    between atoms: C_23  and  O_24
REMARK                            x       y       z     vdW  Elec       q    Type
REMARK                         _______ _______ _______ _____ _____    ______ ____
ROOT
ATOM      1  S   UNL     1      -2.424   1.498   1.470  0.00  0.00    -0.118 S 
ATOM      2  O   UNL     1      -1.534  -1.907  -1.181  0.00  0.00    -0.273 OA
ATOM      3  N   UNL     1      -3.018  -0.670   0.176  0.00  0.00    -0.260 N 
ATOM      4  C   UNL     1      -2.568  -0.325   1.528  0.00  0.00    +0.151 C 
ATOM      5  C   UNL     1      -3.815   1.607   0.236  0.00  0.00    +0.068 C 
ATOM      6  CA  UNL     1      -3.615   0.359  -0.650  0.00  0.00    +0.184 C 
ATOM      7  CA  UNL     1      -1.293  -1.129   1.239  0.00  0.00    +0.178 C 
ATOM      8  C   UNL     1      -1.908  -1.395  -0.150  0.00  0.00    +0.247 C 
ATOM      9  C   UNL     1      -3.663   2.897  -0.573  0.00  0.00    +0.013 C 
ATOM     10  C   UNL     1      -5.137   1.629   1.016  0.00  0.00    +0.013 C 
ENDROOT
BRANCH   7  12
ATOM     11  O   UNL     1       1.238  -2.101   0.235  0.00  0.00    -0.275 OA
ATOM     12  N   UNL     1      -0.010  -0.405   1.210  0.00  0.00    -0.296 N 
ATOM     13  C   UNL     1       1.154  -0.969   0.702  0.00  0.00    +0.223 C 
ATOM     14  H   UNL     1       0.024   0.513   1.563  0.00  0.00    +0.150 HD
BRANCH  13  15
ATOM     15  C   UNL     1       2.329  -0.011   0.790  0.00  0.00    +0.085 C 
BRANCH  15  16
ATOM     16  C   UNL     1       3.617  -0.616   0.236  0.00  0.00    +0.010 C 
BRANCH  16  17
ATOM     17  C   UNL     1       4.773   0.383   0.301  0.00  0.00    +0.001 C 
BRANCH  17  18
ATOM     18  C   UNL     1       6.056  -0.212  -0.285  0.00  0.00    +0.000 C 
BRANCH  18  19
ATOM     19  C   UNL     1       7.201   0.802  -0.253  0.00  0.00    +0.000 C 
BRANCH  19  20
ATOM     20  C   UNL     1       8.504   0.265  -0.849  0.00  0.00    +0.000 C 
ATOM     21  C   UNL     1       9.653   1.261  -0.796  0.00  0.00    +0.000 C 
ENDBRANCH  19  20
ENDBRANCH  18  19
ENDBRANCH  17  18
ENDBRANCH  16  17
ENDBRANCH  15  16
ENDBRANCH  13  15
ENDBRANCH   7  12
BRANCH   6  23
ATOM     22  OXT UNL     1      -5.601  -1.013  -0.676  0.00  0.00    -0.248 OA
ATOM     23  C   UNL     1      -4.865  -0.215  -1.237  0.00  0.00    +0.333 C 
BRANCH  23  24
ATOM     24  O   UNL     1      -5.074   0.268  -2.486  0.00  0.00    -0.479 OA
ATOM     25  H   UNL     1      -4.469   0.879  -2.859  0.00  0.00    +0.295 HD
ENDBRANCH  23  24
ENDBRANCH   6  23
TORSDOF 9
