REMARK  Name = 12315200
REMARK  9 active torsions:
REMARK  status: ('A' for Active; 'I' for Inactive)
REMARK    1  A    between atoms: C_2  and  O_7
REMARK    2  A    between atoms: C_3  and  O_9
REMARK    3  A    between atoms: C_4  and  O_11
REMARK    4  A    between atoms: C_5  and  C_23
REMARK    5  A    between atoms: C_6  and  O_13
REMARK    6  A    between atoms: O_13  and  C_14
REMARK    7  A    between atoms: C_15  and  C_20
REMARK    8  A    between atoms: C_20  and  O_21
REMARK    9  A    between atoms: C_23  and  O_24
REMARK                            x       y       z     vdW  Elec       q    Type
REMARK                         _______ _______ _______ _____ _____    ______ ____
ROOT
ATOM      1  O   UNL     1       0.704  -0.592  -0.097  0.00  0.00    -0.316 OA
ATOM      2  C   UNL     1       3.155   0.921   0.077  0.00  0.00    +0.173 C 
ATOM      3  C   UNL     1       3.145  -0.606  -0.024  0.00  0.00    +0.169 C 
ATOM      4  C   UNL     1       1.818   1.438   0.620  0.00  0.00    +0.210 C 
ATOM      5  C   UNL     1       1.877  -1.108  -0.736  0.00  0.00    +0.177 C 
ATOM      6  C   UNL     1       0.628   0.833  -0.126  0.00  0.00    +0.318 C 
ENDROOT
BRANCH   2   7
ATOM      7  O   UNL     1       3.428   1.482  -1.207  0.00  0.00    -0.379 OA
ATOM      8  H   UNL     1       4.276   1.144  -1.534  0.00  0.00    +0.211 HD
ENDBRANCH   2   7
BRANCH   3   9
ATOM      9  O   UNL     1       3.197  -1.158   1.290  0.00  0.00    -0.379 OA
ATOM     10  H   UNL     1       3.996  -0.843   1.742  0.00  0.00    +0.211 HD
ENDBRANCH   3   9
BRANCH   4  11
ATOM     11  O   UNL     1       1.767   2.858   0.524  0.00  0.00    -0.377 OA
ATOM     12  H   UNL     1       2.522   3.242   0.998  0.00  0.00    +0.211 HD
ENDBRANCH   4  11
BRANCH   6  13
ATOM     13  O   UNL     1      -0.565   1.262   0.530  0.00  0.00    -0.451 OA
BRANCH  13  14
ATOM     14  C   UNL     1      -1.746   0.808   0.011  0.00  0.00    +0.140 C 
ATOM     15  C   UNL     1      -2.614   0.045   0.789  0.00  0.00    +0.041 C 
ATOM     16  C   UNL     1      -2.071   1.118  -1.306  0.00  0.00    +0.037 C 
ATOM     17  C   UNL     1      -3.814  -0.411   0.245  0.00  0.00    +0.001 C 
ATOM     18  C   UNL     1      -3.271   0.662  -1.851  0.00  0.00    +0.003 C 
ATOM     19  C   UNL     1      -4.143  -0.102  -1.075  0.00  0.00    -0.000 C 
BRANCH  15  20
ATOM     20  C   UNL     1      -2.278  -0.294   2.204  0.00  0.00    +0.167 C 
BRANCH  20  21
ATOM     21  O   UNL     1      -1.560  -1.520   2.236  0.00  0.00    -0.377 OA
ATOM     22  H   UNL     1      -1.341  -1.743   3.155  0.00  0.00    +0.211 HD
ENDBRANCH  20  21
ENDBRANCH  15  20
ENDBRANCH  13  14
ENDBRANCH   6  13
BRANCH   5  23
ATOM     23  C   UNL     1       1.769  -2.630  -0.721  0.00  0.00    +0.169 C 
BRANCH  23  24
ATOM     24  O   UNL     1       0.575  -3.004  -1.383  0.00  0.00    -0.379 OA
ATOM     25  H   UNL     1       0.493  -3.970  -1.381  0.00  0.00    +0.211 HD
ENDBRANCH  23  24
ENDBRANCH   5  23
TORSDOF 9
