REMARK  Name = 12310757
REMARK  9 active torsions:
REMARK  status: ('A' for Active; 'I' for Inactive)
REMARK    1  A    between atoms: C_3  and  C_26
REMARK    2  A    between atoms: C_6  and  O_20
REMARK    3  A    between atoms: C_7  and  O_22
REMARK    4  A    between atoms: C_10  and  C_12
REMARK    5  A    between atoms: C_11  and  O_24
REMARK    6  A    between atoms: C_17  and  O_18
REMARK    7  A    between atoms: C_26  and  C_27
REMARK    8  A    between atoms: C_27  and  C_28
REMARK    9  A    between atoms: C_28  and  O_31
REMARK                            x       y       z     vdW  Elec       q    Type
REMARK                         _______ _______ _______ _____ _____    ______ ____
ROOT
ATOM      1  O   UNL     1      -0.135   0.252  -0.188  0.00  0.00    -0.450 OA
ATOM      2  O   UNL     1      -1.157   4.137   0.496  0.00  0.00    -0.283 OA
ATOM      3  C   UNL     1      -2.395  -0.363  -0.482  0.00  0.00    +0.046 C 
ATOM      4  C   UNL     1      -1.453   0.630  -0.213  0.00  0.00    +0.150 A 
ATOM      5  C   UNL     1      -1.867   1.940   0.015  0.00  0.00    +0.110 A 
ATOM      6  C   UNL     1      -3.751  -0.041  -0.522  0.00  0.00    +0.136 C 
ATOM      7  C   UNL     1      -3.225   2.268  -0.025  0.00  0.00    +0.143 C 
ATOM      8  C   UNL     1      -4.165   1.272  -0.293  0.00  0.00    +0.073 C 
ATOM      9  C   UNL     1      -0.853   2.969   0.294  0.00  0.00    +0.238 A 
ATOM     10  C   UNL     1       0.824   1.214   0.087  0.00  0.00    +0.182 A 
ATOM     11  C   UNL     1       0.558   2.513   0.315  0.00  0.00    +0.208 A 
ENDROOT
BRANCH  10  12
ATOM     12  C   UNL     1       2.196   0.676   0.082  0.00  0.00    +0.038 C 
ATOM     13  C   UNL     1       2.762   0.195   1.263  0.00  0.00    +0.006 C 
ATOM     14  C   UNL     1       2.929   0.646  -1.105  0.00  0.00    +0.006 C 
ATOM     15  C   UNL     1       4.061  -0.314   1.258  0.00  0.00    +0.037 C 
ATOM     16  C   UNL     1       4.227   0.137  -1.110  0.00  0.00    +0.037 C 
ATOM     17  C   UNL     1       4.793  -0.343   0.071  0.00  0.00    +0.139 C 
BRANCH  17  18
ATOM     18  O   UNL     1       6.060  -0.841   0.066  0.00  0.00    -0.471 OA
ATOM     19  C   UNL     1       6.753  -0.841  -1.181  0.00  0.00    +0.252 C 
ENDBRANCH  17  18
ENDBRANCH  10  12
BRANCH   6  20
ATOM     20  O   UNL     1      -4.688  -0.996  -0.783  0.00  0.00    -0.506 OA
ATOM     21  H   UNL     1      -4.423  -1.881  -0.938  0.00  0.00    +0.292 HD
ENDBRANCH   6  20
BRANCH   7  22
ATOM     22  O   UNL     1      -3.682   3.532   0.191  0.00  0.00    -0.505 OA
ATOM     23  H   UNL     1      -3.078   4.224   0.374  0.00  0.00    +0.292 HD
ENDBRANCH   7  22
BRANCH  11  24
ATOM     24  O   UNL     1       1.538   3.451   0.554  0.00  0.00    -0.501 OA
ATOM     25  H   UNL     1       1.304   4.345   0.708  0.00  0.00    +0.292 HD
ENDBRANCH  11  24
BRANCH   3  26
ATOM     26  C   UNL     1      -1.960  -1.773  -0.729  0.00  0.00    +0.035 C 
BRANCH  26  27
ATOM     27  C   UNL     1      -1.900  -2.592   0.574  0.00  0.00    +0.032 C 
BRANCH  27  28
ATOM     28  C   UNL     1      -1.483  -4.066   0.395  0.00  0.00    +0.089 C 
ATOM     29  C   UNL     1      -0.079  -4.133  -0.215  0.00  0.00    +0.029 C 
ATOM     30  C   UNL     1      -1.519  -4.848   1.710  0.00  0.00    +0.029 C 
BRANCH  28  31
ATOM     31  O   UNL     1      -2.390  -4.682  -0.523  0.00  0.00    -0.387 OA
ATOM     32  H   UNL     1      -2.379  -4.197  -1.363  0.00  0.00    +0.210 HD
ENDBRANCH  28  31
ENDBRANCH  27  28
ENDBRANCH  26  27
ENDBRANCH   3  26
TORSDOF 9
