REMARK  Name = 123133951
REMARK  7 active torsions:
REMARK  status: ('A' for Active; 'I' for Inactive)
REMARK    1  A    between atoms: N_2  and  C_9
REMARK    2  A    between atoms: C_3  and  C_21
REMARK    3  A    between atoms: C_11  and  C_15
REMARK    4  A    between atoms: C_13  and  C_18
REMARK    5  A    between atoms: C_15  and  O_16
REMARK    6  A    between atoms: N_20  and  O_30
REMARK    7  A    between atoms: C_21  and  C_25
REMARK                            x       y       z     vdW  Elec       q    Type
REMARK                         _______ _______ _______ _____ _____    ______ ____
ROOT
ATOM      1  O   UNK A   0      -2.409  -1.540   1.996  0.00  0.00    -0.268 OA
ATOM      2  N   UNK A   1      -0.875  -1.257   0.241  0.00  0.00    -0.291 N 
ATOM      3  C   UNK A   0      -2.131  -1.337   0.825  0.00  0.00    +0.269 C 
ATOM      4  H   UNK A   1      -0.816  -1.086  -0.727  0.00  0.00    +0.150 HD
ENDROOT
BRANCH   2   9
ATOM      5  S   UNK A   1       0.526   1.466   0.823  0.00  0.00    -0.114 S 
ATOM      6  O   UNK A   1       1.902  -2.768  -0.545  0.00  0.00    -0.273 OA
ATOM      7  N   UNK A   1       2.134  -0.596   0.345  0.00  0.00    -0.242 N 
ATOM      8  C   UNK A   1       1.173  -0.143   1.337  0.00  0.00    +0.155 C 
ATOM      9  C   UNK A   1       0.360  -1.417   0.997  0.00  0.00    +0.179 C 
ATOM     10  C   UNK A   1       1.586  -1.812   0.123  0.00  0.00    +0.251 C 
ATOM     11  C   UNK A   1       3.190   0.145  -0.087  0.00  0.00    +0.128 C 
ATOM     12  C   UNK A   1       2.166   2.266   0.867  0.00  0.00    +0.087 C 
ATOM     13  C   UNK A   1       3.269   1.474   0.169  0.00  0.00    +0.009 C 
BRANCH  11  15
ATOM     14  O   UNK A   1       4.491  -0.298  -2.026  0.00  0.00    -0.244 OA
ATOM     15  C   UNK A   1       4.211  -0.565  -0.876  0.00  0.00    +0.352 C 
BRANCH  15  16
ATOM     16  O   UNK A   1       4.763  -1.534  -0.120  0.00  0.00    -0.476 OA
ATOM     17  H   UNK A   1       4.475  -1.660   0.762  0.00  0.00    +0.295 HD
ENDBRANCH  15  16
ENDBRANCH  11  15
BRANCH  13  18
ATOM     18  C   UNK A   1       4.392   2.316  -0.197  0.00  0.00    -0.002 C 
ATOM     19  C   UNK A   1       5.655   1.922  -0.094  0.00  0.00    -0.000 C 
ENDBRANCH  13  18
ENDBRANCH   2   9
BRANCH   3  21
ATOM     20  N   UNK A   0      -3.770  -2.163  -0.774  0.00  0.00    -0.079 NA
ATOM     21  C   UNK A   0      -3.256  -1.143  -0.157  0.00  0.00    +0.198 C 
BRANCH  21  25
ATOM     22  S   UNK A   0      -5.084   2.217  -1.272  0.00  0.00    -0.060 S 
ATOM     23  N   UNK A   0      -3.216   1.310   0.267  0.00  0.00    -0.383 NA
ATOM     24  N   UNK A   0      -3.534   3.651   0.346  0.00  0.00    -0.328 N 
ATOM     25  C   UNK A   0      -3.768   0.233  -0.399  0.00  0.00    +0.148 C 
ATOM     26  C   UNK A   0      -4.793   0.527  -1.274  0.00  0.00    +0.127 C 
ATOM     27  C   UNK A   0      -3.831   2.407  -0.115  0.00  0.00    +0.204 C 
ATOM     28  H   UNK A   0      -4.037   4.431   0.016  0.00  0.00    +0.145 HD
ATOM     29  H   UNK A   0      -2.817   3.773   1.009  0.00  0.00    +0.145 HD
ENDBRANCH  21  25
BRANCH  20  30
ATOM     30  O   UNK A   0      -3.154  -3.360  -0.401  0.00  0.00    -0.409 OA
ATOM     31  H   UNK A   0      -3.437  -4.170  -0.778  0.00  0.00    +0.328 HD
ENDBRANCH  20  30
ENDBRANCH   3  21
TORSDOF 7
