REMARK  Name = 123131900
REMARK  8 active torsions:
REMARK  status: ('A' for Active; 'I' for Inactive)
REMARK    1  A    between atoms: N_1  and  C1*_12
REMARK    2  A    between atoms: C_9  and  S_25
REMARK    3  A    between atoms: C2*_11  and  O2*_15
REMARK    4  A    between atoms: C3*_13  and  O3*_17
REMARK    5  A    between atoms: C4*_14  and  C5*_19
REMARK    6  A    between atoms: C5*_19  and  O5*_20
REMARK    7  A    between atoms: S_25  and  C_26
REMARK    8  A    between atoms: C_26  and  C_27
REMARK                            x       y       z     vdW  Elec       q    Type
REMARK                         _______ _______ _______ _____ _____    ______ ____
ROOT
ATOM      1  N   UNL     1       1.869   1.171  -0.143  0.00  0.00    -0.236 N 
ATOM      2  N   UNL     1       1.490   3.344   0.176  0.00  0.00    -0.240 NA
ATOM      3  N   UNL     1      -0.408   0.394  -0.474  0.00  0.00    -0.318 NA
ATOM      4  N   UNL     1      -2.004   2.235  -0.319  0.00  0.00    -0.318 NA
ATOM      5  C   UNL     1       0.517   1.336  -0.238  0.00  0.00    +0.221 C 
ATOM      6  C   UNL     1       2.409   2.404   0.106  0.00  0.00    +0.224 C 
ATOM      7  C   UNL     1       0.302   2.691  -0.037  0.00  0.00    +0.167 C 
ATOM      8  C   UNL     1      -1.016   3.132  -0.084  0.00  0.00    +0.211 C 
ATOM      9  C   UNL     1      -1.644   0.941  -0.497  0.00  0.00    +0.171 C 
ATOM     10  N   UNL     1      -1.326   4.490   0.108  0.00  0.00    -0.331 N 
ATOM     11  H   UNL     1      -2.262   4.791   0.073  0.00  0.00    +0.145 HD
ATOM     12  H   UNL     1      -0.606   5.139   0.279  0.00  0.00    +0.145 HD
ENDROOT
BRANCH   1  15
ATOM     13  O4* UNL     1       1.987  -1.025  -1.203  0.00  0.00    -0.333 OA
ATOM     14  C2* UNL     1       2.755  -0.889   1.031  0.00  0.00    +0.187 C 
ATOM     15  C1* UNL     1       2.635  -0.123  -0.283  0.00  0.00    +0.226 C 
ATOM     16  C3* UNL     1       2.945  -2.313   0.549  0.00  0.00    +0.171 C 
ATOM     17  C4* UNL     1       2.027  -2.366  -0.666  0.00  0.00    +0.175 C 
BRANCH  14  18
ATOM     18  O2* UNL     1       3.821  -0.433   1.841  0.00  0.00    -0.378 OA
ATOM     19  H2* UNL     1       3.647   0.480   2.120  0.00  0.00    +0.211 HD
ENDBRANCH  14  18
BRANCH  16  20
ATOM     20  O3* UNL     1       4.284  -2.511   0.097  0.00  0.00    -0.379 OA
ATOM     21  H3* UNL     1       4.889  -2.482   0.855  0.00  0.00    +0.211 HD
ENDBRANCH  16  20
BRANCH  17  22
ATOM     22  C5* UNL     1       0.605  -2.784  -0.321  0.00  0.00    +0.169 C 
BRANCH  22  23
ATOM     23  O5* UNL     1      -0.167  -2.791  -1.510  0.00  0.00    -0.379 OA
ATOM     24  H5* UNL     1      -1.076  -3.057  -1.304  0.00  0.00    +0.211 HD
ENDBRANCH  22  23
ENDBRANCH  17  22
ENDBRANCH   1  15
BRANCH   9  25
ATOM     25  S   UNL     1      -2.987  -0.198  -0.800  0.00  0.00    -0.018 S 
BRANCH  25  26
ATOM     26  C   UNL     1      -3.417  -0.712   0.886  0.00  0.00    +0.074 C 
BRANCH  26  27
ATOM     27  C   UNL     1      -4.572  -1.722   0.992  0.00  0.00    +0.012 C 
ATOM     28  C   UNL     1      -4.227  -3.082   0.382  0.00  0.00    +0.001 C 
ATOM     29  C   UNL     1      -5.881  -1.187   0.408  0.00  0.00    +0.001 C 
ENDBRANCH  26  27
ENDBRANCH  25  26
ENDBRANCH   9  25
TORSDOF 8
