REMARK  Name = 123134380
REMARK  11 active torsions:
REMARK  status: ('A' for Active; 'I' for Inactive)
REMARK    1  A    between atoms: S_1  and  S_2
REMARK    2  A    between atoms: S_1  and  C_23
REMARK    3  A    between atoms: S_2  and  C_3
REMARK    4  A    between atoms: C_3  and  C_4
REMARK    5  A    between atoms: C_4  and  C_7
REMARK    6  A    between atoms: C_4  and  N_19
REMARK    7  A    between atoms: N_6  and  C_10
REMARK    8  A    between atoms: C_23  and  C_24
REMARK    9  A    between atoms: C_24  and  C_27
REMARK   10  A    between atoms: C_24  and  N_39
REMARK   11  A    between atoms: N_26  and  C_30
REMARK                            x       y       z     vdW  Elec       q    Type
REMARK                         _______ _______ _______ _____ _____    ______ ____
ROOT
ATOM      1  S   UNL     1       5.280  -0.763   1.445  0.00  0.00    -0.084 S 
ENDROOT
BRANCH   1   2
ATOM      2  S   UNL     1       5.493  -2.247   0.041  0.00  0.00    -0.084 S 
BRANCH   2   3
ATOM      3  C   UNL     1       3.897  -2.185  -0.807  0.00  0.00    +0.056 C 
BRANCH   3   4
ATOM      4  C   UNL     1       2.738  -2.456   0.157  0.00  0.00    +0.025 C 
BRANCH   4   7
ATOM      5  O   UNL     1       1.233  -2.620  -1.721  0.00  0.00    -0.277 OA
ATOM      6  N   UNL     1       0.370  -2.019   0.377  0.00  0.00    -0.286 N 
ATOM      7  C   UNL     1       1.366  -2.391  -0.522  0.00  0.00    +0.206 C 
ATOM      8  H   UNL     1       0.661  -1.851   1.303  0.00  0.00    +0.155 HD
BRANCH   6  10
ATOM      9  C   UNL     1      -3.246  -1.297   0.896  0.00  0.00    +0.001 C 
ATOM     10  C   UNL     1      -1.011  -1.855   0.115  0.00  0.00    +0.050 C 
ATOM     11  C   UNL     1      -3.751  -1.527  -0.406  0.00  0.00    +0.000 C 
ATOM     12  C   UNL     1      -1.873  -1.465   1.140  0.00  0.00    +0.015 C 
ATOM     13  C   UNL     1      -1.507  -2.081  -1.165  0.00  0.00    +0.015 C 
ATOM     14  C   UNL     1      -2.868  -1.918  -1.426  0.00  0.00    +0.001 C 
ATOM     15  C   UNL     1      -4.129  -0.906   1.915  0.00  0.00    +0.000 C 
ATOM     16  C   UNL     1      -5.124  -1.359  -0.650  0.00  0.00    +0.000 C 
ATOM     17  C   UNL     1      -5.490  -0.743   1.655  0.00  0.00    +0.000 C 
ATOM     18  C   UNL     1      -5.987  -0.970   0.375  0.00  0.00    +0.000 C 
ENDBRANCH   6  10
ENDBRANCH   4   7
BRANCH   4  19
ATOM     19  N   UNL     1       2.847  -3.819   0.684  0.00  0.00    +0.388 N 
ATOM     20  H   UNL     1       3.746  -3.931   1.153  0.00  0.00    -0.089 HD
ATOM     21  H   UNL     1       2.778  -4.488  -0.083  0.00  0.00    -0.089 HD
ATOM     22  H   UNL     1       2.093  -3.988   1.350  0.00  0.00    -0.089 HD
ENDBRANCH   4  19
ENDBRANCH   3   4
ENDBRANCH   2   3
ENDBRANCH   1   2
BRANCH   1  23
ATOM     23  C   UNL     1       5.904   0.686   0.534  0.00  0.00    +0.056 C 
BRANCH  23  24
ATOM     24  C   UNL     1       4.844   1.251  -0.416  0.00  0.00    +0.025 C 
BRANCH  24  27
ATOM     25  O   UNL     1       3.576   2.029   1.481  0.00  0.00    -0.277 OA
ATOM     26  N   UNL     1       2.434   1.598  -0.529  0.00  0.00    -0.286 N 
ATOM     27  C   UNL     1       3.563   1.684   0.303  0.00  0.00    +0.206 C 
ATOM     28  H   UNL     1       2.599   1.279  -1.446  0.00  0.00    +0.155 HD
BRANCH  26  30
ATOM     29  C   UNL     1      -1.225   2.054  -0.887  0.00  0.00    +0.001 C 
ATOM     30  C   UNL     1       1.109   1.907  -0.219  0.00  0.00    +0.050 C 
ATOM     31  C   UNL     1      -1.558   2.528   0.404  0.00  0.00    +0.000 C 
ATOM     32  C   UNL     1       0.113   1.748  -1.183  0.00  0.00    +0.015 C 
ATOM     33  C   UNL     1       0.782   2.374   1.050  0.00  0.00    +0.015 C 
ATOM     34  C   UNL     1      -0.542   2.683   1.362  0.00  0.00    +0.001 C 
ATOM     35  C   UNL     1      -2.241   1.900  -1.845  0.00  0.00    +0.000 C 
ATOM     36  C   UNL     1      -2.896   2.834   0.700  0.00  0.00    +0.000 C 
ATOM     37  C   UNL     1      -3.566   2.209  -1.534  0.00  0.00    +0.000 C 
ATOM     38  C   UNL     1      -3.893   2.675  -0.264  0.00  0.00    +0.000 C 
ENDBRANCH  26  30
ENDBRANCH  24  27
BRANCH  24  39
ATOM     39  N   UNL     1       5.358   2.462  -1.061  0.00  0.00    +0.388 N 
ATOM     40  H   UNL     1       6.218   2.241  -1.562  0.00  0.00    -0.089 HD
ATOM     41  H   UNL     1       5.550   3.170  -0.352  0.00  0.00    -0.089 HD
ATOM     42  H   UNL     1       4.664   2.818  -1.718  0.00  0.00    -0.089 HD
ENDBRANCH  24  39
ENDBRANCH  23  24
ENDBRANCH   1  23
TORSDOF 11
