REMARK  Name = 123132007
REMARK  3 active torsions:
REMARK  status: ('A' for Active; 'I' for Inactive)
REMARK    1  A    between atoms: N_1  and  C_13
REMARK    2  A    between atoms: C_11  and  N_16
REMARK    3  A    between atoms: C_12  and  O_20
REMARK                            x       y       z     vdW  Elec       q    Type
REMARK                         _______ _______ _______ _____ _____    ______ ____
ROOT
ATOM      1  N   UNL     1       0.114   0.237  -0.273  0.00  0.00    -0.247 N 
ATOM      2  N   UNL     1       1.514   1.844   0.381  0.00  0.00    -0.242 NA
ATOM      3  N   UNL     1       1.684  -1.595  -0.552  0.00  0.00    -0.228 NA
ATOM      4  N   UNL     1       3.963  -0.899  -0.023  0.00  0.00    -0.229 NA
ATOM      5  C   UNL     1       1.356  -0.331  -0.248  0.00  0.00    +0.152 C 
ATOM      6  C   UNL     1       0.261   1.543   0.113  0.00  0.00    +0.223 C 
ATOM      7  C   UNL     1       2.210   0.682   0.160  0.00  0.00    +0.140 C 
ATOM      8  C   UNL     1       3.559   0.361   0.269  0.00  0.00    +0.143 C 
ATOM      9  C   UNL     1       3.014  -1.786  -0.410  0.00  0.00    +0.253 C 
ATOM     10  N   UNL     1       4.496   1.327   0.677  0.00  0.00    -0.342 N 
ATOM     11  H   UNL     1       5.448   1.088   0.751  0.00  0.00    +0.144 HD
ATOM     12  H   UNL     1       4.200   2.241   0.889  0.00  0.00    +0.144 HD
ENDROOT
BRANCH   1  16
ATOM     13  O   UNL     1      -2.084   0.494  -1.294  0.00  0.00    -0.340 OA
ATOM     14  C   UNL     1      -3.013   0.014   0.814  0.00  0.00    -0.006 C 
ATOM     15  C   UNL     1      -1.928  -1.021   0.555  0.00  0.00    +0.140 C 
ATOM     16  C   UNL     1      -1.185  -0.439  -0.652  0.00  0.00    +0.220 C 
ATOM     17  C   UNL     1      -3.343   0.483  -0.597  0.00  0.00    +0.100 C 
ATOM     18  C   UNL     1      -3.977   1.861  -0.664  0.00  0.00    +0.030 C 
BRANCH  14  19
ATOM     19  N   UNL     1      -4.162  -0.488   1.547  0.00  0.00    +0.385 N 
ATOM     20  H   UNL     1      -3.870  -0.782   2.478  0.00  0.00    -0.089 HD
ATOM     21  H   UNL     1      -4.562  -1.283   1.048  0.00  0.00    -0.089 HD
ATOM     22  H   UNL     1      -4.863   0.249   1.627  0.00  0.00    -0.089 HD
ENDBRANCH  14  19
BRANCH  15  23
ATOM     23  O   UNL     1      -2.479  -2.288   0.195  0.00  0.00    -0.382 OA
ATOM     24  H   UNL     1      -2.952  -2.663   0.955  0.00  0.00    +0.210 HD
ENDBRANCH  15  23
ENDBRANCH   1  16
TORSDOF 3
