REMARK  Name = 12314983
REMARK  6 active torsions:
REMARK  status: ('A' for Active; 'I' for Inactive)
REMARK    1  A    between atoms: C_2  and  C_11
REMARK    2  A    between atoms: C_3  and  O_23
REMARK    3  A    between atoms: C_10  and  O_25
REMARK    4  A    between atoms: C_14  and  O_17
REMARK    5  A    between atoms: C_15  and  O_19
REMARK    6  A    between atoms: C_16  and  O_21
REMARK                            x       y       z     vdW  Elec       q    Type
REMARK                         _______ _______ _______ _____ _____    ______ ____
ROOT
ATOM      1  O   UNL     1       0.863   0.536  -0.286  0.00  0.00    -0.472 OA
ATOM      2  C   UNL     1       0.051  -0.641  -0.421  0.00  0.00    +0.215 C 
ATOM      3  C   UNL     1       0.449  -1.737   0.578  0.00  0.00    +0.159 C 
ATOM      4  C   UNL     1       1.903  -2.134   0.338  0.00  0.00    +0.063 C 
ATOM      5  C   UNL     1       2.769  -0.925   0.149  0.00  0.00    +0.015 C 
ATOM      6  C   UNL     1       2.209   0.320  -0.159  0.00  0.00    +0.138 C 
ATOM      7  C   UNL     1       4.161  -1.040   0.254  0.00  0.00    +0.002 C 
ATOM      8  C   UNL     1       3.029   1.440  -0.321  0.00  0.00    +0.073 C 
ATOM      9  C   UNL     1       4.979   0.077   0.080  0.00  0.00    +0.036 C 
ATOM     10  C   UNL     1       4.413   1.317  -0.203  0.00  0.00    +0.137 C 
ENDROOT
BRANCH   2  11
ATOM     11  C   UNL     1      -1.392  -0.208  -0.241  0.00  0.00    +0.026 C 
ATOM     12  C   UNL     1      -2.290  -0.332  -1.299  0.00  0.00    +0.039 C 
ATOM     13  C   UNL     1      -1.813   0.311   0.981  0.00  0.00    +0.039 C 
ATOM     14  C   UNL     1      -3.140   0.709   1.146  0.00  0.00    +0.170 C 
ATOM     15  C   UNL     1      -3.617   0.066  -1.133  0.00  0.00    +0.170 C 
ATOM     16  C   UNL     1      -4.042   0.586   0.089  0.00  0.00    +0.202 C 
BRANCH  14  17
ATOM     17  O   UNL     1      -3.542   1.216   2.345  0.00  0.00    -0.503 OA
ATOM     18  H   UNL     1      -2.929   1.295   3.050  0.00  0.00    +0.292 HD
ENDBRANCH  14  17
BRANCH  15  19
ATOM     19  O   UNL     1      -4.488  -0.059  -2.173  0.00  0.00    -0.503 OA
ATOM     20  H   UNL     1      -4.194  -0.410  -2.991  0.00  0.00    +0.292 HD
ENDBRANCH  15  19
BRANCH  16  21
ATOM     21  O   UNL     1      -5.339   0.974   0.251  0.00  0.00    -0.501 OA
ATOM     22  H   UNL     1      -5.625   1.323   1.072  0.00  0.00    +0.292 HD
ENDBRANCH  16  21
ENDBRANCH   2  11
BRANCH   3  23
ATOM     23  O   UNL     1      -0.374  -2.883   0.393  0.00  0.00    -0.380 OA
ATOM     24  H   UNL     1      -1.302  -2.643   0.543  0.00  0.00    +0.211 HD
ENDBRANCH   3  23
BRANCH  10  25
ATOM     25  O   UNL     1       5.210   2.408  -0.367  0.00  0.00    -0.505 OA
ATOM     26  H   UNL     1       4.828   3.243  -0.558  0.00  0.00    +0.292 HD
ENDBRANCH  10  25
TORSDOF 6
