REMARK  Name = 12310232
REMARK  8 active torsions:
REMARK  status: ('A' for Active; 'I' for Inactive)
REMARK    1  A    between atoms: C_9  and  O_25
REMARK    2  A    between atoms: C_14  and  O_27
REMARK    3  A    between atoms: C_16  and  O_31
REMARK    4  A    between atoms: C_17  and  O_29
REMARK    5  A    between atoms: O_31  and  C_33
REMARK    6  A    between atoms: C_33  and  C_34
REMARK    7  A    between atoms: C_34  and  O_36
REMARK    8  A    between atoms: C_34  and  C_38
REMARK                            x       y       z     vdW  Elec       q    Type
REMARK                         _______ _______ _______ _____ _____    ______ ____
ROOT
ATOM      1  O   UNL     1      -1.065  -2.240  -1.946  0.00  0.00    -0.332 OA
ATOM      2  O   UNL     1       0.127   2.131  -0.175  0.00  0.00    -0.450 OA
ATOM      3  O   UNL     1       1.792   2.612   1.242  0.00  0.00    -0.246 OA
ATOM      4  O   UNL     1      -5.839  -0.195   1.954  0.00  0.00    -0.289 OA
ATOM      5  C   UNL     1      -0.305  -0.157  -1.067  0.00  0.00    +0.073 C 
ATOM      6  C   UNL     1      -1.340  -0.780  -0.093  0.00  0.00    +0.063 C 
ATOM      7  C   UNL     1      -2.816  -0.167  -0.138  0.00  0.00    +0.040 C 
ATOM      8  C   UNL     1       1.166  -0.479  -0.615  0.00  0.00    +0.060 C 
ATOM      9  C   UNL     1      -1.131  -2.260  -0.504  0.00  0.00    +0.209 C 
ATOM     10  C   UNL     1      -0.416   1.349  -1.271  0.00  0.00    +0.172 C 
ATOM     11  C   UNL     1      -2.710   1.402  -0.223  0.00  0.00    +0.025 C 
ATOM     12  C   UNL     1       1.424  -2.022  -0.541  0.00  0.00    +0.036 C 
ATOM     13  C   UNL     1      -0.595  -0.943  -2.358  0.00  0.00    +0.148 C 
ATOM     14  C   UNL     1       0.220  -2.790   0.036  0.00  0.00    +0.161 C 
ATOM     15  C   UNL     1      -1.859   1.835  -1.433  0.00  0.00    +0.048 C 
ATOM     16  C   UNL     1       1.511   0.305   0.653  0.00  0.00    +0.266 C 
ATOM     17  C   UNL     1      -3.549  -0.440   1.220  0.00  0.00    +0.172 C 
ATOM     18  C   UNL     1      -3.676  -0.729  -1.306  0.00  0.00    +0.003 C 
ATOM     19  C   UNL     1      -4.061   2.101  -0.095  0.00  0.00    -0.041 C 
ATOM     20  C   UNL     1       2.736  -2.445   0.123  0.00  0.00    +0.003 C 
ATOM     21  C   UNL     1       1.184   1.775   0.579  0.00  0.00    +0.358 C 
ATOM     22  C   UNL     1      -4.896   0.267   1.312  0.00  0.00    +0.199 C 
ATOM     23  C   UNL     1      -5.061   1.570   0.626  0.00  0.00    +0.031 C 
ATOM     24  C   UNL     1      -4.248   3.452  -0.727  0.00  0.00    +0.026 C 
ENDROOT
BRANCH   9  25
ATOM     25  O   UNL     1      -2.163  -3.117  -0.053  0.00  0.00    -0.362 OA
ATOM     26  H   UNL     1      -3.017  -2.796  -0.383  0.00  0.00    +0.213 HD
ENDBRANCH   9  25
BRANCH  14  27
ATOM     27  O   UNL     1       0.229  -2.725   1.461  0.00  0.00    -0.380 OA
ATOM     28  H   UNL     1      -0.533  -3.212   1.811  0.00  0.00    +0.211 HD
ENDBRANCH  14  27
BRANCH  17  29
ATOM     29  O   UNL     1      -3.770  -1.808   1.499  0.00  0.00    -0.377 OA
ATOM     30  H   UNL     1      -2.929  -2.289   1.449  0.00  0.00    +0.211 HD
ENDBRANCH  17  29
BRANCH  16  31
ATOM     31  O   UNL     1       2.916   0.268   0.888  0.00  0.00    -0.439 OA
BRANCH  31  33
ATOM     32  O   UNL     1       3.280   1.393  -1.089  0.00  0.00    -0.248 OA
ATOM     33  C   UNL     1       3.697   0.854  -0.071  0.00  0.00    +0.342 C 
BRANCH  33  34
ATOM     34  C   UNL     1       5.174   0.744   0.300  0.00  0.00    +0.177 C 
ATOM     35  C   UNL     1       5.429   1.445   1.633  0.00  0.00    +0.041 C 
BRANCH  34  36
ATOM     36  O   UNL     1       5.896   1.463  -0.699  0.00  0.00    -0.376 OA
ATOM     37  H   UNL     1       5.757   1.044  -1.562  0.00  0.00    +0.211 HD
ENDBRANCH  34  36
BRANCH  34  38
ATOM     38  C   UNL     1       5.617  -0.730   0.294  0.00  0.00    +0.038 C 
ATOM     39  C   UNL     1       7.099  -0.939   0.584  0.00  0.00    +0.003 C 
ENDBRANCH  34  38
ENDBRANCH  33  34
ENDBRANCH  31  33
ENDBRANCH  16  31
TORSDOF 8
