REMARK  Name = 123131998
REMARK  9 active torsions:
REMARK  status: ('A' for Active; 'I' for Inactive)
REMARK    1  A    between atoms: C_2  and  N_19
REMARK    2  A    between atoms: C_3  and  O_34
REMARK    3  A    between atoms: C_4  and  C_36
REMARK    4  A    between atoms: C_5  and  N_6
REMARK    5  A    between atoms: C_20  and  C_22
REMARK    6  A    between atoms: C_22  and  N_23
REMARK    7  A    between atoms: C_22  and  C_27
REMARK    8  A    between atoms: C_27  and  C_28
REMARK    9  A    between atoms: C_36  and  O_37
REMARK                            x       y       z     vdW  Elec       q    Type
REMARK                         _______ _______ _______ _____ _____    ______ ____
ROOT
ATOM      1  O   UNL     1      -0.052  -0.262   1.423  0.00  0.00    -0.334 OA
ATOM      2  C   UNL     1      -1.126  -1.919   0.090  0.00  0.00    +0.132 C 
ATOM      3  C   UNL     1       0.310  -1.754  -0.378  0.00  0.00    +0.178 C 
ATOM      4  C   UNL     1      -1.091  -1.262   1.467  0.00  0.00    +0.167 C 
ATOM      5  C   UNL     1       0.679  -0.388   0.187  0.00  0.00    +0.224 C 
ENDROOT
BRANCH   5   6
ATOM      6  N   UNL     1       2.164  -0.220   0.407  0.00  0.00    -0.247 N 
ATOM      7  N   UNL     1       4.141  -0.304   1.433  0.00  0.00    -0.242 NA
ATOM      8  N   UNL     1       2.829   0.788  -1.700  0.00  0.00    -0.228 NA
ATOM      9  N   UNL     1       6.671   0.709   0.085  0.00  0.00    -0.289 N 
ATOM     10  N   UNL     1       5.229   1.232  -1.751  0.00  0.00    -0.228 NA
ATOM     11  C   UNL     1       3.067   0.310  -0.470  0.00  0.00    +0.152 C 
ATOM     12  C   UNL     1       2.856  -0.574   1.534  0.00  0.00    +0.223 C 
ATOM     13  C   UNL     1       4.287   0.248   0.185  0.00  0.00    +0.140 C 
ATOM     14  C   UNL     1       5.395   0.733  -0.503  0.00  0.00    +0.149 C 
ATOM     15  C   UNL     1       3.975   1.228  -2.265  0.00  0.00    +0.253 C 
ATOM     16  C   UNL     1       7.827   1.209  -0.638  0.00  0.00    +0.114 C 
ATOM     17  C   UNL     1       6.859   0.176   1.422  0.00  0.00    +0.114 C 
ENDBRANCH   5   6
BRANCH   2  19
ATOM     18  O   UNL     1      -3.904  -2.588  -0.349  0.00  0.00    -0.277 OA
ATOM     19  N   UNL     1      -2.063  -1.241  -0.778  0.00  0.00    -0.303 N 
ATOM     20  C   UNL     1      -3.386  -1.634  -0.927  0.00  0.00    +0.202 C 
ATOM     21  H   UNL     1      -1.748  -0.460  -1.288  0.00  0.00    +0.149 HD
BRANCH  20  22
ATOM     22  C   UNL     1      -4.142  -0.744  -1.909  0.00  0.00    +0.013 C 
BRANCH  22  23
ATOM     23  N   UNL     1      -4.554  -1.560  -3.050  0.00  0.00    +0.387 N 
ATOM     24  H   UNL     1      -5.061  -0.979  -3.717  0.00  0.00    -0.089 HD
ATOM     25  H   UNL     1      -5.159  -2.315  -2.727  0.00  0.00    -0.089 HD
ATOM     26  H   UNL     1      -3.729  -1.955  -3.501  0.00  0.00    -0.089 HD
ENDBRANCH  22  23
BRANCH  22  27
ATOM     27  C   UNL     1      -5.337  -0.045  -1.246  0.00  0.00    -0.013 C 
BRANCH  27  28
ATOM     28  C   UNL     1      -4.966   0.895  -0.101  0.00  0.00    -0.002 C 
ATOM     29  C   UNL     1      -6.224   1.532   0.506  0.00  0.00    -0.000 C 
ATOM     30  C   UNL     1      -3.986   1.974  -0.581  0.00  0.00    -0.000 C 
ATOM     31  C   UNL     1      -3.641   2.959   0.534  0.00  0.00    -0.000 C 
ATOM     32  C   UNL     1      -5.876   2.518   1.619  0.00  0.00    -0.000 C 
ATOM     33  C   UNL     1      -4.894   3.583   1.140  0.00  0.00    -0.000 C 
ENDBRANCH  27  28
ENDBRANCH  22  27
ENDBRANCH  20  22
ENDBRANCH   2  19
BRANCH   3  34
ATOM     34  O   UNL     1       0.453  -1.806  -1.784  0.00  0.00    -0.379 OA
ATOM     35  H   UNL     1       0.209  -2.689  -2.101  0.00  0.00    +0.211 HD
ENDBRANCH   3  34
BRANCH   4  36
ATOM     36  C   UNL     1      -0.761  -2.247   2.582  0.00  0.00    +0.168 C 
BRANCH  36  37
ATOM     37  O   UNL     1      -0.741  -1.546   3.813  0.00  0.00    -0.379 OA
ATOM     38  H   UNL     1      -0.531  -2.163   4.532  0.00  0.00    +0.211 HD
ENDBRANCH  36  37
ENDBRANCH   4  36
TORSDOF 9
