123133951
  -OEChem-03292013293D

 39 41  0     1  0  0  0  0  0999 V2000
    0.5263    1.4656    0.8225 S   0  0  0  0  0  0  0  0  0  0  0  0
   -5.0843    2.2170   -1.2717 S   0  0  0  0  0  0  0  0  0  0  0  0
    1.9024   -2.7683   -0.5452 O   0  0  0  0  0  0  0  0  0  0  0  0
    4.7626   -1.5339   -0.1203 O   0  0  0  0  0  0  0  0  0  0  0  0
    4.4913   -0.2984   -2.0257 O   0  0  0  0  0  0  0  0  0  0  0  0
   -2.4086   -1.5401    1.9963 O   0  0  0  0  0  0  0  0  0  0  0  0
   -3.1541   -3.3602   -0.4007 O   0  0  0  0  0  0  0  0  0  0  0  0
    2.1344   -0.5964    0.3453 N   0  0  0  0  0  0  0  0  0  0  0  0
   -0.8748   -1.2574    0.2410 N   0  0  0  0  0  0  0  0  0  0  0  0
   -3.7704   -2.1630   -0.7742 N   0  0  0  0  0  0  0  0  0  0  0  0
   -3.2155    1.3102    0.2670 N   0  0  0  0  0  0  0  0  0  0  0  0
   -3.5344    3.6513    0.3457 N   0  0  0  0  0  0  0  0  0  0  0  0
    1.1734   -0.1432    1.3366 C   0  0  2  0  0  0  0  0  0  0  0  0
    0.3605   -1.4168    0.9969 C   0  0  2  0  0  0  0  0  0  0  0  0
    1.5863   -1.8118    0.1233 C   0  0  0  0  0  0  0  0  0  0  0  0
    3.1898    0.1450   -0.0866 C   0  0  0  0  0  0  0  0  0  0  0  0
    2.1662    2.2662    0.8666 C   0  0  0  0  0  0  0  0  0  0  0  0
    3.2686    1.4735    0.1692 C   0  0  0  0  0  0  0  0  0  0  0  0
    4.2113   -0.5653   -0.8761 C   0  0  0  0  0  0  0  0  0  0  0  0
   -2.1307   -1.3367    0.8252 C   0  0  0  0  0  0  0  0  0  0  0  0
    4.3921    2.3159   -0.1973 C   0  0  0  0  0  0  0  0  0  0  0  0
   -3.2561   -1.1426   -0.1567 C   0  0  0  0  0  0  0  0  0  0  0  0
    5.6555    1.9224   -0.0939 C   0  0  0  0  0  0  0  0  0  0  0  0
   -3.7682    0.2333   -0.3985 C   0  0  0  0  0  0  0  0  0  0  0  0
   -4.7927    0.5269   -1.2737 C   0  0  0  0  0  0  0  0  0  0  0  0
   -3.8309    2.4070   -0.1150 C   0  0  0  0  0  0  0  0  0  0  0  0
    1.5840   -0.1556    2.3540 H   0  0  0  0  0  0  0  0  0  0  0  0
    0.2367   -2.0942    1.8509 H   0  0  0  0  0  0  0  0  0  0  0  0
   -0.8339   -1.0756   -0.7594 H   0  0  0  0  0  0  0  0  0  0  0  0
    2.4453    2.4398    1.9121 H   0  0  0  0  0  0  0  0  0  0  0  0
    2.0339    3.2443    0.3909 H   0  0  0  0  0  0  0  0  0  0  0  0
    4.1737    3.3067   -0.5852 H   0  0  0  0  0  0  0  0  0  0  0  0
    6.4527    2.5952   -0.3953 H   0  0  0  0  0  0  0  0  0  0  0  0
    5.9609    0.9688    0.3199 H   0  0  0  0  0  0  0  0  0  0  0  0
    5.4517   -2.0348   -0.6067 H   0  0  0  0  0  0  0  0  0  0  0  0
   -5.3712   -0.1388   -1.8988 H   0  0  0  0  0  0  0  0  0  0  0  0
   -3.6417   -4.0067   -0.9384 H   0  0  0  0  0  0  0  0  0  0  0  0
   -2.8007    3.8072    1.0290 H   0  0  0  0  0  0  0  0  0  0  0  0
   -4.0346    4.4736    0.0243 H   0  0  0  0  0  0  0  0  0  0  0  0
  1 13  1  0  0  0  0
  1 17  1  0  0  0  0
  2 25  1  0  0  0  0
  2 26  1  0  0  0  0
  3 15  2  0  0  0  0
  4 19  1  0  0  0  0
  4 35  1  0  0  0  0
  5 19  2  0  0  0  0
  6 20  2  0  0  0  0
  7 10  1  0  0  0  0
  7 37  1  0  0  0  0
  8 13  1  0  0  0  0
  8 15  1  0  0  0  0
  8 16  1  0  0  0  0
  9 14  1  0  0  0  0
  9 20  1  0  0  0  0
  9 29  1  0  0  0  0
 10 22  2  0  0  0  0
 11 24  1  0  0  0  0
 11 26  2  0  0  0  0
 12 26  1  0  0  0  0
 12 38  1  0  0  0  0
 12 39  1  0  0  0  0
 13 14  1  0  0  0  0
 13 27  1  0  0  0  0
 14 15  1  0  0  0  0
 14 28  1  0  0  0  0
 16 18  2  0  0  0  0
 16 19  1  0  0  0  0
 17 18  1  0  0  0  0
 17 30  1  0  0  0  0
 17 31  1  0  0  0  0
 18 21  1  0  0  0  0
 20 22  1  0  0  0  0
 21 23  2  0  0  0  0
 21 32  1  0  0  0  0
 22 24  1  0  0  0  0
 23 33  1  0  0  0  0
 23 34  1  0  0  0  0
 24 25  2  0  0  0  0
 25 36  1  0  0  0  0
M  END
> <PUBCHEM_COMPOUND_CID>
123133951

> <PUBCHEM_CONFORMER_RMSD>
0.8

> <PUBCHEM_CONFORMER_DIVERSEORDER>
1
50
47
13
35
26
41
49
6
36
37
11
32
17
51
42
14
21
24
29
33
25
12
2
46
31
3
15
18
53
9
5
10
39
28
44
27
43
20
40
4
38
8
52
16
23
30
34
7
48
19
45
22

> <PUBCHEM_MMFF94_PARTIAL_CHARGES>
35
1 -0.45
10 -0.51
11 -0.57
12 -0.88
13 0.44
14 0.28
15 0.58
16 0.12
17 0.37
18 -0.14
19 0.71
2 -0.08
20 0.63
21 -0.15
22 0.54
23 -0.3
24 0.14
25 -0.11
26 0.46
29 0.37
3 -0.57
32 0.15
33 0.15
34 0.15
35 0.5
36 0.15
37 0.4
38 0.4
39 0.4
4 -0.65
5 -0.57
6 -0.57
7 -0.34
8 -0.39
9 -0.65

> <PUBCHEM_EFFECTIVE_ROTOR_COUNT>
6.6

> <PUBCHEM_PHARMACOPHORE_FEATURES>
14
1 10 acceptor
1 12 donor
1 23 hydrophobe
1 3 acceptor
1 4 acceptor
1 5 acceptor
1 6 acceptor
1 7 anion
1 9 donor
3 11 12 26 cation
3 4 5 19 anion
4 8 13 14 15 rings
5 2 11 24 25 26 rings
6 1 8 13 16 17 18 rings

> <PUBCHEM_HEAVY_ATOM_COUNT>
26

> <PUBCHEM_ATOM_DEF_STEREO_COUNT>
2

> <PUBCHEM_ATOM_UDEF_STEREO_COUNT>
0

> <PUBCHEM_BOND_DEF_STEREO_COUNT>
1

> <PUBCHEM_BOND_UDEF_STEREO_COUNT>
0

> <PUBCHEM_ISOTOPIC_ATOM_COUNT>
0

> <PUBCHEM_COMPONENT_COUNT>
1

> <PUBCHEM_CACTVS_TAUTO_COUNT>
19

> <PUBCHEM_CONFORMER_ID>
0756DFFF00000001

> <PUBCHEM_MMFF94_ENERGY>
68.0477

> <PUBCHEM_FEATURE_SELFOVERLAP>
71.352

> <PUBCHEM_SHAPE_FINGERPRINT>
10498660 4 18335131012376903789
10764073 3 17262669389326283666
11273773 38 17475232401731359577
12788726 201 18116700993527753923
13464514 151 18334859368284824490
13944108 23 16966033126701325485
14251757 17 18343867735923741592
14251764 38 18189619508842549468
14790565 3 17980486659480050193
14848178 96 18259982647818561356
14931854 50 18340193121262614677
14950920 106 11746928772317146997
18608769 82 18334859450801559801
20775438 99 16908571974991879111
21033648 144 17912929680029428144
21279426 13 18410579461989121212
21864079 5 18260823813147804801
221357 26 18271242824119210313
22393880 68 18413671326908720206
235170 7 17775015629637775124
23557571 272 18191020316826199227
23559900 14 18271239422790117706
2838139 119 18263072237333551237
4280585 95 17626116248065346870
46194498 28 18129387170718541910
469060 322 15864364579502051649
497634 4 17702961360559012435
5281201 14 18270685380029019334
5283173 99 18411983568255232928
5895379 119 18125145057258613648
9981440 41 18187638150244790779

> <PUBCHEM_SHAPE_MULTIPOLES>
488.52
12.1
3.65
1.28
1.08
0.36
-0.03
5.9
-4.9
-2.33
0
-0.08
-0.16
0.86

> <PUBCHEM_SHAPE_SELFOVERLAP>
1024.008

> <PUBCHEM_SHAPE_VOLUME>
276.8

> <PUBCHEM_COORDINATE_TYPE>
2
5
10

$$$$
