REMARK  Name = 123131955
REMARK  10 active torsions:
REMARK  status: ('A' for Active; 'I' for Inactive)
REMARK    1  A    between atoms: N_4  and  C_21
REMARK    2  A    between atoms: C_13  and  C_19
REMARK    3  A    between atoms: C_21  and  C_22
REMARK    4  A    between atoms: C_22  and  O_23
REMARK    5  A    between atoms: C_22  and  C_25
REMARK    6  A    between atoms: C_25  and  O_26
REMARK    7  A    between atoms: C_25  and  C_28
REMARK    8  A    between atoms: C_28  and  O_29
REMARK    9  A    between atoms: C_28  and  C_31
REMARK   10  A    between atoms: C_31  and  O_32
REMARK                            x       y       z     vdW  Elec       q    Type
REMARK                         _______ _______ _______ _____ _____    ______ ____
ROOT
ATOM      1 BR   UNL     1       1.141   5.538  -0.590  0.00  0.00    -0.054 Br
ATOM      2  O   UNL     1      -5.026   1.146  -0.680  0.00  0.00    -0.266 OA
ATOM      3  O   UNL     1      -4.155  -3.212   0.492  0.00  0.00    -0.193 OA
ATOM      4  N   UNL     1      -0.544  -0.265   0.455  0.00  0.00    -0.255 N 
ATOM      5  N   UNL     1      -2.411   1.712  -0.341  0.00  0.00    -0.396 NA
ATOM      6  N   UNL     1      -2.389  -1.778   0.475  0.00  0.00    -0.303 NA
ATOM      7  N   UNL     1      -4.606  -1.066  -0.090  0.00  0.00    -0.196 N 
ATOM      8  C   UNL     1      -0.105   1.058   0.226  0.00  0.00    +0.079 C 
ATOM      9  C   UNL     1      -1.884  -0.594   0.290  0.00  0.00    +0.236 C 
ATOM     10  C   UNL     1      -1.053   2.024  -0.170  0.00  0.00    +0.128 C 
ATOM     11  C   UNL     1       1.233   1.470   0.371  0.00  0.00    +0.013 C 
ATOM     12  C   UNL     1      -2.822   0.503  -0.134  0.00  0.00    +0.230 C 
ATOM     13  C   UNL     1       1.617   2.792   0.132  0.00  0.00    -0.018 C 
ATOM     14  C   UNL     1      -0.656   3.349  -0.406  0.00  0.00    +0.093 C 
ATOM     15  C   UNL     1       0.673   3.732  -0.257  0.00  0.00    +0.016 C 
ATOM     16  C   UNL     1      -4.279   0.246  -0.336  0.00  0.00    +0.293 C 
ATOM     17  C   UNL     1      -3.724  -2.073   0.303  0.00  0.00    +0.273 C 
ATOM     18  H   UNL     1      -5.551  -1.319  -0.202  0.00  0.00    +0.169 HD
ENDROOT
BRANCH  13  19
ATOM     19  C   UNL     1       3.059   3.148   0.308  0.00  0.00    +0.027 C 
ATOM     20  C   UNL     1       3.442   3.292   1.778  0.00  0.00    +0.005 C 
ENDBRANCH  13  19
BRANCH   4  21
ATOM     21  C   UNL     1       0.447  -1.259   0.864  0.00  0.00    +0.130 C 
BRANCH  21  22
ATOM     22  C   UNL     1       0.798  -2.169  -0.319  0.00  0.00    +0.160 C 
BRANCH  22  23
ATOM     23  O   UNL     1      -0.244  -3.133  -0.477  0.00  0.00    -0.380 OA
ATOM     24  H   UNL     1      -1.092  -2.676  -0.597  0.00  0.00    +0.211 HD
ENDBRANCH  22  23
BRANCH  22  25
ATOM     25  C   UNL     1       2.142  -2.899  -0.128  0.00  0.00    +0.168 C 
BRANCH  25  26
ATOM     26  O   UNL     1       2.251  -3.359   1.218  0.00  0.00    -0.379 OA
ATOM     27  H   UNL     1       1.488  -3.919   1.432  0.00  0.00    +0.211 HD
ENDBRANCH  25  26
BRANCH  25  28
ATOM     28  C   UNL     1       3.361  -2.013  -0.446  0.00  0.00    +0.169 C 
BRANCH  28  29
ATOM     29  O   UNL     1       3.296  -1.605  -1.814  0.00  0.00    -0.379 OA
ATOM     30  H   UNL     1       2.460  -1.140  -1.974  0.00  0.00    +0.211 HD
ENDBRANCH  28  29
BRANCH  28  31
ATOM     31  C   UNL     1       4.684  -2.741  -0.220  0.00  0.00    +0.169 C 
BRANCH  31  32
ATOM     32  O   UNL     1       5.755  -1.845  -0.502  0.00  0.00    -0.379 OA
ATOM     33  H   UNL     1       6.601  -2.298  -0.361  0.00  0.00    +0.211 HD
ENDBRANCH  31  32
ENDBRANCH  28  31
ENDBRANCH  25  28
ENDBRANCH  22  25
ENDBRANCH  21  22
ENDBRANCH   4  21
TORSDOF 10
