123131998
  -OEChem-03292013293D

 65 68  0     1  0  0  0  0  0999 V2000
   -0.0517   -0.2617    1.4234 O   0  0  0  0  0  0  0  0  0  0  0  0
    0.4527   -1.8059   -1.7835 O   0  0  0  0  0  0  0  0  0  0  0  0
   -0.7407   -1.5465    3.8130 O   0  0  0  0  0  0  0  0  0  0  0  0
   -3.9039   -2.5880   -0.3490 O   0  0  0  0  0  0  0  0  0  0  0  0
   -2.0634   -1.2407   -0.7776 N   0  0  0  0  0  0  0  0  0  0  0  0
    2.1636   -0.2195    0.4073 N   0  0  0  0  0  0  0  0  0  0  0  0
   -4.5538   -1.5598   -3.0495 N   0  0  0  0  0  0  0  0  0  0  0  0
    4.1412   -0.3044    1.4325 N   0  0  0  0  0  0  0  0  0  0  0  0
    2.8295    0.7879   -1.7004 N   0  0  0  0  0  0  0  0  0  0  0  0
    6.6715    0.7088    0.0847 N   0  0  0  0  0  0  0  0  0  0  0  0
    5.2288    1.2315   -1.7514 N   0  0  0  0  0  0  0  0  0  0  0  0
   -1.1257   -1.9195    0.0896 C   0  0  1  0  0  0  0  0  0  0  0  0
   -4.9664    0.8954   -0.1006 C   0  0  0  0  0  0  0  0  0  0  0  0
    0.3096   -1.7540   -0.3779 C   0  0  2  0  0  0  0  0  0  0  0  0
   -1.0908   -1.2624    1.4671 C   0  0  1  0  0  0  0  0  0  0  0  0
    0.6788   -0.3876    0.1871 C   0  0  1  0  0  0  0  0  0  0  0  0
   -6.2239    1.5319    0.5064 C   0  0  0  0  0  0  0  0  0  0  0  0
   -3.9855    1.9736   -0.5808 C   0  0  0  0  0  0  0  0  0  0  0  0
   -5.3369   -0.0452   -1.2457 C   0  0  0  0  0  0  0  0  0  0  0  0
   -3.6409    2.9589    0.5338 C   0  0  0  0  0  0  0  0  0  0  0  0
   -5.8757    2.5181    1.6190 C   0  0  0  0  0  0  0  0  0  0  0  0
   -4.8938    3.5830    1.1404 C   0  0  0  0  0  0  0  0  0  0  0  0
   -4.1421   -0.7439   -1.9090 C   0  0  1  0  0  0  0  0  0  0  0  0
   -3.3862   -1.6341   -0.9267 C   0  0  0  0  0  0  0  0  0  0  0  0
   -0.7607   -2.2470    2.5821 C   0  0  0  0  0  0  0  0  0  0  0  0
    3.0669    0.3099   -0.4697 C   0  0  0  0  0  0  0  0  0  0  0  0
    2.8563   -0.5735    1.5345 C   0  0  0  0  0  0  0  0  0  0  0  0
    4.2869    0.2481    0.1849 C   0  0  0  0  0  0  0  0  0  0  0  0
    5.3948    0.7333   -0.5026 C   0  0  0  0  0  0  0  0  0  0  0  0
    3.9750    1.2280   -2.2651 C   0  0  0  0  0  0  0  0  0  0  0  0
    7.8270    1.2089   -0.6383 C   0  0  0  0  0  0  0  0  0  0  0  0
    6.8592    0.1762    1.4221 C   0  0  0  0  0  0  0  0  0  0  0  0
   -1.4200   -2.9737    0.1328 H   0  0  0  0  0  0  0  0  0  0  0  0
   -4.4749    0.3128    0.6901 H   0  0  0  0  0  0  0  0  0  0  0  0
    0.9331   -2.5420    0.0623 H   0  0  0  0  0  0  0  0  0  0  0  0
   -2.0258   -0.7437    1.7102 H   0  0  0  0  0  0  0  0  0  0  0  0
    0.3886    0.4395   -0.4721 H   0  0  0  0  0  0  0  0  0  0  0  0
   -4.4146    2.5215   -1.4293 H   0  0  0  0  0  0  0  0  0  0  0  0
   -3.0443    1.5349   -0.9236 H   0  0  0  0  0  0  0  0  0  0  0  0
   -6.8815    0.7521    0.9085 H   0  0  0  0  0  0  0  0  0  0  0  0
   -6.7918    2.0557   -0.2733 H   0  0  0  0  0  0  0  0  0  0  0  0
   -5.8888    0.5188   -2.0102 H   0  0  0  0  0  0  0  0  0  0  0  0
   -6.0337   -0.8047   -0.8649 H   0  0  0  0  0  0  0  0  0  0  0  0
   -5.4396    1.9734    2.4655 H   0  0  0  0  0  0  0  0  0  0  0  0
   -2.9902    3.7480    0.1403 H   0  0  0  0  0  0  0  0  0  0  0  0
   -3.0752    2.4396    1.3174 H   0  0  0  0  0  0  0  0  0  0  0  0
   -6.7902    2.9980    1.9853 H   0  0  0  0  0  0  0  0  0  0  0  0
   -4.6144    4.2307    1.9789 H   0  0  0  0  0  0  0  0  0  0  0  0
   -5.3824    4.2201    0.3930 H   0  0  0  0  0  0  0  0  0  0  0  0
   -3.4699    0.0126   -2.3251 H   0  0  0  0  0  0  0  0  0  0  0  0
   -1.7340   -0.4147   -1.2678 H   0  0  0  0  0  0  0  0  0  0  0  0
    0.2270   -2.6968    2.4402 H   0  0  0  0  0  0  0  0  0  0  0  0
   -1.5140   -3.0387    2.6402 H   0  0  0  0  0  0  0  0  0  0  0  0
    1.3859   -1.6296   -1.9912 H   0  0  0  0  0  0  0  0  0  0  0  0
   -3.7294   -1.9117   -3.5353 H   0  0  0  0  0  0  0  0  0  0  0  0
   -5.0555   -0.9814   -3.7224 H   0  0  0  0  0  0  0  0  0  0  0  0
    2.3785   -1.0239    2.3936 H   0  0  0  0  0  0  0  0  0  0  0  0
   -0.5309   -2.1935    4.5079 H   0  0  0  0  0  0  0  0  0  0  0  0
    3.8792    1.6340   -3.2665 H   0  0  0  0  0  0  0  0  0  0  0  0
    8.7486    1.1297   -0.0522 H   0  0  0  0  0  0  0  0  0  0  0  0
    7.9100    0.2319    1.7294 H   0  0  0  0  0  0  0  0  0  0  0  0
    6.5864   -0.8834    1.4720 H   0  0  0  0  0  0  0  0  0  0  0  0
    6.2976    0.7533    2.1645 H   0  0  0  0  0  0  0  0  0  0  0  0
    7.6932    2.2657   -0.8938 H   0  0  0  0  0  0  0  0  0  0  0  0
    7.9779    0.6401   -1.5623 H   0  0  0  0  0  0  0  0  0  0  0  0
  1 15  1  0  0  0  0
  1 16  1  0  0  0  0
  2 14  1  0  0  0  0
  2 54  1  0  0  0  0
  3 25  1  0  0  0  0
  3 58  1  0  0  0  0
  4 24  2  0  0  0  0
  5 12  1  0  0  0  0
  5 24  1  0  0  0  0
  5 51  1  0  0  0  0
  6 16  1  0  0  0  0
  6 26  1  0  0  0  0
  6 27  1  0  0  0  0
  7 23  1  0  0  0  0
  7 55  1  0  0  0  0
  7 56  1  0  0  0  0
  8 27  2  0  0  0  0
  8 28  1  0  0  0  0
  9 26  1  0  0  0  0
  9 30  2  0  0  0  0
 10 29  1  0  0  0  0
 10 31  1  0  0  0  0
 10 32  1  0  0  0  0
 11 29  2  0  0  0  0
 11 30  1  0  0  0  0
 12 14  1  0  0  0  0
 12 15  1  0  0  0  0
 12 33  1  0  0  0  0
 13 17  1  0  0  0  0
 13 18  1  0  0  0  0
 13 19  1  0  0  0  0
 13 34  1  0  0  0  0
 14 16  1  0  0  0  0
 14 35  1  0  0  0  0
 15 25  1  0  0  0  0
 15 36  1  0  0  0  0
 16 37  1  0  0  0  0
 17 21  1  0  0  0  0
 17 40  1  0  0  0  0
 17 41  1  0  0  0  0
 18 20  1  0  0  0  0
 18 38  1  0  0  0  0
 18 39  1  0  0  0  0
 19 23  1  0  0  0  0
 19 42  1  0  0  0  0
 19 43  1  0  0  0  0
 20 22  1  0  0  0  0
 20 45  1  0  0  0  0
 20 46  1  0  0  0  0
 21 22  1  0  0  0  0
 21 44  1  0  0  0  0
 21 47  1  0  0  0  0
 22 48  1  0  0  0  0
 22 49  1  0  0  0  0
 23 24  1  0  0  0  0
 23 50  1  0  0  0  0
 25 52  1  0  0  0  0
 25 53  1  0  0  0  0
 26 28  2  0  0  0  0
 27 57  1  0  0  0  0
 28 29  1  0  0  0  0
 30 59  1  0  0  0  0
 31 60  1  0  0  0  0
 31 64  1  0  0  0  0
 31 65  1  0  0  0  0
 32 61  1  0  0  0  0
 32 62  1  0  0  0  0
 32 63  1  0  0  0  0
M  END
> <PUBCHEM_COMPOUND_CID>
123131998

> <PUBCHEM_CONFORMER_RMSD>
1

> <PUBCHEM_CONFORMER_DIVERSEORDER>
1
36
12
28
92
22
68
23
66
64
17
5
90
91
18
13
58
60
85
55
52
43
48
54
44
62
29
21
57
38
80
10
67
51
71
65
86
45
84
30
40
83
61
34
31
73
76
81
26
42
77
15
74
27
2
35
3
47
16
89
56
4
8
50
9
49
78
87
20
75
69
79
7
82
37
46
11
24
6
59
41
33
14
63
72
39
88
53
32
19
70
25

> <PUBCHEM_MMFF94_PARTIAL_CHARGES>
32
1 -0.56
10 -0.84
11 -0.62
12 0.3
14 0.28
15 0.28
16 0.54
2 -0.68
23 0.33
24 0.57
25 0.28
26 0.11
27 0.04
28 0.23
29 0.41
3 -0.68
30 0.47
31 0.37
32 0.37
4 -0.57
5 -0.73
51 0.37
54 0.4
55 0.36
56 0.36
57 0.15
58 0.4
59 0.15
6 0.05
7 -0.99
8 -0.57
9 -0.57

> <PUBCHEM_EFFECTIVE_ROTOR_COUNT>
10.2

> <PUBCHEM_PHARMACOPHORE_FEATURES>
16
1 1 acceptor
1 2 acceptor
1 2 donor
1 3 acceptor
1 3 donor
1 4 acceptor
1 5 donor
1 7 cation
1 7 donor
3 10 11 29 cation
3 6 8 27 cation
3 9 11 30 cation
5 1 12 14 15 16 rings
5 6 8 26 27 28 rings
6 13 17 18 20 21 22 rings
6 9 11 26 28 29 30 rings

> <PUBCHEM_HEAVY_ATOM_COUNT>
32

> <PUBCHEM_ATOM_DEF_STEREO_COUNT>
5

> <PUBCHEM_ATOM_UDEF_STEREO_COUNT>
0

> <PUBCHEM_BOND_DEF_STEREO_COUNT>
0

> <PUBCHEM_BOND_UDEF_STEREO_COUNT>
0

> <PUBCHEM_ISOTOPIC_ATOM_COUNT>
0

> <PUBCHEM_COMPONENT_COUNT>
1

> <PUBCHEM_CACTVS_TAUTO_COUNT>
2

> <PUBCHEM_CONFORMER_ID>
0756D85E00000001

> <PUBCHEM_MMFF94_ENERGY>
68.6592

> <PUBCHEM_FEATURE_SELFOVERLAP>
81.451

> <PUBCHEM_SHAPE_FINGERPRINT>
10165383 225 17132120126881651563
10670039 82 18272364274608934573
10906281 52 18113907061329395866
11007060 377 16733258066308753867
11049842 53 17841975716652110343
11475781 23 17560803191358421564
1200032 147 17984999107061109353
12342043 65 15911056538987825135
13690498 29 16486677187155602591
13914758 101 18273215279708512598
14713325 29 18341055211466957603
14856354 85 18267871756277399199
14955137 171 13695589953560578998
15163728 17 18411990130685816527
15183329 4 18187358844600896118
15604295 49 18058159713421409424
15975801 100 18264197015769497080
17913733 40 16732983085675815331
21033650 10 17989768904034098531
21756936 100 18407763634085022755
21859007 373 17846203467730313040
22122407 14 18262808496435424680
22393880 68 16917057872148215655
23536364 44 16056600924532971035
23559900 14 15194994037773765626
23569914 152 15908570207588308852
23569943 247 16952503855254181602
2838139 119 18411417314997226872
3552219 110 17968949733731533567
3610482 184 18411707577740535709
38570 142 18115326474336250087
392239 28 17240209833014979509
397830 11 12180134219663518494
4098825 35 18060141994533822934
4173938 306 16199856303496418974
445580 204 18411139134423916888
46194498 28 16486106549026110489
484985 159 9078836230591084521
5104073 3 16589148423969542296
5283173 99 17846211180884934464
5937810 71 17242192334627941692
59755656 520 17676207978605986507
6700243 42 17483429638841144479
7808743 9 18059003979236303369

> <PUBCHEM_SHAPE_MULTIPOLES>
600.2
18.01
2.97
2.58
16.49
1.07
0.69
13.21
-2.45
-5.73
0.71
-0.75
-1.23
-3.48

> <PUBCHEM_SHAPE_SELFOVERLAP>
1263.842

> <PUBCHEM_SHAPE_VOLUME>
334

> <PUBCHEM_COORDINATE_TYPE>
2
5
10

$$$$
