REMARK  Name = 12310193
REMARK  3 active torsions:
REMARK  status: ('A' for Active; 'I' for Inactive)
REMARK    1  A    between atoms: C_8  and  C_25
REMARK    2  A    between atoms: C_16  and  O_22
REMARK    3  A    between atoms: C_25  and  O_26
REMARK                            x       y       z     vdW  Elec       q    Type
REMARK                         _______ _______ _______ _____ _____    ______ ____
ROOT
ATOM      1  O   UNL     1      -0.957  -1.603   0.613  0.00  0.00    -0.456 OA
ATOM      2  O   UNL     1       3.854  -1.250   1.726  0.00  0.00    -0.296 OA
ATOM      3  O   UNL     1      -2.306  -1.410   2.470  0.00  0.00    -0.250 OA
ATOM      4  C   UNL     1       1.119   0.381   0.084  0.00  0.00    +0.021 C 
ATOM      5  C   UNL     1      -0.826  -0.874  -0.621  0.00  0.00    +0.137 C 
ATOM      6  C   UNL     1       0.620  -0.610  -1.005  0.00  0.00    +0.038 C 
ATOM      7  C   UNL     1      -1.330   0.525  -0.279  0.00  0.00    +0.060 C 
ATOM      8  C   UNL     1      -0.126   1.250   0.389  0.00  0.00    +0.103 C 
ATOM      9  C   UNL     1      -2.535   0.133   0.576  0.00  0.00    +0.118 C 
ATOM     10  C   UNL     1       2.397   1.027  -0.472  0.00  0.00    +0.008 C 
ATOM     11  C   UNL     1       3.393  -0.152  -0.400  0.00  0.00    +0.052 C 
ATOM     12  C   UNL     1       1.667  -0.273   1.389  0.00  0.00    +0.065 C 
ATOM     13  C   UNL     1       1.560  -1.794  -1.192  0.00  0.00    +0.004 C 
ATOM     14  C   UNL     1      -1.716  -1.518  -1.686  0.00  0.00    +0.043 C 
ATOM     15  C   UNL     1       3.008  -1.289  -1.378  0.00  0.00    +0.007 C 
ATOM     16  C   UNL     1      -3.648  -0.453  -0.341  0.00  0.00    +0.121 C 
ATOM     17  C   UNL     1       3.083  -0.633   1.004  0.00  0.00    +0.150 C 
ATOM     18  C   UNL     1      -3.170  -1.651  -1.193  0.00  0.00    +0.033 C 
ATOM     19  C   UNL     1      -1.949  -1.020   1.370  0.00  0.00    +0.318 C 
ATOM     20  C   UNL     1      -3.055   1.262   1.456  0.00  0.00    +0.014 C 
ATOM     21  C   UNL     1       4.834   0.299  -0.570  0.00  0.00    +0.007 C 
ENDROOT
BRANCH  16  22
ATOM     22  O   UNL     1      -4.125   0.573  -1.212  0.00  0.00    -0.384 OA
ATOM     23  H   UNL     1      -4.427   1.330  -0.686  0.00  0.00    +0.210 HD
ENDBRANCH  16  22
BRANCH   8  25
ATOM     24  O   UNL     1      -0.327   2.968  -1.301  0.00  0.00    -0.250 OA
ATOM     25  C   UNL     1       0.000   2.636  -0.172  0.00  0.00    +0.313 C 
BRANCH  25  26
ATOM     26  O   UNL     1       0.533   3.477   0.748  0.00  0.00    -0.480 OA
ATOM     27  H   UNL     1       0.763   3.157   1.598  0.00  0.00    +0.295 HD
ENDBRANCH  25  26
ENDBRANCH   8  25
TORSDOF 3
