REMARK  Name = 123131964
REMARK  5 active torsions:
REMARK  status: ('A' for Active; 'I' for Inactive)
REMARK    1  A    between atoms: C_8  and  O_23
REMARK    2  A    between atoms: C_9  and  O_25
REMARK    3  A    between atoms: C_11  and  O_29
REMARK    4  A    between atoms: C_12  and  O_27
REMARK    5  A    between atoms: O_29  and  C_31
REMARK                            x       y       z     vdW  Elec       q    Type
REMARK                         _______ _______ _______ _____ _____    ______ ____
ROOT
ATOM      1  O   UNL     1      -3.272  -1.224   1.453  0.00  0.00    -0.331 OA
ATOM      2  O   UNL     1       3.634  -1.193   0.584  0.00  0.00    -0.452 OA
ATOM      3  O   UNL     1       2.749  -1.116  -1.550  0.00  0.00    -0.250 OA
ATOM      4  C   UNL     1      -2.606   0.213  -0.310  0.00  0.00    +0.035 C 
ATOM      5  C   UNL     1      -2.364  -1.166   0.331  0.00  0.00    +0.148 C 
ATOM      6  C   UNL     1      -4.125   0.253  -0.190  0.00  0.00    +0.064 C 
ATOM      7  C   UNL     1      -1.920   1.402   0.406  0.00  0.00    +0.005 C 
ATOM      8  C   UNL     1      -0.964  -1.551   0.825  0.00  0.00    +0.183 C 
ATOM      9  C   UNL     1      -4.396  -0.386   1.165  0.00  0.00    +0.232 C 
ATOM     10  C   UNL     1      -1.750   2.675  -0.478  0.00  0.00    +0.031 C 
ATOM     11  C   UNL     1       0.155  -1.446  -0.226  0.00  0.00    +0.209 C 
ATOM     12  C   UNL     1      -0.595   3.575   0.052  0.00  0.00    +0.132 C 
ATOM     13  C   UNL     1      -3.056   3.470  -0.597  0.00  0.00    +0.003 C 
ATOM     14  C   UNL     1       1.472  -2.053   0.287  0.00  0.00    +0.156 C 
ATOM     15  C   UNL     1       0.741   2.913  -0.146  0.00  0.00    +0.003 C 
ATOM     16  C   UNL     1       2.675  -1.406  -0.363  0.00  0.00    +0.321 C 
ATOM     17  C   UNL     1       1.626   2.668   0.832  0.00  0.00    -0.003 C 
ATOM     18  C   UNL     1       4.777  -0.374   0.241  0.00  0.00    +0.173 C 
ATOM     19  C   UNL     1       2.841   1.928   0.585  0.00  0.00    -0.005 C 
ATOM     20  C   UNL     1       4.923   0.695   1.341  0.00  0.00    +0.070 C 
ATOM     21  C   UNL     1       3.731   1.602   1.534  0.00  0.00    -0.022 C 
ATOM     22  C   UNL     1       5.999  -1.282   0.189  0.00  0.00    +0.048 C 
ENDROOT
BRANCH   8  23
ATOM     23  O   UNL     1      -1.029  -2.916   1.267  0.00  0.00    -0.347 OA
ATOM     24  C   UNL     1      -1.587  -3.012   2.569  0.00  0.00    +0.174 C 
ENDBRANCH   8  23
BRANCH   9  25
ATOM     25  O   UNL     1      -5.610  -1.119   1.110  0.00  0.00    -0.360 OA
ATOM     26  H   UNL     1      -5.781  -1.525   1.974  0.00  0.00    +0.213 HD
ENDBRANCH   9  25
BRANCH  12  27
ATOM     27  O   UNL     1      -0.533   4.801  -0.675  0.00  0.00    -0.380 OA
ATOM     28  H   UNL     1      -1.374   5.274  -0.583  0.00  0.00    +0.211 HD
ENDBRANCH  12  27
BRANCH  11  29
ATOM     29  O   UNL     1      -0.242  -2.145  -1.405  0.00  0.00    -0.449 OA
BRANCH  29  31
ATOM     30  O   UNL     1      -0.145  -0.180  -2.616  0.00  0.00    -0.250 OA
ATOM     31  C   UNL     1      -0.353  -1.383  -2.532  0.00  0.00    +0.318 C 
ATOM     32  C   UNL     1      -0.775  -2.245  -3.683  0.00  0.00    +0.121 C 
ENDBRANCH  29  31
ENDBRANCH  11  29
TORSDOF 5
