REMARK  Name = 123131965
REMARK  7 active torsions:
REMARK  status: ('A' for Active; 'I' for Inactive)
REMARK    1  A    between atoms: C_4  and  C_29
REMARK    2  A    between atoms: C_5  and  O_21
REMARK    3  A    between atoms: C_7  and  O_23
REMARK    4  A    between atoms: C_9  and  O_25
REMARK    5  A    between atoms: O_25  and  C_27
REMARK    6  A    between atoms: C_29  and  C_30
REMARK    7  A    between atoms: C_30  and  O_31
REMARK                            x       y       z     vdW  Elec       q    Type
REMARK                         _______ _______ _______ _____ _____    ______ ____
ROOT
ATOM      1  O   UNL     1      -3.589  -0.100  -0.746  0.00  0.00    -0.452 OA
ATOM      2  O   UNL     1       1.597   3.686   1.901  0.00  0.00    -0.291 OA
ATOM      3  O   UNL     1      -2.628  -0.998   1.155  0.00  0.00    -0.250 OA
ATOM      4  C   UNL     1       1.886   0.417  -0.416  0.00  0.00    +0.032 C 
ATOM      5  C   UNL     1       1.719  -0.673  -1.520  0.00  0.00    +0.141 C 
ATOM      6  C   UNL     1       2.542   1.696  -1.013  0.00  0.00    +0.010 C 
ATOM      7  C   UNL     1       0.963  -1.965  -1.129  0.00  0.00    +0.182 C 
ATOM      8  C   UNL     1       2.756   2.880  -0.045  0.00  0.00    +0.062 C 
ATOM      9  C   UNL     1      -0.325  -1.817  -0.290  0.00  0.00    +0.209 C 
ATOM     10  C   UNL     1      -1.447  -1.030  -0.974  0.00  0.00    +0.156 C 
ATOM     11  C   UNL     1       3.328   4.087  -0.788  0.00  0.00    +0.008 C 
ATOM     12  C   UNL     1       1.513   3.324   0.728  0.00  0.00    +0.173 C 
ATOM     13  C   UNL     1      -2.607  -0.741  -0.041  0.00  0.00    +0.321 C 
ATOM     14  C   UNL     1       0.207   3.332   0.016  0.00  0.00    +0.037 C 
ATOM     15  C   UNL     1      -4.692   0.477  -0.006  0.00  0.00    +0.173 C 
ATOM     16  C   UNL     1      -0.912   3.078   0.707  0.00  0.00    +0.003 C 
ATOM     17  C   UNL     1      -4.532   2.007  -0.008  0.00  0.00    +0.070 C 
ATOM     18  C   UNL     1      -5.975   0.064  -0.716  0.00  0.00    +0.048 C 
ATOM     19  C   UNL     1      -2.183   2.861   0.057  0.00  0.00    -0.004 C 
ATOM     20  C   UNL     1      -3.271   2.415   0.703  0.00  0.00    -0.022 C 
ENDROOT
BRANCH   5  21
ATOM     21  O   UNL     1       1.100  -0.133  -2.691  0.00  0.00    -0.382 OA
ATOM     22  H   UNL     1       1.560   0.680  -2.953  0.00  0.00    +0.210 HD
ENDBRANCH   5  21
BRANCH   7  23
ATOM     23  O   UNL     1       1.883  -2.792  -0.407  0.00  0.00    -0.347 OA
ATOM     24  C   UNL     1       2.863  -3.338  -1.272  0.00  0.00    +0.174 C 
ENDBRANCH   7  23
BRANCH   9  25
ATOM     25  O   UNL     1      -0.847  -3.134  -0.052  0.00  0.00    -0.449 OA
BRANCH  25  27
ATOM     26  O   UNL     1       0.442  -3.311   1.857  0.00  0.00    -0.250 OA
ATOM     27  C   UNL     1      -0.371  -3.763   1.062  0.00  0.00    +0.318 C 
ATOM     28  C   UNL     1      -0.998  -5.119   1.181  0.00  0.00    +0.121 C 
ENDBRANCH  25  27
ENDBRANCH   9  25
BRANCH   4  29
ATOM     29  C   UNL     1       2.680  -0.102   0.786  0.00  0.00    +0.034 C 
BRANCH  29  30
ATOM     30  C   UNL     1       4.113  -0.408   0.405  0.00  0.00    +0.137 C 
BRANCH  30  31
ATOM     31  O   UNL     1       4.784  -0.900   1.557  0.00  0.00    -0.382 OA
ATOM     32  H   UNL     1       5.706  -1.102   1.332  0.00  0.00    +0.210 HD
ENDBRANCH  30  31
ENDBRANCH  29  30
ENDBRANCH   4  29
TORSDOF 7
