REMARK  Name = 123131956
REMARK  10 active torsions:
REMARK  status: ('A' for Active; 'I' for Inactive)
REMARK    1  A    between atoms: N_4  and  C_21
REMARK    2  A    between atoms: C_14  and  C_19
REMARK    3  A    between atoms: C_21  and  C_22
REMARK    4  A    between atoms: C_22  and  O_23
REMARK    5  A    between atoms: C_22  and  C_25
REMARK    6  A    between atoms: C_25  and  O_26
REMARK    7  A    between atoms: C_25  and  C_28
REMARK    8  A    between atoms: C_28  and  O_29
REMARK    9  A    between atoms: C_28  and  C_31
REMARK   10  A    between atoms: C_31  and  O_32
REMARK                            x       y       z     vdW  Elec       q    Type
REMARK                         _______ _______ _______ _____ _____    ______ ____
ROOT
ATOM      1 BR   UNL     1       3.187   3.434   0.912  0.00  0.00    -0.050 Br
ATOM      2  O   UNL     1      -5.012   0.673  -0.644  0.00  0.00    -0.266 OA
ATOM      3  O   UNL     1      -3.773  -3.680   0.157  0.00  0.00    -0.193 OA
ATOM      4  N   UNL     1      -0.455  -0.428   0.534  0.00  0.00    -0.270 N 
ATOM      5  N   UNL     1      -2.473   1.439  -0.150  0.00  0.00    -0.396 NA
ATOM      6  N   UNL     1      -2.149  -2.097   0.342  0.00  0.00    -0.303 NA
ATOM      7  N   UNL     1      -4.405  -1.538  -0.243  0.00  0.00    -0.196 N 
ATOM      8  C   UNL     1      -0.135   0.945   0.445  0.00  0.00    +0.150 C 
ATOM      9  C   UNL     1      -1.752  -0.860   0.287  0.00  0.00    +0.232 C 
ATOM     10  C   UNL     1      -1.157   1.854   0.103  0.00  0.00    +0.131 C 
ATOM     11  C   UNL     1      -2.775   0.183  -0.071  0.00  0.00    +0.230 C 
ATOM     12  C   UNL     1       1.154   1.461   0.680  0.00  0.00    +0.007 C 
ATOM     13  C   UNL     1      -0.879   3.227   0.005  0.00  0.00    +0.026 C 
ATOM     14  C   UNL     1       0.403   3.712   0.242  0.00  0.00    -0.014 C 
ATOM     15  C   UNL     1       1.419   2.829   0.580  0.00  0.00    +0.028 C 
ATOM     16  C   UNL     1      -4.195  -0.184  -0.355  0.00  0.00    +0.293 C 
ATOM     17  C   UNL     1      -3.445  -2.494   0.091  0.00  0.00    +0.273 C 
ATOM     18  H   UNL     1      -5.318  -1.864  -0.416  0.00  0.00    +0.169 HD
ENDROOT
BRANCH  14  19
ATOM     19  C   UNL     1       0.636   5.184   0.122  0.00  0.00    +0.027 C 
ATOM     20  C   UNL     1       0.725   5.638  -1.331  0.00  0.00    +0.005 C 
ENDBRANCH  14  19
BRANCH   4  21
ATOM     21  C   UNL     1       0.611  -1.363   0.890  0.00  0.00    +0.126 C 
BRANCH  21  22
ATOM     22  C   UNL     1       1.082  -2.121  -0.357  0.00  0.00    +0.159 C 
BRANCH  22  23
ATOM     23  O   UNL     1       0.140  -3.155  -0.644  0.00  0.00    -0.380 OA
ATOM     24  H   UNL     1      -0.742  -2.768  -0.755  0.00  0.00    +0.211 HD
ENDBRANCH  22  23
BRANCH  22  25
ATOM     25  C   UNL     1       2.482  -2.742  -0.181  0.00  0.00    +0.168 C 
BRANCH  25  26
ATOM     26  O   UNL     1       2.592  -3.316   1.121  0.00  0.00    -0.379 OA
ATOM     27  H   UNL     1       1.879  -3.960   1.252  0.00  0.00    +0.211 HD
ENDBRANCH  25  26
BRANCH  25  28
ATOM     28  C   UNL     1       3.622  -1.723  -0.368  0.00  0.00    +0.169 C 
BRANCH  28  29
ATOM     29  O   UNL     1       3.562  -1.194  -1.694  0.00  0.00    -0.379 OA
ATOM     30  H   UNL     1       2.692  -0.794  -1.844  0.00  0.00    +0.211 HD
ENDBRANCH  28  29
BRANCH  28  31
ATOM     31  C   UNL     1       5.000  -2.347  -0.157  0.00  0.00    +0.169 C 
BRANCH  31  32
ATOM     32  O   UNL     1       5.991  -1.336  -0.314  0.00  0.00    -0.379 OA
ATOM     33  H   UNL     1       6.871  -1.722  -0.182  0.00  0.00    +0.211 HD
ENDBRANCH  31  32
ENDBRANCH  28  31
ENDBRANCH  25  28
ENDBRANCH  22  25
ENDBRANCH  21  22
ENDBRANCH   4  21
TORSDOF 10
