123131989
  -OEChem-03292013293D

 47 49  0     1  0  0  0  0  0999 V2000
    0.1596    2.2395   -0.5823 O   0  0  0  0  0  0  0  0  0  0  0  0
   -0.1304   -2.3993    0.8744 O   0  0  0  0  0  0  0  0  0  0  0  0
   -4.3871   -2.8860   -0.8617 O   0  0  0  0  0  0  0  0  0  0  0  0
   -6.0046   -1.9014    0.4208 O   0  0  0  0  0  0  0  0  0  0  0  0
    7.2624   -0.2071    1.1544 O   0  0  0  0  0  0  0  0  0  0  0  0
    6.8246   -0.9161   -0.9589 O   0  0  0  0  0  0  0  0  0  0  0  0
   -2.1213    1.3904   -0.2650 C   0  0  2  0  0  0  0  0  0  0  0  0
   -1.6063    0.0874    0.3860 C   0  0  1  0  0  0  0  0  0  0  0  0
   -1.1324    2.5591   -0.0235 C   0  0  0  0  0  0  0  0  0  0  0  0
   -3.5724    1.6688    0.1787 C   0  0  0  0  0  0  0  0  0  0  0  0
   -2.4883   -1.0984   -0.0740 C   0  0  0  0  0  0  0  0  0  0  0  0
   -0.1325   -0.0960    0.0946 C   0  0  0  0  0  0  0  0  0  0  0  0
    0.6436    0.9777   -0.3630 C   0  0  0  0  0  0  0  0  0  0  0  0
   -1.5849    3.9175   -0.5871 C   0  0  0  0  0  0  0  0  0  0  0  0
   -0.8736    2.7487    1.4814 C   0  0  0  0  0  0  0  0  0  0  0  0
   -3.9544   -0.7854   -0.0287 C   0  0  0  0  0  0  0  0  0  0  0  0
   -4.4502    0.4520    0.1058 C   0  0  0  0  0  0  0  0  0  0  0  0
    0.5049   -1.3269    0.3217 C   0  0  0  0  0  0  0  0  0  0  0  0
    2.0040    0.8055   -0.6438 C   0  0  0  0  0  0  0  0  0  0  0  0
    2.6132   -0.4292   -0.4374 C   0  0  0  0  0  0  0  0  0  0  0  0
    1.8650   -1.4939    0.0528 C   0  0  0  0  0  0  0  0  0  0  0  0
   -4.9099   -1.8936   -0.1119 C   0  0  0  0  0  0  0  0  0  0  0  0
    4.0649   -0.6049   -0.7280 C   0  0  0  0  0  0  0  0  0  0  0  0
    4.9758   -0.2907    0.4649 C   0  0  0  0  0  0  0  0  0  0  0  0
    6.4303   -0.5179    0.1299 C   0  0  0  0  0  0  0  0  0  0  0  0
   -2.1396    1.2247   -1.3551 H   0  0  0  0  0  0  0  0  0  0  0  0
   -1.7118    0.1631    1.4777 H   0  0  0  0  0  0  0  0  0  0  0  0
   -4.0039    2.4413   -0.4683 H   0  0  0  0  0  0  0  0  0  0  0  0
   -3.6100    2.0491    1.2047 H   0  0  0  0  0  0  0  0  0  0  0  0
   -2.3288   -1.9597    0.5814 H   0  0  0  0  0  0  0  0  0  0  0  0
   -2.2139   -1.3978   -1.0940 H   0  0  0  0  0  0  0  0  0  0  0  0
   -2.4906    4.2875   -0.0972 H   0  0  0  0  0  0  0  0  0  0  0  0
   -1.7838    3.0251    2.0225 H   0  0  0  0  0  0  0  0  0  0  0  0
   -1.7801    3.8324   -1.6619 H   0  0  0  0  0  0  0  0  0  0  0  0
   -0.7964    4.6705   -0.4750 H   0  0  0  0  0  0  0  0  0  0  0  0
   -0.4317    1.8834    1.9827 H   0  0  0  0  0  0  0  0  0  0  0  0
   -0.1489    3.5591    1.6361 H   0  0  0  0  0  0  0  0  0  0  0  0
   -5.5215    0.6270    0.1579 H   0  0  0  0  0  0  0  0  0  0  0  0
    2.5877    1.6465   -1.0122 H   0  0  0  0  0  0  0  0  0  0  0  0
    2.3487   -2.4506    0.2370 H   0  0  0  0  0  0  0  0  0  0  0  0
    4.3454    0.0261   -1.5825 H   0  0  0  0  0  0  0  0  0  0  0  0
    4.2443   -1.6336   -1.0698 H   0  0  0  0  0  0  0  0  0  0  0  0
    0.4868   -3.1461    0.9553 H   0  0  0  0  0  0  0  0  0  0  0  0
    4.7181   -0.9325    1.3150 H   0  0  0  0  0  0  0  0  0  0  0  0
    4.8514    0.7560    0.7649 H   0  0  0  0  0  0  0  0  0  0  0  0
   -4.9982   -3.6492   -0.9413 H   0  0  0  0  0  0  0  0  0  0  0  0
    8.2038   -0.3477    0.9172 H   0  0  0  0  0  0  0  0  0  0  0  0
  1  9  1  0  0  0  0
  1 13  1  0  0  0  0
  2 18  1  0  0  0  0
  2 43  1  0  0  0  0
  3 22  1  0  0  0  0
  3 46  1  0  0  0  0
  4 22  2  0  0  0  0
  5 25  1  0  0  0  0
  5 47  1  0  0  0  0
  6 25  2  0  0  0  0
  7  8  1  0  0  0  0
  7  9  1  0  0  0  0
  7 10  1  0  0  0  0
  7 26  1  0  0  0  0
  8 11  1  0  0  0  0
  8 12  1  0  0  0  0
  8 27  1  0  0  0  0
  9 14  1  0  0  0  0
  9 15  1  0  0  0  0
 10 17  1  0  0  0  0
 10 28  1  0  0  0  0
 10 29  1  0  0  0  0
 11 16  1  0  0  0  0
 11 30  1  0  0  0  0
 11 31  1  0  0  0  0
 12 13  1  0  0  0  0
 12 18  2  0  0  0  0
 13 19  2  0  0  0  0
 14 32  1  0  0  0  0
 14 34  1  0  0  0  0
 14 35  1  0  0  0  0
 15 33  1  0  0  0  0
 15 36  1  0  0  0  0
 15 37  1  0  0  0  0
 16 17  2  0  0  0  0
 16 22  1  0  0  0  0
 17 38  1  0  0  0  0
 18 21  1  0  0  0  0
 19 20  1  0  0  0  0
 19 39  1  0  0  0  0
 20 21  2  0  0  0  0
 20 23  1  0  0  0  0
 21 40  1  0  0  0  0
 23 24  1  0  0  0  0
 23 41  1  0  0  0  0
 23 42  1  0  0  0  0
 24 25  1  0  0  0  0
 24 44  1  0  0  0  0
 24 45  1  0  0  0  0
M  END
> <PUBCHEM_COMPOUND_CID>
123131989

> <PUBCHEM_CONFORMER_RMSD>
0.8

> <PUBCHEM_CONFORMER_DIVERSEORDER>
1
6
5
3
4
2

> <PUBCHEM_MMFF94_PARTIAL_CHARGES>
28
1 -0.36
10 0.14
11 0.14
12 -0.14
13 0.08
16 -0.12
17 -0.29
18 0.08
19 -0.15
2 -0.53
20 -0.14
21 -0.15
22 0.71
23 0.14
24 0.06
25 0.66
3 -0.65
38 0.15
39 0.15
4 -0.57
40 0.15
43 0.45
46 0.5
47 0.5
5 -0.65
6 -0.57
8 0.14
9 0.28

> <PUBCHEM_EFFECTIVE_ROTOR_COUNT>
4.8

> <PUBCHEM_PHARMACOPHORE_FEATURES>
12
1 1 acceptor
1 2 donor
1 3 acceptor
1 4 acceptor
1 5 acceptor
1 6 acceptor
3 3 4 22 anion
3 5 6 25 anion
3 9 14 15 hydrophobe
6 1 7 8 9 12 13 rings
6 12 13 18 19 20 21 rings
6 7 8 10 11 16 17 rings

> <PUBCHEM_HEAVY_ATOM_COUNT>
25

> <PUBCHEM_ATOM_DEF_STEREO_COUNT>
2

> <PUBCHEM_ATOM_UDEF_STEREO_COUNT>
0

> <PUBCHEM_BOND_DEF_STEREO_COUNT>
0

> <PUBCHEM_BOND_UDEF_STEREO_COUNT>
0

> <PUBCHEM_ISOTOPIC_ATOM_COUNT>
0

> <PUBCHEM_COMPONENT_COUNT>
1

> <PUBCHEM_CACTVS_TAUTO_COUNT>
9

> <PUBCHEM_CONFORMER_ID>
0756D85500000001

> <PUBCHEM_MMFF94_ENERGY>
72.2526

> <PUBCHEM_FEATURE_SELFOVERLAP>
61.054

> <PUBCHEM_SHAPE_FINGERPRINT>
10411042 1 18337955713915330215
11265709 11 18409731793894502453
11607047 403 16549717883370007995
12107183 9 17323790068599410906
12166972 35 17676770971677626092
12236239 1 17603586305723728218
12403260 363 18260833687689438684
12553582 1 18338507630240634603
12788726 201 18334570213901431027
12838862 33 18264475222982495997
13140716 1 18263656210714030048
13288520 33 18411420613790202735
13631057 29 18411417293395367400
13782708 43 17988085487782530070
13862211 1 18335139825370298290
14068700 675 18335421292020857828
14787075 74 18409168848246617400
15183329 4 10737274737317681580
15196674 1 18409732893432750933
16087824 20 18337390415296098725
16945 1 18263918839870487949
17349148 13 17967256382001251206
17980427 23 16661507099019231852
18336668 15 18113338634759805797
18927931 339 18410018719084602079
20028762 73 18341332275232875766
20775438 99 17190074550878626983
21236236 1 18338800018380571556
21267235 1 18409175436932470099
21792961 116 18040427781635179567
221490 88 18047479099975117435
2297311 6 18272095976507218948
23402539 116 18410009935860715990
23557571 272 18272657830959318574
23559900 14 18341604898065522928
25147074 1 18263100910177036316
2748010 2 16751856550849117485
283562 15 18336548222387223747
335352 9 18410009936783667869
34934 24 18263078813076154633
350125 39 18410576180587264260
392239 28 18341899580161406952
469060 322 18336559221851619344
484989 97 17679029446420031531
59755656 215 18410009918734036070

> <PUBCHEM_SHAPE_MULTIPOLES>
479.27
13.41
3.3
0.92
20.5
2.09
0.12
-8.22
0.55
-4.66
-0.11
0.43
0.18
-0.13

> <PUBCHEM_SHAPE_SELFOVERLAP>
1032.244

> <PUBCHEM_SHAPE_VOLUME>
261.3

> <PUBCHEM_COORDINATE_TYPE>
2
5
10

$$$$
