12310193
  -OEChem-03292013303D

 49 53  0     1  0  0  0  0  0999 V2000
   -0.9572   -1.6026    0.6125 O   0  0  0  0  0  0  0  0  0  0  0  0
   -4.1245    0.5734   -1.2124 O   0  0  0  0  0  0  0  0  0  0  0  0
    3.8542   -1.2502    1.7256 O   0  0  0  0  0  0  0  0  0  0  0  0
   -2.3056   -1.4104    2.4696 O   0  0  0  0  0  0  0  0  0  0  0  0
    0.5332    3.4771    0.7475 O   0  0  0  0  0  0  0  0  0  0  0  0
   -0.3271    2.9684   -1.3012 O   0  0  0  0  0  0  0  0  0  0  0  0
    1.1187    0.3814    0.0844 C   0  0  2  0  0  0  0  0  0  0  0  0
   -0.8262   -0.8742   -0.6206 C   0  0  2  0  0  0  0  0  0  0  0  0
    0.6202   -0.6102   -1.0053 C   0  0  2  0  0  0  0  0  0  0  0  0
   -1.3300    0.5250   -0.2790 C   0  0  2  0  0  0  0  0  0  0  0  0
   -0.1260    1.2504    0.3885 C   0  0  2  0  0  0  0  0  0  0  0  0
   -2.5350    0.1325    0.5759 C   0  0  1  0  0  0  0  0  0  0  0  0
    2.3971    1.0271   -0.4718 C   0  0  0  0  0  0  0  0  0  0  0  0
    3.3933   -0.1517   -0.4002 C   0  0  2  0  0  0  0  0  0  0  0  0
    1.6666   -0.2732    1.3886 C   0  0  0  0  0  0  0  0  0  0  0  0
    1.5605   -1.7941   -1.1918 C   0  0  0  0  0  0  0  0  0  0  0  0
   -1.7162   -1.5185   -1.6860 C   0  0  0  0  0  0  0  0  0  0  0  0
    3.0081   -1.2890   -1.3776 C   0  0  0  0  0  0  0  0  0  0  0  0
   -3.6482   -0.4534   -0.3411 C   0  0  2  0  0  0  0  0  0  0  0  0
    3.0835   -0.6329    1.0037 C   0  0  0  0  0  0  0  0  0  0  0  0
   -3.1695   -1.6509   -1.1934 C   0  0  0  0  0  0  0  0  0  0  0  0
   -1.9493   -1.0204    1.3700 C   0  0  0  0  0  0  0  0  0  0  0  0
    0.0004    2.6356   -0.1719 C   0  0  0  0  0  0  0  0  0  0  0  0
   -3.0549    1.2617    1.4565 C   0  0  0  0  0  0  0  0  0  0  0  0
    4.8341    0.2989   -0.5704 C   0  0  0  0  0  0  0  0  0  0  0  0
    0.5986   -0.0754   -1.9689 H   0  0  0  0  0  0  0  0  0  0  0  0
   -1.6501    1.0582   -1.1816 H   0  0  0  0  0  0  0  0  0  0  0  0
   -0.2923    1.3382    1.4676 H   0  0  0  0  0  0  0  0  0  0  0  0
    2.7267    1.8604    0.1625 H   0  0  0  0  0  0  0  0  0  0  0  0
    2.2851    1.4050   -1.4943 H   0  0  0  0  0  0  0  0  0  0  0  0
    1.1289   -1.1664    1.7053 H   0  0  0  0  0  0  0  0  0  0  0  0
    1.7161    0.4504    2.2091 H   0  0  0  0  0  0  0  0  0  0  0  0
    1.2644   -2.3847   -2.0663 H   0  0  0  0  0  0  0  0  0  0  0  0
    1.5100   -2.4729   -0.3327 H   0  0  0  0  0  0  0  0  0  0  0  0
   -1.3448   -2.5179   -1.9413 H   0  0  0  0  0  0  0  0  0  0  0  0
   -1.6966   -0.9207   -2.6053 H   0  0  0  0  0  0  0  0  0  0  0  0
    3.6913   -2.1398   -1.2636 H   0  0  0  0  0  0  0  0  0  0  0  0
    3.1226   -0.9258   -2.4071 H   0  0  0  0  0  0  0  0  0  0  0  0
   -4.5035   -0.7883    0.2592 H   0  0  0  0  0  0  0  0  0  0  0  0
   -3.8301   -1.7996   -2.0556 H   0  0  0  0  0  0  0  0  0  0  0  0
   -3.2381   -2.5604   -0.5826 H   0  0  0  0  0  0  0  0  0  0  0  0
   -3.2291    2.1750    0.8781 H   0  0  0  0  0  0  0  0  0  0  0  0
   -3.9993    0.9791    1.9355 H   0  0  0  0  0  0  0  0  0  0  0  0
   -2.3593    1.5040    2.2666 H   0  0  0  0  0  0  0  0  0  0  0  0
    5.5266   -0.5431   -0.4614 H   0  0  0  0  0  0  0  0  0  0  0  0
    4.9930    0.7429   -1.5588 H   0  0  0  0  0  0  0  0  0  0  0  0
    5.1108    1.0432    0.1847 H   0  0  0  0  0  0  0  0  0  0  0  0
   -4.6006    1.2251   -0.6710 H   0  0  0  0  0  0  0  0  0  0  0  0
    0.6267    4.3890    0.3984 H   0  0  0  0  0  0  0  0  0  0  0  0
  1  8  1  0  0  0  0
  1 22  1  0  0  0  0
  2 19  1  0  0  0  0
  2 48  1  0  0  0  0
  3 20  2  0  0  0  0
  4 22  2  0  0  0  0
  5 23  1  0  0  0  0
  5 49  1  0  0  0  0
  6 23  2  0  0  0  0
  7  9  1  0  0  0  0
  7 11  1  0  0  0  0
  7 13  1  0  0  0  0
  7 15  1  0  0  0  0
  8  9  1  0  0  0  0
  8 10  1  0  0  0  0
  8 17  1  0  0  0  0
  9 16  1  0  0  0  0
  9 26  1  0  0  0  0
 10 11  1  0  0  0  0
 10 12  1  0  0  0  0
 10 27  1  0  0  0  0
 11 23  1  0  0  0  0
 11 28  1  0  0  0  0
 12 19  1  0  0  0  0
 12 22  1  0  0  0  0
 12 24  1  0  0  0  0
 13 14  1  0  0  0  0
 13 29  1  0  0  0  0
 13 30  1  0  0  0  0
 14 18  1  0  0  0  0
 14 20  1  0  0  0  0
 14 25  1  0  0  0  0
 15 20  1  0  0  0  0
 15 31  1  0  0  0  0
 15 32  1  0  0  0  0
 16 18  1  0  0  0  0
 16 33  1  0  0  0  0
 16 34  1  0  0  0  0
 17 21  1  0  0  0  0
 17 35  1  0  0  0  0
 17 36  1  0  0  0  0
 18 37  1  0  0  0  0
 18 38  1  0  0  0  0
 19 21  1  0  0  0  0
 19 39  1  0  0  0  0
 21 40  1  0  0  0  0
 21 41  1  0  0  0  0
 24 42  1  0  0  0  0
 24 43  1  0  0  0  0
 24 44  1  0  0  0  0
 25 45  1  0  0  0  0
 25 46  1  0  0  0  0
 25 47  1  0  0  0  0
M  END
> <PUBCHEM_COMPOUND_CID>
12310193

> <PUBCHEM_CONFORMER_RMSD>
0.6

> <PUBCHEM_CONFORMER_DIVERSEORDER>
1

> <PUBCHEM_MMFF94_PARTIAL_CHARGES>
17
1 -0.43
11 0.06
12 0.06
14 0.06
15 0.06
19 0.28
2 -0.68
20 0.45
22 0.66
23 0.66
3 -0.57
4 -0.57
48 0.4
49 0.5
5 -0.65
6 -0.57
8 0.28

> <PUBCHEM_EFFECTIVE_ROTOR_COUNT>
2.8

> <PUBCHEM_PHARMACOPHORE_FEATURES>
10
1 2 acceptor
1 2 donor
1 3 acceptor
1 4 acceptor
1 5 acceptor
1 6 acceptor
3 5 6 23 anion
5 7 8 9 10 11 rings
8 1 8 10 12 17 19 21 22 rings
8 7 9 13 14 15 16 18 20 rings

> <PUBCHEM_HEAVY_ATOM_COUNT>
25

> <PUBCHEM_ATOM_DEF_STEREO_COUNT>
8

> <PUBCHEM_ATOM_UDEF_STEREO_COUNT>
0

> <PUBCHEM_BOND_DEF_STEREO_COUNT>
0

> <PUBCHEM_BOND_UDEF_STEREO_COUNT>
0

> <PUBCHEM_ISOTOPIC_ATOM_COUNT>
0

> <PUBCHEM_COMPONENT_COUNT>
1

> <PUBCHEM_CACTVS_TAUTO_COUNT>
2

> <PUBCHEM_CONFORMER_ID>
00BBD6B100000001

> <PUBCHEM_MMFF94_ENERGY>
96.7776

> <PUBCHEM_FEATURE_SELFOVERLAP>
50.967

> <PUBCHEM_SHAPE_FINGERPRINT>
104564 63 18337393729807668444
10863032 1 16588026822486049722
10906281 52 18337401460574734421
11132069 177 18201715115762589140
11370993 70 17060326405831444231
11578080 2 17273962554706399336
12160290 23 17975983063815045036
12293681 4 18333737910096819809
12403814 3 18341898450621560516
12553582 1 18410296899932049440
12714826 92 17169012091129167099
12788726 201 18263642870778204200
13140716 1 18412266155338160664
13224815 77 18413392038070408662
133893 2 18048594021323007541
13583140 156 17895197752380456210
13681431 1 18264496250593744788
14022347 108 18118712952953937684
14115302 16 17167861933051805618
14181834 199 18196082472418232989
14223421 5 17610350706915265211
14787075 74 17536337056285521574
14955137 171 17839780206341384480
16752209 62 18043240241482798424
16945 1 17775280595045120351
17349148 13 18131343146344392319
17357779 13 18271794697072745285
19868273 325 18413109480624614084
200 152 17822285782469063082
20600515 1 18262822707996670516
20691752 17 18266193746170161575
21033648 29 17417259723369003547
21285901 2 18270115687198665741
23402539 116 18408882936869364102
23419403 2 17608662934943904475
23559900 14 16774074094379888898
2748010 2 18337955726225381580
296302 2 16950280710992211046
34934 24 18411141298797023964
394222 165 17329399149094395833
5845 1 18271531922293833708
6992083 37 18059870462358786229
70251023 43 17688037822073837514
7364860 26 17984136242955673036
74978 22 18265329697581900779
81228 2 18192719951122769384
90316 7 18339912715305076736

> <PUBCHEM_SHAPE_MULTIPOLES>
479.27
6.69
2.5
1.73
2.43
2.03
0.7
-1.59
0.08
-0.36
-0.67
-0.42
-0.46
-0.27

> <PUBCHEM_SHAPE_SELFOVERLAP>
1079.578

> <PUBCHEM_SHAPE_VOLUME>
255

> <PUBCHEM_COORDINATE_TYPE>
2
5
10

$$$$
