123132228
  -OEChem-03292013293D

 41 44  0     0  0  0  0  0  0999 V2000
    6.6513    0.5080    0.1558 S   0  0  0  0  0  0  0  0  0  0  0  0
   -6.2019    0.0418    0.9956 O   0  0  0  0  0  0  0  0  0  0  0  0
    7.0595    1.7304   -0.5230 O   0  0  0  0  0  0  0  0  0  0  0  0
    7.0737    0.2678    1.5283 O   0  0  0  0  0  0  0  0  0  0  0  0
   -1.4379   -1.0523   -0.1845 N   0  0  0  0  0  0  0  0  0  0  0  0
   -3.5128    0.0962   -0.0745 N   0  0  0  0  0  0  0  0  0  0  0  0
   -1.4714    1.2630    0.0815 N   0  0  0  0  0  0  0  0  0  0  0  0
    0.2996   -2.3901   -0.3295 N   0  0  0  0  0  0  0  0  0  0  0  0
   -0.8450   -3.1513   -0.4249 N   0  0  0  0  0  0  0  0  0  0  0  0
    0.6546    0.0837   -0.0378 C   0  0  0  0  0  0  0  0  0  0  0  0
    2.1293    0.1872    0.0095 C   0  0  0  0  0  0  0  0  0  0  0  0
   -0.0642   -1.1333   -0.1818 C   0  0  0  0  0  0  0  0  0  0  0  0
   -2.1430    0.1498   -0.0536 C   0  0  0  0  0  0  0  0  0  0  0  0
    4.9105    0.3844    0.0999 C   0  0  0  0  0  0  0  0  0  0  0  0
    2.8063    0.9439   -0.9469 C   0  0  0  0  0  0  0  0  0  0  0  0
    2.8430   -0.4711    1.0111 C   0  0  0  0  0  0  0  0  0  0  0  0
   -0.0940    1.2004    0.0905 C   0  0  0  0  0  0  0  0  0  0  0  0
    4.1969    1.0425   -0.9015 C   0  0  0  0  0  0  0  0  0  0  0  0
    4.2335   -0.3725    1.0564 C   0  0  0  0  0  0  0  0  0  0  0  0
   -4.3243    1.2668    0.0512 C   0  0  0  0  0  0  0  0  0  0  0  0
   -1.8740   -2.3383   -0.3369 C   0  0  0  0  0  0  0  0  0  0  0  0
   -5.7828    0.9019    0.0304 C   0  0  0  0  0  0  0  0  0  0  0  0
    7.2233   -0.8516   -0.8381 C   0  0  0  0  0  0  0  0  0  0  0  0
   -6.8310    1.2622   -0.7843 C   0  0  0  0  0  0  0  0  0  0  0  0
   -7.9671    0.5797   -0.2878 C   0  0  0  0  0  0  0  0  0  0  0  0
   -7.5322   -0.1491    0.7949 C   0  0  0  0  0  0  0  0  0  0  0  0
    2.2685    1.4587   -1.7395 H   0  0  0  0  0  0  0  0  0  0  0  0
    2.3318   -1.0636    1.7660 H   0  0  0  0  0  0  0  0  0  0  0  0
    0.3823    2.1686    0.2216 H   0  0  0  0  0  0  0  0  0  0  0  0
    4.7046    1.6309   -1.6607 H   0  0  0  0  0  0  0  0  0  0  0  0
    4.7693   -0.8986    1.8414 H   0  0  0  0  0  0  0  0  0  0  0  0
   -3.9908   -0.7930   -0.1862 H   0  0  0  0  0  0  0  0  0  0  0  0
   -4.1161    1.9634   -0.7692 H   0  0  0  0  0  0  0  0  0  0  0  0
   -4.1102    1.7838    0.9940 H   0  0  0  0  0  0  0  0  0  0  0  0
   -2.9136   -2.6291   -0.3779 H   0  0  0  0  0  0  0  0  0  0  0  0
    6.8467   -0.7313   -1.8556 H   0  0  0  0  0  0  0  0  0  0  0  0
    6.8675   -1.7860   -0.3999 H   0  0  0  0  0  0  0  0  0  0  0  0
    8.3153   -0.8338   -0.8404 H   0  0  0  0  0  0  0  0  0  0  0  0
   -6.7845    1.9325   -1.6306 H   0  0  0  0  0  0  0  0  0  0  0  0
   -8.9767    0.6144   -0.6709 H   0  0  0  0  0  0  0  0  0  0  0  0
   -8.0186   -0.8172    1.4905 H   0  0  0  0  0  0  0  0  0  0  0  0
  1  3  2  0  0  0  0
  1  4  2  0  0  0  0
  1 14  1  0  0  0  0
  1 23  1  0  0  0  0
  2 22  1  0  0  0  0
  2 26  1  0  0  0  0
  5 12  1  0  0  0  0
  5 13  1  0  0  0  0
  5 21  1  0  0  0  0
  6 13  1  0  0  0  0
  6 20  1  0  0  0  0
  6 32  1  0  0  0  0
  7 13  2  0  0  0  0
  7 17  1  0  0  0  0
  8  9  1  0  0  0  0
  8 12  2  0  0  0  0
  9 21  2  0  0  0  0
 10 11  1  0  0  0  0
 10 12  1  0  0  0  0
 10 17  2  0  0  0  0
 11 15  2  0  0  0  0
 11 16  1  0  0  0  0
 14 18  2  0  0  0  0
 14 19  1  0  0  0  0
 15 18  1  0  0  0  0
 15 27  1  0  0  0  0
 16 19  2  0  0  0  0
 16 28  1  0  0  0  0
 17 29  1  0  0  0  0
 18 30  1  0  0  0  0
 19 31  1  0  0  0  0
 20 22  1  0  0  0  0
 20 33  1  0  0  0  0
 20 34  1  0  0  0  0
 21 35  1  0  0  0  0
 22 24  2  0  0  0  0
 23 36  1  0  0  0  0
 23 37  1  0  0  0  0
 23 38  1  0  0  0  0
 24 25  1  0  0  0  0
 24 39  1  0  0  0  0
 25 26  2  0  0  0  0
 25 40  1  0  0  0  0
 26 41  1  0  0  0  0
M  END
> <PUBCHEM_COMPOUND_CID>
123132228

> <PUBCHEM_CONFORMER_RMSD>
0.8

> <PUBCHEM_CONFORMER_DIVERSEORDER>
1
8
33
10
32
26
34
7
18
31
9
16
27
17
35
15
5
11
4
30
20
6
2
28
22
25
3
14
29
24
21
13
19
23
12

> <PUBCHEM_MMFF94_PARTIAL_CHARGES>
36
1 1.2
10 0.02
11 0.03
12 0.14
13 0.51
14 -0.01
15 -0.15
16 -0.15
17 0.02
18 -0.15
19 -0.15
2 -0.28
20 0.55
21 0.04
22 -0.04
23 0.11
24 -0.15
25 -0.15
26 -0.01
27 0.15
28 0.15
29 0.15
3 -0.65
30 0.15
31 0.15
32 0.4
35 0.15
39 0.15
4 -0.65
40 0.15
41 0.15
5 0.29
6 -0.82
7 -0.62
8 -0.34
9 -0.34

> <PUBCHEM_EFFECTIVE_ROTOR_COUNT>
5

> <PUBCHEM_PHARMACOPHORE_FEATURES>
9
1 2 acceptor
1 3 acceptor
1 4 acceptor
1 6 donor
4 5 6 7 13 cation
5 2 22 24 25 26 rings
5 5 8 9 12 21 rings
6 11 14 15 16 18 19 rings
6 5 7 10 12 13 17 rings

> <PUBCHEM_HEAVY_ATOM_COUNT>
26

> <PUBCHEM_ATOM_DEF_STEREO_COUNT>
0

> <PUBCHEM_ATOM_UDEF_STEREO_COUNT>
0

> <PUBCHEM_BOND_DEF_STEREO_COUNT>
0

> <PUBCHEM_BOND_UDEF_STEREO_COUNT>
0

> <PUBCHEM_ISOTOPIC_ATOM_COUNT>
0

> <PUBCHEM_COMPONENT_COUNT>
1

> <PUBCHEM_CACTVS_TAUTO_COUNT>
5

> <PUBCHEM_CONFORMER_ID>
0756D94400000001

> <PUBCHEM_MMFF94_ENERGY>
49.9729

> <PUBCHEM_FEATURE_SELFOVERLAP>
45.806

> <PUBCHEM_SHAPE_FINGERPRINT>
10 15 18113618997239746593
10050765 1 18051692436410474585
102385 1 17624123206961077097
106641 1 17895196627668802001
11578080 2 17914324934199209880
11646440 116 17917717911524422489
11719270 70 18338230475964009587
12236239 1 18113898290979524304
12838862 33 18339625798399099497
13533116 47 17560803169815136934
13617811 41 18262532415984877668
14251764 18 17822008718086083865
14251764 46 18408323280586386737
15131766 46 16445901871195699476
15183329 4 13686302361760657371
15301273 46 13117997794864167305
15840311 113 17967819371016060980
15849732 13 18186804681538717165
19611394 137 17823433741771199809
20554085 129 17846204554125138146
20567600 254 18412259519993372871
21033648 29 17416948682444075354
21150785 3 14261351362102502737
21236236 1 18341048627471958135
21267235 1 18113901529432500660
21781051 124 18189920714809385739
22224240 67 18342172272050926211
23559900 14 18201715202611689480
23569917 315 18340778069754065983
23622692 88 18186239532809810588
249057 3 18411139164905432556
3178227 256 18410583898664230969
335352 9 18412547621993923276
4073 2 16298679376806514145
4098825 35 13901914384185490715
4325135 7 18040716966162160341
5104073 3 18116145752987231936
5486654 2 18272368668391860233
5758199 1 18202285784568722817
59755656 215 18270967847449364782
59755656 520 18273207604111513711
6086070 43 17203323450801448467
6669772 16 18060424573486577343

> <PUBCHEM_SHAPE_MULTIPOLES>
496.4
22.34
1.93
0.96
10.1
1.56
0.13
-8.06
1.41
0.38
-0.47
-0.74
-0.02
-0.01

> <PUBCHEM_SHAPE_SELFOVERLAP>
1081.149

> <PUBCHEM_SHAPE_VOLUME>
272

> <PUBCHEM_COORDINATE_TYPE>
2
5
10

$$$$
