REMARK  Name = 1232373
REMARK  7 active torsions:
REMARK  status: ('A' for Active; 'I' for Inactive)
REMARK    1  A    between atoms: N_4  and  C_25
REMARK    2  A    between atoms: C_7  and  C_11
REMARK    3  A    between atoms: C_10  and  C_14
REMARK    4  A    between atoms: C_16  and  C_22
REMARK    5  A    between atoms: C_22  and  O_23
REMARK    6  A    between atoms: C_25  and  C_28
REMARK    7  A    between atoms: N_27  and  C_31
REMARK                            x       y       z     vdW  Elec       q    Type
REMARK                         _______ _______ _______ _____ _____    ______ ____
ROOT
ATOM      1  S   UNL     1       0.542   0.029   0.697  0.00  0.00    -0.025 S 
ATOM      2  O   UNL     1      -1.915  -2.871   0.311  0.00  0.00    -0.269 OA
ATOM      3  O   UNL     1      -1.302   1.468   1.896  0.00  0.00    -0.262 OA
ATOM      4  N   UNL     1      -1.867  -0.703   1.206  0.00  0.00    -0.208 N 
ATOM      5  C   UNL     1       0.069  -1.547   0.202  0.00  0.00    +0.091 C 
ATOM      6  C   UNL     1      -1.344  -1.819   0.562  0.00  0.00    +0.262 C 
ATOM      7  C   UNL     1       0.848  -2.429  -0.425  0.00  0.00    +0.049 C 
ATOM      8  C   UNL     1      -1.040   0.394   1.375  0.00  0.00    +0.287 C 
ENDROOT
BRANCH   7  11
ATOM      9  O   UNL     1       3.022  -1.402  -0.096  0.00  0.00    -0.453 OA
ATOM     10  C   UNL     1       4.230  -1.443  -0.716  0.00  0.00    +0.145 C 
ATOM     11  C   UNL     1       2.257  -2.219  -0.809  0.00  0.00    +0.146 C 
ATOM     12  C   UNL     1       4.187  -2.285  -1.802  0.00  0.00    +0.041 C 
ATOM     13  C   UNL     1       2.868  -2.795  -1.853  0.00  0.00    +0.041 C 
BRANCH  10  14
ATOM     14  C   UNL     1       5.254  -0.628  -0.126  0.00  0.00    +0.031 C 
ATOM     15  C   UNL     1       5.450   0.701  -0.520  0.00  0.00    -0.013 C 
ATOM     16  C   UNL     1       6.453   1.470   0.070  0.00  0.00    +0.072 C 
ATOM     17  C   UNL     1       6.074  -1.176   0.867  0.00  0.00    +0.003 C 
ATOM     18  C   UNL     1       4.581   1.305  -1.581  0.00  0.00    +0.031 C 
ATOM     19  C   UNL     1       7.266   0.917   1.058  0.00  0.00    +0.006 C 
ATOM     20  C   UNL     1       7.077  -0.406   1.457  0.00  0.00    +0.000 C 
BRANCH  16  22
ATOM     21  O   UNL     1       6.457   3.323  -1.445  0.00  0.00    -0.245 OA
ATOM     22  C   UNL     1       6.675   2.856  -0.324  0.00  0.00    +0.338 C 
BRANCH  22  23
ATOM     23  O   UNL     1       7.161   3.612   0.697  0.00  0.00    -0.477 OA
ATOM     24  H   UNL     1       7.315   3.224   1.536  0.00  0.00    +0.295 HD
ENDBRANCH  22  23
ENDBRANCH  16  22
ENDBRANCH  10  14
ENDBRANCH   7  11
BRANCH   4  25
ATOM     25  C   UNL     1      -3.238  -0.669   1.683  0.00  0.00    +0.187 C 
BRANCH  25  28
ATOM     26  O   UNL     1      -3.745   0.225  -0.494  0.00  0.00    -0.273 OA
ATOM     27  N   UNL     1      -5.473  -0.090   1.066  0.00  0.00    -0.282 N 
ATOM     28  C   UNL     1      -4.159  -0.124   0.607  0.00  0.00    +0.247 C 
ATOM     29  H   UNL     1      -5.620  -0.410   1.986  0.00  0.00    +0.155 HD
BRANCH  27  31
ATOM     30  F   UNL     1      -9.955   1.629  -1.667  0.00  0.00    -0.204 F 
ATOM     31  C   UNL     1      -6.621   0.351   0.366  0.00  0.00    +0.050 C 
ATOM     32  C   UNL     1      -7.855   0.309   0.994  0.00  0.00    +0.017 C 
ATOM     33  C   UNL     1      -6.486   0.814  -0.932  0.00  0.00    +0.017 C 
ATOM     34  C   UNL     1      -8.986   0.744   0.304  0.00  0.00    +0.031 C 
ATOM     35  C   UNL     1      -7.618   1.249  -1.622  0.00  0.00    +0.031 C 
ATOM     36  C   UNL     1      -8.868   1.213  -1.004  0.00  0.00    +0.140 C 
ENDBRANCH  27  31
ENDBRANCH  25  28
ENDBRANCH   4  25
TORSDOF 7
