REMARK  Name = 123420816
REMARK  4 active torsions:
REMARK  status: ('A' for Active; 'I' for Inactive)
REMARK    1  A    between atoms: C_9  and  C_22
REMARK    2  A    between atoms: C_9  and  O_27
REMARK    3  A    between atoms: C_18  and  O_29
REMARK    4  A    between atoms: C_19  and  N_26
REMARK                            x       y       z     vdW  Elec       q    Type
REMARK                         _______ _______ _______ _____ _____    ______ ____
ROOT
ATOM      1  O   UNL     1      -0.150  -1.599  -1.317  0.00  0.00    -0.473 OA
ATOM      2  N   UNL     1      -1.157   3.445  -0.374  0.00  0.00    +0.387 N 
ATOM      3  C   UNL     1      -1.024   0.552  -0.599  0.00  0.00    +0.061 C 
ATOM      4  C   UNL     1      -1.721   1.260   0.572  0.00  0.00    +0.010 C 
ATOM      5  C   UNL     1      -1.383  -0.928  -0.869  0.00  0.00    +0.205 C 
ATOM      6  C   UNL     1      -0.942   2.593   0.821  0.00  0.00    -0.049 C 
ATOM      7  C   UNL     1      -1.135   1.436  -1.859  0.00  0.00    -0.015 C 
ATOM      8  C   UNL     1       0.412   0.341  -0.254  0.00  0.00    +0.014 C 
ATOM      9  C   UNL     1      -1.992  -1.678   0.351  0.00  0.00    +0.194 C 
ATOM     10  C   UNL     1       0.559   2.352   1.202  0.00  0.00    +0.006 C 
ATOM     11  C   UNL     1      -0.636   2.871  -1.620  0.00  0.00    -0.077 C 
ATOM     12  C   UNL     1       1.199   1.173   0.521  0.00  0.00    -0.023 C 
ATOM     13  C   UNL     1      -1.841   0.373   1.781  0.00  0.00    -0.030 C 
ATOM     14  C   UNL     1       0.857  -0.867  -0.744  0.00  0.00    +0.169 C 
ATOM     15  C   UNL     1      -1.956  -0.959   1.670  0.00  0.00    +0.006 C 
ATOM     16  C   UNL     1       2.530   0.795   0.705  0.00  0.00    +0.023 C 
ATOM     17  C   UNL     1      -0.710   4.822  -0.194  0.00  0.00    -0.101 C 
ATOM     18  C   UNL     1       2.169  -1.255  -0.584  0.00  0.00    +0.190 C 
ATOM     19  C   UNL     1       3.014  -0.402   0.138  0.00  0.00    +0.179 C 
ATOM     20  H   UNL     1      -2.172   3.471  -0.475  0.00  0.00    -0.080 HD
ENDROOT
BRANCH   9  22
ATOM     21  O   UNL     1      -4.327  -1.205   0.545  0.00  0.00    -0.293 OA
ATOM     22  C   UNL     1      -3.452  -1.952   0.111  0.00  0.00    +0.182 C 
ATOM     23  C   UNL     1      -3.788  -3.184  -0.684  0.00  0.00    +0.075 C 
ENDBRANCH   9  22
BRANCH  19  26
ATOM     24  O   UNL     1       4.669  -1.419   1.380  0.00  0.00    -0.126 OA
ATOM     25  O   UNL     1       5.235  -0.402  -0.481  0.00  0.00    -0.126 OA
ATOM     26  N   UNL     1       4.374  -0.759   0.357  0.00  0.00    +0.061 N 
ENDBRANCH  19  26
BRANCH   9  27
ATOM     27  O   UNL     1      -1.408  -2.966   0.510  0.00  0.00    -0.373 OA
ATOM     28  H   UNL     1      -0.456  -2.871   0.669  0.00  0.00    +0.211 HD
ENDBRANCH   9  27
BRANCH  18  29
ATOM     29  O   UNL     1       2.604  -2.439  -1.085  0.00  0.00    -0.502 OA
ATOM     30  H   UNL     1       2.016  -2.990  -1.564  0.00  0.00    +0.292 HD
ENDBRANCH  18  29
TORSDOF 4
