REMARK  Name = 12358462
REMARK  10 active torsions:
REMARK  status: ('A' for Active; 'I' for Inactive)
REMARK    1  A    between atoms: C_6  and  C_26
REMARK    2  A    between atoms: C_7  and  O_20
REMARK    3  A    between atoms: C_11  and  O_22
REMARK    4  A    between atoms: C_19  and  O_24
REMARK    5  A    between atoms: C_26  and  C_28
REMARK    6  A    between atoms: C_28  and  C_29
REMARK    7  A    between atoms: C_29  and  C_32
REMARK    8  A    between atoms: N_31  and  C_34
REMARK    9  A    between atoms: C_34  and  C_36
REMARK   10  A    between atoms: C_36  and  O_37
REMARK                            x       y       z     vdW  Elec       q    Type
REMARK                         _______ _______ _______ _____ _____    ______ ____
ROOT
ATOM      1  C   UNL     1      -0.960   1.169   0.108  0.00  0.00    +0.025 C 
ATOM      2  C   UNL     1       0.304   2.063   0.117  0.00  0.00    +0.005 C 
ATOM      3  C   UNL     1       1.551   1.345   0.655  0.00  0.00    +0.027 C 
ATOM      4  C   UNL     1       1.828   0.084  -0.234  0.00  0.00    +0.005 C 
ATOM      5  C   UNL     1       3.107  -0.705   0.249  0.00  0.00    +0.000 C 
ATOM      6  C   UNL     1      -1.988   2.219  -0.392  0.00  0.00    +0.002 C 
ATOM      7  C   UNL     1      -0.700  -0.034  -0.824  0.00  0.00    +0.110 C 
ATOM      8  C   UNL     1       0.564  -0.807  -0.396  0.00  0.00    +0.029 C 
ATOM      9  C   UNL     1       4.304   0.298   0.260  0.00  0.00    +0.005 C 
ATOM     10  C   UNL     1      -0.159   3.336   0.826  0.00  0.00    +0.000 C 
ATOM     11  C   UNL     1       2.784   2.269   0.737  0.00  0.00    +0.110 C 
ATOM     12  C   UNL     1      -1.631   3.494   0.407  0.00  0.00    +0.000 C 
ATOM     13  C   UNL     1       4.041   1.510   1.168  0.00  0.00    +0.029 C 
ATOM     14  C   UNL     1       3.459  -1.843  -0.750  0.00  0.00    +0.002 C 
ATOM     15  C   UNL     1      -1.358   0.639   1.512  0.00  0.00    +0.002 C 
ATOM     16  C   UNL     1       5.647  -0.372   0.598  0.00  0.00    +0.029 C 
ATOM     17  C   UNL     1       2.869  -1.338   1.645  0.00  0.00    +0.000 C 
ATOM     18  C   UNL     1       4.805  -2.521  -0.461  0.00  0.00    +0.029 C 
ATOM     19  C   UNL     1       5.958  -1.525  -0.357  0.00  0.00    +0.111 C 
ENDROOT
BRANCH   7  20
ATOM     20  O   UNL     1      -0.511   0.376  -2.178  0.00  0.00    -0.384 OA
ATOM     21  H   UNL     1      -1.291   0.867  -2.479  0.00  0.00    +0.210 HD
ENDBRANCH   7  20
BRANCH  11  22
ATOM     22  O   UNL     1       3.055   2.878  -0.525  0.00  0.00    -0.384 OA
ATOM     23  H   UNL     1       2.273   3.368  -0.823  0.00  0.00    +0.210 HD
ENDBRANCH  11  22
BRANCH  19  24
ATOM     24  O   UNL     1       6.234  -0.982  -1.648  0.00  0.00    -0.384 OA
ATOM     25  H   UNL     1       6.967  -0.350  -1.583  0.00  0.00    +0.210 HD
ENDBRANCH  19  24
BRANCH   6  26
ATOM     26  C   UNL     1      -3.456   1.836  -0.274  0.00  0.00    +0.001 C 
ATOM     27  C   UNL     1      -4.327   3.098  -0.255  0.00  0.00    +0.000 C 
BRANCH  26  28
ATOM     28  C   UNL     1      -3.922   0.907  -1.413  0.00  0.00    +0.010 C 
BRANCH  28  29
ATOM     29  C   UNL     1      -5.232   0.180  -1.106  0.00  0.00    +0.085 C 
BRANCH  29  32
ATOM     30  O   UNL     1      -5.796  -0.635   1.102  0.00  0.00    -0.275 OA
ATOM     31  N   UNL     1      -4.149  -1.727  -0.120  0.00  0.00    -0.295 N 
ATOM     32  C   UNL     1      -5.111  -0.750   0.089  0.00  0.00    +0.223 C 
ATOM     33  H   UNL     1      -3.657  -1.725  -0.973  0.00  0.00    +0.150 HD
BRANCH  31  34
ATOM     34  C   UNL     1      -3.834  -2.747   0.853  0.00  0.00    +0.200 C 
BRANCH  34  36
ATOM     35  O   UNL     1      -2.348  -4.629   1.060  0.00  0.00    -0.248 OA
ATOM     36  C   UNL     1      -2.754  -3.689   0.387  0.00  0.00    +0.334 C 
BRANCH  36  37
ATOM     37  O   UNL     1      -2.275  -3.397  -0.844  0.00  0.00    -0.479 OA
ATOM     38  H   UNL     1      -2.619  -2.666  -1.319  0.00  0.00    +0.295 HD
ENDBRANCH  36  37
ENDBRANCH  34  36
ENDBRANCH  31  34
ENDBRANCH  29  32
ENDBRANCH  28  29
ENDBRANCH  26  28
ENDBRANCH   6  26
TORSDOF 10
