REMARK  Name = 12358997
REMARK  12 active torsions:
REMARK  status: ('A' for Active; 'I' for Inactive)
REMARK    1  A    between atoms: C_3  and  O_10
REMARK    2  A    between atoms: C_6  and  C_17
REMARK    3  A    between atoms: O_10  and  C_12
REMARK    4  A    between atoms: C_12  and  C_13
REMARK    5  A    between atoms: C_17  and  O_18
REMARK    6  A    between atoms: O_18  and  C_20
REMARK    7  A    between atoms: C_20  and  C_21
REMARK    8  A    between atoms: C_21  and  C_22
REMARK    9  A    between atoms: C_21  and  O_27
REMARK   10  A    between atoms: C_21  and  C_29
REMARK   11  A    between atoms: C_22  and  O_25
REMARK   12  A    between atoms: C_29  and  O_31
REMARK                            x       y       z     vdW  Elec       q    Type
REMARK                         _______ _______ _______ _____ _____    ______ ____
ROOT
ATOM      1  N   UNL     1       2.747   2.694  -1.067  0.00  0.00    +0.396 N 
ATOM      2  C   UNL     1       1.832   1.673  -0.469  0.00  0.00    +0.006 C 
ATOM      3  C   UNL     1       2.739   0.604   0.143  0.00  0.00    +0.152 C 
ATOM      4  C   UNL     1       4.093   0.872  -0.489  0.00  0.00    +0.019 C 
ATOM      5  C   UNL     1       4.103   2.383  -0.590  0.00  0.00    -0.073 C 
ATOM      6  C   UNL     1       0.971   2.416   0.506  0.00  0.00    -0.023 C 
ATOM      7  C   UNL     1       2.272   4.010  -0.587  0.00  0.00    -0.050 C 
ATOM      8  C   UNL     1       1.222   3.727   0.435  0.00  0.00    -0.056 C 
ATOM      9  H   UNL     1       2.757   2.698  -2.087  0.00  0.00    -0.079 HD
ENDROOT
BRANCH   3  10
ATOM     10  O   UNL     1       2.278  -0.696  -0.181  0.00  0.00    -0.451 OA
BRANCH  10  12
ATOM     11  O   UNL     1       3.263  -1.544   1.719  0.00  0.00    -0.245 OA
ATOM     12  C   UNL     1       2.611  -1.692   0.696  0.00  0.00    +0.337 C 
BRANCH  12  13
ATOM     13  C   UNL     1       2.063  -2.998   0.217  0.00  0.00    +0.049 C 
ATOM     14  C   UNL     1       1.731  -4.046   1.237  0.00  0.00    +0.037 C 
ATOM     15  C   UNL     1       1.943  -3.131  -1.117  0.00  0.00    -0.024 C 
ATOM     16  C   UNL     1       1.413  -4.313  -1.864  0.00  0.00    +0.031 C 
ENDBRANCH  12  13
ENDBRANCH  10  12
ENDBRANCH   3  10
BRANCH   6  17
ATOM     17  C   UNL     1      -0.035   1.738   1.363  0.00  0.00    +0.229 C 
BRANCH  17  18
ATOM     18  O   UNL     1      -0.969   1.018   0.553  0.00  0.00    -0.442 OA
BRANCH  18  20
ATOM     19  O   UNL     1      -2.071   0.330   2.447  0.00  0.00    -0.247 OA
ATOM     20  C   UNL     1      -1.948   0.349   1.227  0.00  0.00    +0.346 C 
BRANCH  20  21
ATOM     21  C   UNL     1      -2.881  -0.388   0.254  0.00  0.00    +0.225 C 
BRANCH  21  22
ATOM     22  C   UNL     1      -2.190  -1.637  -0.387  0.00  0.00    +0.123 C 
ATOM     23  C   UNL     1      -1.754  -2.659   0.677  0.00  0.00    +0.032 C 
ATOM     24  C   UNL     1      -3.112  -2.354  -1.392  0.00  0.00    +0.032 C 
BRANCH  22  25
ATOM     25  O   UNL     1      -1.017  -1.238  -1.100  0.00  0.00    -0.384 OA
ATOM     26  H   UNL     1      -0.411  -0.781  -0.495  0.00  0.00    +0.210 HD
ENDBRANCH  22  25
ENDBRANCH  21  22
BRANCH  21  27
ATOM     27  O   UNL     1      -3.925  -0.899   1.112  0.00  0.00    -0.373 OA
ATOM     28  H   UNL     1      -4.571  -1.387   0.578  0.00  0.00    +0.211 HD
ENDBRANCH  21  27
BRANCH  21  29
ATOM     29  C   UNL     1      -3.584   0.591  -0.728  0.00  0.00    +0.152 C 
ATOM     30  C   UNL     1      -2.859   0.961  -2.016  0.00  0.00    +0.035 C 
BRANCH  29  31
ATOM     31  O   UNL     1      -3.892   1.805  -0.028  0.00  0.00    -0.351 OA
ATOM     32  C   UNL     1      -5.043   2.426  -0.570  0.00  0.00    +0.174 C 
ENDBRANCH  29  31
ENDBRANCH  21  29
ENDBRANCH  20  21
ENDBRANCH  18  20
ENDBRANCH  17  18
ENDBRANCH   6  17
TORSDOF 12
