REMARK  Name = 12359154
REMARK  2 active torsions:
REMARK  status: ('A' for Active; 'I' for Inactive)
REMARK    1  A    between atoms: P_1  and  O_21
REMARK    2  A    between atoms: C_9  and  N_13
REMARK                            x       y       z     vdW  Elec       q    Type
REMARK                         _______ _______ _______ _____ _____    ______ ____
ROOT
ATOM      1  P   UNL     1       3.915  -0.506   0.560  0.00  0.00    +0.476 P 
ATOM      2  O   UNL     1       0.404   0.923  -1.531  0.00  0.00    -0.335 OA
ATOM      3  O   UNL     1       2.825   0.595   1.068  0.00  0.00    -0.273 OA
ATOM      4  O   UNL     1       3.767  -0.519  -1.059  0.00  0.00    -0.271 OA
ATOM      5  O   UNL     1       5.309  -0.272   1.065  0.00  0.00    -0.227 OA
ATOM      6  C   UNL     1       1.561   0.525   0.448  0.00  0.00    +0.160 C 
ATOM      7  C   UNL     1       1.727   0.714  -1.045  0.00  0.00    +0.175 C 
ATOM      8  C   UNL     1       0.600   1.647   0.748  0.00  0.00    +0.084 C 
ATOM      9  C   UNL     1      -0.334   1.562  -0.463  0.00  0.00    +0.202 C 
ATOM     10  C   UNL     1       2.465  -0.464  -1.645  0.00  0.00    +0.186 C 
ENDROOT
BRANCH   9  13
ATOM     11  O   UNL     1      -2.842   2.582   0.431  0.00  0.00    -0.252 OA
ATOM     12  O   UNL     1      -4.718  -1.616   0.510  0.00  0.00    -0.270 OA
ATOM     13  N   UNL     1      -1.506   0.772  -0.195  0.00  0.00    -0.219 N 
ATOM     14  N   UNL     1      -3.764   0.482   0.466  0.00  0.00    -0.236 N 
ATOM     15  C   UNL     1      -1.434  -0.603  -0.380  0.00  0.00    +0.071 C 
ATOM     16  C   UNL     1      -2.706   1.370   0.245  0.00  0.00    +0.315 C 
ATOM     17  C   UNL     1      -2.449  -1.450  -0.168  0.00  0.00    +0.047 C 
ATOM     18  C   UNL     1      -3.747  -0.894   0.298  0.00  0.00    +0.250 C 
ATOM     19  C   UNL     1      -2.350  -2.927  -0.373  0.00  0.00    +0.037 C 
ATOM     20  H   UNL     1      -4.612   0.877   0.775  0.00  0.00    +0.159 HD
ENDBRANCH   9  13
BRANCH   1  21
ATOM     21  O   UNL     1       3.276  -1.921   1.019  0.00  0.00    -0.302 OA
ATOM     22  H   UNL     1       2.379  -2.003   0.658  0.00  0.00    +0.222 HD
ENDBRANCH   1  21
TORSDOF 2
