REMARK  Name = 12358996
REMARK  12 active torsions:
REMARK  status: ('A' for Active; 'I' for Inactive)
REMARK    1  A    between atoms: C_3  and  O_10
REMARK    2  A    between atoms: C_6  and  C_17
REMARK    3  A    between atoms: O_10  and  C_12
REMARK    4  A    between atoms: C_12  and  C_13
REMARK    5  A    between atoms: C_17  and  O_18
REMARK    6  A    between atoms: O_18  and  C_20
REMARK    7  A    between atoms: C_20  and  C_21
REMARK    8  A    between atoms: C_21  and  C_22
REMARK    9  A    between atoms: C_21  and  O_27
REMARK   10  A    between atoms: C_21  and  C_29
REMARK   11  A    between atoms: C_22  and  O_25
REMARK   12  A    between atoms: C_29  and  O_31
REMARK                            x       y       z     vdW  Elec       q    Type
REMARK                         _______ _______ _______ _____ _____    ______ ____
ROOT
ATOM      1  N   UNL     1       2.960   2.425  -1.002  0.00  0.00    +0.396 N 
ATOM      2  C   UNL     1       1.950   1.496  -0.407  0.00  0.00    +0.006 C 
ATOM      3  C   UNL     1       2.744   0.308   0.140  0.00  0.00    +0.152 C 
ATOM      4  C   UNL     1       4.101   0.440  -0.530  0.00  0.00    +0.019 C 
ATOM      5  C   UNL     1       4.284   1.943  -0.583  0.00  0.00    -0.073 C 
ATOM      6  C   UNL     1       1.213   2.299   0.621  0.00  0.00    -0.023 C 
ATOM      7  C   UNL     1       2.656   3.769  -0.465  0.00  0.00    -0.050 C 
ATOM      8  C   UNL     1       1.613   3.573   0.583  0.00  0.00    -0.056 C 
ATOM      9  H   UNL     1       2.939   2.465  -2.022  0.00  0.00    -0.079 HD
ENDROOT
BRANCH   3  10
ATOM     10  O   UNL     1       2.126  -0.917  -0.211  0.00  0.00    -0.451 OA
BRANCH  10  12
ATOM     11  O   UNL     1       3.062  -1.941   1.627  0.00  0.00    -0.245 OA
ATOM     12  C   UNL     1       2.366  -1.976   0.622  0.00  0.00    +0.337 C 
BRANCH  12  13
ATOM     13  C   UNL     1       1.655  -3.191   0.121  0.00  0.00    +0.049 C 
ATOM     14  C   UNL     1       1.233  -4.230   1.117  0.00  0.00    +0.037 C 
ATOM     15  C   UNL     1       1.480  -3.262  -1.211  0.00  0.00    -0.024 C 
ATOM     16  C   UNL     1       0.793  -4.347  -1.978  0.00  0.00    +0.031 C 
ENDBRANCH  12  13
ENDBRANCH  10  12
ENDBRANCH   3  10
BRANCH   6  17
ATOM     17  C   UNL     1       0.160   1.712   1.489  0.00  0.00    +0.229 C 
BRANCH  17  18
ATOM     18  O   UNL     1      -0.876   1.134   0.689  0.00  0.00    -0.442 OA
BRANCH  18  20
ATOM     19  O   UNL     1      -1.993   0.511   2.597  0.00  0.00    -0.247 OA
ATOM     20  C   UNL     1      -1.905   0.560   1.375  0.00  0.00    +0.346 C 
BRANCH  20  21
ATOM     21  C   UNL     1      -2.947  -0.030   0.411  0.00  0.00    +0.225 C 
BRANCH  21  22
ATOM     22  C   UNL     1      -2.427  -1.327  -0.293  0.00  0.00    +0.123 C 
ATOM     23  C   UNL     1      -2.081  -2.429   0.722  0.00  0.00    +0.032 C 
ATOM     24  C   UNL     1      -3.456  -1.895  -1.288  0.00  0.00    +0.032 C 
BRANCH  22  25
ATOM     25  O   UNL     1      -1.237  -1.040  -1.032  0.00  0.00    -0.384 OA
ATOM     26  H   UNL     1      -0.564  -0.679  -0.435  0.00  0.00    +0.210 HD
ENDBRANCH  22  25
ENDBRANCH  21  22
BRANCH  21  27
ATOM     27  O   UNL     1      -4.017  -0.446   1.287  0.00  0.00    -0.373 OA
ATOM     28  H   UNL     1      -4.732  -0.837   0.761  0.00  0.00    +0.211 HD
ENDBRANCH  21  27
BRANCH  21  29
ATOM     29  C   UNL     1      -3.560   1.059  -0.514  0.00  0.00    +0.152 C 
ATOM     30  C   UNL     1      -4.236   2.256   0.142  0.00  0.00    +0.035 C 
BRANCH  29  31
ATOM     31  O   UNL     1      -2.548   1.556  -1.402  0.00  0.00    -0.351 OA
ATOM     32  C   UNL     1      -3.113   1.988  -2.626  0.00  0.00    +0.174 C 
ENDBRANCH  29  31
ENDBRANCH  21  29
ENDBRANCH  20  21
ENDBRANCH  18  20
ENDBRANCH  17  18
ENDBRANCH   6  17
TORSDOF 12
