REMARK  Name = 12358373
REMARK  10 active torsions:
REMARK  status: ('A' for Active; 'I' for Inactive)
REMARK    1  A    between atoms: N_2  and  C_4
REMARK    2  A    between atoms: N_2  and  C_16
REMARK    3  A    between atoms: C_5  and  S_7
REMARK    4  A    between atoms: C_5  and  C_12
REMARK    5  A    between atoms: S_7  and  S_8
REMARK    6  A    between atoms: S_8  and  C_9
REMARK    7  A    between atoms: C_9  and  C_10
REMARK    8  A    between atoms: C_12  and  C_13
REMARK    9  A    between atoms: C_13  and  O_14
REMARK   10  A    between atoms: C_16  and  C_20
REMARK                            x       y       z     vdW  Elec       q    Type
REMARK                         _______ _______ _______ _____ _____    ______ ____
ROOT
ATOM      1  O   UNL     1       3.035   2.540   0.836  0.00  0.00    -0.265 OA
ATOM      2  N   UNL     1       1.377   1.799  -0.648  0.00  0.00    -0.250 N 
ATOM      3  C   UNL     1       1.903   2.587   0.367  0.00  0.00    +0.307 C 
ENDROOT
BRANCH   2   4
ATOM      4  C   UNL     1       0.081   1.964  -1.075  0.00  0.00    +0.035 C 
ATOM      5  C   UNL     1      -0.971   1.808  -0.237  0.00  0.00    +0.025 C 
ATOM      6  C   UNL     1      -0.023   2.310  -2.536  0.00  0.00    +0.048 C 
BRANCH   5   7
ATOM      7  S   UNL     1      -2.621   1.952  -0.837  0.00  0.00    -0.058 S 
BRANCH   7   8
ATOM      8  S   UNL     1      -2.942  -0.007  -1.349  0.00  0.00    -0.073 S 
BRANCH   8   9
ATOM      9  C   UNL     1      -3.619  -0.686   0.185  0.00  0.00    +0.095 C 
BRANCH   9  10
ATOM     10  C   UNL     1      -4.363  -1.952  -0.096  0.00  0.00    -0.014 C 
ATOM     11  C   UNL     1      -4.056  -3.134   0.451  0.00  0.00    -0.004 C 
ENDBRANCH   9  10
ENDBRANCH   8   9
ENDBRANCH   7   8
ENDBRANCH   5   7
BRANCH   5  12
ATOM     12  C   UNL     1      -0.828   1.458   1.236  0.00  0.00    +0.066 C 
BRANCH  12  13
ATOM     13  C   UNL     1      -1.362   2.549   2.162  0.00  0.00    +0.142 C 
BRANCH  13  14
ATOM     14  O   UNL     1      -1.162   2.203   3.526  0.00  0.00    -0.382 OA
ATOM     15  H   UNL     1      -1.508   2.910   4.093  0.00  0.00    +0.210 HD
ENDBRANCH  13  14
ENDBRANCH  12  13
ENDBRANCH   5  12
ENDBRANCH   2   4
BRANCH   2  16
ATOM     16  C   UNL     1       2.186   0.774  -1.291  0.00  0.00    +0.130 C 
BRANCH  16  20
ATOM     17  N   UNL     1       0.937  -2.694  -0.393  0.00  0.00    -0.340 NA
ATOM     18  N   UNL     1       2.776  -2.119   1.054  0.00  0.00    -0.186 NA
ATOM     19  N   UNL     1       0.197  -1.167  -2.050  0.00  0.00    -0.332 N 
ATOM     20  C   UNL     1       2.031  -0.563  -0.625  0.00  0.00    +0.062 C 
ATOM     21  C   UNL     1       1.078  -1.492  -0.989  0.00  0.00    +0.187 C 
ATOM     22  C   UNL     1       2.861  -0.935   0.414  0.00  0.00    +0.111 C 
ATOM     23  C   UNL     1       1.806  -2.939   0.606  0.00  0.00    +0.066 C 
ATOM     24  C   UNL     1       1.680  -4.258   1.289  0.00  0.00    +0.129 C 
ATOM     25  H   UNL     1      -0.493  -1.810  -2.332  0.00  0.00    +0.145 HD
ATOM     26  H   UNL     1       0.275  -0.297  -2.506  0.00  0.00    +0.145 HD
ENDBRANCH  16  20
ENDBRANCH   2  16
TORSDOF 10
