12358696
  -OEChem-03292013303D

 70 69  0     1  0  0  0  0  0999 V2000
    0.2619    0.5918    0.3728 O   0  0  0  0  0  0  0  0  0  0  0  0
    0.8885   -0.5871   -1.5062 O   0  0  0  0  0  0  0  0  0  0  0  0
   -1.5023    2.7195    1.0433 O   0  0  0  0  0  0  0  0  0  0  0  0
   -4.2560    2.2357    1.3035 O   0  0  0  0  0  0  0  0  0  0  0  0
   -4.0809   -0.5693    1.4796 O   0  0  0  0  0  0  0  0  0  0  0  0
   -5.7596    1.0787   -1.2820 O   0  0  0  0  0  0  0  0  0  0  0  0
   -6.0066   -2.2114    0.1579 O   0  0  0  0  0  0  0  0  0  0  0  0
   -6.4283   -1.4467   -1.9365 O   0  0  0  0  0  0  0  0  0  0  0  0
    3.4798    0.6808   -0.6740 N   0  0  0  0  0  0  0  0  0  0  0  0
    2.9516   -1.4339    0.5196 N   0  0  0  0  0  0  0  0  0  0  0  0
    2.5360   -0.0362    0.2138 C   0  0  0  0  0  0  0  0  0  0  0  0
    3.2772    2.1245   -0.7775 C   0  0  0  0  0  0  0  0  0  0  0  0
    4.8789    0.3683   -0.3908 C   0  0  0  0  0  0  0  0  0  0  0  0
    2.3261   -1.9202    1.7589 C   0  0  0  0  0  0  0  0  0  0  0  0
    2.5887   -2.3561   -0.5681 C   0  0  0  0  0  0  0  0  0  0  0  0
    1.1527   -0.0633   -0.4309 C   0  0  0  0  0  0  0  0  0  0  0  0
    2.1784    2.4114   -1.7958 C   0  0  0  0  0  0  0  0  0  0  0  0
    2.9254    2.7085    0.5878 C   0  0  0  0  0  0  0  0  0  0  0  0
    5.3668    1.1699    0.8126 C   0  0  0  0  0  0  0  0  0  0  0  0
    5.7250    0.6631   -1.6252 C   0  0  0  0  0  0  0  0  0  0  0  0
    2.7897   -1.0626    2.9321 C   0  0  0  0  0  0  0  0  0  0  0  0
    0.8057   -1.8958    1.6291 C   0  0  0  0  0  0  0  0  0  0  0  0
    3.2296   -1.8839   -1.8692 C   0  0  0  0  0  0  0  0  0  0  0  0
    3.0268   -3.7772   -0.2252 C   0  0  0  0  0  0  0  0  0  0  0  0
   -1.0819    0.6503   -0.1153 C   0  0  0  0  0  0  0  0  0  0  0  0
   -2.0092    1.3999    0.8451 C   0  0  2  0  0  0  0  0  0  0  0  0
   -3.4792    1.4835    0.3767 C   0  0  1  0  0  0  0  0  0  0  0  0
   -4.1278    0.0908    0.2112 C   0  0  2  0  0  0  0  0  0  0  0  0
   -5.5943    0.1051   -0.2604 C   0  0  2  0  0  0  0  0  0  0  0  0
   -6.0627   -1.2381   -0.7869 C   0  0  0  0  0  0  0  0  0  0  0  0
    2.4741    0.5069    1.1489 H   0  0  0  0  0  0  0  0  0  0  0  0
    4.1585    2.6476   -1.1599 H   0  0  0  0  0  0  0  0  0  0  0  0
    5.0540   -0.6881   -0.1707 H   0  0  0  0  0  0  0  0  0  0  0  0
    2.6667   -2.9295    2.0076 H   0  0  0  0  0  0  0  0  0  0  0  0
    1.5260   -2.4866   -0.7700 H   0  0  0  0  0  0  0  0  0  0  0  0
    1.1674    2.2483   -1.4210 H   0  0  0  0  0  0  0  0  0  0  0  0
    2.3162    1.8277   -2.7130 H   0  0  0  0  0  0  0  0  0  0  0  0
    2.2210    3.4685   -2.0862 H   0  0  0  0  0  0  0  0  0  0  0  0
    1.8692    2.5616    0.8406 H   0  0  0  0  0  0  0  0  0  0  0  0
    3.4999    2.4275    1.4646 H   0  0  0  0  0  0  0  0  0  0  0  0
    3.0374    3.7997    0.5201 H   0  0  0  0  0  0  0  0  0  0  0  0
    6.3929    0.8454    1.0371 H   0  0  0  0  0  0  0  0  0  0  0  0
    4.8087    0.9474    1.7254 H   0  0  0  0  0  0  0  0  0  0  0  0
    5.4617    2.2463    0.6431 H   0  0  0  0  0  0  0  0  0  0  0  0
    6.7272    0.2368   -1.4947 H   0  0  0  0  0  0  0  0  0  0  0  0
    5.3007    0.2080   -2.5267 H   0  0  0  0  0  0  0  0  0  0  0  0
    5.8701    1.7298   -1.8198 H   0  0  0  0  0  0  0  0  0  0  0  0
    2.2989   -0.0884    3.0128 H   0  0  0  0  0  0  0  0  0  0  0  0
    3.8752   -0.9164    2.9203 H   0  0  0  0  0  0  0  0  0  0  0  0
    2.5578   -1.5842    3.8695 H   0  0  0  0  0  0  0  0  0  0  0  0
    0.3644   -0.9579    1.9702 H   0  0  0  0  0  0  0  0  0  0  0  0
    0.3429   -2.2357    0.7047 H   0  0  0  0  0  0  0  0  0  0  0  0
    0.4259   -2.6171    2.3692 H   0  0  0  0  0  0  0  0  0  0  0  0
    4.3221   -1.9381   -1.8158 H   0  0  0  0  0  0  0  0  0  0  0  0
    2.9433   -0.9261   -2.2967 H   0  0  0  0  0  0  0  0  0  0  0  0
    2.9622   -2.6036   -2.6566 H   0  0  0  0  0  0  0  0  0  0  0  0
    4.0494   -3.8059    0.1690 H   0  0  0  0  0  0  0  0  0  0  0  0
    2.3567   -4.2720    0.4852 H   0  0  0  0  0  0  0  0  0  0  0  0
    3.0194   -4.4059   -1.1241 H   0  0  0  0  0  0  0  0  0  0  0  0
   -1.4299   -0.3766   -0.2605 H   0  0  0  0  0  0  0  0  0  0  0  0
   -1.0727    1.1665   -1.0829 H   0  0  0  0  0  0  0  0  0  0  0  0
   -1.9628    0.9283    1.8341 H   0  0  0  0  0  0  0  0  0  0  0  0
   -3.5104    2.0324   -0.5712 H   0  0  0  0  0  0  0  0  0  0  0  0
   -3.5430   -0.5025   -0.4993 H   0  0  0  0  0  0  0  0  0  0  0  0
   -6.2605    0.3790    0.5670 H   0  0  0  0  0  0  0  0  0  0  0  0
   -0.5795    2.6369    1.3386 H   0  0  0  0  0  0  0  0  0  0  0  0
   -4.2345    1.7668    2.1552 H   0  0  0  0  0  0  0  0  0  0  0  0
   -4.3951   -1.4802    1.3511 H   0  0  0  0  0  0  0  0  0  0  0  0
   -6.7120    1.1535   -1.4645 H   0  0  0  0  0  0  0  0  0  0  0  0
   -6.2976   -3.0798   -0.1936 H   0  0  0  0  0  0  0  0  0  0  0  0
  1 16  1  0  0  0  0
  1 25  1  0  0  0  0
  2 16  2  0  0  0  0
  3 26  1  0  0  0  0
  3 66  1  0  0  0  0
  4 27  1  0  0  0  0
  4 67  1  0  0  0  0
  5 28  1  0  0  0  0
  5 68  1  0  0  0  0
  6 29  1  0  0  0  0
  6 69  1  0  0  0  0
  7 30  1  0  0  0  0
  7 70  1  0  0  0  0
  8 30  2  0  0  0  0
  9 11  1  0  0  0  0
  9 12  1  0  0  0  0
  9 13  1  0  0  0  0
 10 11  1  0  0  0  0
 10 14  1  0  0  0  0
 10 15  1  0  0  0  0
 11 16  1  0  0  0  0
 11 31  1  0  0  0  0
 12 17  1  0  0  0  0
 12 18  1  0  0  0  0
 12 32  1  0  0  0  0
 13 19  1  0  0  0  0
 13 20  1  0  0  0  0
 13 33  1  0  0  0  0
 14 21  1  0  0  0  0
 14 22  1  0  0  0  0
 14 34  1  0  0  0  0
 15 23  1  0  0  0  0
 15 24  1  0  0  0  0
 15 35  1  0  0  0  0
 17 36  1  0  0  0  0
 17 37  1  0  0  0  0
 17 38  1  0  0  0  0
 18 39  1  0  0  0  0
 18 40  1  0  0  0  0
 18 41  1  0  0  0  0
 19 42  1  0  0  0  0
 19 43  1  0  0  0  0
 19 44  1  0  0  0  0
 20 45  1  0  0  0  0
 20 46  1  0  0  0  0
 20 47  1  0  0  0  0
 21 48  1  0  0  0  0
 21 49  1  0  0  0  0
 21 50  1  0  0  0  0
 22 51  1  0  0  0  0
 22 52  1  0  0  0  0
 22 53  1  0  0  0  0
 23 54  1  0  0  0  0
 23 55  1  0  0  0  0
 23 56  1  0  0  0  0
 24 57  1  0  0  0  0
 24 58  1  0  0  0  0
 24 59  1  0  0  0  0
 25 26  1  0  0  0  0
 25 60  1  0  0  0  0
 25 61  1  0  0  0  0
 26 27  1  0  0  0  0
 26 62  1  0  0  0  0
 27 28  1  0  0  0  0
 27 63  1  0  0  0  0
 28 29  1  0  0  0  0
 28 64  1  0  0  0  0
 29 30  1  0  0  0  0
 29 65  1  0  0  0  0
M  END
> <PUBCHEM_COMPOUND_CID>
12358696

> <PUBCHEM_CONFORMER_RMSD>
1.2

> <PUBCHEM_CONFORMER_DIVERSEORDER>
3
12
11
13
28
27
25
21
20
7
29
15
17
6
9
1
26
24
5
8
4
18
16
10
30
14
23
2
22
19

> <PUBCHEM_MMFF94_PARTIAL_CHARGES>
27
1 -0.43
10 -0.81
11 0.6
12 0.27
13 0.27
14 0.27
15 0.27
16 0.66
2 -0.57
25 0.28
26 0.28
27 0.28
28 0.28
29 0.34
3 -0.68
30 0.66
4 -0.68
5 -0.68
6 -0.68
66 0.4
67 0.4
68 0.4
69 0.4
7 -0.65
70 0.5
8 -0.57
9 -0.81

> <PUBCHEM_EFFECTIVE_ROTOR_COUNT>
14

> <PUBCHEM_PHARMACOPHORE_FEATURES>
18
1 10 cation
1 2 acceptor
1 3 acceptor
1 3 donor
1 4 acceptor
1 4 donor
1 5 acceptor
1 5 donor
1 6 acceptor
1 6 donor
1 7 acceptor
1 8 acceptor
1 9 cation
3 12 17 18 hydrophobe
3 13 19 20 hydrophobe
3 14 21 22 hydrophobe
3 15 23 24 hydrophobe
3 7 8 30 anion

> <PUBCHEM_HEAVY_ATOM_COUNT>
30

> <PUBCHEM_ATOM_DEF_STEREO_COUNT>
4

> <PUBCHEM_ATOM_UDEF_STEREO_COUNT>
0

> <PUBCHEM_BOND_DEF_STEREO_COUNT>
0

> <PUBCHEM_BOND_UDEF_STEREO_COUNT>
0

> <PUBCHEM_ISOTOPIC_ATOM_COUNT>
0

> <PUBCHEM_COMPONENT_COUNT>
1

> <PUBCHEM_CACTVS_TAUTO_COUNT>
1

> <PUBCHEM_CONFORMER_ID>
00BC942800000003

> <PUBCHEM_MMFF94_ENERGY>
107.416

> <PUBCHEM_FEATURE_SELFOVERLAP>
91.454

> <PUBCHEM_SHAPE_FINGERPRINT>
10366900 7 18041287624886098032
11421498 54 16558486201091738306
11443803 9 18336541729525313088
11578080 2 17169265928181381980
12107183 9 17693666917980572289
13583140 156 17822016436527423657
13692114 37 18266169720508684506
13782708 43 16487260945434190908
14950920 106 12319454420561809471
15142383 8 12175356772488766379
15183329 4 18041550383286259237
15250474 111 18199185097111752839
17134984 74 17969212495166710963
17492 89 18269558251957027335
18681886 176 18202564007860070828
20511986 3 18261658334194549239
20691752 17 17533803528256020752
21054139 6 18410011069594912423
22393880 68 18041278751847193503
23559900 14 17985831436862019101
25222932 49 17775278400111422605
2838139 119 8502383209534897827
3004659 81 18408880729324661143
4340502 62 18186800309293651522
484989 97 18120948453451416674
5104073 3 17988366949361992891
59755656 215 18410298021176924886
6669772 16 17771616026012052576
6913067 236 17821722853510729412
7495541 125 15554446301552684956

> <PUBCHEM_SHAPE_MULTIPOLES>
560.47
14.55
3.34
1.95
23.63
0.92
0.43
1
-4.54
-2.1
0.06
-0.91
0.53
-1.46

> <PUBCHEM_SHAPE_SELFOVERLAP>
1104.427

> <PUBCHEM_SHAPE_VOLUME>
336.2

> <PUBCHEM_COORDINATE_TYPE>
2
5
10

$$$$
