12359154
  -OEChem-03292013303D

 33 35  0     1  0  0  0  0  0999 V2000
    3.9153   -0.5057    0.5603 P   0  0  2  0  0  0  0  0  0  0  0  0
    0.4041    0.9235   -1.5306 O   0  0  0  0  0  0  0  0  0  0  0  0
    2.8253    0.5945    1.0682 O   0  0  0  0  0  0  0  0  0  0  0  0
    3.7673   -0.5193   -1.0591 O   0  0  0  0  0  0  0  0  0  0  0  0
    3.2756   -1.9210    1.0186 O   0  0  0  0  0  0  0  0  0  0  0  0
    5.3094   -0.2719    1.0650 O   0  0  0  0  0  0  0  0  0  0  0  0
   -2.8416    2.5816    0.4307 O   0  0  0  0  0  0  0  0  0  0  0  0
   -4.7175   -1.6164    0.5101 O   0  0  0  0  0  0  0  0  0  0  0  0
   -1.5056    0.7724   -0.1954 N   0  0  0  0  0  0  0  0  0  0  0  0
   -3.7643    0.4822    0.4664 N   0  0  0  0  0  0  0  0  0  0  0  0
    1.5614    0.5247    0.4477 C   0  0  2  0  0  0  0  0  0  0  0  0
    1.7268    0.7143   -1.0446 C   0  0  1  0  0  0  0  0  0  0  0  0
    0.5995    1.6465    0.7483 C   0  0  0  0  0  0  0  0  0  0  0  0
   -0.3344    1.5621   -0.4628 C   0  0  1  0  0  0  0  0  0  0  0  0
    2.4647   -0.4643   -1.6448 C   0  0  0  0  0  0  0  0  0  0  0  0
   -1.4341   -0.6027   -0.3801 C   0  0  0  0  0  0  0  0  0  0  0  0
   -2.7059    1.3704    0.2454 C   0  0  0  0  0  0  0  0  0  0  0  0
   -2.4488   -1.4498   -0.1678 C   0  0  0  0  0  0  0  0  0  0  0  0
   -3.7473   -0.8940    0.2976 C   0  0  0  0  0  0  0  0  0  0  0  0
   -2.3499   -2.9273   -0.3732 C   0  0  0  0  0  0  0  0  0  0  0  0
    1.1031   -0.4355    0.7063 H   0  0  0  0  0  0  0  0  0  0  0  0
    2.3146    1.6221   -1.2452 H   0  0  0  0  0  0  0  0  0  0  0  0
    0.0975    1.5395    1.7148 H   0  0  0  0  0  0  0  0  0  0  0  0
    1.1326    2.6053    0.7634 H   0  0  0  0  0  0  0  0  0  0  0  0
   -0.6327    2.5640   -0.7908 H   0  0  0  0  0  0  0  0  0  0  0  0
    1.9432   -1.4116   -1.4722 H   0  0  0  0  0  0  0  0  0  0  0  0
    2.5709   -0.3444   -2.7273 H   0  0  0  0  0  0  0  0  0  0  0  0
   -0.4951   -1.0189   -0.7219 H   0  0  0  0  0  0  0  0  0  0  0  0
   -4.6388    0.8909    0.7842 H   0  0  0  0  0  0  0  0  0  0  0  0
    3.3725   -2.2040    1.9527 H   0  0  0  0  0  0  0  0  0  0  0  0
   -2.5547   -3.4578    0.5624 H   0  0  0  0  0  0  0  0  0  0  0  0
   -1.3537   -3.2283   -0.7144 H   0  0  0  0  0  0  0  0  0  0  0  0
   -3.0728   -3.2579   -1.1261 H   0  0  0  0  0  0  0  0  0  0  0  0
  1  3  1  0  0  0  0
  1  4  1  0  0  0  0
  1  5  1  0  0  0  0
  1  6  2  0  0  0  0
  2 12  1  0  0  0  0
  2 14  1  0  0  0  0
  3 11  1  0  0  0  0
  4 15  1  0  0  0  0
  5 30  1  0  0  0  0
  7 17  2  0  0  0  0
  8 19  2  0  0  0  0
  9 14  1  0  0  0  0
  9 16  1  0  0  0  0
  9 17  1  0  0  0  0
 10 17  1  0  0  0  0
 10 19  1  0  0  0  0
 10 29  1  0  0  0  0
 11 12  1  0  0  0  0
 11 13  1  0  0  0  0
 11 21  1  0  0  0  0
 12 15  1  0  0  0  0
 12 22  1  0  0  0  0
 13 14  1  0  0  0  0
 13 23  1  0  0  0  0
 13 24  1  0  0  0  0
 14 25  1  0  0  0  0
 15 26  1  0  0  0  0
 15 27  1  0  0  0  0
 16 18  2  0  0  0  0
 16 28  1  0  0  0  0
 18 19  1  0  0  0  0
 18 20  1  0  0  0  0
 20 31  1  0  0  0  0
 20 32  1  0  0  0  0
 20 33  1  0  0  0  0
M  END
> <PUBCHEM_COMPOUND_CID>
12359154

> <PUBCHEM_CONFORMER_RMSD>
0.6

> <PUBCHEM_CONFORMER_DIVERSEORDER>
1
6
7
4
3
5
2

> <PUBCHEM_MMFF94_PARTIAL_CHARGES>
22
1 1.51
10 -0.49
11 0.28
12 0.28
14 0.58
15 0.28
16 -0.04
17 0.69
18 -0.12
19 0.62
2 -0.56
20 0.14
28 0.15
29 0.37
3 -0.55
30 0.5
4 -0.55
5 -0.77
6 -0.7
7 -0.57
8 -0.57
9 -0.47

> <PUBCHEM_EFFECTIVE_ROTOR_COUNT>
2.2

> <PUBCHEM_PHARMACOPHORE_FEATURES>
9
1 10 donor
1 2 acceptor
1 5 acceptor
1 6 acceptor
1 7 acceptor
1 8 acceptor
5 2 11 12 13 14 rings
6 1 3 4 11 12 15 rings
6 9 10 16 17 18 19 rings

> <PUBCHEM_HEAVY_ATOM_COUNT>
20

> <PUBCHEM_ATOM_DEF_STEREO_COUNT>
3

> <PUBCHEM_ATOM_UDEF_STEREO_COUNT>
0

> <PUBCHEM_BOND_DEF_STEREO_COUNT>
0

> <PUBCHEM_BOND_UDEF_STEREO_COUNT>
0

> <PUBCHEM_ISOTOPIC_ATOM_COUNT>
0

> <PUBCHEM_COMPONENT_COUNT>
1

> <PUBCHEM_CACTVS_TAUTO_COUNT>
3

> <PUBCHEM_CONFORMER_ID>
00BC95F200000001

> <PUBCHEM_MMFF94_ENERGY>
33.2843

> <PUBCHEM_FEATURE_SELFOVERLAP>
45.774

> <PUBCHEM_SHAPE_FINGERPRINT>
10366900 7 17632569483033084896
11045977 3 18131061620160182120
11046707 91 18260264144285718157
11578080 2 17750494312699729196
12236239 1 17821451252769099700
12346177 29 18412255121714812005
12500047 106 18339919299231491469
12553582 1 18340214101781820311
12633257 1 17703516600734686947
13140716 1 18197219372168837131
14178342 30 18338518538755439862
14252887 29 17847066575614960878
15375358 24 17846212207582454564
15653759 3 17988647401762128421
15885798 251 18339931540658113067
16752209 62 18334847321576486823
17804303 29 18341898506440395449
1813 80 17386006139893935238
18186145 218 13190345655840664244
19049666 15 17630622119207442821
19422 9 18040724653304443453
19784866 240 17458340849047373675
200 152 16081087056794018860
20281475 54 18260829267882864492
20291156 8 18261109716088253707
20361792 2 17313380158030910133
20600515 1 18270685246933447884
21673915 165 18335414656354459730
21713013 43 14924224984122921987
22646028 28 18040434399414475914
22959321 94 18410577313888502575
23184049 29 18196935680756535831
232386 152 18409731797904581356
23402539 116 18130497601023804157
23557571 272 18272938211109518474
23559900 14 18057338184348969916
23598291 2 17749120954040919132
339767 52 18114451323136424323
4325135 7 18261955249921892212
465052 167 17896619451908707667
474 4 17098919431871326204
5104073 3 18340497780445805065
568465 68 17346878983331850098
58807428 26 18269572554709631363
5902787 121 18413108376971252988
602551 16 18412829079643071210

> <PUBCHEM_SHAPE_MULTIPOLES>
364.39
8.66
2.34
1.2
2.65
0.48
0.29
3.49
-2.52
-2.28
-0.18
1.19
0.02
-0.3

> <PUBCHEM_SHAPE_SELFOVERLAP>
766.544

> <PUBCHEM_SHAPE_VOLUME>
206.1

> <PUBCHEM_COORDINATE_TYPE>
2
5
10

$$$$
