123531112
  -OEChem-03292013293D

 42 42  0     1  0  0  0  0  0999 V2000
    4.1420   -0.9678   -0.7344 S   0  0  0  0  0  0  0  0  0  0  0  0
    2.7506    2.0237    0.5624 S   0  0  0  0  0  0  0  0  0  0  0  0
    0.3787   -0.5311    0.5105 O   0  0  0  0  0  0  0  0  0  0  0  0
    4.4536   -2.1097    0.1042 O   0  0  0  0  0  0  0  0  0  0  0  0
    5.0796    0.1336   -0.8496 O   0  0  0  0  0  0  0  0  0  0  0  0
    1.5385    2.3338    1.2960 O   0  0  0  0  0  0  0  0  0  0  0  0
    3.9501    1.6016    1.2619 O   0  0  0  0  0  0  0  0  0  0  0  0
    1.7522   -2.3565    0.5974 O   0  0  0  0  0  0  0  0  0  0  0  0
   -6.4776   -0.2392   -1.3593 O   0  5  0  0  0  0  0  0  0  0  0  0
   -6.0919    1.7268   -0.4621 O   0  0  0  0  0  0  0  0  0  0  0  0
    2.5772   -0.3857   -0.3462 N   0  0  0  0  0  0  0  0  0  0  0  0
    2.4003    0.9265   -0.7066 N   0  0  1  0  0  0  0  0  0  0  0  0
   -5.7440    0.5479   -0.7137 N   0  3  0  0  0  0  0  0  0  0  0  0
   -0.6562   -1.2954    1.1386 C   0  0  2  0  0  0  0  0  0  0  0  0
   -1.9996   -0.8093    0.6498 C   0  0  0  0  0  0  0  0  0  0  0  0
    1.5609   -1.1850    0.2879 C   0  0  0  0  0  0  0  0  0  0  0  0
    1.3245    1.2363   -1.6732 C   0  0  0  0  0  0  0  0  0  0  0  0
   -0.5240   -1.1856    2.6535 C   0  0  0  0  0  0  0  0  0  0  0  0
    3.8424   -1.5818   -2.3754 C   0  0  0  0  0  0  0  0  0  0  0  0
    3.1859    3.4655   -0.3817 C   0  0  0  0  0  0  0  0  0  0  0  0
   -2.8327   -1.6664   -0.0694 C   0  0  0  0  0  0  0  0  0  0  0  0
   -2.4076    0.4975    0.9177 C   0  0  0  0  0  0  0  0  0  0  0  0
   -4.0734   -1.2168   -0.5210 C   0  0  0  0  0  0  0  0  0  0  0  0
   -3.6483    0.9472    0.4661 C   0  0  0  0  0  0  0  0  0  0  0  0
   -4.4811    0.0901   -0.2533 C   0  0  0  0  0  0  0  0  0  0  0  0
   -0.5640   -2.3544    0.8643 H   0  0  0  0  0  0  0  0  0  0  0  0
    1.6636    2.0108   -2.3661 H   0  0  0  0  0  0  0  0  0  0  0  0
    1.0701    0.3522   -2.2668 H   0  0  0  0  0  0  0  0  0  0  0  0
    0.4215    1.5778   -1.1601 H   0  0  0  0  0  0  0  0  0  0  0  0
   -0.5038   -0.1421    2.9867 H   0  0  0  0  0  0  0  0  0  0  0  0
    0.4205   -1.6285    2.9881 H   0  0  0  0  0  0  0  0  0  0  0  0
   -1.3436   -1.6989    3.1670 H   0  0  0  0  0  0  0  0  0  0  0  0
    4.7734   -2.0143   -2.7485 H   0  0  0  0  0  0  0  0  0  0  0  0
    3.0690   -2.3509   -2.3326 H   0  0  0  0  0  0  0  0  0  0  0  0
    3.5374   -0.7535   -3.0175 H   0  0  0  0  0  0  0  0  0  0  0  0
    3.5222    4.2340    0.3183 H   0  0  0  0  0  0  0  0  0  0  0  0
    3.9986    3.2118   -1.0650 H   0  0  0  0  0  0  0  0  0  0  0  0
    2.3103    3.8264   -0.9230 H   0  0  0  0  0  0  0  0  0  0  0  0
   -2.5293   -2.6870   -0.2868 H   0  0  0  0  0  0  0  0  0  0  0  0
   -1.7681    1.1829    1.4671 H   0  0  0  0  0  0  0  0  0  0  0  0
   -4.6958   -1.9121   -1.0785 H   0  0  0  0  0  0  0  0  0  0  0  0
   -3.9319    1.9722    0.6909 H   0  0  0  0  0  0  0  0  0  0  0  0
  1  4  2  0  0  0  0
  1  5  2  0  0  0  0
  1 11  1  0  0  0  0
  1 19  1  0  0  0  0
  2  6  2  0  0  0  0
  2  7  2  0  0  0  0
  2 12  1  0  0  0  0
  2 20  1  0  0  0  0
  3 14  1  0  0  0  0
  3 16  1  0  0  0  0
  8 16  2  0  0  0  0
  9 13  1  0  0  0  0
 10 13  2  0  0  0  0
 11 12  1  0  0  0  0
 11 16  1  0  0  0  0
 12 17  1  0  0  0  0
 13 25  1  0  0  0  0
 14 15  1  0  0  0  0
 14 18  1  0  0  0  0
 14 26  1  0  0  0  0
 15 21  2  0  0  0  0
 15 22  1  0  0  0  0
 17 27  1  0  0  0  0
 17 28  1  0  0  0  0
 17 29  1  0  0  0  0
 18 30  1  0  0  0  0
 18 31  1  0  0  0  0
 18 32  1  0  0  0  0
 19 33  1  0  0  0  0
 19 34  1  0  0  0  0
 19 35  1  0  0  0  0
 20 36  1  0  0  0  0
 20 37  1  0  0  0  0
 20 38  1  0  0  0  0
 21 23  1  0  0  0  0
 21 39  1  0  0  0  0
 22 24  2  0  0  0  0
 22 40  1  0  0  0  0
 23 25  2  0  0  0  0
 23 41  1  0  0  0  0
 24 25  1  0  0  0  0
 24 42  1  0  0  0  0
M  CHG  2   9  -1  13   1
M  END
> <PUBCHEM_COMPOUND_CID>
123531112

> <PUBCHEM_CONFORMER_RMSD>
1

> <PUBCHEM_CONFORMER_DIVERSEORDER>
1
154
88
180
90
82
174
223
126
213
205
195
136
94
138
179
229
199
191
19
147
43
76
116
118
156
96
176
215
221
218
214
189
131
226
91
186
143
178
58
196
92
74
148
135
114
202
129
216
101
161
48
87
99
100
39
106
67
47
169
172
210
14
53
219
112
49
230
132
224
182
78
108
137
152
134
164
188
3
204
34
173
201
64
141
73
207
10
145
107
231
50
105
206
130
98
155
79
115
144
36
190
200
140
51
181
165
183
62
133
46
42
55
56
7
225
65
104
102
28
11
60
8
40
18
217
32
209
228
72
198
125
227
38
139
192
159
167
68
83
54
27
203
24
211
123
30
146
119
57
4
41
113
63
121
212
184
66
31
61
71
110
95
168
193
160
171
97
80
170
85
163
9
59
149
26
177
86
120
197
208
20
70
103
35
187
109
175
122
37
222
220
166
162
75
33
21
44
158
124
16
89
22
153
12
111
77
15
6
128
157
142
194
93
23
185
2
117
29
84
150
81
17
127
45
151
52
69
25
5
13

> <PUBCHEM_MMFF94_PARTIAL_CHARGES>
28
1 1.33
10 -0.52
11 -0.37
12 -0.49
13 0.91
14 0.42
15 -0.14
16 0.96
17 0.36
19 0.11
2 1.33
20 0.11
21 -0.15
22 -0.15
23 -0.15
24 -0.15
25 0.13
3 -0.43
39 0.15
4 -0.65
40 0.15
41 0.15
42 0.15
5 -0.65
6 -0.65
7 -0.65
8 -0.57
9 -0.52

> <PUBCHEM_EFFECTIVE_ROTOR_COUNT>
8

> <PUBCHEM_PHARMACOPHORE_FEATURES>
9
1 10 acceptor
1 4 acceptor
1 5 acceptor
1 6 acceptor
1 7 acceptor
1 8 acceptor
1 9 acceptor
1 9 anion
6 15 21 22 23 24 25 rings

> <PUBCHEM_HEAVY_ATOM_COUNT>
25

> <PUBCHEM_ATOM_DEF_STEREO_COUNT>
0

> <PUBCHEM_ATOM_UDEF_STEREO_COUNT>
1

> <PUBCHEM_BOND_DEF_STEREO_COUNT>
0

> <PUBCHEM_BOND_UDEF_STEREO_COUNT>
0

> <PUBCHEM_ISOTOPIC_ATOM_COUNT>
0

> <PUBCHEM_COMPONENT_COUNT>
1

> <PUBCHEM_CACTVS_TAUTO_COUNT>
1

> <PUBCHEM_CONFORMER_ID>
075CEF6800000001

> <PUBCHEM_MMFF94_ENERGY>
52.3866

> <PUBCHEM_FEATURE_SELFOVERLAP>
45.802

> <PUBCHEM_SHAPE_FINGERPRINT>
11089746 13 18335978705713695279
12166972 35 16917072135486308598
12403259 415 18114473365161470387
14251764 38 17971474258528698929
14341114 328 7997674411925748823
14848178 96 18261675973198394729
15183329 4 18342177713837787367
15210252 30 17458638825626299924
15238133 3 15647042772570752061
15342816 4 14476966678888791907
17980427 26 18043228306080341482
18186145 218 17967248715353083963
18222031 100 17632024057316572678
18335252 114 18192141613029234765
192875 21 17561091293084288496
21033648 29 17458350770764653897
221357 26 18341049631839989245
22224240 67 8862643682726509246
22393880 68 18411419539859013871
23557571 272 18120371214416251379
23559900 14 18201997746090991875
3004659 81 17917711292452187703
3060560 45 18412266108257570350
34797466 226 18273214231678301367
465052 167 13038900011052683230
474 4 17748826332654312867
495365 180 18411132576008550866
59682541 52 18131628976549686869
6328613 192 17677338350339084468
633830 44 18187639254140867299
6669772 16 15839840036889754210
7471813 234 18060421279235422408
7615 1 16987185819000065490
9981440 41 17903917000148686664

> <PUBCHEM_SHAPE_MULTIPOLES>
460.29
12.47
2.76
1.72
13.88
1.53
-0.18
1.95
5.8
-3.12
-0.18
-0.6
-0.43
1.11

> <PUBCHEM_SHAPE_SELFOVERLAP>
915.593

> <PUBCHEM_SHAPE_VOLUME>
273.8

> <PUBCHEM_COORDINATE_TYPE>
2
5
10

$$$$
