REMARK  Name = 123531112
REMARK  7 active torsions:
REMARK  status: ('A' for Active; 'I' for Inactive)
REMARK    1  A    between atoms: N_2  and  S_4
REMARK    2  A    between atoms: N_2  and  N_8
REMARK    3  A    between atoms: C_3  and  O_14
REMARK    4  A    between atoms: N_8  and  S_10
REMARK    5  A    between atoms: O_14  and  C_15
REMARK    6  A    between atoms: C_15  and  C_17
REMARK    7  A    between atoms: C_22  and  N_25
REMARK                            x       y       z     vdW  Elec       q    Type
REMARK                         _______ _______ _______ _____ _____    ______ ____
ROOT
ATOM      1  O   UNL     1       1.752  -2.357   0.597  0.00  0.00    -0.223 OA
ATOM      2  N   UNL     1       2.577  -0.386  -0.346  0.00  0.00    -0.046 N 
ATOM      3  C   UNL     1       1.561  -1.185   0.288  0.00  0.00    +0.439 C 
ENDROOT
BRANCH   2   4
ATOM      4  S   UNL     1       4.142  -0.968  -0.734  0.00  0.00    +0.078 S 
ATOM      5  O   UNL     1       4.454  -2.110   0.104  0.00  0.00    -0.153 OA
ATOM      6  O   UNL     1       5.080   0.134  -0.850  0.00  0.00    -0.153 OA
ATOM      7  C   UNL     1       3.842  -1.582  -2.375  0.00  0.00    +0.202 C 
ENDBRANCH   2   4
BRANCH   2   8
ATOM      8  N   UNL     1       2.400   0.926  -0.707  0.00  0.00    -0.061 NA
ATOM      9  C   UNL     1       1.325   1.236  -1.673  0.00  0.00    +0.140 C 
BRANCH   8  10
ATOM     10  S   UNL     1       2.751   2.024   0.562  0.00  0.00    +0.062 S 
ATOM     11  O   UNL     1       1.538   2.334   1.296  0.00  0.00    -0.156 OA
ATOM     12  O   UNL     1       3.950   1.602   1.262  0.00  0.00    -0.156 OA
ATOM     13  C   UNL     1       3.186   3.466  -0.382  0.00  0.00    +0.198 C 
ENDBRANCH   8  10
ENDBRANCH   2   8
BRANCH   3  14
ATOM     14  O   UNL     1       0.379  -0.531   0.510  0.00  0.00    -0.432 OA
BRANCH  14  15
ATOM     15  C   UNL     1      -0.656  -1.295   1.139  0.00  0.00    +0.193 C 
ATOM     16  C   UNL     1      -0.524  -1.186   2.654  0.00  0.00    +0.052 C 
BRANCH  15  17
ATOM     17  C   UNL     1      -2.000  -0.809   0.650  0.00  0.00    +0.017 C 
ATOM     18  C   UNL     1      -2.833  -1.666  -0.069  0.00  0.00    +0.001 C 
ATOM     19  C   UNL     1      -2.408   0.497   0.918  0.00  0.00    +0.001 C 
ATOM     20  C   UNL     1      -4.073  -1.217  -0.521  0.00  0.00    +0.024 C 
ATOM     21  C   UNL     1      -3.648   0.947   0.466  0.00  0.00    +0.024 C 
ATOM     22  C   UNL     1      -4.481   0.090  -0.253  0.00  0.00    +0.143 C 
BRANCH  22  25
ATOM     23  O   UNL     1      -6.478  -0.239  -1.359  0.00  0.00    -0.126 OA
ATOM     24  O   UNL     1      -6.092   1.727  -0.462  0.00  0.00    -0.126 OA
ATOM     25  N   UNL     1      -5.744   0.548  -0.714  0.00  0.00    +0.058 N 
ENDBRANCH  22  25
ENDBRANCH  15  17
ENDBRANCH  14  15
ENDBRANCH   3  14
TORSDOF 7
