REMARK  Name = 12358696
REMARK  19 active torsions:
REMARK  status: ('A' for Active; 'I' for Inactive)
REMARK    1  A    between atoms: C_2  and  O_3
REMARK    2  A    between atoms: C_2  and  C_21
REMARK    3  A    between atoms: O_3  and  C_4
REMARK    4  A    between atoms: C_4  and  C_5
REMARK    5  A    between atoms: C_5  and  O_6
REMARK    6  A    between atoms: C_5  and  C_8
REMARK    7  A    between atoms: C_8  and  O_9
REMARK    8  A    between atoms: C_8  and  C_11
REMARK    9  A    between atoms: C_11  and  O_12
REMARK   10  A    between atoms: C_11  and  C_14
REMARK   11  A    between atoms: C_14  and  O_15
REMARK   12  A    between atoms: C_14  and  C_18
REMARK   13  A    between atoms: C_18  and  O_19
REMARK   14  A    between atoms: C_21  and  N_22
REMARK   15  A    between atoms: C_21  and  N_30
REMARK   16  A    between atoms: N_22  and  C_24
REMARK   17  A    between atoms: N_22  and  C_27
REMARK   18  A    between atoms: N_30  and  C_32
REMARK   19  A    between atoms: N_30  and  C_35
REMARK                            x       y       z     vdW  Elec       q    Type
REMARK                         _______ _______ _______ _____ _____    ______ ____
ROOT
ATOM      1  O   UNL     1       0.888  -0.587  -1.506  0.00  0.00    -0.255 OA
ATOM      2  C   UNL     1       1.153  -0.063  -0.431  0.00  0.00    +0.279 C 
ENDROOT
BRANCH   2   3
ATOM      3  O   UNL     1       0.262   0.592   0.373  0.00  0.00    -0.448 OA
BRANCH   3   4
ATOM      4  C   UNL     1      -1.082   0.650  -0.115  0.00  0.00    +0.240 C 
BRANCH   4   5
ATOM      5  C   UNL     1      -2.009   1.400   0.845  0.00  0.00    +0.184 C 
BRANCH   5   6
ATOM      6  O   UNL     1      -1.502   2.720   1.043  0.00  0.00    -0.378 OA
ATOM      7  H   UNL     1      -0.579   2.671   1.338  0.00  0.00    +0.211 HD
ENDBRANCH   5   6
BRANCH   5   8
ATOM      8  C   UNL     1      -3.479   1.484   0.377  0.00  0.00    +0.171 C 
BRANCH   8   9
ATOM      9  O   UNL     1      -4.256   2.236   1.304  0.00  0.00    -0.379 OA
ATOM     10  H   UNL     1      -3.861   3.114   1.418  0.00  0.00    +0.211 HD
ENDBRANCH   8   9
BRANCH   8  11
ATOM     11  C   UNL     1      -4.128   0.091   0.211  0.00  0.00    +0.178 C 
BRANCH  11  12
ATOM     12  O   UNL     1      -4.081  -0.569   1.480  0.00  0.00    -0.379 OA
ATOM     13  H   UNL     1      -3.165  -0.591   1.799  0.00  0.00    +0.211 HD
ENDBRANCH  11  12
BRANCH  11  14
ATOM     14  C   UNL     1      -5.594   0.105  -0.260  0.00  0.00    +0.239 C 
BRANCH  14  15
ATOM     15  O   UNL     1      -5.760   1.079  -1.282  0.00  0.00    -0.373 OA
ATOM     16  H   UNL     1      -5.463   1.943  -0.956  0.00  0.00    +0.211 HD
ENDBRANCH  14  15
BRANCH  14  18
ATOM     17  O   UNL     1      -6.428  -1.447  -1.937  0.00  0.00    -0.248 OA
ATOM     18  C   UNL     1      -6.063  -1.238  -0.787  0.00  0.00    +0.344 C 
BRANCH  18  19
ATOM     19  O   UNL     1      -6.007  -2.211   0.158  0.00  0.00    -0.478 OA
ATOM     20  H   UNL     1      -5.720  -2.006   1.026  0.00  0.00    +0.295 HD
ENDBRANCH  18  19
ENDBRANCH  14  18
ENDBRANCH  11  14
ENDBRANCH   8  11
ENDBRANCH   5   8
ENDBRANCH   4   5
ENDBRANCH   3   4
ENDBRANCH   2   3
BRANCH   2  21
ATOM     21  C   UNL     1       2.536  -0.036   0.214  0.00  0.00    -0.018 C 
BRANCH  21  22
ATOM     22  N   UNL     1       3.480   0.681  -0.674  0.00  0.00    +0.387 N 
ATOM     23  H   UNL     1       3.248   0.311  -1.596  0.00  0.00    -0.082 HD
BRANCH  22  24
ATOM     24  C   UNL     1       3.277   2.124  -0.777  0.00  0.00    -0.060 C 
ATOM     25  C   UNL     1       2.178   2.411  -1.796  0.00  0.00    -0.023 C 
ATOM     26  C   UNL     1       2.925   2.708   0.588  0.00  0.00    -0.023 C 
ENDBRANCH  22  24
BRANCH  22  27
ATOM     27  C   UNL     1       4.879   0.368  -0.391  0.00  0.00    -0.060 C 
ATOM     28  C   UNL     1       5.367   1.170   0.813  0.00  0.00    -0.023 C 
ATOM     29  C   UNL     1       5.725   0.663  -1.625  0.00  0.00    -0.023 C 
ENDBRANCH  22  27
ENDBRANCH  21  22
BRANCH  21  30
ATOM     30  N   UNL     1       2.952  -1.434   0.520  0.00  0.00    +0.387 N 
ATOM     31  H   UNL     1       3.966  -1.413   0.628  0.00  0.00    -0.082 HD
BRANCH  30  32
ATOM     32  C   UNL     1       2.326  -1.920   1.759  0.00  0.00    -0.060 C 
ATOM     33  C   UNL     1       2.790  -1.063   2.932  0.00  0.00    -0.023 C 
ATOM     34  C   UNL     1       0.806  -1.896   1.629  0.00  0.00    -0.023 C 
ENDBRANCH  30  32
BRANCH  30  35
ATOM     35  C   UNL     1       2.589  -2.356  -0.568  0.00  0.00    -0.060 C 
ATOM     36  C   UNL     1       3.230  -1.884  -1.869  0.00  0.00    -0.023 C 
ATOM     37  C   UNL     1       3.027  -3.777  -0.225  0.00  0.00    -0.023 C 
ENDBRANCH  30  35
ENDBRANCH  21  30
ENDBRANCH   2  21
TORSDOF 19
