REMARK  Name = 123681
REMARK  12 active torsions:
REMARK  status: ('A' for Active; 'I' for Inactive)
REMARK    1  A    between atoms: CA_1  and  C_8
REMARK    2  A    between atoms: CA_1  and  N_14
REMARK    3  A    between atoms: CA_1  and  CB_29
REMARK    4  A    between atoms: CA_4  and  C_10
REMARK    5  A    between atoms: C_10  and  O_11
REMARK    6  A    between atoms: C_15  and  CA_19
REMARK    7  A    between atoms: C_23  and  CA_24
REMARK    8  A    between atoms: CA_24  and  N_25
REMARK    9  A    between atoms: CB_29  and  CG_30
REMARK   10  A    between atoms: CG_30  and  CD_31
REMARK   11  A    between atoms: CD_31  and  NE_32
REMARK   12  A    between atoms: NE_32  and  CZ_35
REMARK                            x       y       z     vdW  Elec       q    Type
REMARK                         _______ _______ _______ _____ _____    ______ ____
ROOT
ATOM      1  CA  ARG A   3      -0.640  -0.045  -0.334  0.00  0.00    +0.149 C 
ENDROOT
BRANCH   1   8
ATOM      2  O   ARG A   3      -1.289   1.272   1.540  0.00  0.00    -0.273 OA
ATOM      3  N   PRO A   4      -2.089   1.919  -0.533  0.00  0.00    -0.270 N 
ATOM      4  CA  PRO A   4      -2.709   3.162  -0.092  0.00  0.00    +0.175 C 
ATOM      5  CB  PRO A   4      -2.981   3.936  -1.377  0.00  0.00    +0.033 C 
ATOM      6  CD  PRO A   4      -2.201   1.759  -1.981  0.00  0.00    +0.094 C 
ATOM      7  CG  PRO A   4      -3.181   2.837  -2.418  0.00  0.00    +0.024 C 
ATOM      8  C   ARG A   3      -1.361   1.106   0.321  0.00  0.00    +0.244 C 
BRANCH   4  10
ATOM      9  OXT PRO A   4      -4.662   1.813   0.368  0.00  0.00    -0.248 OA
ATOM     10  C   PRO A   4      -3.978   2.795   0.616  0.00  0.00    +0.332 C 
BRANCH  10  11
ATOM     11  O   PRO A   4      -4.272   3.707   1.575  0.00  0.00    -0.479 OA
ATOM     12  H   PRO A   4      -3.705   4.439   1.714  0.00  0.00    +0.295 HD
ENDBRANCH  10  11
ENDBRANCH   4  10
ENDBRANCH   1   8
BRANCH   1  14
ATOM     13  O   PRO A   2       1.850   1.395  -0.722  0.00  0.00    -0.273 OA
ATOM     14  N   ARG A   3       0.576  -0.171   0.436  0.00  0.00    -0.297 N 
ATOM     15  C   PRO A   2       1.719   0.564   0.172  0.00  0.00    +0.241 C 
ATOM     16  H   ARG A   3       0.593  -0.811   1.184  0.00  0.00    +0.150 HD
BRANCH  15  19
ATOM     17  O   GLY A   1       4.027  -1.452  -0.835  0.00  0.00    -0.277 OA
ATOM     18  N   PRO A   2       4.082   0.484   0.433  0.00  0.00    -0.275 N 
ATOM     19  CA  PRO A   2       2.826   0.258   1.136  0.00  0.00    +0.152 C 
ATOM     20  CB  PRO A   2       2.851   1.242   2.300  0.00  0.00    +0.031 C 
ATOM     21  CG  PRO A   2       3.702   2.394   1.772  0.00  0.00    +0.024 C 
ATOM     22  CD  PRO A   2       4.744   1.694   0.912  0.00  0.00    +0.094 C 
ATOM     23  C   GLY A   1       4.616  -0.440  -0.453  0.00  0.00    +0.204 C 
BRANCH  23  24
ATOM     24  CA  GLY A   1       6.003  -0.130  -0.955  0.00  0.00    +0.001 C 
BRANCH  24  25
ATOM     25  N   GLY A   1       6.356  -1.203  -1.859  0.00  0.00    +0.386 N 
ATOM     26  H1  GLY A   1       7.292  -1.041  -2.230  0.00  0.00    -0.089 HD
ATOM     27  H2  GLY A   1       5.686  -1.234  -2.627  0.00  0.00    -0.089 HD
ATOM     28  H3  GLY A   1       6.338  -2.090  -1.356  0.00  0.00    -0.089 HD
ENDBRANCH  24  25
ENDBRANCH  23  24
ENDBRANCH  15  19
ENDBRANCH   1  14
BRANCH   1  29
ATOM     29  CB  ARG A   3      -1.461  -1.332  -0.303  0.00  0.00    +0.031 C 
BRANCH  29  30
ATOM     30  CG  ARG A   3      -0.739  -2.492  -1.000  0.00  0.00    +0.029 C 
BRANCH  30  31
ATOM     31  CD  ARG A   3      -1.562  -3.776  -0.997  0.00  0.00    +0.129 C 
BRANCH  31  32
ATOM     32  NE  ARG A   3      -1.829  -4.194   0.380  0.00  0.00    -0.240 NA
BRANCH  32  35
ATOM     33  NH1 ARG A   3      -3.050  -6.093  -0.440  0.00  0.00    -0.370 N 
ATOM     34  NH2 ARG A   3      -2.819  -5.735   1.800  0.00  0.00    -0.370 N 
ATOM     35  CZ  ARG A   3      -2.525  -5.276   0.537  0.00  0.00    +0.189 C 
ATOM     36 HH11 ARG A   3      -2.911  -5.876  -1.390  0.00  0.00    +0.159 HD
ATOM     37 HH12 ARG A   3      -3.565  -6.894  -0.188  0.00  0.00    +0.159 HD
ATOM     38 HH21 ARG A   3      -2.501  -5.241   2.590  0.00  0.00    +0.159 HD
ATOM     39 HH22 ARG A   3      -3.348  -6.558   1.913  0.00  0.00    +0.159 HD
ENDBRANCH  32  35
ENDBRANCH  31  32
ENDBRANCH  30  31
ENDBRANCH  29  30
ENDBRANCH   1  29
TORSDOF 12
