REMARK  Name = 123616
REMARK  5 active torsions:
REMARK  status: ('A' for Active; 'I' for Inactive)
REMARK    1  A    between atoms: C_6  and  O_24
REMARK    2  A    between atoms: C_6  and  C_26
REMARK    3  A    between atoms: C_22  and  C_28
REMARK    4  A    between atoms: C_28  and  N_30
REMARK    5  A    between atoms: C_31  and  C_34
REMARK                            x       y       z     vdW  Elec       q    Type
REMARK                         _______ _______ _______ _____ _____    ______ ____
ROOT
ATOM      1  O   UNL     1      -6.349  -0.834   0.807  0.00  0.00    -0.442 OA
ATOM      2  O   UNL     1      -3.208  -3.402  -0.400  0.00  0.00    -0.270 OA
ATOM      3  O   UNL     1      -6.814   1.125   1.800  0.00  0.00    -0.247 OA
ATOM      4  N   UNL     1      -1.694  -1.654  -0.369  0.00  0.00    -0.249 N 
ATOM      5  N   UNL     1       0.641   1.083  -0.364  0.00  0.00    -0.405 NA
ATOM      6  C   UNL     1      -4.889   1.088   0.343  0.00  0.00    +0.196 C 
ATOM      7  C   UNL     1      -3.777   0.101   0.118  0.00  0.00    +0.017 C 
ATOM      8  C   UNL     1      -1.435  -0.299  -0.244  0.00  0.00    +0.084 C 
ATOM      9  C   UNL     1      -4.058  -1.208  -0.013  0.00  0.00    +0.074 C 
ATOM     10  C   UNL     1      -0.451  -2.411  -0.625  0.00  0.00    +0.128 C 
ATOM     11  C   UNL     1       0.579  -1.330  -0.637  0.00  0.00    +0.029 C 
ATOM     12  C   UNL     1      -2.410   0.583  -0.013  0.00  0.00    +0.016 C 
ATOM     13  C   UNL     1      -0.004  -0.091  -0.414  0.00  0.00    +0.142 C 
ATOM     14  C   UNL     1      -2.959  -2.205  -0.277  0.00  0.00    +0.252 C 
ATOM     15  C   UNL     1      -5.458  -1.710   0.082  0.00  0.00    +0.239 C 
ATOM     16  C   UNL     1      -6.084   0.469   1.059  0.00  0.00    +0.346 C 
ATOM     17  C   UNL     1       1.939  -1.390  -0.828  0.00  0.00    +0.002 C 
ATOM     18  C   UNL     1       2.669  -0.190  -0.787  0.00  0.00    +0.025 C 
ATOM     19  C   UNL     1       1.975   1.032  -0.551  0.00  0.00    +0.113 C 
ATOM     20  C   UNL     1       4.060  -0.184  -0.975  0.00  0.00    -0.001 C 
ATOM     21  C   UNL     1       2.719   2.207  -0.515  0.00  0.00    +0.085 C 
ATOM     22  C   UNL     1       4.773   1.010  -0.934  0.00  0.00    -0.006 C 
ATOM     23  C   UNL     1       4.103   2.205  -0.704  0.00  0.00    -0.021 C 
ENDROOT
BRANCH   6  24
ATOM     24  O   UNL     1      -4.444   2.125   1.221  0.00  0.00    -0.373 OA
ATOM     25  H   UNL     1      -3.676   2.571   0.830  0.00  0.00    +0.211 HD
ENDBRANCH   6  24
BRANCH   6  26
ATOM     26  C   UNL     1      -5.359   1.718  -0.971  0.00  0.00    +0.042 C 
ATOM     27  C   UNL     1      -6.456   2.735  -0.731  0.00  0.00    +0.003 C 
ENDBRANCH   6  26
BRANCH  22  28
ATOM     28  C   UNL     1       6.251   1.007  -1.135  0.00  0.00    +0.116 C 
BRANCH  28  30
ATOM     29  O   UNL     1       7.077  -1.467   0.091  0.00  0.00    -0.274 OA
ATOM     30  N   UNL     1       6.972   0.854   0.103  0.00  0.00    -0.300 N 
ATOM     31  C   UNL     1       7.328  -0.384   0.617  0.00  0.00    +0.234 C 
ATOM     32  H   UNL     1       7.223   1.663   0.605  0.00  0.00    +0.150 HD
BRANCH  31  34
ATOM     33 BR   UNL     1       6.704  -0.294   3.316  0.00  0.00    -0.070 Br
ATOM     34  C   UNL     1       8.058  -0.288   1.929  0.00  0.00    +0.152 C 
ENDBRANCH  31  34
ENDBRANCH  28  30
ENDBRANCH  22  28
TORSDOF 5
