REMARK  Name = 123686
REMARK  11 active torsions:
REMARK  status: ('A' for Active; 'I' for Inactive)
REMARK    1  A    between atoms: N_1  and  C_4
REMARK    2  A    between atoms: N_1  and  C_18
REMARK    3  A    between atoms: C_4  and  C_5
REMARK    4  A    between atoms: C_5  and  O_6
REMARK    5  A    between atoms: C_5  and  C_8
REMARK    6  A    between atoms: C_8  and  O_9
REMARK    7  A    between atoms: O_9  and  C_10
REMARK    8  A    between atoms: C_11  and  C_17
REMARK    9  A    between atoms: C_18  and  C_19
REMARK   10  A    between atoms: C_19  and  N_21
REMARK   11  A    between atoms: N_22  and  C_26
REMARK                            x       y       z     vdW  Elec       q    Type
REMARK                         _______ _______ _______ _____ _____    ______ ____
ROOT
ATOM      1  N   UNL     1      -2.684  -1.935  -0.618  0.00  0.00    +0.387 N 
ATOM      2  H   UNL     1      -2.029  -1.193  -0.863  0.00  0.00    -0.084 HD
ATOM      3  H   UNL     1      -3.088  -2.347  -1.459  0.00  0.00    -0.084 HD
ENDROOT
BRANCH   1   4
ATOM      4  C   UNL     1      -3.761  -1.373   0.186  0.00  0.00    -0.048 C 
BRANCH   4   5
ATOM      5  C   UNL     1      -4.487  -0.236  -0.538  0.00  0.00    +0.133 C 
BRANCH   5   6
ATOM      6  O   UNL     1      -5.496   0.278   0.336  0.00  0.00    -0.383 OA
ATOM      7  H   UNL     1      -6.091  -0.441   0.600  0.00  0.00    +0.210 HD
ENDBRANCH   5   6
BRANCH   5   8
ATOM      8  C   UNL     1      -3.563   0.911  -0.941  0.00  0.00    +0.232 C 
BRANCH   8   9
ATOM      9  O   UNL     1      -2.988   1.473   0.234  0.00  0.00    -0.472 OA
BRANCH   9  10
ATOM     10  C   UNL     1      -1.734   2.009   0.110  0.00  0.00    +0.148 C 
ATOM     11  C   UNL     1      -0.662   1.523   0.859  0.00  0.00    +0.102 C 
ATOM     12  C   UNL     1      -1.539   3.061  -0.785  0.00  0.00    +0.038 C 
ATOM     13  C   UNL     1       0.605   2.088   0.712  0.00  0.00    +0.013 C 
ATOM     14  C   UNL     1      -0.272   3.627  -0.931  0.00  0.00    +0.003 C 
ATOM     15  C   UNL     1       0.799   3.140  -0.183  0.00  0.00    +0.001 C 
BRANCH  11  17
ATOM     16  N   UNL     1      -0.986  -0.430   2.531  0.00  0.00    -0.191 NA
ATOM     17  C   UNL     1      -0.841   0.444   1.782  0.00  0.00    +0.103 C 
ENDBRANCH  11  17
ENDBRANCH   9  10
ENDBRANCH   8   9
ENDBRANCH   5   8
ENDBRANCH   4   5
ENDBRANCH   1   4
BRANCH   1  18
ATOM     18  C   UNL     1      -1.975  -2.975   0.116  0.00  0.00    -0.060 C 
BRANCH  18  19
ATOM     19  C   UNL     1      -0.847  -3.544  -0.732  0.00  0.00    +0.068 C 
BRANCH  19  21
ATOM     20  O   UNL     1       1.487  -2.728   0.713  0.00  0.00    -0.252 OA
ATOM     21  N   UNL     1       0.085  -2.519  -1.114  0.00  0.00    -0.291 N 
ATOM     22  N   UNL     1       1.929  -1.150  -0.967  0.00  0.00    -0.268 N 
ATOM     23  C   UNL     1       1.210  -2.176  -0.349  0.00  0.00    +0.304 C 
ATOM     24  H   UNL     1      -0.073  -2.033  -1.955  0.00  0.00    +0.151 HD
ATOM     25  H   UNL     1       1.565  -0.819  -1.820  0.00  0.00    +0.156 HD
BRANCH  22  26
ATOM     26  C   UNL     1       3.116  -0.528  -0.516  0.00  0.00    +0.052 C 
ATOM     27  C   UNL     1       3.700   0.490  -1.269  0.00  0.00    +0.015 C 
ATOM     28  C   UNL     1       3.703  -0.932   0.683  0.00  0.00    +0.015 C 
ATOM     29  C   UNL     1       4.871   1.104  -0.824  0.00  0.00    +0.001 C 
ATOM     30  C   UNL     1       4.874  -0.319   1.129  0.00  0.00    +0.001 C 
ATOM     31  C   UNL     1       5.458   0.700   0.375  0.00  0.00    +0.000 C 
ENDBRANCH  22  26
ENDBRANCH  19  21
ENDBRANCH  18  19
ENDBRANCH   1  18
TORSDOF 11
