REMARK  Name = 123674
REMARK  7 active torsions:
REMARK  status: ('A' for Active; 'I' for Inactive)
REMARK    1  A    between atoms: C_2  and  O_18
REMARK    2  A    between atoms: C_3  and  O_20
REMARK    3  A    between atoms: C_4  and  C_22
REMARK    4  A    between atoms: C_5  and  N_6
REMARK    5  A    between atoms: C_22  and  S_23
REMARK    6  A    between atoms: S_23  and  C_24
REMARK    7  A    between atoms: C_24  and  C_25
REMARK                            x       y       z     vdW  Elec       q    Type
REMARK                         _______ _______ _______ _____ _____    ______ ____
ROOT
ATOM      1  O   UNL     1       0.929  -1.189   1.164  0.00  0.00    -0.335 OA
ATOM      2  C   UNL     1       1.442  -2.790  -0.522  0.00  0.00    +0.169 C 
ATOM      3  C   UNL     1       0.237  -1.979  -0.959  0.00  0.00    +0.187 C 
ATOM      4  C   UNL     1       2.033  -1.923   0.585  0.00  0.00    +0.157 C 
ATOM      5  C   UNL     1      -0.250  -1.421   0.369  0.00  0.00    +0.225 C 
ENDROOT
BRANCH   5   6
ATOM      6  N   UNL     1      -1.016  -0.182   0.250  0.00  0.00    -0.247 N 
ATOM      7  N   UNL     1      -1.436   2.003   0.093  0.00  0.00    -0.242 NA
ATOM      8  N   UNL     1      -3.284  -1.047   0.170  0.00  0.00    -0.228 NA
ATOM      9  N   UNL     1      -4.916   0.756  -0.035  0.00  0.00    -0.229 NA
ATOM     10  C   UNL     1      -2.374  -0.062   0.163  0.00  0.00    +0.152 C 
ATOM     11  C   UNL     1      -0.498   1.086   0.204  0.00  0.00    +0.223 C 
ATOM     12  C   UNL     1      -2.614   1.300   0.066  0.00  0.00    +0.140 C 
ATOM     13  C   UNL     1      -3.943   1.699  -0.036  0.00  0.00    +0.143 C 
ATOM     14  C   UNL     1      -4.532  -0.539   0.067  0.00  0.00    +0.253 C 
ATOM     15  N   UNL     1      -4.278   3.060  -0.140  0.00  0.00    -0.342 N 
ATOM     16  H   UNL     1      -5.221   3.331  -0.212  0.00  0.00    +0.144 HD
ATOM     17  H   UNL     1      -3.568   3.743  -0.141  0.00  0.00    +0.144 HD
ENDBRANCH   5   6
BRANCH   2  18
ATOM     18  O   UNL     1       1.003  -4.025   0.045  0.00  0.00    -0.379 OA
ATOM     19  H   UNL     1       0.625  -4.584  -0.651  0.00  0.00    +0.211 HD
ENDBRANCH   2  18
BRANCH   3  20
ATOM     20  O   UNL     1      -0.752  -2.759  -1.598  0.00  0.00    -0.378 OA
ATOM     21  H   UNL     1      -0.406  -3.096  -2.439  0.00  0.00    +0.211 HD
ENDBRANCH   3  20
BRANCH   4  22
ATOM     22  C   UNL     1       3.058  -0.922   0.071  0.00  0.00    +0.090 C 
BRANCH  22  23
ATOM     23  S   UNL     1       3.722   0.062   1.440  0.00  0.00    -0.138 S 
BRANCH  23  24
ATOM     24  C   UNL     1       4.861   1.100   0.494  0.00  0.00    +0.058 C 
BRANCH  24  25
ATOM     25  C   UNL     1       4.202   2.014  -0.553  0.00  0.00    +0.011 C 
ATOM     26  C   UNL     1       3.180   2.974   0.058  0.00  0.00    +0.001 C 
ATOM     27  C   UNL     1       5.224   2.782  -1.395  0.00  0.00    +0.001 C 
ENDBRANCH  24  25
ENDBRANCH  23  24
ENDBRANCH  22  23
ENDBRANCH   4  22
TORSDOF 7
