123686
  -OEChem-03292013323D

 48 49  0     1  0  0  0  0  0999 V2000
   -2.9878    1.4732    0.2345 O   0  0  0  0  0  0  0  0  0  0  0  0
   -5.4961    0.2775    0.3359 O   0  0  0  0  0  0  0  0  0  0  0  0
    1.4869   -2.7284    0.7132 O   0  0  0  0  0  0  0  0  0  0  0  0
   -2.6845   -1.9352   -0.6175 N   0  0  0  0  0  0  0  0  0  0  0  0
    0.0852   -2.5192   -1.1142 N   0  0  0  0  0  0  0  0  0  0  0  0
    1.9288   -1.1498   -0.9671 N   0  0  0  0  0  0  0  0  0  0  0  0
   -0.9864   -0.4305    2.5309 N   0  0  0  0  0  0  0  0  0  0  0  0
   -4.4867   -0.2364   -0.5378 C   0  0  2  0  0  0  0  0  0  0  0  0
   -3.7613   -1.3732    0.1863 C   0  0  0  0  0  0  0  0  0  0  0  0
   -1.9753   -2.9752    0.1155 C   0  0  0  0  0  0  0  0  0  0  0  0
   -3.5627    0.9107   -0.9409 C   0  0  0  0  0  0  0  0  0  0  0  0
   -0.8473   -3.5444   -0.7323 C   0  0  0  0  0  0  0  0  0  0  0  0
   -1.7341    2.0092    0.1103 C   0  0  0  0  0  0  0  0  0  0  0  0
    1.2096   -2.1765   -0.3490 C   0  0  0  0  0  0  0  0  0  0  0  0
   -0.6621    1.5226    0.8587 C   0  0  0  0  0  0  0  0  0  0  0  0
   -1.5390    3.0613   -0.7847 C   0  0  0  0  0  0  0  0  0  0  0  0
    3.1163   -0.5279   -0.5156 C   0  0  0  0  0  0  0  0  0  0  0  0
    0.6045    2.0881    0.7119 C   0  0  0  0  0  0  0  0  0  0  0  0
   -0.2724    3.6266   -0.9314 C   0  0  0  0  0  0  0  0  0  0  0  0
    0.7994    3.1400   -0.1832 C   0  0  0  0  0  0  0  0  0  0  0  0
    3.7001    0.4905   -1.2691 C   0  0  0  0  0  0  0  0  0  0  0  0
    3.7031   -0.9324    0.6835 C   0  0  0  0  0  0  0  0  0  0  0  0
    4.8709    1.1041   -0.8238 C   0  0  0  0  0  0  0  0  0  0  0  0
    4.8740   -0.3186    1.1287 C   0  0  0  0  0  0  0  0  0  0  0  0
    5.4578    0.6997    0.3751 C   0  0  0  0  0  0  0  0  0  0  0  0
   -0.8412    0.4441    1.7820 C   0  0  0  0  0  0  0  0  0  0  0  0
   -4.9897   -0.6304   -1.4288 H   0  0  0  0  0  0  0  0  0  0  0  0
   -3.3872   -1.0086    1.1494 H   0  0  0  0  0  0  0  0  0  0  0  0
   -4.4960   -2.1515    0.4318 H   0  0  0  0  0  0  0  0  0  0  0  0
   -1.5607   -2.5764    1.0459 H   0  0  0  0  0  0  0  0  0  0  0  0
   -2.6612   -3.7888    0.3801 H   0  0  0  0  0  0  0  0  0  0  0  0
   -3.0615   -2.3141   -1.4856 H   0  0  0  0  0  0  0  0  0  0  0  0
   -4.1479    1.6963   -1.4332 H   0  0  0  0  0  0  0  0  0  0  0  0
   -2.7938    0.5618   -1.6414 H   0  0  0  0  0  0  0  0  0  0  0  0
   -1.2366   -3.9936   -1.6526 H   0  0  0  0  0  0  0  0  0  0  0  0
   -0.3195   -4.3252   -0.1740 H   0  0  0  0  0  0  0  0  0  0  0  0
   -0.0900   -2.0087   -1.9742 H   0  0  0  0  0  0  0  0  0  0  0  0
   -5.9728    0.9748   -0.1459 H   0  0  0  0  0  0  0  0  0  0  0  0
   -2.3654    3.4576   -1.3684 H   0  0  0  0  0  0  0  0  0  0  0  0
    1.5596   -0.8004   -1.8477 H   0  0  0  0  0  0  0  0  0  0  0  0
    1.4501    1.7221    1.2895 H   0  0  0  0  0  0  0  0  0  0  0  0
   -0.1209    4.4468   -1.6269 H   0  0  0  0  0  0  0  0  0  0  0  0
    1.7858    3.5801   -0.2973 H   0  0  0  0  0  0  0  0  0  0  0  0
    3.2520    0.8164   -2.2043 H   0  0  0  0  0  0  0  0  0  0  0  0
    3.3108   -1.7114    1.3217 H   0  0  0  0  0  0  0  0  0  0  0  0
    5.3250    1.8976   -1.4101 H   0  0  0  0  0  0  0  0  0  0  0  0
    5.3318   -0.6322    2.0625 H   0  0  0  0  0  0  0  0  0  0  0  0
    6.3690    1.1779    0.7220 H   0  0  0  0  0  0  0  0  0  0  0  0
  1 11  1  0  0  0  0
  1 13  1  0  0  0  0
  2  8  1  0  0  0  0
  2 38  1  0  0  0  0
  3 14  2  0  0  0  0
  4  9  1  0  0  0  0
  4 10  1  0  0  0  0
  4 32  1  0  0  0  0
  5 12  1  0  0  0  0
  5 14  1  0  0  0  0
  5 37  1  0  0  0  0
  6 14  1  0  0  0  0
  6 17  1  0  0  0  0
  6 40  1  0  0  0  0
  7 26  3  0  0  0  0
  8  9  1  0  0  0  0
  8 11  1  0  0  0  0
  8 27  1  0  0  0  0
  9 28  1  0  0  0  0
  9 29  1  0  0  0  0
 10 12  1  0  0  0  0
 10 30  1  0  0  0  0
 10 31  1  0  0  0  0
 11 33  1  0  0  0  0
 11 34  1  0  0  0  0
 12 35  1  0  0  0  0
 12 36  1  0  0  0  0
 13 15  1  0  0  0  0
 13 16  2  0  0  0  0
 15 18  2  0  0  0  0
 15 26  1  0  0  0  0
 16 19  1  0  0  0  0
 16 39  1  0  0  0  0
 17 21  2  0  0  0  0
 17 22  1  0  0  0  0
 18 20  1  0  0  0  0
 18 41  1  0  0  0  0
 19 20  2  0  0  0  0
 19 42  1  0  0  0  0
 20 43  1  0  0  0  0
 21 23  1  0  0  0  0
 21 44  1  0  0  0  0
 22 24  2  0  0  0  0
 22 45  1  0  0  0  0
 23 25  2  0  0  0  0
 23 46  1  0  0  0  0
 24 25  1  0  0  0  0
 24 47  1  0  0  0  0
 25 48  1  0  0  0  0
M  END
> <PUBCHEM_COMPOUND_CID>
123686

> <PUBCHEM_CONFORMER_RMSD>
1.2

> <PUBCHEM_CONFORMER_DIVERSEORDER>
1
22
59
111
90
33
116
62
20
109
101
24
100
118
5
61
113
34
63
11
77
15
57
106
54
76
52
99
112
66
86
84
78
18
41
105
81
75
36
85
80
42
40
72
79
68
92
108
58
91
102
50
94
83
8
14
64
37
12
9
120
16
74
53
95
25
70
7
45
21
73
97
104
43
39
96
51
117
4
93
110
17
60
98
48
46
10
82
6
119
19
103
67
26
49
30
44
87
71
28
107
35
13
38
23
3
55
47
69
27
89
115
29
114
2
56
32
65
88
31

> <PUBCHEM_MMFF94_PARTIAL_CHARGES>
39
1 -0.36
10 0.27
11 0.28
12 0.3
13 0.08
14 0.69
15 0.07
16 -0.15
17 0.12
18 -0.15
19 -0.15
2 -0.68
20 -0.15
21 -0.15
22 -0.15
23 -0.15
24 -0.15
25 -0.15
26 0.48
3 -0.57
32 0.36
37 0.37
38 0.4
39 0.15
4 -0.9
40 0.37
41 0.15
42 0.15
43 0.15
44 0.15
45 0.15
46 0.15
47 0.15
48 0.15
5 -0.73
6 -0.55
7 -0.56
8 0.28
9 0.27

> <PUBCHEM_EFFECTIVE_ROTOR_COUNT>
11

> <PUBCHEM_PHARMACOPHORE_FEATURES>
11
1 1 acceptor
1 2 acceptor
1 2 donor
1 3 acceptor
1 4 cation
1 4 donor
1 5 donor
1 6 donor
1 7 acceptor
6 13 15 16 18 19 20 rings
6 17 21 22 23 24 25 rings

> <PUBCHEM_HEAVY_ATOM_COUNT>
26

> <PUBCHEM_ATOM_DEF_STEREO_COUNT>
0

> <PUBCHEM_ATOM_UDEF_STEREO_COUNT>
1

> <PUBCHEM_BOND_DEF_STEREO_COUNT>
0

> <PUBCHEM_BOND_UDEF_STEREO_COUNT>
0

> <PUBCHEM_ISOTOPIC_ATOM_COUNT>
0

> <PUBCHEM_COMPONENT_COUNT>
1

> <PUBCHEM_CACTVS_TAUTO_COUNT>
3

> <PUBCHEM_CONFORMER_ID>
0001E32600000001

> <PUBCHEM_MMFF94_ENERGY>
57.7282

> <PUBCHEM_FEATURE_SELFOVERLAP>
55.879

> <PUBCHEM_SHAPE_FINGERPRINT>
10498660 4 18412271640264507718
10675989 125 17326318940838228205
1100329 8 18267021837233944573
11112241 14 16126381575612364800
11370993 70 18121208788556749108
12156800 1 17325425290891504572
13402501 40 18343018904246179719
13617811 41 18338504267265723061
14117953 113 18266178335901409076
14765038 42 18129399183969188481
14790565 3 17474952026535379881
14840074 17 18338814371755275065
17349148 13 17749677285871756016
17492 54 18408602565393209045
192875 21 17749394732947944380
20511986 3 17822838845545250360
20715895 44 17756695343985207573
20764821 26 18193551396534749348
22113638 7 18339078301837827231
23419403 2 17273399789599998000
3052486 1 18337659936613017714
338550 245 18047471407393531748
3680242 22 18409172077772010363
463206 1 18265619959930096733
469060 322 18266476462445597435

> <PUBCHEM_SHAPE_MULTIPOLES>
497.54
9.42
4.36
1.4
4.74
0.01
-0.58
0.24
0.32
-1.89
1.17
0.19
0.01
-0.26

> <PUBCHEM_SHAPE_SELFOVERLAP>
1032.175

> <PUBCHEM_SHAPE_VOLUME>
280.2

> <PUBCHEM_COORDINATE_TYPE>
2
5
10

$$$$
