REMARK  Name = 123664
REMARK  10 active torsions:
REMARK  status: ('A' for Active; 'I' for Inactive)
REMARK    1  A    between atoms: C_1  and  N_3
REMARK    2  A    between atoms: C_1  and  C_15
REMARK    3  A    between atoms: C_1  and  C_22
REMARK    4  A    between atoms: C_4  and  C_7
REMARK    5  A    between atoms: C_8  and  C_10
REMARK    6  A    between atoms: C_10  and  O_11
REMARK    7  A    between atoms: N_14  and  C_17
REMARK    8  A    between atoms: C_17  and  C_18
REMARK    9  A    between atoms: C_18  and  C_19
REMARK   10  A    between atoms: C_22  and  C_23
REMARK                            x       y       z     vdW  Elec       q    Type
REMARK                         _______ _______ _______ _____ _____    ______ ____
ROOT
ATOM      1  C   UNL     1       0.212  -1.300   0.134  0.00  0.00    +0.149 C 
ENDROOT
BRANCH   1   3
ATOM      2  O   UNL     1      -1.193   0.057   2.288  0.00  0.00    -0.272 OA
ATOM      3  N   UNL     1      -1.086  -0.679   0.081  0.00  0.00    -0.296 N 
ATOM      4  C   UNL     1      -1.675  -0.053   1.167  0.00  0.00    +0.253 C 
ATOM      5  H   UNL     1      -1.580  -0.700  -0.770  0.00  0.00    +0.150 HD
BRANCH   4   7
ATOM      6  O   UNL     1      -3.128   1.878   1.310  0.00  0.00    -0.333 OA
ATOM      7  C   UNL     1      -3.022   0.523   0.885  0.00  0.00    +0.229 C 
ATOM      8  C   UNL     1      -3.144   1.631  -0.102  0.00  0.00    +0.250 C 
BRANCH   8  10
ATOM      9  O   UNL     1      -5.059   2.941  -0.542  0.00  0.00    -0.247 OA
ATOM     10  C   UNL     1      -4.448   1.898  -0.720  0.00  0.00    +0.344 C 
BRANCH  10  11
ATOM     11  O   UNL     1      -4.874   0.870  -1.491  0.00  0.00    -0.478 OA
ATOM     12  H   UNL     1      -4.348   0.100  -1.578  0.00  0.00    +0.295 HD
ENDBRANCH  10  11
ENDBRANCH   8  10
ENDBRANCH   4   7
ENDBRANCH   1   3
BRANCH   1  15
ATOM     13  O   UNL     1       1.038   0.714  -0.934  0.00  0.00    -0.273 OA
ATOM     14  N   UNL     1       2.394  -0.373   0.606  0.00  0.00    -0.303 N 
ATOM     15  C   UNL     1       1.243  -0.212  -0.152  0.00  0.00    +0.240 C 
ATOM     16  H   UNL     1       2.456  -1.154   1.202  0.00  0.00    +0.149 HD
BRANCH  14  17
ATOM     17  C   UNL     1       3.506   0.548   0.563  0.00  0.00    +0.089 C 
BRANCH  17  18
ATOM     18  C   UNL     1       4.538   0.170  -0.497  0.00  0.00    +0.021 C 
BRANCH  18  19
ATOM     19  C   UNL     1       5.766   1.099  -0.574  0.00  0.00    +0.002 C 
ATOM     20  C   UNL     1       6.474   1.131   0.783  0.00  0.00    +0.000 C 
ATOM     21  C   UNL     1       5.396   2.522  -0.996  0.00  0.00    +0.000 C 
ENDBRANCH  18  19
ENDBRANCH  17  18
ENDBRANCH  14  17
ENDBRANCH   1  15
BRANCH   1  22
ATOM     22  C   UNL     1       0.351  -2.443  -0.880  0.00  0.00    +0.029 C 
BRANCH  22  23
ATOM     23  C   UNL     1      -0.676  -3.582  -0.716  0.00  0.00    +0.002 C 
ATOM     24  C   UNL     1      -2.095  -3.017  -0.823  0.00  0.00    +0.000 C 
ATOM     25  C   UNL     1      -0.516  -4.324   0.611  0.00  0.00    +0.000 C 
ENDBRANCH  22  23
ENDBRANCH   1  22
TORSDOF 10
