123616
  -OEChem-03292013323D

 52 56  0     1  0  0  0  0  0999 V2000
    6.7040   -0.2937    3.3159 Br  0  0  0  0  0  0  0  0  0  0  0  0
   -6.3486   -0.8343    0.8075 O   0  0  0  0  0  0  0  0  0  0  0  0
   -4.4436    2.1249    1.2208 O   0  0  0  0  0  0  0  0  0  0  0  0
   -3.2077   -3.4019   -0.3996 O   0  0  0  0  0  0  0  0  0  0  0  0
   -6.8144    1.1246    1.8000 O   0  0  0  0  0  0  0  0  0  0  0  0
    7.0775   -1.4672    0.0914 O   0  0  0  0  0  0  0  0  0  0  0  0
   -1.6942   -1.6541   -0.3690 N   0  0  0  0  0  0  0  0  0  0  0  0
    0.6406    1.0832   -0.3639 N   0  0  0  0  0  0  0  0  0  0  0  0
    6.9724    0.8540    0.1029 N   0  0  0  0  0  0  0  0  0  0  0  0
   -4.8892    1.0882    0.3431 C   0  0  2  0  0  0  0  0  0  0  0  0
   -3.7770    0.1011    0.1180 C   0  0  0  0  0  0  0  0  0  0  0  0
   -1.4346   -0.2992   -0.2439 C   0  0  0  0  0  0  0  0  0  0  0  0
   -4.0578   -1.2080   -0.0128 C   0  0  0  0  0  0  0  0  0  0  0  0
   -0.4512   -2.4107   -0.6250 C   0  0  0  0  0  0  0  0  0  0  0  0
    0.5793   -1.3302   -0.6369 C   0  0  0  0  0  0  0  0  0  0  0  0
   -2.4104    0.5826   -0.0133 C   0  0  0  0  0  0  0  0  0  0  0  0
   -0.0036   -0.0909   -0.4137 C   0  0  0  0  0  0  0  0  0  0  0  0
   -2.9594   -2.2047   -0.2768 C   0  0  0  0  0  0  0  0  0  0  0  0
   -5.3588    1.7179   -0.9705 C   0  0  0  0  0  0  0  0  0  0  0  0
   -5.4580   -1.7101    0.0819 C   0  0  0  0  0  0  0  0  0  0  0  0
   -6.0842    0.4691    1.0587 C   0  0  0  0  0  0  0  0  0  0  0  0
    1.9393   -1.3897   -0.8279 C   0  0  0  0  0  0  0  0  0  0  0  0
    2.6686   -0.1897   -0.7870 C   0  0  0  0  0  0  0  0  0  0  0  0
    1.9753    1.0315   -0.5512 C   0  0  0  0  0  0  0  0  0  0  0  0
   -6.4563    2.7347   -0.7311 C   0  0  0  0  0  0  0  0  0  0  0  0
    4.0598   -0.1845   -0.9750 C   0  0  0  0  0  0  0  0  0  0  0  0
    2.7185    2.2068   -0.5155 C   0  0  0  0  0  0  0  0  0  0  0  0
    4.7734    1.0101   -0.9337 C   0  0  0  0  0  0  0  0  0  0  0  0
    4.1026    2.2051   -0.7039 C   0  0  0  0  0  0  0  0  0  0  0  0
    6.2508    1.0072   -1.1350 C   0  0  0  0  0  0  0  0  0  0  0  0
    7.3284   -0.3840    0.6167 C   0  0  0  0  0  0  0  0  0  0  0  0
    8.0584   -0.2881    1.9290 C   0  0  0  0  0  0  0  0  0  0  0  0
   -0.5402   -2.9228   -1.5876 H   0  0  0  0  0  0  0  0  0  0  0  0
   -0.3019   -3.1303    0.1854 H   0  0  0  0  0  0  0  0  0  0  0  0
   -2.2045    1.6438    0.0697 H   0  0  0  0  0  0  0  0  0  0  0  0
   -5.7206    0.9547   -1.6704 H   0  0  0  0  0  0  0  0  0  0  0  0
   -4.5220    2.2367   -1.4556 H   0  0  0  0  0  0  0  0  0  0  0  0
   -5.8812   -1.8715   -0.9151 H   0  0  0  0  0  0  0  0  0  0  0  0
   -5.4841   -2.6655    0.6161 H   0  0  0  0  0  0  0  0  0  0  0  0
    2.4276   -2.3432   -1.0053 H   0  0  0  0  0  0  0  0  0  0  0  0
   -7.3939    2.2659   -0.4184 H   0  0  0  0  0  0  0  0  0  0  0  0
   -6.1747    3.4914    0.0074 H   0  0  0  0  0  0  0  0  0  0  0  0
   -6.6714    3.2632   -1.6668 H   0  0  0  0  0  0  0  0  0  0  0  0
   -4.0945    1.7119    2.0296 H   0  0  0  0  0  0  0  0  0  0  0  0
    4.5840   -1.1205   -1.1583 H   0  0  0  0  0  0  0  0  0  0  0  0
    2.2191    3.1575   -0.3367 H   0  0  0  0  0  0  0  0  0  0  0  0
    4.6431    3.1474   -0.6661 H   0  0  0  0  0  0  0  0  0  0  0  0
    6.5417    0.2079   -1.8273 H   0  0  0  0  0  0  0  0  0  0  0  0
    6.5799    1.9485   -1.5904 H   0  0  0  0  0  0  0  0  0  0  0  0
    7.2008    1.6944    0.6261 H   0  0  0  0  0  0  0  0  0  0  0  0
    8.6361    0.6342    2.0197 H   0  0  0  0  0  0  0  0  0  0  0  0
    8.7046   -1.1558    2.0767 H   0  0  0  0  0  0  0  0  0  0  0  0
  1 32  1  0  0  0  0
  2 20  1  0  0  0  0
  2 21  1  0  0  0  0
  3 10  1  0  0  0  0
  3 44  1  0  0  0  0
  4 18  2  0  0  0  0
  5 21  2  0  0  0  0
  6 31  2  0  0  0  0
  7 12  1  0  0  0  0
  7 14  1  0  0  0  0
  7 18  1  0  0  0  0
  8 17  1  0  0  0  0
  8 24  2  0  0  0  0
  9 30  1  0  0  0  0
  9 31  1  0  0  0  0
  9 50  1  0  0  0  0
 10 11  1  0  0  0  0
 10 19  1  0  0  0  0
 10 21  1  0  0  0  0
 11 13  2  0  0  0  0
 11 16  1  0  0  0  0
 12 16  2  0  0  0  0
 12 17  1  0  0  0  0
 13 18  1  0  0  0  0
 13 20  1  0  0  0  0
 14 15  1  0  0  0  0
 14 33  1  0  0  0  0
 14 34  1  0  0  0  0
 15 17  2  0  0  0  0
 15 22  1  0  0  0  0
 16 35  1  0  0  0  0
 19 25  1  0  0  0  0
 19 36  1  0  0  0  0
 19 37  1  0  0  0  0
 20 38  1  0  0  0  0
 20 39  1  0  0  0  0
 22 23  2  0  0  0  0
 22 40  1  0  0  0  0
 23 24  1  0  0  0  0
 23 26  1  0  0  0  0
 24 27  1  0  0  0  0
 25 41  1  0  0  0  0
 25 42  1  0  0  0  0
 25 43  1  0  0  0  0
 26 28  2  0  0  0  0
 26 45  1  0  0  0  0
 27 29  2  0  0  0  0
 27 46  1  0  0  0  0
 28 29  1  0  0  0  0
 28 30  1  0  0  0  0
 29 47  1  0  0  0  0
 30 48  1  0  0  0  0
 30 49  1  0  0  0  0
 31 32  1  0  0  0  0
 32 51  1  0  0  0  0
 32 52  1  0  0  0  0
M  END
> <PUBCHEM_COMPOUND_CID>
123616

> <PUBCHEM_CONFORMER_RMSD>
0.8

> <PUBCHEM_CONFORMER_DIVERSEORDER>
1
13
7
2
8
5
11
9
4
12
10
6
3

> <PUBCHEM_MMFF94_PARTIAL_CHARGES>
36
1 -0.23
10 0.48
11 -0.14
12 0.08
13 -0.12
14 0.44
15 -0.14
16 -0.15
17 0.34
18 0.62
2 -0.43
20 0.42
21 0.66
22 -0.15
24 0.31
26 -0.15
27 -0.15
28 -0.14
29 -0.15
3 -0.68
30 0.44
31 0.57
32 0.29
35 0.15
4 -0.57
40 0.15
44 0.4
45 0.15
46 0.15
47 0.15
5 -0.57
50 0.37
6 -0.57
7 -0.47
8 -0.62
9 -0.73

> <PUBCHEM_EFFECTIVE_ROTOR_COUNT>
5.8

> <PUBCHEM_PHARMACOPHORE_FEATURES>
14
1 1 hydrophobe
1 25 hydrophobe
1 3 acceptor
1 3 donor
1 4 acceptor
1 5 acceptor
1 6 acceptor
1 8 acceptor
1 9 donor
5 7 12 14 15 17 rings
6 2 10 11 13 20 21 rings
6 23 24 26 27 28 29 rings
6 7 11 12 13 16 18 rings
6 8 15 17 22 23 24 rings

> <PUBCHEM_HEAVY_ATOM_COUNT>
32

> <PUBCHEM_ATOM_DEF_STEREO_COUNT>
1

> <PUBCHEM_ATOM_UDEF_STEREO_COUNT>
0

> <PUBCHEM_BOND_DEF_STEREO_COUNT>
0

> <PUBCHEM_BOND_UDEF_STEREO_COUNT>
0

> <PUBCHEM_ISOTOPIC_ATOM_COUNT>
0

> <PUBCHEM_COMPONENT_COUNT>
1

> <PUBCHEM_CACTVS_TAUTO_COUNT>
2

> <PUBCHEM_CONFORMER_ID>
0001E2E000000001

> <PUBCHEM_MMFF94_ENERGY>
84.9838

> <PUBCHEM_FEATURE_SELFOVERLAP>
71.297

> <PUBCHEM_SHAPE_FINGERPRINT>
10 15 18261119590138997900
10319926 262 18271519905402620698
10411042 1 17693662919978897655
117089 54 10087048875342186045
11719270 70 18343586231415192030
11973863 73 17386272204928726344
12107183 9 18408040723921281380
12144603 126 18187086183598923916
12236239 1 18114464539309664580
12838862 33 18342732984727780625
13560911 43 18334582364844329465
13668630 136 14056720162298890072
13782708 43 15213286518425087994
14251764 18 18333734645673521164
14747282 305 15791725304499195787
14849402 71 18115029731489800244
15021287 119 17603589650854737365
15131766 46 16953397972496778172
15183329 4 18261109703788693822
15352257 5 15357698587382927384
15419008 145 18334289830332067064
15461852 350 17060333063352201636
15684973 49 18199170944805012606
1577012 14 18335142033663704596
19611394 137 17899434249010125659
2026 5 13479953665251194736
20554085 129 17917419905144762106
21033648 29 17561075956394364914
21130935 74 18340205289168597394
21150785 3 13183015224782155172
21223535 225 16343434912200970385
21279426 13 18270695181191966334
21756936 100 18060702780398544829
21859007 373 18340196411033470372
23081809 10 17968380156062871590
23522609 53 17823722874374373844
23559900 14 18059860596782269912
23569943 247 17023446574523649898
2838139 119 18411417332414421301
3004659 81 18335148618217756748
335352 9 18412270553711622452
397638 26 18342452638567456664
397830 11 16271076193985505126
4073 2 17824550905672188248
4093350 32 17131559336827594246
4918590 3 14620506900030413781
5104073 3 18265053707594737264
513202 73 16878212083483785508
59755656 520 17386289890992524243
6058803 2 17903075869859156942
6299153 45 18408606942107418722
6636735 143 17345736621454302330

> <PUBCHEM_SHAPE_MULTIPOLES>
620.2
22.54
2.67
1.64
16.66
0.3
-1.64
-4.46
-11.04
-3.25
0.67
2.99
0.02
-1.72

> <PUBCHEM_SHAPE_SELFOVERLAP>
1368.16

> <PUBCHEM_SHAPE_VOLUME>
341.2

> <PUBCHEM_COORDINATE_TYPE>
2
5
10

$$$$
