123674
  -OEChem-03292013323D

 44 46  0     1  0  0  0  0  0999 V2000
    3.7220    0.0617    1.4395 S   0  0  0  0  0  0  0  0  0  0  0  0
    0.9292   -1.1887    1.1636 O   0  0  0  0  0  0  0  0  0  0  0  0
    1.0032   -4.0246    0.0454 O   0  0  0  0  0  0  0  0  0  0  0  0
   -0.7525   -2.7589   -1.5980 O   0  0  0  0  0  0  0  0  0  0  0  0
   -1.0155   -0.1822    0.2497 N   0  0  0  0  0  0  0  0  0  0  0  0
   -1.4360    2.0034    0.0927 N   0  0  0  0  0  0  0  0  0  0  0  0
   -3.2843   -1.0473    0.1701 N   0  0  0  0  0  0  0  0  0  0  0  0
   -4.9158    0.7561   -0.0350 N   0  0  0  0  0  0  0  0  0  0  0  0
   -4.2776    3.0602   -0.1400 N   0  0  0  0  0  0  0  0  0  0  0  0
    1.4415   -2.7900   -0.5218 C   0  0  1  0  0  0  0  0  0  0  0  0
    0.2375   -1.9791   -0.9590 C   0  0  2  0  0  0  0  0  0  0  0  0
    2.0331   -1.9228    0.5850 C   0  0  1  0  0  0  0  0  0  0  0  0
   -0.2499   -1.4209    0.3693 C   0  0  1  0  0  0  0  0  0  0  0  0
    3.0581   -0.9217    0.0707 C   0  0  0  0  0  0  0  0  0  0  0  0
   -2.3744   -0.0616    0.1630 C   0  0  0  0  0  0  0  0  0  0  0  0
   -0.4977    1.0864    0.2037 C   0  0  0  0  0  0  0  0  0  0  0  0
    4.8607    1.1000    0.4939 C   0  0  0  0  0  0  0  0  0  0  0  0
   -2.6139    1.2998    0.0661 C   0  0  0  0  0  0  0  0  0  0  0  0
    4.2025    2.0145   -0.5533 C   0  0  0  0  0  0  0  0  0  0  0  0
   -3.9428    1.6989   -0.0360 C   0  0  0  0  0  0  0  0  0  0  0  0
    3.1799    2.9744    0.0584 C   0  0  0  0  0  0  0  0  0  0  0  0
    5.2245    2.7821   -1.3947 C   0  0  0  0  0  0  0  0  0  0  0  0
   -4.5317   -0.5394    0.0665 C   0  0  0  0  0  0  0  0  0  0  0  0
    2.1286   -3.0226   -1.3402 H   0  0  0  0  0  0  0  0  0  0  0  0
    0.5445   -1.1767   -1.6397 H   0  0  0  0  0  0  0  0  0  0  0  0
    2.4680   -2.5436    1.3778 H   0  0  0  0  0  0  0  0  0  0  0  0
   -0.8828   -2.1332    0.9129 H   0  0  0  0  0  0  0  0  0  0  0  0
    2.5706   -0.2529   -0.6414 H   0  0  0  0  0  0  0  0  0  0  0  0
    3.8797   -1.4432   -0.4302 H   0  0  0  0  0  0  0  0  0  0  0  0
    1.7944   -4.5013    0.3493 H   0  0  0  0  0  0  0  0  0  0  0  0
   -0.9805   -3.4976   -1.0084 H   0  0  0  0  0  0  0  0  0  0  0  0
    0.5626    1.2790    0.2436 H   0  0  0  0  0  0  0  0  0  0  0  0
    5.5974    0.4474    0.0119 H   0  0  0  0  0  0  0  0  0  0  0  0
    5.4142    1.7142    1.2133 H   0  0  0  0  0  0  0  0  0  0  0  0
    3.6642    1.3911   -1.2756 H   0  0  0  0  0  0  0  0  0  0  0  0
    3.6661    3.6658    0.7554 H   0  0  0  0  0  0  0  0  0  0  0  0
    2.6983    3.5730   -0.7226 H   0  0  0  0  0  0  0  0  0  0  0  0
    2.3903    2.4549    0.6027 H   0  0  0  0  0  0  0  0  0  0  0  0
    5.8155    3.4608   -0.7705 H   0  0  0  0  0  0  0  0  0  0  0  0
    4.7285    3.3768   -2.1690 H   0  0  0  0  0  0  0  0  0  0  0  0
    5.9140    2.0916   -1.8915 H   0  0  0  0  0  0  0  0  0  0  0  0
   -5.3363   -1.2669    0.0640 H   0  0  0  0  0  0  0  0  0  0  0  0
   -3.5533    3.7657   -0.1415 H   0  0  0  0  0  0  0  0  0  0  0  0
   -5.2504    3.3250   -0.2136 H   0  0  0  0  0  0  0  0  0  0  0  0
  1 14  1  0  0  0  0
  1 17  1  0  0  0  0
  2 12  1  0  0  0  0
  2 13  1  0  0  0  0
  3 10  1  0  0  0  0
  3 30  1  0  0  0  0
  4 11  1  0  0  0  0
  4 31  1  0  0  0  0
  5 13  1  0  0  0  0
  5 15  1  0  0  0  0
  5 16  1  0  0  0  0
  6 16  2  0  0  0  0
  6 18  1  0  0  0  0
  7 15  2  0  0  0  0
  7 23  1  0  0  0  0
  8 20  1  0  0  0  0
  8 23  2  0  0  0  0
  9 20  1  0  0  0  0
  9 43  1  0  0  0  0
  9 44  1  0  0  0  0
 10 11  1  0  0  0  0
 10 12  1  0  0  0  0
 10 24  1  0  0  0  0
 11 13  1  0  0  0  0
 11 25  1  0  0  0  0
 12 14  1  0  0  0  0
 12 26  1  0  0  0  0
 13 27  1  0  0  0  0
 14 28  1  0  0  0  0
 14 29  1  0  0  0  0
 15 18  1  0  0  0  0
 16 32  1  0  0  0  0
 17 19  1  0  0  0  0
 17 33  1  0  0  0  0
 17 34  1  0  0  0  0
 18 20  2  0  0  0  0
 19 21  1  0  0  0  0
 19 22  1  0  0  0  0
 19 35  1  0  0  0  0
 21 36  1  0  0  0  0
 21 37  1  0  0  0  0
 21 38  1  0  0  0  0
 22 39  1  0  0  0  0
 22 40  1  0  0  0  0
 22 41  1  0  0  0  0
 23 42  1  0  0  0  0
M  END
> <PUBCHEM_COMPOUND_CID>
123674

> <PUBCHEM_CONFORMER_RMSD>
0.8

> <PUBCHEM_CONFORMER_DIVERSEORDER>
6
52
60
29
17
55
46
50
23
7
31
47
61
11
43
28
66
44
10
49
21
62
9
40
22
24
53
18
57
16
59
38
32
48
20
19
33
26
64
65
37
25
13
67
15
27
3
56
41
14
39
36
30
1
45
12
42
54
35
58
5
63
4
51
8
2
34

> <PUBCHEM_MMFF94_PARTIAL_CHARGES>
26
1 -0.46
10 0.28
11 0.28
12 0.28
13 0.54
14 0.23
15 0.11
16 0.04
17 0.23
18 0.23
2 -0.56
20 0.41
23 0.47
3 -0.68
30 0.4
31 0.4
32 0.15
4 -0.68
42 0.15
43 0.4
44 0.4
5 0.05
6 -0.57
7 -0.57
8 -0.62
9 -0.9

> <PUBCHEM_EFFECTIVE_ROTOR_COUNT>
6

> <PUBCHEM_PHARMACOPHORE_FEATURES>
15
1 2 acceptor
1 3 acceptor
1 3 donor
1 4 acceptor
1 4 donor
1 9 cation
1 9 donor
3 19 21 22 hydrophobe
3 5 6 16 cation
3 5 7 15 cation
3 7 8 23 cation
4 1 14 17 19 hydrophobe
5 2 10 11 12 13 rings
5 5 6 15 16 18 rings
6 7 8 15 18 20 23 rings

> <PUBCHEM_HEAVY_ATOM_COUNT>
23

> <PUBCHEM_ATOM_DEF_STEREO_COUNT>
4

> <PUBCHEM_ATOM_UDEF_STEREO_COUNT>
0

> <PUBCHEM_BOND_DEF_STEREO_COUNT>
0

> <PUBCHEM_BOND_UDEF_STEREO_COUNT>
0

> <PUBCHEM_ISOTOPIC_ATOM_COUNT>
0

> <PUBCHEM_COMPONENT_COUNT>
1

> <PUBCHEM_CACTVS_TAUTO_COUNT>
3

> <PUBCHEM_CONFORMER_ID>
0001E31A00000006

> <PUBCHEM_MMFF94_ENERGY>
52.6675

> <PUBCHEM_FEATURE_SELFOVERLAP>
76.796

> <PUBCHEM_SHAPE_FINGERPRINT>
10090160 65 18336536175099118059
10871710 139 18123188171564166454
10906281 52 18411707578315405403
11578080 2 16662030457852991301
12173636 292 18196643206569183158
12403259 118 18336530647507493306
12788726 201 17758109681211506458
13583140 156 17242990403005394938
138480 1 18050286960387593922
14251764 75 18338251434888060064
1454969 45 18268992158641589191
14787075 74 18116145756733923539
14790565 3 18412547642994395569
19591789 44 18124311876885216929
20715895 44 17902780878304672445
21524375 3 18335137618289527098
22620623 9 17058644303628605454
23227448 37 18340486793608263894
23366157 5 18190744115779359754
23559900 14 18051971416206585955
245318 6 17605292859128704428
3298306 158 18342736329768760980
44154327 71 18410571803856788512
474 4 18408322164163661992
5048184 11 18337112392750063060
5104073 3 18194120708062762803
6034566 193 18265636409639276265
6138700 20 18410580548731995580
7288768 16 17170112797280123496
7808743 9 18193557998691027056
9709674 26 18195528095720778579
9981440 41 18335422395642700506

> <PUBCHEM_SHAPE_MULTIPOLES>
434.67
10.22
4.16
1.04
0.6
1.21
0.09
-9.78
0.51
1.71
1.11
1.01
0.21
-1.1

> <PUBCHEM_SHAPE_SELFOVERLAP>
904.619

> <PUBCHEM_SHAPE_VOLUME>
251.5

> <PUBCHEM_COORDINATE_TYPE>
2
5
10

$$$$
