REMARK  Name = 123646
REMARK  8 active torsions:
REMARK  status: ('A' for Active; 'I' for Inactive)
REMARK    1  A    between atoms: C_2  and  O_7
REMARK    2  A    between atoms: C_3  and  O_9
REMARK    3  A    between atoms: C_4  and  O_11
REMARK    4  A    between atoms: C_5  and  C_23
REMARK    5  A    between atoms: C_6  and  O_13
REMARK    6  A    between atoms: O_13  and  C_14
REMARK    7  A    between atoms: C_15  and  N_22
REMARK    8  A    between atoms: C_23  and  O_24
REMARK                            x       y       z     vdW  Elec       q    Type
REMARK                         _______ _______ _______ _____ _____    ______ ____
ROOT
ATOM      1  O   UNL     1       0.795  -0.721  -0.037  0.00  0.00    -0.316 OA
ATOM      2  C   UNL     1       3.250   0.679  -0.519  0.00  0.00    +0.173 C 
ATOM      3  C   UNL     1       3.219  -0.721   0.096  0.00  0.00    +0.169 C 
ATOM      4  C   UNL     1       1.939   1.420  -0.263  0.00  0.00    +0.210 C 
ATOM      5  C   UNL     1       1.968  -1.468  -0.380  0.00  0.00    +0.177 C 
ATOM      6  C   UNL     1       0.741   0.558  -0.668  0.00  0.00    +0.318 C 
ENDROOT
BRANCH   2   7
ATOM      7  O   UNL     1       4.329   1.431   0.030  0.00  0.00    -0.379 OA
ATOM      8  H   UNL     1       5.164   0.964  -0.131  0.00  0.00    +0.211 HD
ENDBRANCH   2   7
BRANCH   3   9
ATOM      9  O   UNL     1       3.187  -0.619   1.521  0.00  0.00    -0.379 OA
ATOM     10  H   UNL     1       3.976  -0.147   1.829  0.00  0.00    +0.211 HD
ENDBRANCH   3   9
BRANCH   4  11
ATOM     11  O   UNL     1       1.917   2.618  -1.038  0.00  0.00    -0.377 OA
ATOM     12  H   UNL     1       2.671   3.176  -0.792  0.00  0.00    +0.211 HD
ENDBRANCH   4  11
BRANCH   6  13
ATOM     13  O   UNL     1      -0.446   1.242  -0.270  0.00  0.00    -0.449 OA
BRANCH  13  14
ATOM     14  C   UNL     1      -1.633   0.622  -0.549  0.00  0.00    +0.164 C 
ATOM     15  C   UNL     1      -2.518   0.279   0.470  0.00  0.00    +0.177 C 
ATOM     16  C   UNL     1      -1.945   0.339  -1.876  0.00  0.00    +0.039 C 
ATOM     17  C   UNL     1      -3.723  -0.352   0.160  0.00  0.00    +0.027 C 
ATOM     18  C   UNL     1      -3.150  -0.292  -2.187  0.00  0.00    +0.003 C 
ATOM     19  C   UNL     1      -4.039  -0.638  -1.169  0.00  0.00    +0.002 C 
BRANCH  15  22
ATOM     20  O   UNL     1      -3.040   0.234   2.712  0.00  0.00    -0.126 OA
ATOM     21  O   UNL     1      -1.127   1.128   2.096  0.00  0.00    -0.126 OA
ATOM     22  N   UNL     1      -2.213   0.562   1.830  0.00  0.00    +0.061 N 
ENDBRANCH  15  22
ENDBRANCH  13  14
ENDBRANCH   6  13
BRANCH   5  23
ATOM     23  C   UNL     1       1.835  -2.844   0.262  0.00  0.00    +0.169 C 
BRANCH  23  24
ATOM     24  O   UNL     1       0.654  -3.457  -0.222  0.00  0.00    -0.379 OA
ATOM     25  H   UNL     1       0.557  -4.335   0.179  0.00  0.00    +0.211 HD
ENDBRANCH  23  24
ENDBRANCH   5  23
TORSDOF 8
