REMARK  Name = 123630
REMARK  4 active torsions:
REMARK  status: ('A' for Active; 'I' for Inactive)
REMARK    1  A    between atoms: C_6  and  C_16
REMARK    2  A    between atoms: C_8  and  C_13
REMARK    3  A    between atoms: C_13  and  O_14
REMARK    4  A    between atoms: C_16  and  N_17
REMARK                            x       y       z     vdW  Elec       q    Type
REMARK                         _______ _______ _______ _____ _____    ______ ____
ROOT
ATOM      1  S   UNL     1       0.016  -1.415   0.339  0.00  0.00    +0.007 S 
ATOM      2  O   UNL     1       0.933  -1.830   1.382  0.00  0.00    -0.171 OA
ATOM      3  O   UNL     1       0.043  -2.056  -0.963  0.00  0.00    -0.171 OA
ATOM      4  O   UNL     1      -3.904  -0.629  -1.316  0.00  0.00    -0.275 OA
ATOM      5  N   UNL     1      -2.160  -0.236   0.222  0.00  0.00    -0.252 N 
ATOM      6  C   UNL     1       0.142   0.416   0.102  0.00  0.00    +0.159 C 
ATOM      7  C   UNL     1      -1.652  -1.391   0.978  0.00  0.00    +0.215 C 
ATOM      8  C   UNL     1      -1.286   0.767  -0.356  0.00  0.00    +0.198 C 
ATOM      9  C   UNL     1      -2.767  -2.218   0.327  0.00  0.00    +0.130 C 
ATOM     10  C   UNL     1      -3.143  -0.925  -0.423  0.00  0.00    +0.231 C 
ATOM     11  C   UNL     1       0.548   1.068   1.433  0.00  0.00    +0.028 C 
ENDROOT
BRANCH   8  13
ATOM     12  O   UNL     1      -2.736   2.290   0.830  0.00  0.00    -0.248 OA
ATOM     13  C   UNL     1      -1.799   2.106   0.067  0.00  0.00    +0.334 C 
BRANCH  13  14
ATOM     14  O   UNL     1      -1.082   3.099  -0.514  0.00  0.00    -0.479 OA
ATOM     15  H   UNL     1      -0.374   2.890  -1.090  0.00  0.00    +0.295 HD
ENDBRANCH  13  14
ENDBRANCH   8  13
BRANCH   6  16
ATOM     16  C   UNL     1       1.183   0.735  -0.972  0.00  0.00    +0.142 C 
BRANCH  16  17
ATOM     17  N   UNL     1       2.521   0.386  -0.534  0.00  0.00    -0.189 N 
ATOM     18  N   UNL     1       3.011  -0.837  -0.767  0.00  0.00    -0.073 NA
ATOM     19  N   UNL     1       4.237  -0.866  -0.257  0.00  0.00    -0.129 NA
ATOM     20  C   UNL     1       3.403   1.176   0.126  0.00  0.00    +0.108 C 
ATOM     21  C   UNL     1       4.492   0.359   0.294  0.00  0.00    +0.141 C 
ENDBRANCH  16  17
ENDBRANCH   6  16
TORSDOF 4
