REMARK  Name = 123697
REMARK  13 active torsions:
REMARK  status: ('A' for Active; 'I' for Inactive)
REMARK    1  A    between atoms: C_1  and  C_8
REMARK    2  A    between atoms: C_1  and  C_20
REMARK    3  A    between atoms: N_7  and  C_10
REMARK    4  A    between atoms: C_13  and  C_17
REMARK    5  A    between atoms: C_17  and  O_18
REMARK    6  A    between atoms: C_20  and  C_21
REMARK    7  A    between atoms: C_21  and  C_23
REMARK    8  A    between atoms: C_21  and  C_26
REMARK    9  A    between atoms: C_23  and  O_24
REMARK   10  A    between atoms: C_26  and  O_27
REMARK   11  A    between atoms: O_27  and  C_28
REMARK   12  A    between atoms: C_28  and  C_29
REMARK   13  A    between atoms: C_29  and  O_30
REMARK                            x       y       z     vdW  Elec       q    Type
REMARK                         _______ _______ _______ _____ _____    ______ ____
ROOT
ATOM      1  C   UNL     1      -0.519   2.020   0.721  0.00  0.00    +0.069 C 
ATOM      2  C   UNL     1      -1.205   3.396   0.705  0.00  0.00    +0.009 C 
ATOM      3  C   UNL     1       0.341   2.002   2.001  0.00  0.00    +0.009 C 
ATOM      4  C   UNL     1      -0.290   4.282   1.539  0.00  0.00    +0.000 C 
ATOM      5  C   UNL     1       0.137   3.361   2.667  0.00  0.00    +0.000 C 
ENDROOT
BRANCH   1   8
ATOM      6  O   UNL     1       0.434   2.750  -1.351  0.00  0.00    -0.275 OA
ATOM      7  N   UNL     1       1.091   0.697  -0.473  0.00  0.00    -0.306 N 
ATOM      8  C   UNL     1       0.382   1.886  -0.480  0.00  0.00    +0.221 C 
ATOM      9  H   UNL     1       0.965   0.081   0.285  0.00  0.00    +0.149 HD
BRANCH   7  10
ATOM     10  C   UNL     1       2.007   0.317  -1.524  0.00  0.00    +0.072 C 
ATOM     11  C   UNL     1       2.019  -1.202  -1.716  0.00  0.00    +0.020 C 
ATOM     12  C   UNL     1       3.414   0.864  -1.260  0.00  0.00    +0.020 C 
ATOM     13  C   UNL     1       4.148  -1.387  -0.368  0.00  0.00    +0.099 C 
ATOM     14  C   UNL     1       2.736  -1.932  -0.581  0.00  0.00    +0.013 C 
ATOM     15  C   UNL     1       4.139   0.124  -0.136  0.00  0.00    +0.013 C 
BRANCH  13  17
ATOM     16  O   UNL     1       4.179  -2.479   1.788  0.00  0.00    -0.250 OA
ATOM     17  C   UNL     1       4.781  -2.063   0.809  0.00  0.00    +0.313 C 
BRANCH  17  18
ATOM     18  O   UNL     1       6.124  -2.152   0.645  0.00  0.00    -0.480 OA
ATOM     19  H   UNL     1       6.524  -1.813  -0.131  0.00  0.00    +0.295 HD
ENDBRANCH  17  18
ENDBRANCH  13  17
ENDBRANCH   7  10
ENDBRANCH   1   8
BRANCH   1  20
ATOM     20  C   UNL     1      -1.537   0.882   0.688  0.00  0.00    +0.022 C 
BRANCH  20  21
ATOM     21  C   UNL     1      -2.695   1.088  -0.298  0.00  0.00    +0.129 C 
BRANCH  21  23
ATOM     22  O   UNL     1      -1.852  -0.312  -2.113  0.00  0.00    -0.250 OA
ATOM     23  C   UNL     1      -2.245   0.779  -1.721  0.00  0.00    +0.316 C 
BRANCH  23  24
ATOM     24  O   UNL     1      -2.333   1.864  -2.534  0.00  0.00    -0.480 OA
ATOM     25  H   UNL     1      -2.640   2.681  -2.194  0.00  0.00    +0.295 HD
ENDBRANCH  23  24
ENDBRANCH  21  23
BRANCH  21  26
ATOM     26  C   UNL     1      -3.937   0.272   0.078  0.00  0.00    +0.153 C 
BRANCH  26  27
ATOM     27  O   UNL     1      -3.565  -1.056   0.435  0.00  0.00    -0.351 OA
BRANCH  27  28
ATOM     28  C   UNL     1      -4.691  -1.818   0.843  0.00  0.00    +0.174 C 
BRANCH  28  29
ATOM     29  C   UNL     1      -4.236  -3.217   1.209  0.00  0.00    +0.174 C 
BRANCH  29  30
ATOM     30  O   UNL     1      -3.647  -3.828   0.067  0.00  0.00    -0.348 OA
ATOM     31  C   UNL     1      -3.180  -5.138   0.359  0.00  0.00    +0.174 C 
ENDBRANCH  29  30
ENDBRANCH  28  29
ENDBRANCH  27  28
ENDBRANCH  26  27
ENDBRANCH  21  26
ENDBRANCH  20  21
ENDBRANCH   1  20
TORSDOF 13
