REMARK  Name = 123755
REMARK  4 active torsions:
REMARK  status: ('A' for Active; 'I' for Inactive)
REMARK    1  A    between atoms: C_19  and  C_29
REMARK    2  A    between atoms: C_22  and  O_24
REMARK    3  A    between atoms: C_23  and  O_26
REMARK    4  A    between atoms: C_29  and  O_30
REMARK                            x       y       z     vdW  Elec       q    Type
REMARK                         _______ _______ _______ _____ _____    ______ ____
ROOT
ATOM      1  O   UNL     1       0.079  -0.001   2.003  0.00  0.00    -0.440 OA
ATOM      2  O   UNL     1       2.918   0.001  -0.921  0.00  0.00    -0.454 OA
ATOM      3  O   UNL     1      -1.820  -0.004   3.328  0.00  0.00    -0.245 OA
ATOM      4  C   UNL     1       0.411   0.000   0.579  0.00  0.00    +0.198 C 
ATOM      5  C   UNL     1      -0.946   0.000  -0.046  0.00  0.00    +0.028 C 
ATOM      6  C   UNL     1       1.200   1.259   0.278  0.00  0.00    +0.056 C 
ATOM      7  C   UNL     1       1.201  -1.258   0.277  0.00  0.00    +0.056 C 
ATOM      8  C   UNL     1      -1.916  -0.001   0.940  0.00  0.00    +0.076 C 
ATOM      9  C   UNL     1       2.385   1.181  -0.463  0.00  0.00    +0.148 C 
ATOM     10  C   UNL     1       2.386  -1.180  -0.463  0.00  0.00    +0.148 C 
ATOM     11  C   UNL     1      -1.271  -0.001   2.244  0.00  0.00    +0.342 C 
ATOM     12  C   UNL     1      -1.312   0.000  -1.383  0.00  0.00    +0.000 C 
ATOM     13  C   UNL     1       0.758   2.526   0.698  0.00  0.00    +0.006 C 
ATOM     14  C   UNL     1       0.760  -2.526   0.696  0.00  0.00    +0.006 C 
ATOM     15  C   UNL     1      -3.270  -0.002   0.658  0.00  0.00    +0.013 C 
ATOM     16  C   UNL     1       3.104   2.337  -0.785  0.00  0.00    +0.074 C 
ATOM     17  C   UNL     1       3.107  -2.335  -0.786  0.00  0.00    +0.074 C 
ATOM     18  C   UNL     1      -2.674   0.000  -1.700  0.00  0.00    +0.006 C 
ATOM     19  C   UNL     1      -3.646  -0.001  -0.686  0.00  0.00    +0.076 C 
ATOM     20  C   UNL     1       1.480   3.678   0.382  0.00  0.00    +0.037 C 
ATOM     21  C   UNL     1       1.482  -3.678   0.380  0.00  0.00    +0.037 C 
ATOM     22  C   UNL     1       2.652   3.584  -0.361  0.00  0.00    +0.137 C 
ATOM     23  C   UNL     1       2.655  -3.582  -0.362  0.00  0.00    +0.137 C 
ENDROOT
BRANCH  22  24
ATOM     24  O   UNL     1       3.355   4.707  -0.672  0.00  0.00    -0.505 OA
ATOM     25  H   UNL     1       4.144   4.642  -1.173  0.00  0.00    +0.292 HD
ENDBRANCH  22  24
BRANCH  23  26
ATOM     26  O   UNL     1       3.358  -4.704  -0.675  0.00  0.00    -0.505 OA
ATOM     27  H   UNL     1       4.148  -4.638  -1.175  0.00  0.00    +0.292 HD
ENDBRANCH  23  26
BRANCH  19  29
ATOM     28  O   UNL     1      -5.522   0.001  -2.177  0.00  0.00    -0.245 OA
ATOM     29  C   UNL     1      -5.057   0.000  -1.040  0.00  0.00    +0.338 C 
BRANCH  29  30
ATOM     30  O   UNL     1      -5.859  -0.002   0.061  0.00  0.00    -0.477 OA
ATOM     31  H   UNL     1      -5.479  -0.003   0.918  0.00  0.00    +0.295 HD
ENDBRANCH  29  30
ENDBRANCH  19  29
TORSDOF 4
