REMARK  Name = 123712
REMARK  6 active torsions:
REMARK  status: ('A' for Active; 'I' for Inactive)
REMARK    1  A    between atoms: C_3  and  C_25
REMARK    2  A    between atoms: C_7  and  O_20
REMARK    3  A    between atoms: C_7  and  C_27
REMARK    4  A    between atoms: C_9  and  O_22
REMARK    5  A    between atoms: C_27  and  C_28
REMARK    6  A    between atoms: C_28  and  O_29
REMARK                            x       y       z     vdW  Elec       q    Type
REMARK                         _______ _______ _______ _____ _____    ______ ____
ROOT
ATOM      1  O   UNL     1       6.513   0.232   1.289  0.00  0.00    -0.291 OA
ATOM      2  C   UNL     1      -0.846  -1.258   0.202  0.00  0.00    +0.010 C 
ATOM      3  C   UNL     1      -1.811  -0.080  -0.004  0.00  0.00    +0.090 C 
ATOM      4  C   UNL     1       0.524  -1.039  -0.458  0.00  0.00    +0.003 C 
ATOM      5  C   UNL     1       1.179   0.238   0.161  0.00  0.00    +0.030 C 
ATOM      6  C   UNL     1       2.655   0.489  -0.355  0.00  0.00    +0.018 C 
ATOM      7  C   UNL     1      -3.094  -0.643   0.646  0.00  0.00    +0.148 C 
ATOM      8  C   UNL     1      -1.191   1.173   0.635  0.00  0.00    +0.039 C 
ATOM      9  C   UNL     1       0.226   1.469   0.087  0.00  0.00    +0.111 C 
ATOM     10  C   UNL     1      -1.671  -2.478  -0.202  0.00  0.00    +0.003 C 
ATOM     11  C   UNL     1       1.422  -2.266  -0.240  0.00  0.00    +0.004 C 
ATOM     12  C   UNL     1      -3.106  -2.134   0.243  0.00  0.00    +0.035 C 
ATOM     13  C   UNL     1       3.463  -0.809  -0.229  0.00  0.00    -0.042 C 
ATOM     14  C   UNL     1       2.822  -2.052  -0.794  0.00  0.00    +0.022 C 
ATOM     15  C   UNL     1       3.291   1.600   0.532  0.00  0.00    +0.012 C 
ATOM     16  C   UNL     1       2.728   0.928  -1.835  0.00  0.00    +0.004 C 
ATOM     17  C   UNL     1       4.806   1.672   0.425  0.00  0.00    +0.069 C 
ATOM     18  C   UNL     1       4.691  -0.884   0.311  0.00  0.00    +0.029 C 
ATOM     19  C   UNL     1       5.414   0.333   0.748  0.00  0.00    +0.173 C 
ENDROOT
BRANCH   7  20
ATOM     20  O   UNL     1      -3.041  -0.524   2.063  0.00  0.00    -0.379 OA
ATOM     21  H   UNL     1      -2.242  -0.961   2.395  0.00  0.00    +0.211 HD
ENDBRANCH   7  20
BRANCH   9  22
ATOM     22  O   UNL     1       0.115   1.944  -1.249  0.00  0.00    -0.384 OA
ATOM     23  H   UNL     1       1.000   2.132  -1.600  0.00  0.00    +0.210 HD
ENDBRANCH   9  22
BRANCH   3  25
ATOM     24  O   UNL     1      -2.854   1.096  -1.847  0.00  0.00    -0.288 OA
ATOM     25  C   UNL     1      -2.100   0.205  -1.468  0.00  0.00    +0.209 C 
ENDBRANCH   3  25
BRANCH   7  27
ATOM     26  O   UNL     1      -5.008  -0.284  -0.729  0.00  0.00    -0.291 OA
ATOM     27  C   UNL     1      -4.359   0.064   0.256  0.00  0.00    +0.204 C 
BRANCH  27  28
ATOM     28  C   UNL     1      -4.781   1.219   1.139  0.00  0.00    +0.204 C 
BRANCH  28  29
ATOM     29  O   UNL     1      -5.987   1.788   0.674  0.00  0.00    -0.375 OA
ATOM     30  H   UNL     1      -6.241   2.525   1.251  0.00  0.00    +0.211 HD
ENDBRANCH  28  29
ENDBRANCH  27  28
ENDBRANCH   7  27
TORSDOF 6
