REMARK  Name = 123715
REMARK  10 active torsions:
REMARK  status: ('A' for Active; 'I' for Inactive)
REMARK    1  A    between atoms: CA_1  and  C_4
REMARK    2  A    between atoms: CA_1  and  N_16
REMARK    3  A    between atoms: CA_1  and  CB_20
REMARK    4  A    between atoms: N_3  and  CA_6
REMARK    5  A    between atoms: CA_6  and  C_9
REMARK    6  A    between atoms: N_8  and  CA_11
REMARK    7  A    between atoms: CA_11  and  C_13
REMARK    8  A    between atoms: C_13  and  O_14
REMARK    9  A    between atoms: CB_20  and  CG_21
REMARK   10  A    between atoms: CZ_26  and  OH_27
REMARK                            x       y       z     vdW  Elec       q    Type
REMARK                         _______ _______ _______ _____ _____    ______ ____
ROOT
ATOM      1  CA  TYR A   1       2.762   1.643   0.065  0.00  0.00    +0.017 C 
ENDROOT
BRANCH   1   4
ATOM      2  O   TYR A   1       0.726   2.344   1.176  0.00  0.00    -0.277 OA
ATOM      3  N   GLY A   2       0.687   2.047  -1.123  0.00  0.00    -0.298 N 
ATOM      4  C   TYR A   1       1.295   2.057   0.124  0.00  0.00    +0.203 C 
ATOM      5  H   GLY A   2       1.224   1.804  -1.912  0.00  0.00    +0.150 HD
BRANCH   3   6
ATOM      6  CA  GLY A   2      -0.705   2.382  -1.302  0.00  0.00    +0.176 C 
BRANCH   6   9
ATOM      7  O   GLY A   2      -1.139   0.013  -1.492  0.00  0.00    -0.273 OA
ATOM      8  N   GLY A   3      -2.827   1.418  -0.732  0.00  0.00    -0.294 N 
ATOM      9  C   GLY A   2      -1.547   1.129  -1.182  0.00  0.00    +0.243 C 
ATOM     10  H   GLY A   3      -3.046   2.352  -0.510  0.00  0.00    +0.150 HD
BRANCH   8  11
ATOM     11  CA  GLY A   3      -3.856   0.415  -0.572  0.00  0.00    +0.200 C 
BRANCH  11  13
ATOM     12  OXT GLY A   3      -4.650  -1.081   1.138  0.00  0.00    -0.248 OA
ATOM     13  C   GLY A   3      -3.863  -0.205   0.801  0.00  0.00    +0.334 C 
BRANCH  13  14
ATOM     14  O   GLY A   3      -2.916   0.298   1.627  0.00  0.00    -0.479 OA
ATOM     15  H   GLY A   3      -2.336   0.968   1.322  0.00  0.00    +0.295 HD
ENDBRANCH  13  14
ENDBRANCH  11  13
ENDBRANCH   8  11
ENDBRANCH   6   9
ENDBRANCH   3   6
ENDBRANCH   1   4
BRANCH   1  16
ATOM     16  N   TYR A   1       3.542   2.784   0.543  0.00  0.00    +0.388 N 
ATOM     17  H1  TYR A   1       4.535   2.551   0.521  0.00  0.00    -0.089 HD
ATOM     18  H2  TYR A   1       3.267   3.007   1.500  0.00  0.00    -0.089 HD
ATOM     19  H3  TYR A   1       3.368   3.591  -0.057  0.00  0.00    -0.089 HD
ENDBRANCH   1  16
BRANCH   1  20
ATOM     20  CB  TYR A   1       3.019   0.422   0.959  0.00  0.00    +0.013 C 
BRANCH  20  21
ATOM     21  CG  TYR A   1       2.252  -0.802   0.516  0.00  0.00    -0.024 C 
ATOM     22  CD1 TYR A   1       0.984  -1.029   1.024  0.00  0.00    -0.001 C 
ATOM     23  CD2 TYR A   1       2.833  -1.674  -0.390  0.00  0.00    -0.001 C 
ATOM     24  CE1 TYR A   1       0.276  -2.159   0.614  0.00  0.00    +0.036 C 
ATOM     25  CE2 TYR A   1       2.126  -2.804  -0.800  0.00  0.00    +0.036 C 
ATOM     26  CZ  TYR A   1       0.847  -3.047  -0.297  0.00  0.00    +0.134 C 
BRANCH  26  27
ATOM     27  OH  TYR A   1       0.156  -4.149  -0.697  0.00  0.00    -0.506 OA
ATOM     28  HH  TYR A   1      -0.703  -4.311  -0.359  0.00  0.00    +0.292 HD
ENDBRANCH  26  27
ENDBRANCH  20  21
ENDBRANCH   1  20
TORSDOF 10
