123747
  -OEChem-03292013323D

 27 27  0     1  0  0  0  0  0999 V2000
    3.3339    0.5296   -0.3309 S   0  0  0  0  0  0  0  0  0  0  0  0
   -3.8789   -0.2749    1.2155 O   0  0  0  0  0  0  0  0  0  0  0  0
    2.3653   -0.1051    0.8356 O   0  0  0  0  0  0  0  0  0  0  0  0
    1.2195   -2.3327   -0.3678 O   0  0  0  0  0  0  0  0  0  0  0  0
    4.8439    0.2868    0.2399 O   0  0  0  0  0  0  0  0  0  0  0  0
    3.1852   -0.2509   -1.5453 O   0  0  0  0  0  0  0  0  0  0  0  0
    3.1070    1.9630   -0.3589 O   0  0  0  0  0  0  0  0  0  0  0  0
   -5.1411    0.8236   -1.1294 N   0  0  0  0  0  0  0  0  0  0  0  0
   -3.2047   -0.2958   -0.0499 C   0  0  2  0  0  0  0  0  0  0  0  0
   -1.7325   -0.2484    0.1828 C   0  0  0  0  0  0  0  0  0  0  0  0
   -3.6972    0.8823   -0.9136 C   0  0  0  0  0  0  0  0  0  0  0  0
   -0.9306   -1.3224   -0.2035 C   0  0  0  0  0  0  0  0  0  0  0  0
   -1.1574    0.8696    0.7870 C   0  0  0  0  0  0  0  0  0  0  0  0
    0.4466   -1.2783    0.0145 C   0  0  0  0  0  0  0  0  0  0  0  0
    1.0215   -0.1601    0.6187 C   0  0  0  0  0  0  0  0  0  0  0  0
    0.2195    0.9137    1.0051 C   0  0  0  0  0  0  0  0  0  0  0  0
   -3.4809   -1.2393   -0.5376 H   0  0  0  0  0  0  0  0  0  0  0  0
   -3.1831    0.8841   -1.8816 H   0  0  0  0  0  0  0  0  0  0  0  0
   -3.4891    1.8397   -0.4241 H   0  0  0  0  0  0  0  0  0  0  0  0
   -1.3694   -2.1982   -0.6754 H   0  0  0  0  0  0  0  0  0  0  0  0
   -1.7644    1.7115    1.1081 H   0  0  0  0  0  0  0  0  0  0  0  0
    0.6597    1.7859    1.4807 H   0  0  0  0  0  0  0  0  0  0  0  0
   -4.8344   -0.2816    1.0339 H   0  0  0  0  0  0  0  0  0  0  0  0
   -5.3791   -0.0430   -1.6101 H   0  0  0  0  0  0  0  0  0  0  0  0
   -5.4205    1.5815   -1.7509 H   0  0  0  0  0  0  0  0  0  0  0  0
    2.1414   -2.1451   -0.1206 H   0  0  0  0  0  0  0  0  0  0  0  0
    4.9819    0.5343    1.1843 H   0  0  0  0  0  0  0  0  0  0  0  0
  1  3  1  0  0  0  0
  1  5  1  0  0  0  0
  1  6  2  0  0  0  0
  1  7  2  0  0  0  0
  2  9  1  0  0  0  0
  2 23  1  0  0  0  0
  3 15  1  0  0  0  0
  4 14  1  0  0  0  0
  4 26  1  0  0  0  0
  5 27  1  0  0  0  0
  8 11  1  0  0  0  0
  8 24  1  0  0  0  0
  8 25  1  0  0  0  0
  9 10  1  0  0  0  0
  9 11  1  0  0  0  0
  9 17  1  0  0  0  0
 10 12  2  0  0  0  0
 10 13  1  0  0  0  0
 11 18  1  0  0  0  0
 11 19  1  0  0  0  0
 12 14  1  0  0  0  0
 12 20  1  0  0  0  0
 13 16  2  0  0  0  0
 13 21  1  0  0  0  0
 14 15  2  0  0  0  0
 15 16  1  0  0  0  0
 16 22  1  0  0  0  0
M  END
> <PUBCHEM_COMPOUND_CID>
123747

> <PUBCHEM_CONFORMER_RMSD>
0.6

> <PUBCHEM_CONFORMER_DIVERSEORDER>
3
30
2
21
33
19
31
32
9
24
16
25
36
7
28
5
23
11
20
29
34
17
10
4
35
18
22
27
14
6
12
13
15
8
26
1

> <PUBCHEM_MMFF94_PARTIAL_CHARGES>
24
1 1.67
10 -0.14
11 0.27
12 -0.15
13 -0.15
14 0.08
15 0.08
16 -0.15
2 -0.68
20 0.15
21 0.15
22 0.15
23 0.4
24 0.36
25 0.36
26 0.45
27 0.5
3 -0.27
4 -0.53
5 -0.68
6 -0.65
7 -0.65
8 -0.99
9 0.42

> <PUBCHEM_EFFECTIVE_ROTOR_COUNT>
4

> <PUBCHEM_PHARMACOPHORE_FEATURES>
10
1 2 acceptor
1 2 donor
1 4 donor
1 5 acceptor
1 6 acceptor
1 7 acceptor
1 8 cation
1 8 donor
4 1 5 6 7 anion
6 10 12 13 14 15 16 rings

> <PUBCHEM_HEAVY_ATOM_COUNT>
16

> <PUBCHEM_ATOM_DEF_STEREO_COUNT>
1

> <PUBCHEM_ATOM_UDEF_STEREO_COUNT>
0

> <PUBCHEM_BOND_DEF_STEREO_COUNT>
0

> <PUBCHEM_BOND_UDEF_STEREO_COUNT>
0

> <PUBCHEM_ISOTOPIC_ATOM_COUNT>
0

> <PUBCHEM_COMPONENT_COUNT>
1

> <PUBCHEM_CACTVS_TAUTO_COUNT>
3

> <PUBCHEM_CONFORMER_ID>
0001E36300000003

> <PUBCHEM_MMFF94_ENERGY>
31.3425

> <PUBCHEM_FEATURE_SELFOVERLAP>
50.807

> <PUBCHEM_SHAPE_FINGERPRINT>
11401426 45 18131062753614738744
11471102 20 18343016666446886066
11769659 78 13973964294342361325
12251169 10 10737292333287035793
12670546 177 18130780222165965389
13705890 14 13901905626515045642
13760787 19 17748819718151723227
13760787 5 18201442437148108083
14289901 80 16515973648074867393
14911166 2 18131625703589304425
14943859 89 18342175600434413274
14993402 34 17275096237336451311
15209294 21 14418403361389192981
15775835 57 18041562541842853796
16945 1 18201996625357611827
18186145 218 18341622541743143268
19026448 4 17458348515838219411
19026448 5 16732978739026519099
200 152 15554452903101807906
20233049 118 18335695048846365680
20645476 183 18261389000790178346
20645477 70 18269832021968306311
21256008 61 16200425892535356385
21501502 16 17985267361606112969
21637258 2 13973676200620750197
22485316 2 14764352617330789224
23114952 82 18121215381563670239
231179 274 18187080637445353374
23402539 116 18201430411566636004
23402655 69 18128521701366829973
23493267 7 18113051640876512521
23532345 42 8430317896738833286
23557571 272 17458637713461312625
23559900 14 18115302268122590450
25 1 18412546509122568195
2748010 2 17841420733413688747
3060560 45 18412541007496205142
3071541 37 18339920424613188727
4990 188 17632857533810337261
58051976 378 18341612590135100509
633830 44 17987817257666762529
69090 78 17203609298333713486
81539 233 18333730191302376818

> <PUBCHEM_SHAPE_MULTIPOLES>
292.93
8.33
1.53
1.11
1.9
0.4
-0.09
-2.86
-2.37
-0.58
-0.19
0.29
-0.15
0.39

> <PUBCHEM_SHAPE_SELFOVERLAP>
594.077

> <PUBCHEM_SHAPE_VOLUME>
171.4

> <PUBCHEM_COORDINATE_TYPE>
2
5
10

$$$$
