REMARK  Name = 123745
REMARK  12 active torsions:
REMARK  status: ('A' for Active; 'I' for Inactive)
REMARK    1  A    between atoms: C_1  and  C_3
REMARK    2  A    between atoms: C_1  and  O_6
REMARK    3  A    between atoms: C_1  and  C_13
REMARK    4  A    between atoms: C_1  and  C_18
REMARK    5  A    between atoms: C_3  and  O_4
REMARK    6  A    between atoms: O_6  and  P_7
REMARK    7  A    between atoms: P_7  and  O_9
REMARK    8  A    between atoms: P_7  and  O_11
REMARK    9  A    between atoms: C_13  and  C_15
REMARK   10  A    between atoms: C_15  and  O_16
REMARK   11  A    between atoms: C_18  and  C_20
REMARK   12  A    between atoms: C_20  and  O_21
REMARK                            x       y       z     vdW  Elec       q    Type
REMARK                         _______ _______ _______ _____ _____    ______ ____
ROOT
ATOM      1  C   UNL     1      -0.068  -0.452  -0.232  0.00  0.00    +0.212 C 
ENDROOT
BRANCH   1   3
ATOM      2  O   UNL     1      -0.259  -1.740   1.837  0.00  0.00    -0.248 OA
ATOM      3  C   UNL     1      -0.208  -1.724   0.613  0.00  0.00    +0.340 C 
BRANCH   3   4
ATOM      4  O   UNL     1      -0.226  -2.860  -0.132  0.00  0.00    -0.479 OA
ATOM      5  H   UNL     1      -0.185  -2.808  -1.067  0.00  0.00    +0.295 HD
ENDBRANCH   3   4
ENDBRANCH   1   3
BRANCH   1   6
ATOM      6  O   UNL     1       0.023   0.635   0.683  0.00  0.00    -0.266 OA
BRANCH   6   7
ATOM      7  P   UNL     1       0.180   2.128   0.086  0.00  0.00    +0.473 P 
ATOM      8  O   UNL     1      -0.943   2.580  -0.801  0.00  0.00    -0.227 OA
BRANCH   7   9
ATOM      9  O   UNL     1       1.643   2.116  -0.604  0.00  0.00    -0.303 OA
ATOM     10  H   UNL     1       2.301   1.812   0.040  0.00  0.00    +0.222 HD
ENDBRANCH   7   9
BRANCH   7  11
ATOM     11  O   UNL     1       0.404   3.022   1.415  0.00  0.00    -0.303 OA
ATOM     12  H   UNL     1       1.145   2.661   1.926  0.00  0.00    +0.222 HD
ENDBRANCH   7  11
ENDBRANCH   6   7
ENDBRANCH   1   6
BRANCH   1  13
ATOM     13  C   UNL     1       1.226  -0.550  -1.058  0.00  0.00    +0.148 C 
BRANCH  13  15
ATOM     14  O   UNL     1       2.551  -0.663   0.959  0.00  0.00    -0.250 OA
ATOM     15  C   UNL     1       2.504  -0.688  -0.264  0.00  0.00    +0.317 C 
BRANCH  15  16
ATOM     16  O   UNL     1       3.604  -0.814  -1.045  0.00  0.00    -0.480 OA
ATOM     17  H   UNL     1       3.518  -0.829  -1.978  0.00  0.00    +0.295 HD
ENDBRANCH  15  16
ENDBRANCH  13  15
ENDBRANCH   1  13
BRANCH   1  18
ATOM     18  C   UNL     1      -1.355  -0.333  -1.063  0.00  0.00    +0.148 C 
BRANCH  18  20
ATOM     19  O   UNL     1      -2.710   0.224   0.859  0.00  0.00    -0.250 OA
ATOM     20  C   UNL     1      -2.642  -0.228  -0.277  0.00  0.00    +0.317 C 
BRANCH  20  21
ATOM     21  O   UNL     1      -3.724  -0.652  -0.974  0.00  0.00    -0.480 OA
ATOM     22  H   UNL     1      -3.620  -0.990  -1.842  0.00  0.00    +0.295 HD
ENDBRANCH  20  21
ENDBRANCH  18  20
ENDBRANCH   1  18
TORSDOF 12
