123715
  -OEChem-03292013323D

 38 38  0     1  0  0  0  0  0999 V2000
    0.7260    2.3435    1.1763 O   0  0  0  0  0  0  0  0  0  0  0  0
    0.1557   -4.1489   -0.6971 O   0  0  0  0  0  0  0  0  0  0  0  0
   -1.1392    0.0126   -1.4924 O   0  0  0  0  0  0  0  0  0  0  0  0
   -2.9161    0.2978    1.6271 O   0  0  0  0  0  0  0  0  0  0  0  0
   -4.6502   -1.0811    1.1382 O   0  0  0  0  0  0  0  0  0  0  0  0
    0.6874    2.0470   -1.1234 N   0  0  0  0  0  0  0  0  0  0  0  0
    3.5420    2.7844    0.5434 N   0  0  0  0  0  0  0  0  0  0  0  0
   -2.8272    1.4177   -0.7317 N   0  0  0  0  0  0  0  0  0  0  0  0
    2.7617    1.6428    0.0645 C   0  0  1  0  0  0  0  0  0  0  0  0
    3.0189    0.4216    0.9594 C   0  0  0  0  0  0  0  0  0  0  0  0
    2.2520   -0.8020    0.5156 C   0  0  0  0  0  0  0  0  0  0  0  0
    1.2946    2.0569    0.1238 C   0  0  0  0  0  0  0  0  0  0  0  0
    0.9835   -1.0286    1.0237 C   0  0  0  0  0  0  0  0  0  0  0  0
    2.8330   -1.6742   -0.3904 C   0  0  0  0  0  0  0  0  0  0  0  0
   -0.7053    2.3816   -1.3016 C   0  0  0  0  0  0  0  0  0  0  0  0
    0.2761   -2.1590    0.6142 C   0  0  0  0  0  0  0  0  0  0  0  0
    2.1256   -2.8044   -0.7998 C   0  0  0  0  0  0  0  0  0  0  0  0
    0.8471   -3.0469   -0.2975 C   0  0  0  0  0  0  0  0  0  0  0  0
   -1.5469    1.1290   -1.1816 C   0  0  0  0  0  0  0  0  0  0  0  0
   -3.8563    0.4154   -0.5719 C   0  0  0  0  0  0  0  0  0  0  0  0
   -3.8626   -0.2055    0.8012 C   0  0  0  0  0  0  0  0  0  0  0  0
    3.0609    1.4172   -0.9654 H   0  0  0  0  0  0  0  0  0  0  0  0
    4.0919    0.1855    0.9724 H   0  0  0  0  0  0  0  0  0  0  0  0
    2.7583    0.6437    2.0039 H   0  0  0  0  0  0  0  0  0  0  0  0
    1.2189    1.7753   -1.9448 H   0  0  0  0  0  0  0  0  0  0  0  0
    3.4360    3.5654   -0.1034 H   0  0  0  0  0  0  0  0  0  0  0  0
    4.5331    2.5463    0.5397 H   0  0  0  0  0  0  0  0  0  0  0  0
    0.5297   -0.3516    1.7410 H   0  0  0  0  0  0  0  0  0  0  0  0
    3.8271   -1.4922   -0.7887 H   0  0  0  0  0  0  0  0  0  0  0  0
   -1.0003    3.1290   -0.5585 H   0  0  0  0  0  0  0  0  0  0  0  0
   -0.8319    2.7982   -2.3051 H   0  0  0  0  0  0  0  0  0  0  0  0
   -0.7194   -2.3421    1.0093 H   0  0  0  0  0  0  0  0  0  0  0  0
    2.5812   -3.4879   -1.5112 H   0  0  0  0  0  0  0  0  0  0  0  0
   -3.0682    2.3761   -0.4965 H   0  0  0  0  0  0  0  0  0  0  0  0
   -4.8181    0.9084   -0.7378 H   0  0  0  0  0  0  0  0  0  0  0  0
   -3.7035   -0.3765   -1.3112 H   0  0  0  0  0  0  0  0  0  0  0  0
    0.6999   -4.6503   -1.3285 H   0  0  0  0  0  0  0  0  0  0  0  0
   -2.9392   -0.1234    2.5126 H   0  0  0  0  0  0  0  0  0  0  0  0
  1 12  2  0  0  0  0
  2 18  1  0  0  0  0
  2 37  1  0  0  0  0
  3 19  2  0  0  0  0
  4 21  1  0  0  0  0
  4 38  1  0  0  0  0
  5 21  2  0  0  0  0
  6 12  1  0  0  0  0
  6 15  1  0  0  0  0
  6 25  1  0  0  0  0
  7  9  1  0  0  0  0
  7 26  1  0  0  0  0
  7 27  1  0  0  0  0
  8 19  1  0  0  0  0
  8 20  1  0  0  0  0
  8 34  1  0  0  0  0
  9 10  1  0  0  0  0
  9 12  1  0  0  0  0
  9 22  1  0  0  0  0
 10 11  1  0  0  0  0
 10 23  1  0  0  0  0
 10 24  1  0  0  0  0
 11 13  2  0  0  0  0
 11 14  1  0  0  0  0
 13 16  1  0  0  0  0
 13 28  1  0  0  0  0
 14 17  2  0  0  0  0
 14 29  1  0  0  0  0
 15 19  1  0  0  0  0
 15 30  1  0  0  0  0
 15 31  1  0  0  0  0
 16 18  2  0  0  0  0
 16 32  1  0  0  0  0
 17 18  1  0  0  0  0
 17 33  1  0  0  0  0
 20 21  1  0  0  0  0
 20 35  1  0  0  0  0
 20 36  1  0  0  0  0
M  END
> <PUBCHEM_COMPOUND_CID>
123715

> <PUBCHEM_CONFORMER_RMSD>
0.8

> <PUBCHEM_CONFORMER_DIVERSEORDER>
1
43
61
63
92
87
71
46
155
13
44
90
80
94
68
53
124
59
145
113
126
54
114
146
38
125
105
98
84
129
127
81
79
134
23
122
18
50
56
49
88
52
6
154
148
47
70
142
55
5
22
152
141
27
10
86
31
109
149
137
69
135
147
9
16
12
35
60
66
115
130
83
73
11
33
45
103
120
57
77
139
51
75
91
36
32
123
42
97
136
106
58
15
133
76
25
89
108
78
67
99
4
93
65
112
21
39
100
95
118
48
28
121
20
37
104
96
107
153
40
128
143
30
144
102
119
138
72
151
14
111
41
116
3
34
140
150
19
132
82
85
24
62
29
64
8
7
117
2
74
131
26
110
101
17

> <PUBCHEM_MMFF94_PARTIAL_CHARGES>
31
1 -0.57
10 0.14
11 -0.14
12 0.57
13 -0.15
14 -0.15
15 0.36
16 -0.15
17 -0.15
18 0.08
19 0.57
2 -0.53
20 0.36
21 0.66
25 0.37
26 0.36
27 0.36
28 0.15
29 0.15
3 -0.57
32 0.15
33 0.15
34 0.37
37 0.45
38 0.5
4 -0.65
5 -0.57
6 -0.73
7 -0.99
8 -0.73
9 0.33

> <PUBCHEM_EFFECTIVE_ROTOR_COUNT>
9

> <PUBCHEM_PHARMACOPHORE_FEATURES>
11
1 1 acceptor
1 2 donor
1 3 acceptor
1 4 acceptor
1 5 acceptor
1 6 donor
1 7 cation
1 7 donor
1 8 donor
3 4 5 21 anion
6 11 13 14 16 17 18 rings

> <PUBCHEM_HEAVY_ATOM_COUNT>
21

> <PUBCHEM_ATOM_DEF_STEREO_COUNT>
1

> <PUBCHEM_ATOM_UDEF_STEREO_COUNT>
0

> <PUBCHEM_BOND_DEF_STEREO_COUNT>
0

> <PUBCHEM_BOND_UDEF_STEREO_COUNT>
0

> <PUBCHEM_ISOTOPIC_ATOM_COUNT>
0

> <PUBCHEM_COMPONENT_COUNT>
1

> <PUBCHEM_CACTVS_TAUTO_COUNT>
8

> <PUBCHEM_CONFORMER_ID>
0001E34300000001

> <PUBCHEM_MMFF94_ENERGY>
36.3964

> <PUBCHEM_FEATURE_SELFOVERLAP>
55.881

> <PUBCHEM_SHAPE_FINGERPRINT>
10064457 181 18126286577982785793
10366900 7 18044653105593084287
12035758 1 18341037567983542226
12506688 2 18265052418735354493
12553582 1 17475225808712784668
12596599 1 17917707972590304247
12633257 1 18116993274229938753
13533116 47 18272086068556087961
14251705 54 18265050223943723767
14251757 5 16254494020318139334
15635459 17 18261950722546054591
17138139 8 17196536290493516143
20397935 3 15431469301845948601
20645477 70 18264749031141721645
21197605 99 17684664507942031291
21427221 339 17559129674394111929
238 59 18047997918553581621
2748010 2 18188754081522067212
2803657 2 15812579015799009931
445580 42 16389310638668591587
5282274 181 18192439777668660579
6287921 2 18341344356885915951
6438718 38 17769933807491025086
81228 2 16828375374424716304
9709674 26 18190448364668960869

> <PUBCHEM_SHAPE_MULTIPOLES>
387.88
6.38
4.19
1.37
6.81
1.82
0.04
-0.06
1.67
-3.16
-0.83
0.67
-0.17
1.47

> <PUBCHEM_SHAPE_SELFOVERLAP>
794.787

> <PUBCHEM_SHAPE_VOLUME>
222.1

> <PUBCHEM_COORDINATE_TYPE>
2
5
10

$$$$
