123712
  -OEChem-03292013323D

 55 58  0     1  0  0  0  0  0999 V2000
   -3.0412   -0.5237    2.0634 O   0  0  0  0  0  0  0  0  0  0  0  0
    0.1154    1.9437   -1.2494 O   0  0  0  0  0  0  0  0  0  0  0  0
   -2.8536    1.0958   -1.8472 O   0  0  0  0  0  0  0  0  0  0  0  0
   -5.0080   -0.2844   -0.7290 O   0  0  0  0  0  0  0  0  0  0  0  0
    6.5125    0.2322    1.2892 O   0  0  0  0  0  0  0  0  0  0  0  0
   -5.9867    1.7877    0.6736 O   0  0  0  0  0  0  0  0  0  0  0  0
   -0.8462   -1.2582    0.2015 C   0  0  2  0  0  0  0  0  0  0  0  0
   -1.8109   -0.0804   -0.0040 C   0  0  1  0  0  0  0  0  0  0  0  0
    0.5243   -1.0391   -0.4581 C   0  0  1  0  0  0  0  0  0  0  0  0
    1.1791    0.2378    0.1606 C   0  0  1  0  0  0  0  0  0  0  0  0
    2.6553    0.4895   -0.3550 C   0  0  2  0  0  0  0  0  0  0  0  0
   -3.0939   -0.6428    0.6461 C   0  0  1  0  0  0  0  0  0  0  0  0
   -1.1908    1.1729    0.6353 C   0  0  0  0  0  0  0  0  0  0  0  0
    0.2255    1.4694    0.0874 C   0  0  2  0  0  0  0  0  0  0  0  0
   -1.6709   -2.4777   -0.2018 C   0  0  0  0  0  0  0  0  0  0  0  0
    1.4220   -2.2661   -0.2400 C   0  0  0  0  0  0  0  0  0  0  0  0
   -3.1056   -2.1344    0.2429 C   0  0  0  0  0  0  0  0  0  0  0  0
    3.4631   -0.8088   -0.2287 C   0  0  0  0  0  0  0  0  0  0  0  0
    2.8217   -2.0519   -0.7945 C   0  0  0  0  0  0  0  0  0  0  0  0
    3.2907    1.6001    0.5320 C   0  0  0  0  0  0  0  0  0  0  0  0
   -2.1004    0.2050   -1.4682 C   0  0  0  0  0  0  0  0  0  0  0  0
    2.7279    0.9284   -1.8348 C   0  0  0  0  0  0  0  0  0  0  0  0
   -4.3588    0.0641    0.2560 C   0  0  0  0  0  0  0  0  0  0  0  0
    4.8056    1.6722    0.4250 C   0  0  0  0  0  0  0  0  0  0  0  0
    4.6910   -0.8837    0.3114 C   0  0  0  0  0  0  0  0  0  0  0  0
    5.4138    0.3330    0.7475 C   0  0  0  0  0  0  0  0  0  0  0  0
   -4.7810    1.2193    1.1389 C   0  0  0  0  0  0  0  0  0  0  0  0
   -0.6599   -1.3657    1.2831 H   0  0  0  0  0  0  0  0  0  0  0  0
    0.4053   -0.9099   -1.5386 H   0  0  0  0  0  0  0  0  0  0  0  0
    1.2744    0.0191    1.2375 H   0  0  0  0  0  0  0  0  0  0  0  0
   -1.0870    1.0512    1.7190 H   0  0  0  0  0  0  0  0  0  0  0  0
   -1.8285    2.0462    0.4584 H   0  0  0  0  0  0  0  0  0  0  0  0
    0.6385    2.2939    0.6776 H   0  0  0  0  0  0  0  0  0  0  0  0
   -1.3150   -3.3928    0.2826 H   0  0  0  0  0  0  0  0  0  0  0  0
   -1.6392   -2.6436   -1.2845 H   0  0  0  0  0  0  0  0  0  0  0  0
    0.9829   -3.1446   -0.7276 H   0  0  0  0  0  0  0  0  0  0  0  0
    1.4863   -2.4986    0.8312 H   0  0  0  0  0  0  0  0  0  0  0  0
   -3.7917   -2.3645   -0.5789 H   0  0  0  0  0  0  0  0  0  0  0  0
   -3.3907   -2.7657    1.0927 H   0  0  0  0  0  0  0  0  0  0  0  0
    2.7764   -1.9674   -1.8872 H   0  0  0  0  0  0  0  0  0  0  0  0
    3.4245   -2.9435   -0.5819 H   0  0  0  0  0  0  0  0  0  0  0  0
    3.0353    1.4187    1.5855 H   0  0  0  0  0  0  0  0  0  0  0  0
    2.8746    2.5825    0.2783 H   0  0  0  0  0  0  0  0  0  0  0  0
   -1.6341   -0.4605   -2.2121 H   0  0  0  0  0  0  0  0  0  0  0  0
    2.4195    1.9697   -1.9693 H   0  0  0  0  0  0  0  0  0  0  0  0
    3.7524    0.8632   -2.2221 H   0  0  0  0  0  0  0  0  0  0  0  0
    2.1070    0.3037   -2.4845 H   0  0  0  0  0  0  0  0  0  0  0  0
    5.1822    2.4078    1.1444 H   0  0  0  0  0  0  0  0  0  0  0  0
    5.1303    1.9761   -0.5751 H   0  0  0  0  0  0  0  0  0  0  0  0
   -2.8440    0.3900    2.3207 H   0  0  0  0  0  0  0  0  0  0  0  0
    0.0670    1.1898   -1.8568 H   0  0  0  0  0  0  0  0  0  0  0  0
    5.2260   -1.8240    0.3923 H   0  0  0  0  0  0  0  0  0  0  0  0
   -4.0173    1.9985    1.1257 H   0  0  0  0  0  0  0  0  0  0  0  0
   -4.9614    0.8853    2.1635 H   0  0  0  0  0  0  0  0  0  0  0  0
   -6.6833    1.1154    0.7662 H   0  0  0  0  0  0  0  0  0  0  0  0
  1 12  1  0  0  0  0
  1 50  1  0  0  0  0
  2 14  1  0  0  0  0
  2 51  1  0  0  0  0
  3 21  2  0  0  0  0
  4 23  2  0  0  0  0
  5 26  2  0  0  0  0
  6 27  1  0  0  0  0
  6 55  1  0  0  0  0
  7  8  1  0  0  0  0
  7  9  1  0  0  0  0
  7 15  1  0  0  0  0
  7 28  1  0  0  0  0
  8 12  1  0  0  0  0
  8 13  1  0  0  0  0
  8 21  1  0  0  0  0
  9 10  1  0  0  0  0
  9 16  1  0  0  0  0
  9 29  1  0  0  0  0
 10 11  1  0  0  0  0
 10 14  1  0  0  0  0
 10 30  1  0  0  0  0
 11 18  1  0  0  0  0
 11 20  1  0  0  0  0
 11 22  1  0  0  0  0
 12 17  1  0  0  0  0
 12 23  1  0  0  0  0
 13 14  1  0  0  0  0
 13 31  1  0  0  0  0
 13 32  1  0  0  0  0
 14 33  1  0  0  0  0
 15 17  1  0  0  0  0
 15 34  1  0  0  0  0
 15 35  1  0  0  0  0
 16 19  1  0  0  0  0
 16 36  1  0  0  0  0
 16 37  1  0  0  0  0
 17 38  1  0  0  0  0
 17 39  1  0  0  0  0
 18 19  1  0  0  0  0
 18 25  2  0  0  0  0
 19 40  1  0  0  0  0
 19 41  1  0  0  0  0
 20 24  1  0  0  0  0
 20 42  1  0  0  0  0
 20 43  1  0  0  0  0
 21 44  1  0  0  0  0
 22 45  1  0  0  0  0
 22 46  1  0  0  0  0
 22 47  1  0  0  0  0
 23 27  1  0  0  0  0
 24 26  1  0  0  0  0
 24 48  1  0  0  0  0
 24 49  1  0  0  0  0
 25 26  1  0  0  0  0
 25 52  1  0  0  0  0
 27 53  1  0  0  0  0
 27 54  1  0  0  0  0
M  END
> <PUBCHEM_COMPOUND_CID>
123712

> <PUBCHEM_CONFORMER_RMSD>
0.8

> <PUBCHEM_CONFORMER_DIVERSEORDER>
1
3
2

> <PUBCHEM_MMFF94_PARTIAL_CHARGES>
23
1 -0.68
11 0.14
12 0.34
14 0.28
18 -0.28
19 0.14
2 -0.68
21 0.45
23 0.45
24 0.06
25 -0.14
26 0.49
27 0.34
3 -0.57
4 -0.57
44 0.06
5 -0.57
50 0.4
51 0.4
52 0.15
55 0.4
6 -0.68
8 0.06

> <PUBCHEM_EFFECTIVE_ROTOR_COUNT>
4.8

> <PUBCHEM_PHARMACOPHORE_FEATURES>
13
1 1 acceptor
1 1 donor
1 2 acceptor
1 2 donor
1 3 acceptor
1 4 acceptor
1 5 acceptor
1 6 acceptor
1 6 donor
5 7 8 12 15 17 rings
6 11 18 20 24 25 26 rings
6 7 8 9 10 13 14 rings
6 9 10 11 16 18 19 rings

> <PUBCHEM_HEAVY_ATOM_COUNT>
27

> <PUBCHEM_ATOM_DEF_STEREO_COUNT>
7

> <PUBCHEM_ATOM_UDEF_STEREO_COUNT>
0

> <PUBCHEM_BOND_DEF_STEREO_COUNT>
0

> <PUBCHEM_BOND_UDEF_STEREO_COUNT>
0

> <PUBCHEM_ISOTOPIC_ATOM_COUNT>
0

> <PUBCHEM_COMPONENT_COUNT>
1

> <PUBCHEM_CACTVS_TAUTO_COUNT>
15

> <PUBCHEM_CONFORMER_ID>
0001E34000000001

> <PUBCHEM_MMFF94_ENERGY>
87.5712

> <PUBCHEM_FEATURE_SELFOVERLAP>
66.079

> <PUBCHEM_SHAPE_FINGERPRINT>
10906281 52 18261691341055070812
11089746 13 17632571656286731736
11132069 177 18408891766810700894
11578080 2 16807554077728387246
12035758 1 18041291984878783577
12236239 1 17274820237968451775
12403259 415 18261108535262300636
12403814 3 17967250931650927031
12422481 6 18259984868553900252
12596602 18 17275101734462300719
12616971 3 17458628947090235276
12633257 1 17603589659381068979
12788726 201 16988290772071909024
13140716 1 18338516473166294888
13224815 77 18340772623724030078
13583140 156 17346317145769800947
13675066 3 18113900493949639570
14178342 30 18340210811631168890
14341114 176 16515686658587021172
14790565 3 18198632029909682961
15196674 1 18412829118023665210
15238133 3 18340780272813176180
15375358 24 18342744030518262231
15788980 27 17386001801655011116
15840311 113 17913785925195459817
16945 1 18342749523775931790
17349148 13 18411691089324019750
17980427 23 18261953076388619508
1813 80 17167866365784875838
19141452 34 18408887360364016295
200 152 18060133262939266687
20511986 3 17988349399851431219
20715895 44 18339081476045895185
21033648 29 18263904636292450824
21150785 3 16630516333383328813
21304253 335 18339653256393905509
21421861 104 18042115484612556090
21452121 103 18343303635114185706
21859007 373 17751632157221429285
22182313 1 18115869602967965567
23402539 116 18271800263555737958
23557571 272 17749103362002528796
23559900 14 18200891642505795444
23569917 315 18410857685001758615
26918003 58 18411697707879179064
296302 2 17489873742993838335
335352 9 18340772559294278622
34797466 226 15195006114910084744
34934 24 18342737407763263259
350125 39 18410576193693413428
3633792 109 18129379307361591713
3680242 22 18336546015201509650
4340502 62 18341623590094971811
5104073 3 18335418027934935842
59755656 215 18342464708164289974

> <PUBCHEM_SHAPE_MULTIPOLES>
520.43
11.79
2.27
1.33
2.58
0.74
0.27
-3.55
-3.8
-0.24
0.08
-0.32
-0.35
0.15

> <PUBCHEM_SHAPE_SELFOVERLAP>
1128.321

> <PUBCHEM_SHAPE_VOLUME>
281

> <PUBCHEM_COORDINATE_TYPE>
2
5
10

$$$$
