REMARK  Name = 123796
REMARK  9 active torsions:
REMARK  status: ('A' for Active; 'I' for Inactive)
REMARK    1  A    between atoms: C_7  and  C_20
REMARK    2  A    between atoms: C_19  and  O_24
REMARK    3  A    between atoms: C_20  and  O_22
REMARK    4  A    between atoms: O_24  and  C_26
REMARK    5  A    between atoms: C_27  and  O_31
REMARK    6  A    between atoms: C_28  and  O_33
REMARK    7  A    between atoms: C_29  and  C_38
REMARK    8  A    between atoms: C_30  and  O_35
REMARK    9  A    between atoms: C_38  and  O_39
REMARK                            x       y       z     vdW  Elec       q    Type
REMARK                         _______ _______ _______ _____ _____    ______ ____
ROOT
ATOM      1  C   UNL     1       3.125  -1.407  -0.259  0.00  0.00    +0.000 C 
ATOM      2  C   UNL     1       4.140  -0.449  -0.893  0.00  0.00    +0.000 C 
ATOM      3  C   UNL     1       2.182  -0.587   0.681  0.00  0.00    +0.000 C 
ATOM      4  C   UNL     1       5.013   0.279   0.152  0.00  0.00    +0.002 C 
ATOM      5  C   UNL     1       1.077  -1.494   1.342  0.00  0.00    +0.000 C 
ATOM      6  C   UNL     1       0.294  -2.260   0.222  0.00  0.00    +0.002 C 
ATOM      7  C   UNL     1       5.923   1.085  -0.807  0.00  0.00    +0.027 C 
ATOM      8  C   UNL     1       2.985   0.280   1.688  0.00  0.00    +0.000 C 
ATOM      9  C   UNL     1       4.085   1.131   1.027  0.00  0.00    +0.000 C 
ATOM     10  C   UNL     1       2.326  -2.163  -1.329  0.00  0.00    +0.000 C 
ATOM     11  C   UNL     1       5.155  -0.997  -1.891  0.00  0.00    +0.000 C 
ATOM     12  C   UNL     1       1.231  -3.034  -0.720  0.00  0.00    +0.000 C 
ATOM     13  C   UNL     1       6.262   0.074  -1.927  0.00  0.00    +0.002 C 
ATOM     14  C   UNL     1       0.058  -0.670   2.183  0.00  0.00    +0.002 C 
ATOM     15  C   UNL     1      -0.637  -1.338  -0.593  0.00  0.00    +0.030 C 
ATOM     16  C   UNL     1       5.849  -0.668   1.049  0.00  0.00    +0.000 C 
ATOM     17  C   UNL     1       1.709  -2.519   2.319  0.00  0.00    +0.000 C 
ATOM     18  C   UNL     1      -0.831   0.250   1.355  0.00  0.00    +0.030 C 
ATOM     19  C   UNL     1      -1.587  -0.539   0.293  0.00  0.00    +0.118 C 
ENDROOT
BRANCH   7  20
ATOM     20  C   UNL     1       7.160   1.727  -0.195  0.00  0.00    +0.111 C 
ATOM     21  C   UNL     1       6.799   2.744   0.877  0.00  0.00    +0.032 C 
BRANCH  20  22
ATOM     22  O   UNL     1       7.910   2.370  -1.220  0.00  0.00    -0.384 OA
ATOM     23  H   UNL     1       8.143   1.724  -1.905  0.00  0.00    +0.210 HD
ENDBRANCH  20  22
ENDBRANCH   7  20
BRANCH  19  24
ATOM     24  O   UNL     1      -2.353   0.354  -0.509  0.00  0.00    -0.331 OA
BRANCH  24  26
ATOM     25  O   UNL     1      -4.558  -0.406  -0.460  0.00  0.00    -0.317 OA
ATOM     26  C   UNL     1      -3.650   0.570   0.044  0.00  0.00    +0.266 C 
ATOM     27  C   UNL     1      -4.105   1.975  -0.354  0.00  0.00    +0.196 C 
ATOM     28  C   UNL     1      -5.546   2.236   0.086  0.00  0.00    +0.172 C 
ATOM     29  C   UNL     1      -5.868  -0.255   0.074  0.00  0.00    +0.245 C 
ATOM     30  C   UNL     1      -6.470   1.088  -0.321  0.00  0.00    +0.178 C 
BRANCH  27  31
ATOM     31  O   UNL     1      -3.239   2.920   0.275  0.00  0.00    -0.378 OA
ATOM     32  H   UNL     1      -2.325   2.756  -0.003  0.00  0.00    +0.211 HD
ENDBRANCH  27  31
BRANCH  28  33
ATOM     33  O   UNL     1      -6.025   3.430  -0.535  0.00  0.00    -0.379 OA
ATOM     34  H   UNL     1      -5.452   4.174  -0.290  0.00  0.00    +0.211 HD
ENDBRANCH  28  33
BRANCH  30  35
ATOM     35  O   UNL     1      -7.724   1.241   0.343  0.00  0.00    -0.379 OA
ATOM     36  H   UNL     1      -8.117   2.094   0.099  0.00  0.00    +0.211 HD
ENDBRANCH  30  35
BRANCH  29  38
ATOM     37  O   UNL     1      -6.167  -2.173  -1.361  0.00  0.00    -0.247 OA
ATOM     38  C   UNL     1      -6.625  -1.384  -0.548  0.00  0.00    +0.344 C 
BRANCH  38  39
ATOM     39  O   UNL     1      -7.900  -1.416  -0.089  0.00  0.00    -0.478 OA
ATOM     40  H   UNL     1      -8.189  -0.780   0.536  0.00  0.00    +0.295 HD
ENDBRANCH  38  39
ENDBRANCH  29  38
ENDBRANCH  24  26
ENDBRANCH  19  24
TORSDOF 9
