REMARK  Name = 123747
REMARK  7 active torsions:
REMARK  status: ('A' for Active; 'I' for Inactive)
REMARK    1  A    between atoms: C_1  and  C_14
REMARK    2  A    between atoms: C_4  and  O_7
REMARK    3  A    between atoms: C_5  and  O_9
REMARK    4  A    between atoms: O_9  and  S_10
REMARK    5  A    between atoms: C_14  and  O_15
REMARK    6  A    between atoms: C_14  and  C_17
REMARK    7  A    between atoms: C_17  and  N_18
REMARK                            x       y       z     vdW  Elec       q    Type
REMARK                         _______ _______ _______ _____ _____    ______ ____
ROOT
ATOM      1  C   UNL     1      -1.732  -0.248   0.183  0.00  0.00    +0.005 C 
ATOM      2  C   UNL     1      -0.931  -1.322  -0.203  0.00  0.00    +0.038 C 
ATOM      3  C   UNL     1      -1.157   0.870   0.787  0.00  0.00    +0.001 C 
ATOM      4  C   UNL     1       0.447  -1.278   0.015  0.00  0.00    +0.170 C 
ATOM      5  C   UNL     1       1.022  -0.160   0.619  0.00  0.00    +0.209 C 
ATOM      6  C   UNL     1       0.220   0.914   1.005  0.00  0.00    +0.043 C 
ENDROOT
BRANCH   4   7
ATOM      7  O   UNL     1       1.220  -2.333  -0.368  0.00  0.00    -0.503 OA
ATOM      8  H   UNL     1       0.825  -3.080  -0.773  0.00  0.00    +0.292 HD
ENDBRANCH   4   7
BRANCH   5   9
ATOM      9  O   UNL     1       2.365  -0.105   0.836  0.00  0.00    -0.319 OA
BRANCH   9  10
ATOM     10  S   UNL     1       3.334   0.530  -0.331  0.00  0.00    +0.282 S 
ATOM     11  O   UNL     1       4.844   0.287   0.240  0.00  0.00    -0.012 OA
ATOM     12  O   UNL     1       3.185  -0.251  -1.545  0.00  0.00    -0.105 OA
ATOM     13  O   UNL     1       3.107   1.963  -0.359  0.00  0.00    -0.105 OA
ENDBRANCH   9  10
ENDBRANCH   5   9
BRANCH   1  14
ATOM     14  C   UNL     1      -3.205  -0.296  -0.050  0.00  0.00    +0.111 C 
BRANCH  14  15
ATOM     15  O   UNL     1      -3.879  -0.275   1.216  0.00  0.00    -0.382 OA
ATOM     16  H   UNL     1      -3.569  -1.016   1.759  0.00  0.00    +0.211 HD
ENDBRANCH  14  15
BRANCH  14  17
ATOM     17  C   UNL     1      -3.697   0.882  -0.914  0.00  0.00    -0.052 C 
BRANCH  17  18
ATOM     18  N   UNL     1      -5.141   0.824  -1.129  0.00  0.00    +0.382 N 
ATOM     19  H   UNL     1      -5.432   1.616  -1.703  0.00  0.00    -0.089 HD
ATOM     20  H   UNL     1      -5.621   0.861  -0.230  0.00  0.00    -0.089 HD
ATOM     21  H   UNL     1      -5.379  -0.046  -1.606  0.00  0.00    -0.089 HD
ENDBRANCH  17  18
ENDBRANCH  14  17
ENDBRANCH   1  14
TORSDOF 7
