REMARK  Name = 123782
REMARK  4 active torsions:
REMARK  status: ('A' for Active; 'I' for Inactive)
REMARK    1  A    between atoms: N_1  and  C_6
REMARK    2  A    between atoms: N_1  and  N_11
REMARK    3  A    between atoms: C_7  and  C_21
REMARK    4  A    between atoms: N_11  and  C_14
REMARK                            x       y       z     vdW  Elec       q    Type
REMARK                         _______ _______ _______ _____ _____    ______ ____
ROOT
ATOM      1  C   UNL     1      -0.770  -1.687  -0.001  0.00  0.00    -0.020 C 
ATOM      2  C   UNL     1      -1.245  -0.268  -0.001  0.00  0.00    -0.000 C 
ATOM      3  C   UNL     1       0.763  -1.570   0.001  0.00  0.00    +0.071 C 
ATOM      4  C   UNL     1      -0.203   0.653   0.000  0.00  0.00    +0.013 C 
ATOM      5  C   UNL     1       1.040  -0.089   0.000  0.00  0.00    +0.074 C 
ATOM      6  C   UNL     1      -2.557   0.179  -0.001  0.00  0.00    +0.030 C 
ATOM      7  C   UNL     1      -0.406   2.020   0.001  0.00  0.00    +0.001 C 
ATOM      8  C   UNL     1      -2.794   1.558   0.000  0.00  0.00    +0.003 C 
ATOM      9  C   UNL     1      -1.726   2.471   0.001  0.00  0.00    +0.000 C 
ENDROOT
BRANCH   6  12
ATOM     10  N   UNL     1      -4.994  -0.295   0.000  0.00  0.00    -0.343 N 
ATOM     11  N   UNL     1      -3.453  -2.051   0.002  0.00  0.00    -0.285 NA
ATOM     12  C   UNL     1      -3.677  -0.749  -0.001  0.00  0.00    +0.117 C 
ATOM     13  H   UNL     1      -5.737  -0.941   0.000  0.00  0.00    +0.144 HD
ATOM     14  H   UNL     1      -5.182   0.672   0.001  0.00  0.00    +0.144 HD
ATOM     15  H   UNL     1      -4.209  -2.681   0.002  0.00  0.00    +0.188 HD
ENDBRANCH   6  12
BRANCH   5  16
ATOM     16  N   UNL     1       2.233   0.396   0.000  0.00  0.00    -0.118 NA
BRANCH  16  17
ATOM     17  N   UNL     1       3.174  -0.629   0.000  0.00  0.00    -0.125 NA
BRANCH  17  20
ATOM     18  N   UNL     1       5.552  -0.933   0.001  0.00  0.00    -0.369 N 
ATOM     19  N   UNL     1       4.660   1.171  -0.001  0.00  0.00    -0.369 N 
ATOM     20  C   UNL     1       4.401  -0.178   0.000  0.00  0.00    +0.210 C 
ATOM     21  H   UNL     1       5.496  -1.916   0.001  0.00  0.00    +0.159 HD
ATOM     22  H   UNL     1       6.431  -0.490   0.000  0.00  0.00    +0.159 HD
ATOM     23  H   UNL     1       3.916   1.815  -0.001  0.00  0.00    +0.159 HD
ATOM     24  H   UNL     1       5.591   1.493  -0.001  0.00  0.00    +0.159 HD
ENDBRANCH  17  20
ENDBRANCH  16  17
ENDBRANCH   5  16
TORSDOF 4
