REMARK  Name = 123871
REMARK  6 active torsions:
REMARK  status: ('A' for Active; 'I' for Inactive)
REMARK    1  A    between atoms: C_1  and  C_4
REMARK    2  A    between atoms: C_1  and  CA_12
REMARK    3  A    between atoms: C_5  and  O_10
REMARK    4  A    between atoms: CA_12  and  N_13
REMARK    5  A    between atoms: CA_12  and  C_18
REMARK    6  A    between atoms: C_18  and  O_19
REMARK                            x       y       z     vdW  Elec       q    Type
REMARK                         _______ _______ _______ _____ _____    ______ ____
ROOT
ATOM      1  C   UNL     1      -1.376  -0.782  -1.029  0.00  0.00    +0.019 C 
ENDROOT
BRANCH   1   4
ATOM      2  O   UNL     1       2.460   2.148  -0.631  0.00  0.00    -0.283 OA
ATOM      3  O   UNL     1       3.864   0.224   0.617  0.00  0.00    -0.283 OA
ATOM      4  C   UNL     1       0.031  -0.459  -0.608  0.00  0.00    +0.013 C 
ATOM      5  C   UNL     1       0.802  -1.493   0.068  0.00  0.00    +0.133 C 
ATOM      6  C   UNL     1       0.553   0.754  -0.852  0.00  0.00    +0.044 C 
ATOM      7  C   UNL     1       2.063  -1.313   0.485  0.00  0.00    +0.082 C 
ATOM      8  C   UNL     1       1.935   1.063  -0.435  0.00  0.00    +0.234 C 
ATOM      9  C   UNL     1       2.720  -0.012   0.261  0.00  0.00    +0.237 C 
BRANCH   5  10
ATOM     10  O   UNL     1       0.145  -2.694   0.255  0.00  0.00    -0.506 OA
ATOM     11  H   UNL     1      -0.737  -2.797  -0.045  0.00  0.00    +0.292 HD
ENDBRANCH   5  10
ENDBRANCH   1   4
BRANCH   1  12
ATOM     12  CA  UNL     1      -2.383  -0.519   0.093  0.00  0.00    +0.040 C 
BRANCH  12  13
ATOM     13  N   UNL     1      -3.735  -0.833  -0.367  0.00  0.00    +0.389 N 
ATOM     14  H1  UNL     1      -3.771  -1.804  -0.677  0.00  0.00    -0.088 HD
ATOM     15  H2  UNL     1      -3.981  -0.219  -1.143  0.00  0.00    -0.088 HD
ATOM     16  H3  UNL     1      -4.395  -0.696   0.399  0.00  0.00    -0.088 HD
ENDBRANCH  12  13
BRANCH  12  18
ATOM     17  OXT UNL     1      -3.111   1.810   0.042  0.00  0.00    -0.253 OA
ATOM     18  C   UNL     1      -2.411   0.935   0.535  0.00  0.00    +0.293 C 
BRANCH  18  19
ATOM     19  O   UNL     1      -1.558   1.171   1.568  0.00  0.00    -0.482 OA
ATOM     20  H   UNL     1      -1.040   0.472   1.916  0.00  0.00    +0.295 HD
ENDBRANCH  18  19
ENDBRANCH  12  18
ENDBRANCH   1  12
TORSDOF 6
