REMARK  Name = 123807
REMARK  6 active torsions:
REMARK  status: ('A' for Active; 'I' for Inactive)
REMARK    1  A    between atoms: N_2  and  C1*_12
REMARK    2  A    between atoms: C2*_13  and  O2*_16
REMARK    3  A    between atoms: C3*_14  and  O3*_18
REMARK    4  A    between atoms: C4*_15  and  C5*_20
REMARK    5  A    between atoms: C5*_20  and  O5*_21
REMARK    6  A    between atoms: N_23  and  C_25
REMARK                            x       y       z     vdW  Elec       q    Type
REMARK                         _______ _______ _______ _____ _____    ______ ____
ROOT
ATOM      1 CL   UNL     1      -1.500   3.987  -0.606  0.00  0.00    +0.024 Cl
ATOM      2  N   UNL     1       1.251  -0.184  -0.111  0.00  0.00    -0.236 N 
ATOM      3  N   UNL     1      -0.451  -1.553   0.345  0.00  0.00    -0.240 NA
ATOM      4  N   UNL     1       0.042   1.906  -0.377  0.00  0.00    -0.314 NA
ATOM      5  N   UNL     1      -2.355   1.594  -0.045  0.00  0.00    -0.314 NA
ATOM      6  C   UNL     1       0.125   0.590  -0.133  0.00  0.00    +0.221 C 
ATOM      7  C   UNL     1      -0.918  -0.277   0.153  0.00  0.00    +0.167 C 
ATOM      8  C   UNL     1      -2.197   0.269   0.193  0.00  0.00    +0.215 C 
ATOM      9  C   UNL     1       0.852  -1.463   0.180  0.00  0.00    +0.224 C 
ATOM     10  C   UNL     1      -1.242   2.319  -0.311  0.00  0.00    +0.207 C 
ATOM     11  N   UNL     1      -3.314  -0.536   0.476  0.00  0.00    -0.308 N 
ATOM     12  H   UNL     1      -3.170  -1.495   0.645  0.00  0.00    +0.149 HD
ENDROOT
BRANCH   2  14
ATOM     13  O4* UNL     1       3.367  -0.800  -0.991  0.00  0.00    -0.333 OA
ATOM     14  C1* UNL     1       2.623   0.256  -0.353  0.00  0.00    +0.226 C 
ATOM     15  C2* UNL     1       3.392   0.612   0.910  0.00  0.00    +0.187 C 
ATOM     16  C3* UNL     1       4.824   0.397   0.462  0.00  0.00    +0.171 C 
ATOM     17  C4* UNL     1       4.703  -0.830  -0.437  0.00  0.00    +0.175 C 
BRANCH  15  18
ATOM     18  O2* UNL     1       3.136   1.938   1.327  0.00  0.00    -0.378 OA
ATOM     19  H2* UNL     1       2.209   2.017   1.601  0.00  0.00    +0.211 HD
ENDBRANCH  15  18
BRANCH  16  20
ATOM     20  O3* UNL     1       5.248   1.507  -0.329  0.00  0.00    -0.379 OA
ATOM     21  H3* UNL     1       5.328   2.293   0.234  0.00  0.00    +0.211 HD
ENDBRANCH  16  20
BRANCH  17  22
ATOM     22  C5* UNL     1       4.880  -2.139   0.319  0.00  0.00    +0.169 C 
BRANCH  22  23
ATOM     23  O5* UNL     1       4.740  -3.213  -0.596  0.00  0.00    -0.379 OA
ATOM     24  H5* UNL     1       4.851  -4.054  -0.126  0.00  0.00    +0.211 HD
ENDBRANCH  22  23
ENDBRANCH  17  22
ENDBRANCH   2  14
BRANCH  11  25
ATOM     25  C   UNL     1      -4.665  -0.021   0.530  0.00  0.00    +0.071 C 
ATOM     26  C   UNL     1      -5.270   0.054  -0.867  0.00  0.00    +0.020 C 
ATOM     27  C   UNL     1      -5.588  -1.001   1.243  0.00  0.00    +0.020 C 
ATOM     28  C   UNL     1      -5.736  -1.368  -1.169  0.00  0.00    +0.002 C 
ATOM     29  C   UNL     1      -5.946  -2.044   0.186  0.00  0.00    +0.002 C 
ENDBRANCH  11  25
TORSDOF 6
