REMARK  Name = 123891
REMARK  6 active torsions:
REMARK  status: ('A' for Active; 'I' for Inactive)
REMARK    1  A    between atoms: N_2  and  CA_9
REMARK    2  A    between atoms: C_3  and  C_20
REMARK    3  A    between atoms: CA_11  and  C_16
REMARK    4  A    between atoms: C_16  and  O_17
REMARK    5  A    between atoms: N_19  and  O_29
REMARK    6  A    between atoms: C_20  and  C_24
REMARK                            x       y       z     vdW  Elec       q    Type
REMARK                         _______ _______ _______ _____ _____    ______ ____
ROOT
ATOM      1  O   UNL     1       1.701  -1.044   2.405  0.00  0.00    -0.268 OA
ATOM      2  N   UNL     1       0.229  -1.015   0.578  0.00  0.00    -0.291 N 
ATOM      3  C   UNL     1       1.460  -1.009   1.210  0.00  0.00    +0.269 C 
ATOM      4  H   UNL     1       0.203  -0.982  -0.406  0.00  0.00    +0.150 HD
ENDROOT
BRANCH   2   9
ATOM      5  S   UNL     1      -1.144   1.724   0.736  0.00  0.00    -0.114 S 
ATOM      6  O   UNL     1      -2.522  -2.643  -0.066  0.00  0.00    -0.273 OA
ATOM      7  N   UNL     1      -2.767  -0.359   0.467  0.00  0.00    -0.242 N 
ATOM      8  C   UNL     1      -1.868   0.227   1.444  0.00  0.00    +0.155 C 
ATOM      9  CA  UNL     1      -1.035  -1.067   1.311  0.00  0.00    +0.179 C 
ATOM     10  C   UNL     1      -2.226  -1.596   0.462  0.00  0.00    +0.251 C 
ATOM     11  CA  UNL     1      -3.778   0.322  -0.132  0.00  0.00    +0.124 C 
ATOM     12  C   UNL     1      -2.760   2.548   0.540  0.00  0.00    +0.083 C 
ATOM     13  C   UNL     1      -3.845   1.674  -0.087  0.00  0.00    -0.013 C 
ATOM     14  C   UNL     1      -4.976   2.496  -0.656  0.00  0.00    +0.029 C 
BRANCH  11  16
ATOM     15  OXT UNL     1      -5.799  -0.895  -0.424  0.00  0.00    -0.244 OA
ATOM     16  C   UNL     1      -4.760  -0.470  -0.888  0.00  0.00    +0.351 C 
BRANCH  16  17
ATOM     17  O   UNL     1      -4.321  -0.640  -2.150  0.00  0.00    -0.476 OA
ATOM     18  H   UNL     1      -3.501  -0.272  -2.415  0.00  0.00    +0.295 HD
ENDBRANCH  16  17
ENDBRANCH  11  16
ENDBRANCH   2   9
BRANCH   3  20
ATOM     19  N   UNL     1       3.147  -2.046  -0.207  0.00  0.00    -0.076 NA
ATOM     20  C   UNL     1       2.617  -0.950   0.245  0.00  0.00    +0.198 C 
BRANCH  20  24
ATOM     21  S   UNL     1       3.620   2.439  -1.481  0.00  0.00    -0.060 S 
ATOM     22  N   UNL     1       4.191   0.900   0.515  0.00  0.00    -0.383 NA
ATOM     23  N   UNL     1       5.490   2.869   0.359  0.00  0.00    -0.328 N 
ATOM     24  C   UNL     1       3.174   0.332  -0.199  0.00  0.00    +0.148 C 
ATOM     25  C   UNL     1       2.719   0.991  -1.301  0.00  0.00    +0.127 C 
ATOM     26  C   UNL     1       4.513   2.029  -0.074  0.00  0.00    +0.204 C 
ATOM     27  H   UNL     1       5.679   3.700  -0.133  0.00  0.00    +0.145 HD
ATOM     28  H   UNL     1       6.010   2.645   1.165  0.00  0.00    +0.145 HD
ENDBRANCH  20  24
BRANCH  19  29
ATOM     29  O   UNL     1       4.211  -1.787  -1.082  0.00  0.00    -0.373 OA
ATOM     30  C   UNL     1       4.729  -3.031  -1.526  0.00  0.00    +0.288 C 
ENDBRANCH  19  29
ENDBRANCH   3  20
TORSDOF 6
