REMARK  Name = 123889
REMARK  11 active torsions:
REMARK  status: ('A' for Active; 'I' for Inactive)
REMARK    1  A    between atoms: C_1  and  C_2
REMARK    2  A    between atoms: C_1  and  C_13
REMARK    3  A    between atoms: C_2  and  C_3
REMARK    4  A    between atoms: C_3  and  C_4
REMARK    5  A    between atoms: C_4  and  N_5
REMARK    6  A    between atoms: C_4  and  C_10
REMARK    7  A    between atoms: C_10  and  O_11
REMARK    8  A    between atoms: C_13  and  N_14
REMARK    9  A    between atoms: N_14  and  C_17
REMARK   10  A    between atoms: C_17  and  C_19
REMARK   11  A    between atoms: C_19  and  C_21
REMARK                            x       y       z     vdW  Elec       q    Type
REMARK                         _______ _______ _______ _____ _____    ______ ____
ROOT
ATOM      1  C   UNK     1       1.401   0.447   0.069  0.00  0.00    -0.023 C 
ENDROOT
BRANCH   1   2
ATOM      2  C   UNK     1       2.623  -0.446  -0.159  0.00  0.00    -0.004 C 
BRANCH   2   3
ATOM      3  C   UNK     1       3.960   0.287   0.018  0.00  0.00    -0.011 C 
BRANCH   3   4
ATOM      4  C   UNK     1       5.202  -0.565  -0.274  0.00  0.00    +0.036 C 
BRANCH   4   5
ATOM      5  N   UNK     1       5.273  -1.726   0.615  0.00  0.00    +0.389 N 
ATOM      6  H   UNK     1       4.411  -2.267   0.537  0.00  0.00    -0.088 HD
ATOM      7  H   UNK     1       5.390  -1.411   1.577  0.00  0.00    -0.088 HD
ATOM      8  H   UNK     1       6.066  -2.310   0.348  0.00  0.00    -0.088 HD
ENDBRANCH   4   5
BRANCH   4  10
ATOM      9  O   UNK     1       7.364  -0.090   0.689  0.00  0.00    -0.253 OA
ATOM     10  C   UNK     1       6.497   0.206  -0.126  0.00  0.00    +0.293 C 
BRANCH  10  11
ATOM     11  O   UNK     1       6.611   1.266  -0.963  0.00  0.00    -0.482 OA
ATOM     12  H   UNK     1       5.925   1.458  -1.572  0.00  0.00    +0.295 HD
ENDBRANCH  10  11
ENDBRANCH   4  10
ENDBRANCH   3   4
ENDBRANCH   2   3
ENDBRANCH   1   2
BRANCH   1  13
ATOM     13  C   UNK     1       0.104  -0.345  -0.096  0.00  0.00    -0.081 C 
BRANCH  13  14
ATOM     14  N   UNK     1      -1.050   0.521   0.116  0.00  0.00    +0.389 N 
ATOM     15  H   UNK     1      -1.018   1.290  -0.553  0.00  0.00    -0.084 HD
ATOM     16  H   UNK     1      -1.017   0.878   1.071  0.00  0.00    -0.084 HD
BRANCH  14  17
ATOM     17  C   UNK     1      -2.293  -0.216  -0.063  0.00  0.00    -0.007 C 
BRANCH  17  19
ATOM     18  O   UNK     1      -3.287   1.900   0.469  0.00  0.00    -0.290 OA
ATOM     19  C   UNK     1      -3.474   0.717   0.175  0.00  0.00    +0.186 C 
BRANCH  19  21
ATOM     20  O   UNK     1      -4.893  -1.142  -0.285  0.00  0.00    -0.448 OA
ATOM     21  C   UNK     1      -4.829   0.153   0.038  0.00  0.00    +0.178 C 
ATOM     22  C   UNK     1      -6.026   0.740   0.190  0.00  0.00    +0.044 C 
ATOM     23  C   UNK     1      -6.961  -0.291  -0.065  0.00  0.00    +0.044 C 
ATOM     24  C   UNK     1      -6.222  -1.415  -0.349  0.00  0.00    +0.180 C 
ENDBRANCH  19  21
ENDBRANCH  17  19
ENDBRANCH  14  17
ENDBRANCH  13  14
ENDBRANCH   1  13
TORSDOF 11
