123807
  -OEChem-03292013323D

 45 48  0     1  0  0  0  0  0999 V2000
   -1.4997    3.9871   -0.6058 Cl  0  0  0  0  0  0  0  0  0  0  0  0
    3.3672   -0.7997   -0.9911 O   0  0  0  0  0  0  0  0  0  0  0  0
    3.1358    1.9380    1.3269 O   0  0  0  0  0  0  0  0  0  0  0  0
    5.2476    1.5074   -0.3285 O   0  0  0  0  0  0  0  0  0  0  0  0
    4.7398   -3.2126   -0.5955 O   0  0  0  0  0  0  0  0  0  0  0  0
    1.2512   -0.1844   -0.1111 N   0  0  0  0  0  0  0  0  0  0  0  0
   -3.3139   -0.5359    0.4756 N   0  0  0  0  0  0  0  0  0  0  0  0
   -0.4508   -1.5530    0.3451 N   0  0  0  0  0  0  0  0  0  0  0  0
    0.0421    1.9060   -0.3771 N   0  0  0  0  0  0  0  0  0  0  0  0
   -2.3554    1.5936   -0.0449 N   0  0  0  0  0  0  0  0  0  0  0  0
    2.6231    0.2561   -0.3531 C   0  0  1  0  0  0  0  0  0  0  0  0
    3.3920    0.6122    0.9101 C   0  0  1  0  0  0  0  0  0  0  0  0
    4.8241    0.3969    0.4623 C   0  0  1  0  0  0  0  0  0  0  0  0
    4.7028   -0.8295   -0.4369 C   0  0  1  0  0  0  0  0  0  0  0  0
   -4.6654   -0.0205    0.5298 C   0  0  0  0  0  0  0  0  0  0  0  0
   -5.2704    0.0543   -0.8666 C   0  0  0  0  0  0  0  0  0  0  0  0
   -5.5882   -1.0013    1.2429 C   0  0  0  0  0  0  0  0  0  0  0  0
   -5.7355   -1.3684   -1.1686 C   0  0  0  0  0  0  0  0  0  0  0  0
   -5.9457   -2.0443    0.1862 C   0  0  0  0  0  0  0  0  0  0  0  0
    4.8800   -2.1391    0.3186 C   0  0  0  0  0  0  0  0  0  0  0  0
    0.1246    0.5895   -0.1325 C   0  0  0  0  0  0  0  0  0  0  0  0
   -0.9183   -0.2772    0.1529 C   0  0  0  0  0  0  0  0  0  0  0  0
   -2.1971    0.2692    0.1928 C   0  0  0  0  0  0  0  0  0  0  0  0
    0.8524   -1.4634    0.1797 C   0  0  0  0  0  0  0  0  0  0  0  0
   -1.2423    2.3190   -0.3112 C   0  0  0  0  0  0  0  0  0  0  0  0
    2.5678    1.0981   -1.0541 H   0  0  0  0  0  0  0  0  0  0  0  0
    3.1501   -0.0710    1.7332 H   0  0  0  0  0  0  0  0  0  0  0  0
    5.5278    0.2892    1.2926 H   0  0  0  0  0  0  0  0  0  0  0  0
    5.3946   -0.7932   -1.2861 H   0  0  0  0  0  0  0  0  0  0  0  0
   -4.6852    0.9499    1.0384 H   0  0  0  0  0  0  0  0  0  0  0  0
   -4.5813    0.4257   -1.6315 H   0  0  0  0  0  0  0  0  0  0  0  0
   -6.1419    0.7207   -0.8527 H   0  0  0  0  0  0  0  0  0  0  0  0
   -6.5022   -0.4839    1.5604 H   0  0  0  0  0  0  0  0  0  0  0  0
   -5.1369   -1.4580    2.1297 H   0  0  0  0  0  0  0  0  0  0  0  0
   -4.9691   -1.9079   -1.7373 H   0  0  0  0  0  0  0  0  0  0  0  0
   -6.6500   -1.3689   -1.7703 H   0  0  0  0  0  0  0  0  0  0  0  0
   -6.9751   -2.3963    0.3092 H   0  0  0  0  0  0  0  0  0  0  0  0
   -5.2895   -2.9181    0.2721 H   0  0  0  0  0  0  0  0  0  0  0  0
    4.1260   -2.2687    1.1012 H   0  0  0  0  0  0  0  0  0  0  0  0
    5.8732   -2.2007    0.7729 H   0  0  0  0  0  0  0  0  0  0  0  0
   -3.1512   -1.5285    0.6055 H   0  0  0  0  0  0  0  0  0  0  0  0
    1.5486   -2.2867    0.2638 H   0  0  0  0  0  0  0  0  0  0  0  0
    2.1875    2.0043    1.5305 H   0  0  0  0  0  0  0  0  0  0  0  0
    6.1497    1.3160   -0.6374 H   0  0  0  0  0  0  0  0  0  0  0  0
    3.8553   -3.1446   -0.9942 H   0  0  0  0  0  0  0  0  0  0  0  0
  1 25  1  0  0  0  0
  2 11  1  0  0  0  0
  2 14  1  0  0  0  0
  3 12  1  0  0  0  0
  3 43  1  0  0  0  0
  4 13  1  0  0  0  0
  4 44  1  0  0  0  0
  5 20  1  0  0  0  0
  5 45  1  0  0  0  0
  6 11  1  0  0  0  0
  6 21  1  0  0  0  0
  6 24  1  0  0  0  0
  7 15  1  0  0  0  0
  7 23  1  0  0  0  0
  7 41  1  0  0  0  0
  8 22  1  0  0  0  0
  8 24  2  0  0  0  0
  9 21  2  0  0  0  0
  9 25  1  0  0  0  0
 10 23  1  0  0  0  0
 10 25  2  0  0  0  0
 11 12  1  0  0  0  0
 11 26  1  0  0  0  0
 12 13  1  0  0  0  0
 12 27  1  0  0  0  0
 13 14  1  0  0  0  0
 13 28  1  0  0  0  0
 14 20  1  0  0  0  0
 14 29  1  0  0  0  0
 15 16  1  0  0  0  0
 15 17  1  0  0  0  0
 15 30  1  0  0  0  0
 16 18  1  0  0  0  0
 16 31  1  0  0  0  0
 16 32  1  0  0  0  0
 17 19  1  0  0  0  0
 17 33  1  0  0  0  0
 17 34  1  0  0  0  0
 18 19  1  0  0  0  0
 18 35  1  0  0  0  0
 18 36  1  0  0  0  0
 19 37  1  0  0  0  0
 19 38  1  0  0  0  0
 20 39  1  0  0  0  0
 20 40  1  0  0  0  0
 21 22  1  0  0  0  0
 22 23  2  0  0  0  0
 24 42  1  0  0  0  0
M  END
> <PUBCHEM_COMPOUND_CID>
123807

> <PUBCHEM_CONFORMER_RMSD>
0.8

> <PUBCHEM_CONFORMER_DIVERSEORDER>
1
19
60
17
79
77
33
53
71
65
27
31
42
8
20
28
37
61
9
51
78
34
70
43
58
39
44
76
69
59
25
41
46
7
75
64
47
21
49
67
26
55
12
13
16
68
50
80
74
24
52
38
14
35
56
11
45
57
32
30
40
23
54
63
5
66
29
6
48
73
15
62
3
72
22
10
36
18
2
4

> <PUBCHEM_MMFF94_PARTIAL_CHARGES>
26
1 -0.18
10 -0.62
11 0.54
12 0.28
13 0.28
14 0.28
15 0.37
2 -0.56
20 0.28
21 0.11
22 0.23
23 0.41
24 0.04
25 0.8
3 -0.68
4 -0.68
41 0.4
42 0.15
43 0.4
44 0.4
45 0.4
5 -0.68
6 0.05
7 -0.87
8 -0.57
9 -0.57

> <PUBCHEM_EFFECTIVE_ROTOR_COUNT>
6

> <PUBCHEM_PHARMACOPHORE_FEATURES>
16
1 2 acceptor
1 3 acceptor
1 3 donor
1 4 acceptor
1 4 donor
1 5 acceptor
1 5 donor
1 7 cation
1 7 donor
3 6 8 24 cation
3 6 9 21 cation
3 9 10 25 cation
5 15 16 17 18 19 rings
5 2 11 12 13 14 rings
5 6 8 21 22 24 rings
6 9 10 21 22 23 25 rings

> <PUBCHEM_HEAVY_ATOM_COUNT>
25

> <PUBCHEM_ATOM_DEF_STEREO_COUNT>
4

> <PUBCHEM_ATOM_UDEF_STEREO_COUNT>
0

> <PUBCHEM_BOND_DEF_STEREO_COUNT>
0

> <PUBCHEM_BOND_UDEF_STEREO_COUNT>
0

> <PUBCHEM_ISOTOPIC_ATOM_COUNT>
0

> <PUBCHEM_COMPONENT_COUNT>
1

> <PUBCHEM_CACTVS_TAUTO_COUNT>
3

> <PUBCHEM_CONFORMER_ID>
0001E39F00000001

> <PUBCHEM_MMFF94_ENERGY>
54.236

> <PUBCHEM_FEATURE_SELFOVERLAP>
81.819

> <PUBCHEM_SHAPE_FINGERPRINT>
12166972 35 17603590733138750309
12236239 1 17917712435746879611
12403259 226 18339920416308188280
12403260 363 18335138631791025860
12422481 6 17561367240644123503
12516196 113 18408886274095837129
12623949 98 17988375801026339742
12730499 353 18272373122404795698
13533116 47 18342739611519342674
13782708 43 18202283567791169622
13862211 1 18408601483177916987
14347332 77 18337106740061210134
15196674 1 18409731716485117640
17349148 13 17749396948871156359
17492 89 18266458707567565030
18222031 100 18335415803099814209
18335252 98 18335146439641039794
19489759 90 16950276317704663267
200 152 18412544323522135147
20028762 73 18060696195470869447
21236236 1 18339081489168290729
21267235 1 18409176501635921179
21279426 13 18262514793448906607
21682296 61 18341900632228213143
220451 1 18060425745869794607
23402539 116 18411418406424958383
23522609 53 18054543328449281312
23559900 14 18259992586852776146
23569914 152 17257623653278593815
23845131 108 17475808546056514361
24771750 20 17320438099427463365
283562 15 18335138653102702609
314194 84 18341334487098198139
34797466 226 16588037839161599223
350125 39 18338239245943953344
4340502 62 15267350629769064839
465052 167 18273500065725440942
5104073 3 18270961228946804184
5283173 99 17895746297683811493
59755656 215 18260265218197003426
7495541 125 17632289081988154562

> <PUBCHEM_SHAPE_MULTIPOLES>
467.98
14.27
3.1
0.97
4.87
1.97
-0.06
-8.81
0.23
-0.51
0.52
0.38
-0.05
0.9

> <PUBCHEM_SHAPE_SELFOVERLAP>
1002.07

> <PUBCHEM_SHAPE_VOLUME>
261.7

> <PUBCHEM_COORDINATE_TYPE>
2
5
10

$$$$
