REMARK  Name = 123880
REMARK  10 active torsions:
REMARK  status: ('A' for Active; 'I' for Inactive)
REMARK    1  A    between atoms: C_1  and  N_3
REMARK    2  A    between atoms: C_1  and  C_13
REMARK    3  A    between atoms: C_1  and  C_17
REMARK    4  A    between atoms: C_4  and  C_6
REMARK    5  A    between atoms: C_13  and  O_14
REMARK    6  A    between atoms: O_14  and  C_15
REMARK    7  A    between atoms: C_17  and  C_18
REMARK    8  A    between atoms: C_18  and  C_19
REMARK    9  A    between atoms: C_19  and  N_20
REMARK   10  A    between atoms: N_20  and  C_23
REMARK                            x       y       z     vdW  Elec       q    Type
REMARK                         _______ _______ _______ _____ _____    ______ ____
ROOT
ATOM      1  C   UNL     1       0.313   0.680   1.109  0.00  0.00    +0.172 C 
ENDROOT
BRANCH   1   3
ATOM      2  O   UNL     1      -1.645  -1.111   2.205  0.00  0.00    -0.270 OA
ATOM      3  N   UNL     1      -0.924   0.275   0.491  0.00  0.00    -0.293 N 
ATOM      4  C   UNL     1      -1.812  -0.600   1.101  0.00  0.00    +0.246 C 
ATOM      5  H   UNL     1      -1.148   0.633  -0.398  0.00  0.00    +0.150 HD
BRANCH   4   6
ATOM      6  C   UNL     1      -3.030  -0.940   0.322  0.00  0.00    +0.053 C 
ATOM      7  C   UNL     1      -3.675  -2.159   0.532  0.00  0.00    +0.005 C 
ATOM      8  C   UNL     1      -3.530  -0.039  -0.620  0.00  0.00    +0.005 C 
ATOM      9  C   UNL     1      -4.820  -2.477  -0.200  0.00  0.00    +0.000 C 
ATOM     10  C   UNL     1      -4.674  -0.358  -1.351  0.00  0.00    +0.000 C 
ATOM     11  C   UNL     1      -5.319  -1.577  -1.141  0.00  0.00    +0.000 C 
ENDBRANCH   4   6
ENDBRANCH   1   3
BRANCH   1  13
ATOM     12  O   UNL     1       1.643   2.691   1.281  0.00  0.00    -0.248 OA
ATOM     13  C   UNL     1       0.679   2.121   0.780  0.00  0.00    +0.335 C 
BRANCH  13  14
ATOM     14  O   UNL     1      -0.183   2.678  -0.117  0.00  0.00    -0.447 OA
BRANCH  14  15
ATOM     15  C   UNL     1       0.088   4.035  -0.479  0.00  0.00    +0.209 C 
ATOM     16  C   UNL     1      -0.954   4.497  -1.475  0.00  0.00    +0.051 C 
ENDBRANCH  14  15
ENDBRANCH  13  14
ENDBRANCH   1  13
BRANCH   1  17
ATOM     17  C   UNL     1       1.456  -0.285   0.770  0.00  0.00    +0.033 C 
BRANCH  17  18
ATOM     18  C   UNL     1       1.883  -0.249  -0.705  0.00  0.00    +0.029 C 
BRANCH  18  19
ATOM     19  C   UNL     1       3.047  -1.192  -0.994  0.00  0.00    +0.129 C 
BRANCH  19  20
ATOM     20  N   UNL     1       4.217  -0.792  -0.208  0.00  0.00    -0.240 NA
BRANCH  20  23
ATOM     21  N   UNL     1       5.495  -2.551  -1.230  0.00  0.00    -0.370 N 
ATOM     22  N   UNL     1       6.443  -1.167   0.314  0.00  0.00    -0.370 N 
ATOM     23  C   UNL     1       5.302  -1.480  -0.386  0.00  0.00    +0.189 C 
ATOM     24  H   UNL     1       4.754  -2.876  -1.790  0.00  0.00    +0.159 HD
ATOM     25  H   UNL     1       6.375  -2.991  -1.273  0.00  0.00    +0.159 HD
ATOM     26  H   UNL     1       6.439  -0.419   0.953  0.00  0.00    +0.159 HD
ATOM     27  H   UNL     1       7.264  -1.693   0.175  0.00  0.00    +0.159 HD
ENDBRANCH  20  23
ENDBRANCH  19  20
ENDBRANCH  18  19
ENDBRANCH  17  18
ENDBRANCH   1  17
TORSDOF 10
