123841
  -OEChem-03292013323D

 42 43  0     0  0  0  0  0  0999 V2000
   -0.8618    1.9687   -0.5256 S   0  0  0  0  0  0  0  0  0  0  0  0
    0.0666    2.7291   -1.3472 O   0  0  0  0  0  0  0  0  0  0  0  0
   -2.2530    1.8396   -0.9307 O   0  0  0  0  0  0  0  0  0  0  0  0
    3.7080   -2.3682   -0.2459 O   0  0  0  0  0  0  0  0  0  0  0  0
   -2.4214   -0.5848    0.0961 N   0  0  0  0  0  0  0  0  0  0  0  0
    3.9479   -0.1017   -0.6431 N   0  0  0  0  0  0  0  0  0  0  0  0
    5.1722    1.7814    0.2241 N   0  0  0  0  0  0  0  0  0  0  0  0
    4.1861    0.2893    1.6401 N   0  0  0  0  0  0  0  0  0  0  0  0
   -3.3017   -1.3330   -0.8087 C   0  0  0  0  0  0  0  0  0  0  0  0
   -2.9614   -0.2812    1.4291 C   0  0  0  0  0  0  0  0  0  0  0  0
   -4.6627   -0.6480   -0.9235 C   0  0  0  0  0  0  0  0  0  0  0  0
   -4.3179    0.4106    1.3139 C   0  0  0  0  0  0  0  0  0  0  0  0
   -5.2798   -0.3917    0.4459 C   0  0  0  0  0  0  0  0  0  0  0  0
   -1.0331   -0.7270   -0.0204 C   0  0  0  0  0  0  0  0  0  0  0  0
   -0.1900    0.3667   -0.3044 C   0  0  0  0  0  0  0  0  0  0  0  0
   -0.4395   -1.9936    0.1479 C   0  0  0  0  0  0  0  0  0  0  0  0
    1.1902    0.1995   -0.4153 C   0  0  0  0  0  0  0  0  0  0  0  0
    0.9408   -2.1607    0.0369 C   0  0  0  0  0  0  0  0  0  0  0  0
    1.7557   -1.0642   -0.2447 C   0  0  0  0  0  0  0  0  0  0  0  0
   -0.8566    2.6731    1.1061 C   0  0  0  0  0  0  0  0  0  0  0  0
    3.1949   -1.2392   -0.3604 C   0  0  0  0  0  0  0  0  0  0  0  0
    4.4165    0.6353    0.3297 C   0  0  0  0  0  0  0  0  0  0  0  0
   -3.4290   -2.3577   -0.4383 H   0  0  0  0  0  0  0  0  0  0  0  0
   -2.8562   -1.3955   -1.8092 H   0  0  0  0  0  0  0  0  0  0  0  0
   -2.2761    0.3267    2.0223 H   0  0  0  0  0  0  0  0  0  0  0  0
   -3.0812   -1.2235    1.9804 H   0  0  0  0  0  0  0  0  0  0  0  0
   -5.3371   -1.2685   -1.5243 H   0  0  0  0  0  0  0  0  0  0  0  0
   -4.5506    0.3056   -1.4537 H   0  0  0  0  0  0  0  0  0  0  0  0
   -4.1910    1.4126    0.8881 H   0  0  0  0  0  0  0  0  0  0  0  0
   -4.7472    0.5428    2.3134 H   0  0  0  0  0  0  0  0  0  0  0  0
   -6.2235    0.1533    0.3336 H   0  0  0  0  0  0  0  0  0  0  0  0
   -5.5126   -1.3462    0.9331 H   0  0  0  0  0  0  0  0  0  0  0  0
   -1.0555   -2.8614    0.3736 H   0  0  0  0  0  0  0  0  0  0  0  0
    1.8085    1.0645   -0.6333 H   0  0  0  0  0  0  0  0  0  0  0  0
    1.3570   -3.1548    0.1761 H   0  0  0  0  0  0  0  0  0  0  0  0
   -1.6187    2.2181    1.7299 H   0  0  0  0  0  0  0  0  0  0  0  0
    0.1359    2.5526    1.5444 H   0  0  0  0  0  0  0  0  0  0  0  0
   -1.0774    3.7388    1.0029 H   0  0  0  0  0  0  0  0  0  0  0  0
    5.4275    2.1583   -0.6821 H   0  0  0  0  0  0  0  0  0  0  0  0
    5.4909    2.2838    1.0453 H   0  0  0  0  0  0  0  0  0  0  0  0
    3.6573   -0.5333    1.9067 H   0  0  0  0  0  0  0  0  0  0  0  0
    4.5475    0.8582    2.3984 H   0  0  0  0  0  0  0  0  0  0  0  0
  1  2  2  0  0  0  0
  1  3  2  0  0  0  0
  1 15  1  0  0  0  0
  1 20  1  0  0  0  0
  4 21  2  0  0  0  0
  5  9  1  0  0  0  0
  5 10  1  0  0  0  0
  5 14  1  0  0  0  0
  6 21  1  0  0  0  0
  6 22  2  0  0  0  0
  7 22  1  0  0  0  0
  7 39  1  0  0  0  0
  7 40  1  0  0  0  0
  8 22  1  0  0  0  0
  8 41  1  0  0  0  0
  8 42  1  0  0  0  0
  9 11  1  0  0  0  0
  9 23  1  0  0  0  0
  9 24  1  0  0  0  0
 10 12  1  0  0  0  0
 10 25  1  0  0  0  0
 10 26  1  0  0  0  0
 11 13  1  0  0  0  0
 11 27  1  0  0  0  0
 11 28  1  0  0  0  0
 12 13  1  0  0  0  0
 12 29  1  0  0  0  0
 12 30  1  0  0  0  0
 13 31  1  0  0  0  0
 13 32  1  0  0  0  0
 14 15  2  0  0  0  0
 14 16  1  0  0  0  0
 15 17  1  0  0  0  0
 16 18  2  0  0  0  0
 16 33  1  0  0  0  0
 17 19  2  0  0  0  0
 17 34  1  0  0  0  0
 18 19  1  0  0  0  0
 18 35  1  0  0  0  0
 19 21  1  0  0  0  0
 20 36  1  0  0  0  0
 20 37  1  0  0  0  0
 20 38  1  0  0  0  0
M  END
> <PUBCHEM_COMPOUND_CID>
123841

> <PUBCHEM_CONFORMER_RMSD>
0.8

> <PUBCHEM_CONFORMER_DIVERSEORDER>
1
8
19
7
24
4
21
6
5
18
25
20
14
3
12
16
23
17
15
9
13
2
10
11
22

> <PUBCHEM_MMFF94_PARTIAL_CHARGES>
26
1 1.2
10 0.37
14 0.1
15 -0.01
16 -0.15
17 -0.15
18 -0.15
19 0.09
2 -0.65
20 0.11
21 0.69
22 0.55
3 -0.65
33 0.15
34 0.15
35 0.15
39 0.4
4 -0.57
40 0.4
41 0.4
42 0.4
5 -0.84
6 -0.66
7 -0.85
8 -0.85
9 0.37

> <PUBCHEM_EFFECTIVE_ROTOR_COUNT>
5.2

> <PUBCHEM_PHARMACOPHORE_FEATURES>
9
1 2 acceptor
1 3 acceptor
1 4 acceptor
1 5 cation
1 6 donor
1 7 donor
1 8 donor
6 14 15 16 17 18 19 rings
6 5 9 10 11 12 13 rings

> <PUBCHEM_HEAVY_ATOM_COUNT>
22

> <PUBCHEM_ATOM_DEF_STEREO_COUNT>
0

> <PUBCHEM_ATOM_UDEF_STEREO_COUNT>
0

> <PUBCHEM_BOND_DEF_STEREO_COUNT>
0

> <PUBCHEM_BOND_UDEF_STEREO_COUNT>
0

> <PUBCHEM_ISOTOPIC_ATOM_COUNT>
0

> <PUBCHEM_COMPONENT_COUNT>
1

> <PUBCHEM_CACTVS_TAUTO_COUNT>
3

> <PUBCHEM_CONFORMER_ID>
0001E3C100000001

> <PUBCHEM_MMFF94_ENERGY>
73.9472

> <PUBCHEM_FEATURE_SELFOVERLAP>
45.818

> <PUBCHEM_SHAPE_FINGERPRINT>
10906281 52 18262253203791150116
10922049 32 9439405735422590381
11132069 177 18411982468200084703
11578080 2 17843938426527354969
12236239 1 18059859450727673787
12403259 226 18120370965550429126
12553582 1 18262253186695586151
12592029 89 13334730211164002985
12633257 1 18270107028860997440
13140716 1 18119253015248204266
13224815 77 18410290268444528558
13544653 18 18407762525587814789
13583140 156 16515954969283072262
14170010 4 18410857690123517353
14223421 5 18193558857130338518
14787075 74 18340483464792273056
14790565 3 18411145757158200165
15163728 17 14978299932470967377
15196674 1 18337955588886388631
16945 1 18186527617630738039
17349148 13 17603874359936488014
17357779 13 18335690633925668109
17980427 23 17275111639543297209
1813 80 18113343019937446885
18186145 218 18131354068741611934
18769570 83 16878494653783002717
18785283 64 17679318617608279989
19784866 240 15430306985233221418
200 152 18412824660369663143
20510252 161 18411417276452972640
21029758 11 18412822508369469197
21304303 282 16084148019940992765
22182313 1 18261950743630533868
23175994 123 17967825933551573607
23402539 116 18410568509084363079
23557571 272 18341340993720282134
23559900 14 18122052114439730006
2748010 2 18191590744143570838
34797466 226 15984829288937478145
34934 24 18409443721653398511
350125 39 18339647716302824790
474 4 18341333404666109018
5104073 3 18263364694050975752
5283173 99 17970053470815968613
5374978 207 18260545619753052418
81228 2 18118140081768565253

> <PUBCHEM_SHAPE_MULTIPOLES>
419.07
9.86
2.62
1.18
2.12
1
0.22
-0.53
1.64
0.92
-0.3
-0.53
0.41
0.05

> <PUBCHEM_SHAPE_SELFOVERLAP>
865.771

> <PUBCHEM_SHAPE_VOLUME>
240.1

> <PUBCHEM_COORDINATE_TYPE>
2
5
10

$$$$
