REMARK  Name = 123841
REMARK  5 active torsions:
REMARK  status: ('A' for Active; 'I' for Inactive)
REMARK    1  A    between atoms: C_1  and  N_7
REMARK    2  A    between atoms: C_2  and  S_13
REMARK    3  A    between atoms: C_6  and  C_18
REMARK    4  A    between atoms: C_18  and  N_19
REMARK    5  A    between atoms: N_19  and  C_22
REMARK                            x       y       z     vdW  Elec       q    Type
REMARK                         _______ _______ _______ _____ _____    ______ ____
ROOT
ATOM      1  C   UNL     1      -1.033  -0.727  -0.020  0.00  0.00    +0.065 C 
ATOM      2  C   UNL     1      -0.190   0.367  -0.304  0.00  0.00    +0.119 C 
ATOM      3  C   UNL     1      -0.440  -1.994   0.148  0.00  0.00    +0.016 C 
ATOM      4  C   UNL     1       1.190   0.200  -0.415  0.00  0.00    +0.024 C 
ATOM      5  C   UNL     1       0.941  -2.161   0.037  0.00  0.00    +0.006 C 
ATOM      6  C   UNL     1       1.756  -1.064  -0.245  0.00  0.00    +0.057 C 
ENDROOT
BRANCH   1   7
ATOM      7  N   UNL     1      -2.421  -0.585   0.096  0.00  0.00    -0.306 N 
ATOM      8  C   UNL     1      -3.302  -1.333  -0.809  0.00  0.00    +0.091 C 
ATOM      9  C   UNL     1      -2.961  -0.281   1.429  0.00  0.00    +0.091 C 
ATOM     10  C   UNL     1      -4.663  -0.648  -0.923  0.00  0.00    +0.021 C 
ATOM     11  C   UNL     1      -4.318   0.411   1.314  0.00  0.00    +0.021 C 
ATOM     12  C   UNL     1      -5.280  -0.392   0.446  0.00  0.00    +0.004 C 
ENDBRANCH   1   7
BRANCH   2  13
ATOM     13  S   UNL     1      -0.862   1.969  -0.526  0.00  0.00    +0.012 S 
ATOM     14  O   UNL     1       0.067   2.729  -1.347  0.00  0.00    -0.169 OA
ATOM     15  O   UNL     1      -2.253   1.840  -0.931  0.00  0.00    -0.169 OA
ATOM     16  C   UNL     1      -0.857   2.673   1.106  0.00  0.00    +0.182 C 
ENDBRANCH   2  13
BRANCH   6  18
ATOM     17  O   UNL     1       3.708  -2.368  -0.246  0.00  0.00    -0.268 OA
ATOM     18  C   UNL     1       3.195  -1.239  -0.360  0.00  0.00    +0.271 C 
BRANCH  18  19
ATOM     19  N   UNL     1       3.948  -0.102  -0.643  0.00  0.00    -0.143 NA
BRANCH  19  22
ATOM     20  N   UNL     1       5.172   1.781   0.224  0.00  0.00    -0.372 N 
ATOM     21  N   UNL     1       4.186   0.289   1.640  0.00  0.00    -0.372 N 
ATOM     22  C   UNL     1       4.417   0.635   0.330  0.00  0.00    +0.185 C 
ATOM     23  H   UNL     1       5.407   2.136  -0.664  0.00  0.00    +0.159 HD
ATOM     24  H   UNL     1       5.477   2.246   1.036  0.00  0.00    +0.159 HD
ATOM     25  H   UNL     1       3.657  -0.513   1.852  0.00  0.00    +0.159 HD
ATOM     26  H   UNL     1       4.551   0.844   2.367  0.00  0.00    +0.159 HD
ENDBRANCH  19  22
ENDBRANCH  18  19
ENDBRANCH   6  18
TORSDOF 5
