REMARK  Name = 123964288
REMARK  5 active torsions:
REMARK  status: ('A' for Active; 'I' for Inactive)
REMARK    1  A    between atoms: C_7  and  C_18
REMARK    2  A    between atoms: C_11  and  O_15
REMARK    3  A    between atoms: C_13  and  C_21
REMARK    4  A    between atoms: C_18  and  O_19
REMARK    5  A    between atoms: C_21  and  O_23
REMARK                            x       y       z     vdW  Elec       q    Type
REMARK                         _______ _______ _______ _____ _____    ______ ____
ROOT
ATOM      1  O   UNL     1       0.647  -1.293   1.480  0.00  0.00    -0.330 OA
ATOM      2  O   UNL     1      -2.039   1.796   0.466  0.00  0.00    -0.449 OA
ATOM      3  O   UNL     1      -4.265   1.384   0.867  0.00  0.00    -0.245 OA
ATOM      4  C   UNL     1       0.237   1.055   0.939  0.00  0.00    +0.071 C 
ATOM      5  C   UNL     1       1.501   1.057   0.058  0.00  0.00    +0.022 C 
ATOM      6  C   UNL     1      -0.944   1.038  -0.065  0.00  0.00    +0.157 C 
ATOM      7  C   UNL     1       2.050  -0.344  -0.252  0.00  0.00    +0.155 C 
ATOM      8  C   UNL     1       0.251  -0.033   2.008  0.00  0.00    +0.149 C 
ATOM      9  C   UNL     1       0.996   1.748  -1.180  0.00  0.00    +0.005 C 
ATOM     10  C   UNL     1      -0.341   1.741  -1.245  0.00  0.00    +0.045 C 
ATOM     11  C   UNL     1       1.978  -1.268   0.966  0.00  0.00    +0.243 C 
ATOM     12  C   UNL     1      -1.560  -0.262  -0.417  0.00  0.00    +0.017 C 
ATOM     13  C   UNL     1      -2.855  -0.284  -0.110  0.00  0.00    +0.079 C 
ATOM     14  C   UNL     1      -3.170   1.031   0.464  0.00  0.00    +0.339 C 
ENDROOT
BRANCH  11  15
ATOM     15  O   UNL     1       2.349  -2.583   0.551  0.00  0.00    -0.360 OA
ATOM     16  H   UNL     1       2.309  -3.185   1.310  0.00  0.00    +0.213 HD
ENDBRANCH  11  15
BRANCH   7  18
ATOM     17  O   UNL     1       3.887  -0.573  -1.797  0.00  0.00    -0.250 OA
ATOM     18  C   UNL     1       3.478  -0.215  -0.700  0.00  0.00    +0.322 C 
BRANCH  18  19
ATOM     19  O   UNL     1       4.219   0.352   0.294  0.00  0.00    -0.444 OA
ATOM     20  C   UNL     1       5.608   0.534  -0.002  0.00  0.00    +0.256 C 
ENDBRANCH  18  19
ENDBRANCH   7  18
BRANCH  13  21
ATOM     21  C   UNL     1      -3.849  -1.365  -0.279  0.00  0.00    +0.139 C 
ATOM     22  C   UNL     1      -3.252  -2.601  -0.946  0.00  0.00    +0.037 C 
BRANCH  21  23
ATOM     23  O   UNL     1      -4.929  -0.916  -1.100  0.00  0.00    -0.380 OA
ATOM     24  H   UNL     1      -5.331  -0.128  -0.702  0.00  0.00    +0.211 HD
ENDBRANCH  21  23
ENDBRANCH  13  21
TORSDOF 5
