123915835
  -OEChem-03292013293D

 61 60  0     1  0  0  0  0  0999 V2000
    3.5512   -2.4676   -1.2854 O   0  0  0  0  0  0  0  0  0  0  0  0
    4.0053   -1.2323    1.2716 O   0  0  0  0  0  0  0  0  0  0  0  0
    1.0877   -1.1040   -2.0126 O   0  0  0  0  0  0  0  0  0  0  0  0
   -4.7364   -0.7194    1.8768 O   0  0  0  0  0  0  0  0  0  0  0  0
   -5.7124   -1.4128   -2.0841 O   0  0  0  0  0  0  0  0  0  0  0  0
    2.4768   -2.1736   -0.3805 C   0  0  1  0  0  0  0  0  0  0  0  0
    3.0271   -2.2536    1.0665 C   0  0  0  0  0  0  0  0  0  0  0  0
    1.8578   -0.8298   -0.8321 C   0  0  1  0  0  0  0  0  0  0  0  0
    2.8668    0.2794   -1.1643 C   0  0  0  0  0  0  0  0  0  0  0  0
    1.9096   -2.0049    2.0921 C   0  0  0  0  0  0  0  0  0  0  0  0
    3.6914   -3.5991    1.3728 C   0  0  0  0  0  0  0  0  0  0  0  0
    2.2389    1.6631   -1.2472 C   0  0  0  0  0  0  0  0  0  0  0  0
    2.2002    2.4501   -0.1538 C   0  0  0  0  0  0  0  0  0  0  0  0
    1.6386    3.8391   -0.0245 C   0  0  0  0  0  0  0  0  0  0  0  0
    1.7227    2.0520   -2.6055 C   0  0  0  0  0  0  0  0  0  0  0  0
    0.5950    3.9538    1.0949 C   0  0  0  0  0  0  0  0  0  0  0  0
   -0.6691    3.1563    0.8490 C   0  0  0  0  0  0  0  0  0  0  0  0
   -2.1302    1.0772    1.1551 C   0  0  0  0  0  0  0  0  0  0  0  0
   -0.8887    1.9101    1.3117 C   0  0  0  0  0  0  0  0  0  0  0  0
   -1.8340   -0.2206    0.3987 C   0  0  0  0  0  0  0  0  0  0  0  0
   -1.7443    3.8715    0.0721 C   0  0  0  0  0  0  0  0  0  0  0  0
   -3.0744   -1.0613    0.1808 C   0  0  0  0  0  0  0  0  0  0  0  0
   -3.7292   -1.6127    1.4237 C   0  0  0  0  0  0  0  0  0  0  0  0
   -3.5681   -1.3701   -1.0346 C   0  0  0  0  0  0  0  0  0  0  0  0
   -4.7824   -2.1908   -1.3410 C   0  0  0  0  0  0  0  0  0  0  0  0
    1.7352   -2.9721   -0.5144 H   0  0  0  0  0  0  0  0  0  0  0  0
    1.1473   -0.4906   -0.0735 H   0  0  0  0  0  0  0  0  0  0  0  0
    3.6632    0.3207   -0.4170 H   0  0  0  0  0  0  0  0  0  0  0  0
    3.3690    0.0639   -2.1163 H   0  0  0  0  0  0  0  0  0  0  0  0
    1.5353   -0.9773    2.0397 H   0  0  0  0  0  0  0  0  0  0  0  0
    4.0598   -3.6332    2.4047 H   0  0  0  0  0  0  0  0  0  0  0  0
    2.2835   -2.1300    3.1153 H   0  0  0  0  0  0  0  0  0  0  0  0
    2.9950   -4.4314    1.2275 H   0  0  0  0  0  0  0  0  0  0  0  0
    4.5666   -3.7617    0.7342 H   0  0  0  0  0  0  0  0  0  0  0  0
    1.0720   -2.6950    1.9484 H   0  0  0  0  0  0  0  0  0  0  0  0
    3.1766   -2.4928   -2.1826 H   0  0  0  0  0  0  0  0  0  0  0  0
    2.6295    2.0550    0.7670 H   0  0  0  0  0  0  0  0  0  0  0  0
    4.3230   -1.2941    2.1886 H   0  0  0  0  0  0  0  0  0  0  0  0
    1.2006    4.1984   -0.9598 H   0  0  0  0  0  0  0  0  0  0  0  0
    2.4707    4.5150    0.2076 H   0  0  0  0  0  0  0  0  0  0  0  0
    0.4328   -0.3932   -2.1078 H   0  0  0  0  0  0  0  0  0  0  0  0
    1.0466    3.6322    2.0433 H   0  0  0  0  0  0  0  0  0  0  0  0
    0.3333    5.0095    1.2417 H   0  0  0  0  0  0  0  0  0  0  0  0
    2.4219    1.7381   -3.3879 H   0  0  0  0  0  0  0  0  0  0  0  0
    0.7531    1.5868   -2.8007 H   0  0  0  0  0  0  0  0  0  0  0  0
    1.6039    3.1319   -2.7214 H   0  0  0  0  0  0  0  0  0  0  0  0
   -2.4882    0.8433    2.1655 H   0  0  0  0  0  0  0  0  0  0  0  0
   -2.9465    1.6177    0.6677 H   0  0  0  0  0  0  0  0  0  0  0  0
   -0.0929    1.4399    1.8881 H   0  0  0  0  0  0  0  0  0  0  0  0
   -1.0935   -0.8186    0.9449 H   0  0  0  0  0  0  0  0  0  0  0  0
   -1.3792    0.0245   -0.5697 H   0  0  0  0  0  0  0  0  0  0  0  0
   -2.4117    4.4092    0.7528 H   0  0  0  0  0  0  0  0  0  0  0  0
   -1.2987    4.6052   -0.6092 H   0  0  0  0  0  0  0  0  0  0  0  0
   -2.3324    3.2024   -0.5618 H   0  0  0  0  0  0  0  0  0  0  0  0
   -4.1654   -2.6047    1.2767 H   0  0  0  0  0  0  0  0  0  0  0  0
   -2.9856   -1.7263    2.2211 H   0  0  0  0  0  0  0  0  0  0  0  0
   -3.0495   -0.9771   -1.9079 H   0  0  0  0  0  0  0  0  0  0  0  0
   -5.3039   -2.5628   -0.4580 H   0  0  0  0  0  0  0  0  0  0  0  0
   -4.4897   -3.0511   -1.9517 H   0  0  0  0  0  0  0  0  0  0  0  0
   -5.1084   -1.0977    2.6917 H   0  0  0  0  0  0  0  0  0  0  0  0
   -6.4622   -1.9930   -2.3004 H   0  0  0  0  0  0  0  0  0  0  0  0
  1  6  1  0  0  0  0
  1 36  1  0  0  0  0
  2  7  1  0  0  0  0
  2 38  1  0  0  0  0
  3  8  1  0  0  0  0
  3 41  1  0  0  0  0
  4 23  1  0  0  0  0
  4 60  1  0  0  0  0
  5 25  1  0  0  0  0
  5 61  1  0  0  0  0
  6  7  1  0  0  0  0
  6  8  1  0  0  0  0
  6 26  1  0  0  0  0
  7 10  1  0  0  0  0
  7 11  1  0  0  0  0
  8  9  1  0  0  0  0
  8 27  1  0  0  0  0
  9 12  1  0  0  0  0
  9 28  1  0  0  0  0
  9 29  1  0  0  0  0
 10 30  1  0  0  0  0
 10 32  1  0  0  0  0
 10 35  1  0  0  0  0
 11 31  1  0  0  0  0
 11 33  1  0  0  0  0
 11 34  1  0  0  0  0
 12 13  2  3  0  0  0
 12 15  1  0  0  0  0
 13 14  1  0  0  0  0
 13 37  1  0  0  0  0
 14 16  1  0  0  0  0
 14 39  1  0  0  0  0
 14 40  1  0  0  0  0
 15 44  1  0  0  0  0
 15 45  1  0  0  0  0
 15 46  1  0  0  0  0
 16 17  1  0  0  0  0
 16 42  1  0  0  0  0
 16 43  1  0  0  0  0
 17 19  2  3  0  0  0
 17 21  1  0  0  0  0
 18 19  1  0  0  0  0
 18 20  1  0  0  0  0
 18 47  1  0  0  0  0
 18 48  1  0  0  0  0
 19 49  1  0  0  0  0
 20 22  1  0  0  0  0
 20 50  1  0  0  0  0
 20 51  1  0  0  0  0
 21 52  1  0  0  0  0
 21 53  1  0  0  0  0
 21 54  1  0  0  0  0
 22 23  1  0  0  0  0
 22 24  2  3  0  0  0
 23 55  1  0  0  0  0
 23 56  1  0  0  0  0
 24 25  1  0  0  0  0
 24 57  1  0  0  0  0
 25 58  1  0  0  0  0
 25 59  1  0  0  0  0
M  END
> <PUBCHEM_COMPOUND_CID>
123915835

> <PUBCHEM_CONFORMER_RMSD>
1.4

> <PUBCHEM_CONFORMER_DIVERSEORDER>
2
3
102
153
136
72
194
138
142
108
173
78
15
22
176
9
195
28
42
144
47
90
83
169
4
23
24
94
178
99
141
75
196
25
41
147
157
55
57
170
54
49
192
149
100
122
65
92
160
26
50
29
30
105
14
174
127
155
159
95
89
80
177
133
148
140
124
161
97
8
114
198
125
184
104
106
33
139
48
60
126
123
189
53
154
116
132
134
183
74
115
27
43
98
7
193
21
68
38
70
172
37
56
113
121
131
117
12
107
137
88
17
190
84
35
143
146
58
13
118
188
182
191
128
11
129
163
76
66
186
103
73
77
181
179
119
6
93
130
180
59
69
63
36
101
85
135
87
79
1
71
197
111
18
151
175
40
31
62
162
187
171
112
168
34
167
44
46
109
52
10
45
166
158
156
152
39
164
51
150
64
19
67
185
61
5
16
145
20
82
86
81
96
32
91
110
165
120

> <PUBCHEM_MMFF94_PARTIAL_CHARGES>
31
1 -0.68
12 -0.28
13 -0.29
14 0.14
15 0.14
16 0.14
17 -0.28
18 0.14
19 -0.29
2 -0.68
20 0.14
21 0.14
22 -0.28
23 0.42
24 -0.29
25 0.42
3 -0.68
36 0.4
37 0.15
38 0.4
4 -0.68
41 0.4
49 0.15
5 -0.68
57 0.15
6 0.28
60 0.4
61 0.4
7 0.28
8 0.28
9 0.14

> <PUBCHEM_EFFECTIVE_ROTOR_COUNT>
12

> <PUBCHEM_PHARMACOPHORE_FEATURES>
15
1 1 acceptor
1 1 donor
1 15 hydrophobe
1 2 acceptor
1 2 donor
1 21 hydrophobe
1 3 acceptor
1 3 donor
1 4 acceptor
1 4 donor
1 5 acceptor
1 5 donor
3 7 10 11 hydrophobe
4 13 14 16 17 hydrophobe
4 18 19 20 22 hydrophobe

> <PUBCHEM_HEAVY_ATOM_COUNT>
25

> <PUBCHEM_ATOM_DEF_STEREO_COUNT>
0

> <PUBCHEM_ATOM_UDEF_STEREO_COUNT>
2

> <PUBCHEM_BOND_DEF_STEREO_COUNT>
0

> <PUBCHEM_BOND_UDEF_STEREO_COUNT>
3

> <PUBCHEM_ISOTOPIC_ATOM_COUNT>
0

> <PUBCHEM_COMPONENT_COUNT>
1

> <PUBCHEM_CACTVS_TAUTO_COUNT>
1

> <PUBCHEM_CONFORMER_ID>
0762CE3B00000002

> <PUBCHEM_MMFF94_ENERGY>
43.2163

> <PUBCHEM_FEATURE_SELFOVERLAP>
76.14

> <PUBCHEM_SHAPE_FINGERPRINT>
11552529 35 17834945383468841194
12553582 1 18271257083368681871
12788726 201 18266753376409203665
13083527 12 18339909494169216992
14251757 17 17240756311789881079
14674994 50 17611452048183135980
1813 80 18272650152006400979
19026451 147 18340756156603535579
20567600 347 17832979821075091579
20775530 9 18336277746874550964
21421861 104 18338534000522200601
23598288 3 18195545700554094681
238 59 18050298259997975176
35225 105 17255941396044941672
4058900 60 17903645416382048405
4066623 53 18119779527380270837
460360 51 18408601479368259609
469060 322 16337169869123174884
5265222 85 16178791550093272486
59682541 52 18124288727824011927
7471813 234 18409441462595305954

> <PUBCHEM_SHAPE_MULTIPOLES>
485.14
8.74
5.65
2.24
10.48
4.26
0.63
-9.56
1.53
-3.42
-1.49
0.26
-0.59
-2.57

> <PUBCHEM_SHAPE_SELFOVERLAP>
929.985

> <PUBCHEM_SHAPE_VOLUME>
296.4

> <PUBCHEM_COORDINATE_TYPE>
2
5
10

$$$$
