REMARK  Name = 123932
REMARK  6 active torsions:
REMARK  status: ('A' for Active; 'I' for Inactive)
REMARK    1  A    between atoms: C_1  and  C_14
REMARK    2  A    between atoms: C_4  and  O_7
REMARK    3  A    between atoms: C_5  and  O_9
REMARK    4  A    between atoms: O_9  and  S_10
REMARK    5  A    between atoms: C_14  and  C_15
REMARK    6  A    between atoms: C_15  and  N_16
REMARK                            x       y       z     vdW  Elec       q    Type
REMARK                         _______ _______ _______ _____ _____    ______ ____
ROOT
ATOM      1  C   UNL     1      -1.974  -0.035   0.512  0.00  0.00    -0.021 C 
ATOM      2  C   UNL     1      -1.257  -1.191   0.204  0.00  0.00    +0.036 C 
ATOM      3  C   UNL     1      -1.299   1.116   0.919  0.00  0.00    -0.001 C 
ATOM      4  C   UNL     1       0.135  -1.196   0.302  0.00  0.00    +0.170 C 
ATOM      5  C   UNL     1       0.809  -0.045   0.708  0.00  0.00    +0.209 C 
ATOM      6  C   UNL     1       0.093   1.111   1.017  0.00  0.00    +0.043 C 
ENDROOT
BRANCH   4   7
ATOM      7  O   UNL     1       0.824  -2.331  -0.003  0.00  0.00    -0.503 OA
ATOM      8  H   UNL     1       0.363  -3.100  -0.275  0.00  0.00    +0.292 HD
ENDBRANCH   4   7
BRANCH   5   9
ATOM      9  O   UNL     1       2.168  -0.037   0.806  0.00  0.00    -0.319 OA
BRANCH   9  10
ATOM     10  S   UNL     1       3.058   0.393  -0.507  0.00  0.00    +0.282 S 
ATOM     11  O   UNL     1       4.600   0.140  -0.034  0.00  0.00    -0.012 OA
ATOM     12  O   UNL     1       2.769  -0.524  -1.595  0.00  0.00    -0.105 OA
ATOM     13  O   UNL     1       2.893   1.822  -0.701  0.00  0.00    -0.105 OA
ENDBRANCH   9  10
ENDBRANCH   5   9
BRANCH   1  14
ATOM     14  C   UNL     1      -3.461  -0.030   0.408  0.00  0.00    +0.003 C 
BRANCH  14  15
ATOM     15  C   UNL     1      -3.950   0.392  -0.983  0.00  0.00    -0.081 C 
BRANCH  15  16
ATOM     16  N   UNL     1      -5.407   0.414  -1.052  0.00  0.00    +0.381 N 
ATOM     17  H   UNL     1      -5.699   0.698  -1.987  0.00  0.00    -0.089 HD
ATOM     18  H   UNL     1      -5.770   1.077  -0.367  0.00  0.00    -0.089 HD
ATOM     19  H   UNL     1      -5.771  -0.517  -0.850  0.00  0.00    -0.089 HD
ENDBRANCH  15  16
ENDBRANCH  14  15
ENDBRANCH   1  14
TORSDOF 6
