REMARK  Name = 123915835
REMARK  17 active torsions:
REMARK  status: ('A' for Active; 'I' for Inactive)
REMARK    1  A    between atoms: C_1  and  C_4
REMARK    2  A    between atoms: C_2  and  C_16
REMARK    3  A    between atoms: C_4  and  C_5
REMARK    4  A    between atoms: C_5  and  O_6
REMARK    5  A    between atoms: C_5  and  C_8
REMARK    6  A    between atoms: C_8  and  C_9
REMARK    7  A    between atoms: C_8  and  O_14
REMARK    8  A    between atoms: C_9  and  O_12
REMARK    9  A    between atoms: C_16  and  C_17
REMARK   10  A    between atoms: C_17  and  C_18
REMARK   11  A    between atoms: C_19  and  C_21
REMARK   12  A    between atoms: C_21  and  C_22
REMARK   13  A    between atoms: C_22  and  C_23
REMARK   14  A    between atoms: C_23  and  C_25
REMARK   15  A    between atoms: C_24  and  C_28
REMARK   16  A    between atoms: C_25  and  O_26
REMARK   17  A    between atoms: C_28  and  O_29
REMARK                            x       y       z     vdW  Elec       q    Type
REMARK                         _______ _______ _______ _____ _____    ______ ____
ROOT
ATOM      1  C   UNL     1       2.239   1.663  -1.247  0.00  0.00    -0.046 C 
ATOM      2  C   UNL     1       2.200   2.450  -0.154  0.00  0.00    -0.034 C 
ATOM      3  C   UNL     1       1.723   2.052  -2.606  0.00  0.00    +0.026 C 
ENDROOT
BRANCH   1   4
ATOM      4  C   UNL     1       2.867   0.279  -1.164  0.00  0.00    +0.054 C 
BRANCH   4   5
ATOM      5  C   UNL     1       1.858  -0.830  -0.832  0.00  0.00    +0.143 C 
BRANCH   5   6
ATOM      6  O   UNL     1       1.088  -1.104  -2.013  0.00  0.00    -0.382 OA
ATOM      7  H   UNL     1       0.443  -1.804  -1.823  0.00  0.00    +0.210 HD
ENDBRANCH   5   6
BRANCH   5   8
ATOM      8  C   UNL     1       2.477  -2.174  -0.381  0.00  0.00    +0.162 C 
BRANCH   8   9
ATOM      9  C   UNL     1       3.027  -2.254   1.067  0.00  0.00    +0.115 C 
ATOM     10  C   UNL     1       1.910  -2.005   2.092  0.00  0.00    +0.032 C 
ATOM     11  C   UNL     1       3.691  -3.599   1.373  0.00  0.00    +0.032 C 
BRANCH   9  12
ATOM     12  O   UNL     1       4.005  -1.232   1.272  0.00  0.00    -0.384 OA
ATOM     13  H   UNL     1       3.612  -0.366   1.085  0.00  0.00    +0.210 HD
ENDBRANCH   9  12
ENDBRANCH   8   9
BRANCH   8  14
ATOM     14  O   UNL     1       3.551  -2.468  -1.285  0.00  0.00    -0.380 OA
ATOM     15  H   UNL     1       3.966  -3.307  -1.033  0.00  0.00    +0.211 HD
ENDBRANCH   8  14
ENDBRANCH   5   8
ENDBRANCH   4   5
ENDBRANCH   1   4
BRANCH   2  16
ATOM     16  C   UNL     1       1.639   3.839  -0.025  0.00  0.00    +0.030 C 
BRANCH  16  17
ATOM     17  C   UNL     1       0.595   3.954   1.095  0.00  0.00    +0.026 C 
BRANCH  17  18
ATOM     18  C   UNL     1      -0.669   3.156   0.849  0.00  0.00    -0.048 C 
ATOM     19  C   UNL     1      -0.889   1.910   1.312  0.00  0.00    -0.034 C 
ATOM     20  C   UNL     1      -1.744   3.872   0.072  0.00  0.00    +0.026 C 
BRANCH  19  21
ATOM     21  C   UNL     1      -2.130   1.077   1.155  0.00  0.00    +0.030 C 
BRANCH  21  22
ATOM     22  C   UNL     1      -1.834  -0.221   0.399  0.00  0.00    +0.029 C 
BRANCH  22  23
ATOM     23  C   UNL     1      -3.074  -1.061   0.181  0.00  0.00    -0.017 C 
ATOM     24  C   UNL     1      -3.568  -1.370  -1.035  0.00  0.00    -0.001 C 
BRANCH  23  25
ATOM     25  C   UNL     1      -3.729  -1.613   1.424  0.00  0.00    +0.159 C 
BRANCH  25  26
ATOM     26  O   UNL     1      -4.736  -0.719   1.877  0.00  0.00    -0.378 OA
ATOM     27  H   UNL     1      -5.153  -1.080   2.675  0.00  0.00    +0.211 HD
ENDBRANCH  25  26
ENDBRANCH  23  25
BRANCH  24  28
ATOM     28  C   UNL     1      -4.782  -2.191  -1.341  0.00  0.00    +0.163 C 
BRANCH  28  29
ATOM     29  O   UNL     1      -5.712  -1.413  -2.084  0.00  0.00    -0.377 OA
ATOM     30  H   UNL     1      -6.497  -1.948  -2.281  0.00  0.00    +0.211 HD
ENDBRANCH  28  29
ENDBRANCH  24  28
ENDBRANCH  22  23
ENDBRANCH  21  22
ENDBRANCH  19  21
ENDBRANCH  17  18
ENDBRANCH  16  17
ENDBRANCH   2  16
TORSDOF 17
