REMARK  Name = 1239801
REMARK  2 active torsions:
REMARK  status: ('A' for Active; 'I' for Inactive)
REMARK    1  A    between atoms: C_8  and  C_17
REMARK    2  A    between atoms: C_18  and  C_22
REMARK                            x       y       z     vdW  Elec       q    Type
REMARK                         _______ _______ _______ _____ _____    ______ ____
ROOT
ATOM      1  S   UNL     1       0.710   1.267   1.490  0.00  0.00    -0.048 S 
ATOM      2  S   UNL     1       4.383  -0.678  -1.656  0.00  0.00    -0.050 S 
ATOM      3  O   UNL     1       1.978   0.349  -1.984  0.00  0.00    -0.269 OA
ATOM      4  N   UNL     1       2.741   0.230   0.256  0.00  0.00    -0.192 N 
ATOM      5  N   UNL     1       4.981  -0.628   0.859  0.00  0.00    -0.222 NA
ATOM      6  N   UNL     1       2.912   0.376   2.651  0.00  0.00    -0.279 NA
ATOM      7  C   UNL     1       0.580   1.057  -0.205  0.00  0.00    +0.086 C 
ATOM      8  C   UNL     1      -0.489   1.367  -0.941  0.00  0.00    +0.014 C 
ATOM      9  C   UNL     1       1.828   0.487  -0.777  0.00  0.00    +0.265 C 
ATOM     10  C   UNL     1       2.308   0.566   1.530  0.00  0.00    +0.167 C 
ATOM     11  C   UNL     1       4.035  -0.338  -0.009  0.00  0.00    +0.174 C 
ATOM     12  C   UNL     1       5.926  -1.262  -1.186  0.00  0.00    +0.059 C 
ATOM     13  C   UNL     1       6.063  -1.158   0.182  0.00  0.00    +0.108 C 
ATOM     14  H   UNL     1       2.491   0.665   3.493  0.00  0.00    +0.189 HD
ENDROOT
BRANCH   8  17
ATOM     15  N   UNL     1      -3.759   2.163   0.223  0.00  0.00    -0.236 N 
ATOM     16  N   UNL     1      -3.319   3.425   0.085  0.00  0.00    -0.180 NA
ATOM     17  C   UNL     1      -1.714   1.909  -0.501  0.00  0.00    +0.036 C 
ATOM     18  C   UNL     1      -2.836   1.217  -0.115  0.00  0.00    +0.067 C 
ATOM     19  C   UNL     1      -2.069   3.263  -0.357  0.00  0.00    +0.119 C 
ATOM     20  H   UNL     1      -4.665   1.941   0.539  0.00  0.00    +0.174 HD
BRANCH  18  22
ATOM     21  F   UNL     1      -3.923  -4.239   0.196  0.00  0.00    -0.204 F 
ATOM     22  C   UNL     1      -3.118  -0.196  -0.035  0.00  0.00    +0.015 C 
ATOM     23  C   UNL     1      -2.852  -0.894   1.143  0.00  0.00    +0.004 C 
ATOM     24  C   UNL     1      -3.655  -0.864  -1.135  0.00  0.00    +0.004 C 
ATOM     25  C   UNL     1      -3.124  -2.260   1.221  0.00  0.00    +0.030 C 
ATOM     26  C   UNL     1      -3.927  -2.229  -1.057  0.00  0.00    +0.030 C 
ATOM     27  C   UNL     1      -3.661  -2.928   0.121  0.00  0.00    +0.140 C 
ENDBRANCH  18  22
ENDBRANCH   8  17
TORSDOF 2
