REMARK  Name = 123911
REMARK  8 active torsions:
REMARK  status: ('A' for Active; 'I' for Inactive)
REMARK    1  A    between atoms: C_1  and  C_3
REMARK    2  A    between atoms: C_1  and  N_6
REMARK    3  A    between atoms: C_1  and  C_14
REMARK    4  A    between atoms: C_3  and  O_4
REMARK    5  A    between atoms: N_6  and  P_8
REMARK    6  A    between atoms: P_8  and  O_10
REMARK    7  A    between atoms: P_8  and  O_12
REMARK    8  A    between atoms: C_14  and  C_17
REMARK                            x       y       z     vdW  Elec       q    Type
REMARK                         _______ _______ _______ _____ _____    ______ ____
ROOT
ATOM      1  C   UNL     1       0.423  -0.085   0.132  0.00  0.00    +0.168 C 
ENDROOT
BRANCH   1   3
ATOM      2  O   UNL     1       0.657   2.274   0.691  0.00  0.00    -0.249 OA
ATOM      3  C   UNL     1       0.228   1.409  -0.062  0.00  0.00    +0.329 C 
BRANCH   3   4
ATOM      4  O   UNL     1      -0.455   1.698  -1.200  0.00  0.00    -0.479 OA
ATOM      5  H   UNL     1      -0.766   1.004  -1.748  0.00  0.00    +0.295 HD
ENDBRANCH   3   4
ENDBRANCH   1   3
BRANCH   1   6
ATOM      6  N   UNL     1       1.715  -0.256   0.792  0.00  0.00    -0.203 NA
ATOM      7  H   UNL     1       1.846   0.553   1.400  0.00  0.00    +0.135 HD
BRANCH   6   8
ATOM      8  P   UNL     1       3.089  -0.398  -0.117  0.00  0.00    +0.404 P 
ATOM      9  O   UNL     1       3.417   0.761  -1.020  0.00  0.00    -0.240 OA
BRANCH   8  10
ATOM     10  O   UNL     1       4.304  -0.738   0.905  0.00  0.00    -0.312 OA
ATOM     11  H   UNL     1       5.130  -0.829   0.406  0.00  0.00    +0.221 HD
ENDBRANCH   8  10
BRANCH   8  12
ATOM     12  O   UNL     1       2.963  -1.794  -0.937  0.00  0.00    -0.312 OA
ATOM     13  H   UNL     1       3.752  -1.918  -1.487  0.00  0.00    +0.221 HD
ENDBRANCH   8  12
ENDBRANCH   6   8
ENDBRANCH   1   6
BRANCH   1  14
ATOM     14  C   UNL     1      -0.687  -0.705   0.995  0.00  0.00    +0.070 C 
BRANCH  14  17
ATOM     15  N   UNL     1      -3.070   0.019   1.032  0.00  0.00    -0.319 N 
ATOM     16  N   UNL     1      -3.852  -0.620  -0.946  0.00  0.00    -0.315 N 
ATOM     17  C   UNL     1      -2.058  -0.572   0.372  0.00  0.00    +0.039 C 
ATOM     18  C   UNL     1      -2.528  -0.962  -0.829  0.00  0.00    +0.069 C 
ATOM     19  C   UNL     1      -4.147  -0.031   0.192  0.00  0.00    +0.182 C 
ATOM     20  H   UNL     1      -3.041   0.408   1.936  0.00  0.00    +0.148 HD
ATOM     21  H   UNL     1      -4.448  -0.780  -1.713  0.00  0.00    +0.148 HD
ENDBRANCH  14  17
ENDBRANCH   1  14
TORSDOF 8
