REMARK  Name = 123992
REMARK  6 active torsions:
REMARK  status: ('A' for Active; 'I' for Inactive)
REMARK    1  A    between atoms: C_1  and  C_6
REMARK    2  A    between atoms: C_1  and  N_15
REMARK    3  A    between atoms: C_1  and  C_26
REMARK    4  A    between atoms: C_5  and  C_11
REMARK    5  A    between atoms: C_16  and  C_20
REMARK    6  A    between atoms: C_26  and  C_29
REMARK                            x       y       z     vdW  Elec       q    Type
REMARK                         _______ _______ _______ _____ _____    ______ ____
ROOT
ATOM      1  C   UNL     1       0.507   0.714   0.308  0.00  0.00    +0.155 C 
ENDROOT
BRANCH   1   6
ATOM      2  S   UNL     1       3.538  -1.308  -2.579  0.00  0.00    -0.116 S 
ATOM      3  O   UNL     1       0.898  -1.246   1.598  0.00  0.00    -0.273 OA
ATOM      4  N   UNL     1       2.111  -1.022  -0.368  0.00  0.00    -0.261 N 
ATOM      5  C   UNL     1       2.855  -2.267  -0.203  0.00  0.00    +0.163 C 
ATOM      6  C   UNL     1       1.183  -0.607   0.583  0.00  0.00    +0.245 C 
ATOM      7  C   UNL     1       3.270  -2.787  -1.570  0.00  0.00    +0.088 C 
ATOM      8  C   UNL     1       2.454  -0.273  -1.571  0.00  0.00    +0.153 C 
BRANCH   5  11
ATOM      9  O   UNL     1       4.270  -0.808   1.061  0.00  0.00    -0.274 OA
ATOM     10  N   UNL     1       4.825  -3.039   0.953  0.00  0.00    -0.327 N 
ATOM     11  C   UNL     1       4.037  -1.949   0.667  0.00  0.00    +0.238 C 
ATOM     12  H   UNL     1       5.625  -2.934   1.517  0.00  0.00    +0.145 HD
ATOM     13  H   UNL     1       4.588  -3.925   0.594  0.00  0.00    +0.145 HD
ENDBRANCH   5  11
ENDBRANCH   1   6
BRANCH   1  15
ATOM     14  O   UNL     1      -1.735  -0.501  -1.080  0.00  0.00    -0.273 OA
ATOM     15  N   UNL     1      -0.824   0.518   0.806  0.00  0.00    -0.297 N 
ATOM     16  C   UNL     1      -1.841  -0.076   0.068  0.00  0.00    +0.241 C 
ATOM     17  H   UNL     1      -1.028   0.821   1.720  0.00  0.00    +0.150 HD
BRANCH  16  20
ATOM     18  O   UNL     1      -5.717  -0.763  -1.649  0.00  0.00    -0.275 OA
ATOM     19  N   UNL     1      -4.168   0.013  -0.156  0.00  0.00    -0.298 N 
ATOM     20  C   UNL     1      -3.124  -0.179   0.834  0.00  0.00    +0.149 C 
ATOM     21  C   UNL     1      -3.225  -1.490   1.599  0.00  0.00    +0.029 C 
ATOM     22  C   UNL     1      -3.606  -2.636   0.671  0.00  0.00    +0.012 C 
ATOM     23  C   UNL     1      -4.918  -2.328  -0.029  0.00  0.00    +0.085 C 
ATOM     24  C   UNL     1      -4.952  -0.975  -0.707  0.00  0.00    +0.223 C 
ATOM     25  H   UNL     1      -4.330   0.935  -0.460  0.00  0.00    +0.150 HD
ENDBRANCH  16  20
ENDBRANCH   1  15
BRANCH   1  26
ATOM     26  C   UNL     1       1.255   1.843   1.005  0.00  0.00    +0.071 C 
BRANCH  26  29
ATOM     27  N   UNL     1      -0.353   3.679   0.354  0.00  0.00    -0.319 N 
ATOM     28  N   UNL     1       0.935   5.230  -0.578  0.00  0.00    -0.315 N 
ATOM     29  C   UNL     1       0.921   3.188   0.406  0.00  0.00    +0.040 C 
ATOM     30  C   UNL     1       1.698   4.163  -0.175  0.00  0.00    +0.069 C 
ATOM     31  C   UNL     1      -0.295   4.907  -0.245  0.00  0.00    +0.182 C 
ATOM     32  H   UNL     1      -1.164   3.230   0.686  0.00  0.00    +0.148 HD
ATOM     33  H   UNL     1       1.241   6.056  -1.018  0.00  0.00    +0.148 HD
ENDBRANCH  26  29
ENDBRANCH   1  26
TORSDOF 6
