123971
  -OEChem-03292013323D

 51 53  0     1  0  0  0  0  0999 V2000
   -0.9897   -0.6360    2.0745 O   0  0  0  0  0  0  0  0  0  0  0  0
    0.1066   -0.0064   -1.2827 O   0  0  0  0  0  0  0  0  0  0  0  0
    2.7944    0.8651   -1.2858 O   0  0  0  0  0  0  0  0  0  0  0  0
    6.3284    2.1591    0.4180 O   0  0  0  0  0  0  0  0  0  0  0  0
   -1.5449   -1.6298    0.0595 N   0  0  0  0  0  0  0  0  0  0  0  0
    1.9574   -1.1304   -0.4035 N   0  0  0  0  0  0  0  0  0  0  0  0
    5.2346    0.3635   -0.6122 N   0  0  0  0  0  0  0  0  0  0  0  0
   -3.6555   -1.4277    2.6767 N   0  0  0  0  0  0  0  0  0  0  0  0
   -3.9317    1.9384   -0.5609 N   0  0  0  0  0  0  0  0  0  0  0  0
   -1.9761    2.8686   -1.0533 N   0  0  0  0  0  0  0  0  0  0  0  0
   -0.2139   -2.1361   -0.2489 C   0  0  1  0  0  0  0  0  0  0  0  0
   -0.4340   -3.1484   -1.3670 C   0  0  0  0  0  0  0  0  0  0  0  0
   -1.6771   -2.6236   -2.0813 C   0  0  0  0  0  0  0  0  0  0  0  0
   -2.5149   -2.0497   -0.9487 C   0  0  0  0  0  0  0  0  0  0  0  0
   -1.8363   -0.9755    1.2463 C   0  0  0  0  0  0  0  0  0  0  0  0
    0.6073   -0.9691   -0.7082 C   0  0  0  0  0  0  0  0  0  0  0  0
   -3.2952   -0.6756    1.4815 C   0  0  2  0  0  0  0  0  0  0  0  0
    4.3001   -0.6605   -0.2396 C   0  0  1  0  0  0  0  0  0  0  0  0
    4.4058   -0.7133    1.2726 C   0  0  0  0  0  0  0  0  0  0  0  0
   -3.5285    0.8224    1.6819 C   0  0  0  0  0  0  0  0  0  0  0  0
    2.9552   -0.2080   -0.7109 C   0  0  0  0  0  0  0  0  0  0  0  0
    4.8486    0.6947    1.6696 C   0  0  0  0  0  0  0  0  0  0  0  0
    5.5885    1.1881    0.4503 C   0  0  0  0  0  0  0  0  0  0  0  0
   -3.1007    1.6359    0.4807 C   0  0  0  0  0  0  0  0  0  0  0  0
   -1.8996    2.2202    0.1539 C   0  0  0  0  0  0  0  0  0  0  0  0
   -3.2126    2.6791   -1.4573 C   0  0  0  0  0  0  0  0  0  0  0  0
   -5.3161    1.5548   -0.7050 C   0  0  0  0  0  0  0  0  0  0  0  0
    0.2236   -2.5913    0.6464 H   0  0  0  0  0  0  0  0  0  0  0  0
    0.4194   -3.2513   -2.0439 H   0  0  0  0  0  0  0  0  0  0  0  0
   -0.6531   -4.1337   -0.9376 H   0  0  0  0  0  0  0  0  0  0  0  0
   -2.2050   -3.3999   -2.6420 H   0  0  0  0  0  0  0  0  0  0  0  0
   -1.3973   -1.8299   -2.7843 H   0  0  0  0  0  0  0  0  0  0  0  0
   -3.1225   -1.2051   -1.2853 H   0  0  0  0  0  0  0  0  0  0  0  0
   -3.1593   -2.8171   -0.5061 H   0  0  0  0  0  0  0  0  0  0  0  0
   -3.9454   -1.0190    0.6774 H   0  0  0  0  0  0  0  0  0  0  0  0
    4.5727   -1.6039   -0.7220 H   0  0  0  0  0  0  0  0  0  0  0  0
    3.4907   -1.0118    1.7923 H   0  0  0  0  0  0  0  0  0  0  0  0
    5.1930   -1.4235    1.5569 H   0  0  0  0  0  0  0  0  0  0  0  0
   -4.5836    1.0166    1.9110 H   0  0  0  0  0  0  0  0  0  0  0  0
   -2.9606    1.1849    2.5501 H   0  0  0  0  0  0  0  0  0  0  0  0
    2.2381   -1.9903    0.0616 H   0  0  0  0  0  0  0  0  0  0  0  0
    5.5008    0.6835    2.5461 H   0  0  0  0  0  0  0  0  0  0  0  0
    3.9892    1.3484    1.8482 H   0  0  0  0  0  0  0  0  0  0  0  0
    5.5739    0.5013   -1.5593 H   0  0  0  0  0  0  0  0  0  0  0  0
   -4.6265   -1.2386    2.9226 H   0  0  0  0  0  0  0  0  0  0  0  0
   -3.6015   -2.4275    2.4843 H   0  0  0  0  0  0  0  0  0  0  0  0
   -0.9824    2.2089    0.7250 H   0  0  0  0  0  0  0  0  0  0  0  0
   -3.6363    3.0517   -2.3801 H   0  0  0  0  0  0  0  0  0  0  0  0
   -5.6906    1.9021   -1.6715 H   0  0  0  0  0  0  0  0  0  0  0  0
   -5.8903    2.0191    0.1004 H   0  0  0  0  0  0  0  0  0  0  0  0
   -5.3859    0.4659   -0.6559 H   0  0  0  0  0  0  0  0  0  0  0  0
  1 15  2  0  0  0  0
  2 16  2  0  0  0  0
  3 21  2  0  0  0  0
  4 23  2  0  0  0  0
  5 11  1  0  0  0  0
  5 14  1  0  0  0  0
  5 15  1  0  0  0  0
  6 16  1  0  0  0  0
  6 21  1  0  0  0  0
  6 41  1  0  0  0  0
  7 18  1  0  0  0  0
  7 23  1  0  0  0  0
  7 44  1  0  0  0  0
  8 17  1  0  0  0  0
  8 45  1  0  0  0  0
  8 46  1  0  0  0  0
  9 24  1  0  0  0  0
  9 26  1  0  0  0  0
  9 27  1  0  0  0  0
 10 25  1  0  0  0  0
 10 26  2  0  0  0  0
 11 12  1  0  0  0  0
 11 16  1  0  0  0  0
 11 28  1  0  0  0  0
 12 13  1  0  0  0  0
 12 29  1  0  0  0  0
 12 30  1  0  0  0  0
 13 14  1  0  0  0  0
 13 31  1  0  0  0  0
 13 32  1  0  0  0  0
 14 33  1  0  0  0  0
 14 34  1  0  0  0  0
 15 17  1  0  0  0  0
 17 20  1  0  0  0  0
 17 35  1  0  0  0  0
 18 19  1  0  0  0  0
 18 21  1  0  0  0  0
 18 36  1  0  0  0  0
 19 22  1  0  0  0  0
 19 37  1  0  0  0  0
 19 38  1  0  0  0  0
 20 24  1  0  0  0  0
 20 39  1  0  0  0  0
 20 40  1  0  0  0  0
 22 23  1  0  0  0  0
 22 42  1  0  0  0  0
 22 43  1  0  0  0  0
 24 25  2  0  0  0  0
 25 47  1  0  0  0  0
 26 48  1  0  0  0  0
 27 49  1  0  0  0  0
 27 50  1  0  0  0  0
 27 51  1  0  0  0  0
M  END
> <PUBCHEM_COMPOUND_CID>
123971

> <PUBCHEM_CONFORMER_RMSD>
1

> <PUBCHEM_CONFORMER_DIVERSEORDER>
1
264
167
341
288
198
24
33
249
10
209
253
127
241
364
298
23
348
208
207
275
122
206
129
234
267
153
262
65
93
18
268
59
316
305
181
138
283
130
358
260
161
105
355
368
184
244
124
115
245
347
296
292
308
94
163
322
272
42
369
197
233
247
333
134
48
236
215
301
226
214
162
164
85
194
255
256
119
325
179
363
335
49
276
349
204
67
193
342
91
56
303
289
147
291
139
332
328
123
118
366
51
248
11
72
239
165
218
75
362
282
112
294
219
216
205
55
365
297
318
240
4
343
154
44
367
5
338
285
149
277
57
137
201
313
2
156
232
50
14
337
82
144
360
246
52
26
128
309
359
217
97
200
212
28
73
114
47
251
21
182
88
258
43
228
220
19
192
111
336
136
331
84
278
186
171
151
273
98
77
148
189
100
242
158
286
170
99
350
9
70
279
224
185
190
121
196
314
327
221
64
120
237
141
295
235
334
265
345
104
132
183
172
166
41
30
102
116
95
274
175
225
229
76
312
79
178
238
243
307
117
46
152
259
8
187
320
150
53
69
351
133
271
38
356
83
281
252
176
227
40
210
6
326
195
159
15
142
287
213
306
321
145
34
108
96
107
344
146
280
290
20
80
32
174
311
261
78
191
270
113
54
319
87
27
92
135
324
168
329
339
81
222
90
310
202
284
361
74
300
269
203
250
180
177
7
254
62
16
231
89
61
3
257
12
354
106
169
45
103
58
131
17
211
39
304
36
68
60
155
31
357
109
352
323
353
302
293
29
86
22
143
13
37
188
266
157
315
230
35
25
299
223
199
346
63
110
330
263
66
71
317
125
173
340
160
140
126
101

> <PUBCHEM_MMFF94_PARTIAL_CHARGES>
30
1 -0.57
10 -0.57
11 0.36
14 0.3
15 0.57
16 0.57
17 0.33
18 0.36
2 -0.57
20 0.18
21 0.57
22 0.06
23 0.57
24 -0.33
25 0.08
26 0.04
27 0.26
3 -0.57
4 -0.57
41 0.37
44 0.37
45 0.36
46 0.36
47 0.15
48 0.15
5 -0.66
6 -0.49
7 -0.73
8 -0.99
9 0.05

> <PUBCHEM_EFFECTIVE_ROTOR_COUNT>
9.8

> <PUBCHEM_PHARMACOPHORE_FEATURES>
12
1 1 acceptor
1 2 acceptor
1 3 acceptor
1 4 acceptor
1 6 donor
1 7 donor
1 8 cation
1 8 donor
3 9 10 26 cation
5 5 11 12 13 14 rings
5 7 18 19 22 23 rings
5 9 10 24 25 26 rings

> <PUBCHEM_HEAVY_ATOM_COUNT>
27

> <PUBCHEM_ATOM_DEF_STEREO_COUNT>
3

> <PUBCHEM_ATOM_UDEF_STEREO_COUNT>
0

> <PUBCHEM_BOND_DEF_STEREO_COUNT>
0

> <PUBCHEM_BOND_UDEF_STEREO_COUNT>
0

> <PUBCHEM_ISOTOPIC_ATOM_COUNT>
0

> <PUBCHEM_COMPONENT_COUNT>
1

> <PUBCHEM_CACTVS_TAUTO_COUNT>
9

> <PUBCHEM_CONFORMER_ID>
0001E44300000001

> <PUBCHEM_MMFF94_ENERGY>
53.2911

> <PUBCHEM_FEATURE_SELFOVERLAP>
60.9

> <PUBCHEM_SHAPE_FINGERPRINT>
11595378 159 18333448772618761474
12035758 1 17969811639089013729
12422481 6 18119561828103484057
12596602 18 17240488048080046264
12760667 363 8286197257975218024
12892183 10 17967821539425951490
12969540 114 17988640761753043498
13583140 156 18334575737382036274
13911987 19 17988925556797769369
14251764 30 9222646934907333613
14251764 38 18122624946754034504
14468879 13 18337393725538854211
14950920 106 17096092527351396472
15513586 35 17903932389148935408
17492 54 18266154194691851293
17980427 23 18113625577599175541
21033648 29 18201154373981898032
21302155 148 18336273431044933028
23559900 14 17970648293663462998
2838139 119 18265326210105386429
3117164 225 17751631058010351986
376196 1 17830725457519774429
4371632 12 15551598686859289512
469060 322 18340773753559294519
484985 159 15864332641392080266
4921388 177 8934729919769283338
59755656 520 17059793151234499687
633830 44 16843905078302615858
9862522 239 18408883997267369927
9981440 41 18189054209968869499

> <PUBCHEM_SHAPE_MULTIPOLES>
502.28
11.84
3.31
2
16.84
0.46
-0.89
-8.5
-2.22
-2.71
1.7
-1.65
0.45
1.17

> <PUBCHEM_SHAPE_SELFOVERLAP>
1064.272

> <PUBCHEM_SHAPE_VOLUME>
282.5

> <PUBCHEM_COORDINATE_TYPE>
2
5
10

$$$$
