REMARK  Name = 123971
REMARK  6 active torsions:
REMARK  status: ('A' for Active; 'I' for Inactive)
REMARK    1  A    between atoms: C_3  and  C_11
REMARK    2  A    between atoms: C_7  and  C_21
REMARK    3  A    between atoms: C_12  and  C_16
REMARK    4  A    between atoms: C_21  and  N_22
REMARK    5  A    between atoms: C_21  and  C_26
REMARK    6  A    between atoms: C_26  and  C_29
REMARK                            x       y       z     vdW  Elec       q    Type
REMARK                         _______ _______ _______ _____ _____    ______ ____
ROOT
ATOM      1  O   UNL     1      -0.990  -0.636   2.075  0.00  0.00    -0.277 OA
ATOM      2  N   UNL     1      -1.545  -1.630   0.059  0.00  0.00    -0.275 N 
ATOM      3  C   UNL     1      -0.214  -2.136  -0.249  0.00  0.00    +0.152 C 
ATOM      4  C   UNL     1      -0.434  -3.148  -1.367  0.00  0.00    +0.031 C 
ATOM      5  C   UNL     1      -1.677  -2.624  -2.081  0.00  0.00    +0.024 C 
ATOM      6  C   UNL     1      -2.515  -2.050  -0.949  0.00  0.00    +0.094 C 
ATOM      7  C   UNL     1      -1.836  -0.976   1.246  0.00  0.00    +0.206 C 
ENDROOT
BRANCH   3  11
ATOM      8  O   UNL     1       0.107  -0.006  -1.283  0.00  0.00    -0.273 OA
ATOM      9  O   UNL     1       2.794   0.865  -1.286  0.00  0.00    -0.273 OA
ATOM     10  N   UNL     1       1.957  -1.130  -0.404  0.00  0.00    -0.253 N 
ATOM     11  C   UNL     1       0.607  -0.969  -0.708  0.00  0.00    +0.246 C 
ATOM     12  C   UNL     1       2.955  -0.208  -0.711  0.00  0.00    +0.246 C 
ATOM     13  H   UNL     1       2.225  -1.955   0.062  0.00  0.00    +0.158 HD
BRANCH  12  16
ATOM     14  O   UNL     1       6.328   2.159   0.418  0.00  0.00    -0.275 OA
ATOM     15  N   UNL     1       5.235   0.363  -0.612  0.00  0.00    -0.298 N 
ATOM     16  C   UNL     1       4.300  -0.660  -0.240  0.00  0.00    +0.149 C 
ATOM     17  C   UNL     1       4.406  -0.713   1.273  0.00  0.00    +0.039 C 
ATOM     18  C   UNL     1       4.849   0.695   1.670  0.00  0.00    +0.087 C 
ATOM     19  C   UNL     1       5.588   1.188   0.450  0.00  0.00    +0.223 C 
ATOM     20  H   UNL     1       5.588   0.471  -1.525  0.00  0.00    +0.150 HD
ENDBRANCH  12  16
ENDBRANCH   3  11
BRANCH   7  21
ATOM     21  C   UNL     1      -3.295  -0.676   1.482  0.00  0.00    +0.019 C 
BRANCH  21  22
ATOM     22  N   UNL     1      -3.655  -1.428   2.677  0.00  0.00    +0.388 N 
ATOM     23  H   UNL     1      -3.490  -2.421   2.516  0.00  0.00    -0.089 HD
ATOM     24  H   UNL     1      -4.642  -1.277   2.889  0.00  0.00    -0.089 HD
ATOM     25  H   UNL     1      -3.087  -1.111   3.462  0.00  0.00    -0.089 HD
ENDBRANCH  21  22
BRANCH  21  26
ATOM     26  C   UNL     1      -3.529   0.822   1.682  0.00  0.00    +0.029 C 
BRANCH  26  29
ATOM     27  N   UNL     1      -3.932   1.938  -0.561  0.00  0.00    -0.291 N 
ATOM     28  N   UNL     1      -1.976   2.869  -1.053  0.00  0.00    -0.314 N 
ATOM     29  C   UNL     1      -3.101   1.636   0.481  0.00  0.00    +0.039 C 
ATOM     30  C   UNL     1      -1.900   2.220   0.154  0.00  0.00    +0.069 C 
ATOM     31  C   UNL     1      -3.213   2.679  -1.457  0.00  0.00    +0.185 C 
ATOM     32  C   UNL     1      -5.316   1.555  -0.705  0.00  0.00    +0.113 C 
ATOM     33  H   UNL     1      -1.263   3.366  -1.515  0.00  0.00    +0.148 HD
ENDBRANCH  26  29
ENDBRANCH  21  26
ENDBRANCH   7  21
TORSDOF 6
