124099
  -OEChem-03292013323D

 51 51  0     0  0  0  0  0  0999 V2000
   -5.6272   -2.5403    0.2050 Cl  0  0  0  0  0  0  0  0  0  0  0  0
    1.1320    3.2786   -0.3424 S   0  0  0  0  0  0  0  0  0  0  0  0
   -1.1356    1.2387   -0.1346 O   0  0  0  0  0  0  0  0  0  0  0  0
   -0.3136   -2.6648    0.2204 O   0  0  0  0  0  0  0  0  0  0  0  0
    1.1652    2.2978   -1.4135 O   0  0  0  0  0  0  0  0  0  0  0  0
    0.4203    4.5339   -0.5099 O   0  0  0  0  0  0  0  0  0  0  0  0
    3.9773   -1.1445   -0.3165 N   0  0  0  0  0  0  0  0  0  0  0  0
    0.3284   -0.7654   -0.9463 N   0  0  0  0  0  0  0  0  0  0  0  0
   -5.8511    0.4932    0.2951 N   0  0  0  0  0  0  0  0  0  0  0  0
    2.6055   -0.7042   -0.0650 C   0  0  0  0  0  0  0  0  0  0  0  0
    1.6881   -1.1643   -1.1884 C   0  0  0  0  0  0  0  0  0  0  0  0
    4.1315   -2.5577    0.0269 C   0  0  0  0  0  0  0  0  0  0  0  0
    4.9236   -0.3278    0.4425 C   0  0  0  0  0  0  0  0  0  0  0  0
    5.5348   -3.0487   -0.2856 C   0  0  0  0  0  0  0  0  0  0  0  0
    4.7010   -0.4769    1.9380 C   0  0  0  0  0  0  0  0  0  0  0  0
    0.5176    2.4863    1.1119 C   0  0  0  0  0  0  0  0  0  0  0  0
   -1.9499   -1.0176   -0.1079 C   0  0  0  0  0  0  0  0  0  0  0  0
   -0.9464    2.1167    0.9730 C   0  0  0  0  0  0  0  0  0  0  0  0
   -0.5747   -1.5610   -0.2509 C   0  0  0  0  0  0  0  0  0  0  0  0
   -2.1731    0.3585   -0.0564 C   0  0  0  0  0  0  0  0  0  0  0  0
   -3.0253   -1.9023   -0.0252 C   0  0  0  0  0  0  0  0  0  0  0  0
   -3.4717    0.8499    0.0780 C   0  0  0  0  0  0  0  0  0  0  0  0
    2.8142    3.6672    0.0826 C   0  0  0  0  0  0  0  0  0  0  0  0
   -4.5471   -0.0346    0.1604 C   0  0  0  0  0  0  0  0  0  0  0  0
   -4.3238   -1.4107    0.1087 C   0  0  0  0  0  0  0  0  0  0  0  0
    2.5635    0.3895   -0.0397 H   0  0  0  0  0  0  0  0  0  0  0  0
    2.2191   -1.0582    0.8993 H   0  0  0  0  0  0  0  0  0  0  0  0
    1.9912   -0.7136   -2.1402 H   0  0  0  0  0  0  0  0  0  0  0  0
    1.6990   -2.2504   -1.3170 H   0  0  0  0  0  0  0  0  0  0  0  0
    3.8599   -2.8000    1.0605 H   0  0  0  0  0  0  0  0  0  0  0  0
    3.4626   -3.1588   -0.5990 H   0  0  0  0  0  0  0  0  0  0  0  0
    5.9631   -0.5541    0.1827 H   0  0  0  0  0  0  0  0  0  0  0  0
    4.8002    0.7262    0.1632 H   0  0  0  0  0  0  0  0  0  0  0  0
    0.0309    0.1260   -1.3301 H   0  0  0  0  0  0  0  0  0  0  0  0
    0.6584    3.1736    1.9512 H   0  0  0  0  0  0  0  0  0  0  0  0
    1.1240    1.5920    1.2747 H   0  0  0  0  0  0  0  0  0  0  0  0
    5.8521   -2.7555   -1.2923 H   0  0  0  0  0  0  0  0  0  0  0  0
    6.2757   -2.6933    0.4368 H   0  0  0  0  0  0  0  0  0  0  0  0
    5.5574   -4.1436   -0.2444 H   0  0  0  0  0  0  0  0  0  0  0  0
    3.6934   -0.2015    2.2613 H   0  0  0  0  0  0  0  0  0  0  0  0
    4.9382   -1.4750    2.3162 H   0  0  0  0  0  0  0  0  0  0  0  0
    5.3806    0.2085    2.4592 H   0  0  0  0  0  0  0  0  0  0  0  0
   -1.5506    3.0164    0.8106 H   0  0  0  0  0  0  0  0  0  0  0  0
   -1.2785    1.6416    1.9050 H   0  0  0  0  0  0  0  0  0  0  0  0
   -2.8563   -2.9760   -0.0704 H   0  0  0  0  0  0  0  0  0  0  0  0
   -3.6482    1.9227    0.1090 H   0  0  0  0  0  0  0  0  0  0  0  0
    3.2802    4.1490   -0.7794 H   0  0  0  0  0  0  0  0  0  0  0  0
    2.8129    4.3473    0.9363 H   0  0  0  0  0  0  0  0  0  0  0  0
    3.3407    2.7438    0.3254 H   0  0  0  0  0  0  0  0  0  0  0  0
   -6.6419   -0.1342    0.3574 H   0  0  0  0  0  0  0  0  0  0  0  0
   -5.9938    1.4936    0.3324 H   0  0  0  0  0  0  0  0  0  0  0  0
  1 25  1  0  0  0  0
  2  5  2  0  0  0  0
  2  6  2  0  0  0  0
  2 16  1  0  0  0  0
  2 23  1  0  0  0  0
  3 18  1  0  0  0  0
  3 20  1  0  0  0  0
  4 19  2  0  0  0  0
  7 10  1  0  0  0  0
  7 12  1  0  0  0  0
  7 13  1  0  0  0  0
  8 11  1  0  0  0  0
  8 19  1  0  0  0  0
  8 34  1  0  0  0  0
  9 24  1  0  0  0  0
  9 50  1  0  0  0  0
  9 51  1  0  0  0  0
 10 11  1  0  0  0  0
 10 26  1  0  0  0  0
 10 27  1  0  0  0  0
 11 28  1  0  0  0  0
 11 29  1  0  0  0  0
 12 14  1  0  0  0  0
 12 30  1  0  0  0  0
 12 31  1  0  0  0  0
 13 15  1  0  0  0  0
 13 32  1  0  0  0  0
 13 33  1  0  0  0  0
 14 37  1  0  0  0  0
 14 38  1  0  0  0  0
 14 39  1  0  0  0  0
 15 40  1  0  0  0  0
 15 41  1  0  0  0  0
 15 42  1  0  0  0  0
 16 18  1  0  0  0  0
 16 35  1  0  0  0  0
 16 36  1  0  0  0  0
 17 19  1  0  0  0  0
 17 20  1  0  0  0  0
 17 21  2  0  0  0  0
 18 43  1  0  0  0  0
 18 44  1  0  0  0  0
 20 22  2  0  0  0  0
 21 25  1  0  0  0  0
 21 45  1  0  0  0  0
 22 24  1  0  0  0  0
 22 46  1  0  0  0  0
 23 47  1  0  0  0  0
 23 48  1  0  0  0  0
 23 49  1  0  0  0  0
 24 25  2  0  0  0  0
M  END
> <PUBCHEM_COMPOUND_CID>
124099

> <PUBCHEM_CONFORMER_RMSD>
1.2

> <PUBCHEM_CONFORMER_DIVERSEORDER>
1
32
60
19
11
29
6
12
8
56
59
41
25
4
23
58
16
14
48
52
42
51
31
20
15
26
43
38
3
39
5
10
22
13
57
37
53
47
17
35
30
33
21
44
55
50
36
24
2
7
49
40
18
45
54
34
9
28
46
27

> <PUBCHEM_MMFF94_PARTIAL_CHARGES>
28
1 -0.18
10 0.27
11 0.3
12 0.27
13 0.27
16 0.11
17 0.09
18 0.28
19 0.54
2 1.09
20 0.08
21 -0.15
22 -0.15
23 0.11
24 0.1
25 0.18
3 -0.36
34 0.37
4 -0.57
45 0.15
46 0.15
5 -0.65
50 0.4
51 0.4
6 -0.65
7 -0.81
8 -0.73
9 -0.9

> <PUBCHEM_EFFECTIVE_ROTOR_COUNT>
11

> <PUBCHEM_PHARMACOPHORE_FEATURES>
9
1 3 acceptor
1 4 acceptor
1 5 acceptor
1 6 acceptor
1 7 cation
1 8 donor
1 9 cation
1 9 donor
6 17 20 21 22 24 25 rings

> <PUBCHEM_HEAVY_ATOM_COUNT>
25

> <PUBCHEM_ATOM_DEF_STEREO_COUNT>
0

> <PUBCHEM_ATOM_UDEF_STEREO_COUNT>
0

> <PUBCHEM_BOND_DEF_STEREO_COUNT>
0

> <PUBCHEM_BOND_UDEF_STEREO_COUNT>
0

> <PUBCHEM_ISOTOPIC_ATOM_COUNT>
0

> <PUBCHEM_COMPONENT_COUNT>
1

> <PUBCHEM_CACTVS_TAUTO_COUNT>
3

> <PUBCHEM_CONFORMER_ID>
0001E4C300000001

> <PUBCHEM_MMFF94_ENERGY>
63.9182

> <PUBCHEM_FEATURE_SELFOVERLAP>
45.692

> <PUBCHEM_SHAPE_FINGERPRINT>
1100329 8 18411426098727216331
11045515 52 18261114010934328053
11578080 2 17532628291294686213
11595378 159 18191005821728450114
11963148 33 17474664431188145911
12107183 9 18341343193408695753
12166972 35 18040725740126491662
12403259 226 18334011705334194013
12592029 89 17979081805462172609
13004483 165 18338791209297249906
13140716 1 18339090375613349187
138480 1 18410857685296163884
14955137 171 18413392029506893387
15927050 60 17909554204938741374
1813 80 18261104180054815864
18336668 15 18259987089157624124
18785283 64 18192430989896528013
20600515 1 18200041633496095341
20642791 178 18339092553051401129
21033648 29 17703211962672632787
23366157 5 18044376260406489181
23402539 116 18271802376553553991
23557571 272 18198628726715686046
23559900 14 18410854377923374067
25147074 1 17987521588698994383
335352 9 18411140195871241375
350125 39 18410298055747893373
3680242 22 18339375079877965369
4409770 3 17828759543313617037
5104073 3 18266193893127439083
9777508 108 17690558585739940228
9925002 15 17128995451061227966
9981440 41 17400638719292469857

> <PUBCHEM_SHAPE_MULTIPOLES>
481.79
11.64
4.79
1.04
2.74
4.43
-0.19
-10.06
-2.29
-3.85
0.5
-0.95
0.22
0.02

> <PUBCHEM_SHAPE_SELFOVERLAP>
951.19

> <PUBCHEM_SHAPE_VOLUME>
290.9

> <PUBCHEM_COORDINATE_TYPE>
2
5
10

$$$$
