REMARK  Name = 124044
REMARK  15 active torsions:
REMARK  status: ('A' for Active; 'I' for Inactive)
REMARK    1  A    between atoms: C_1  and  O_2
REMARK    2  A    between atoms: C_1  and  C_4
REMARK    3  A    between atoms: C_1  and  C_15
REMARK    4  A    between atoms: C_4  and  S_5
REMARK    5  A    between atoms: C_4  and  C_8
REMARK    6  A    between atoms: S_5  and  C_6
REMARK    7  A    between atoms: C_8  and  S_9
REMARK    8  A    between atoms: C_8  and  S_12
REMARK    9  A    between atoms: S_9  and  C_10
REMARK   10  A    between atoms: S_12  and  C_13
REMARK   11  A    between atoms: C_15  and  O_16
REMARK   12  A    between atoms: C_15  and  C_18
REMARK   13  A    between atoms: C_18  and  O_19
REMARK   14  A    between atoms: C_18  and  C_21
REMARK   15  A    between atoms: C_21  and  O_22
REMARK                            x       y       z     vdW  Elec       q    Type
REMARK                         _______ _______ _______ _____ _____    ______ ____
ROOT
ATOM      1  C   UNL     1      -0.546   0.776  -1.300  0.00  0.00    +0.151 C 
ENDROOT
BRANCH   1   2
ATOM      2  O   UNL     1       0.338   1.171  -2.351  0.00  0.00    -0.381 OA
ATOM      3  H   UNL     1       0.723   2.036  -2.141  0.00  0.00    +0.210 HD
ENDBRANCH   1   2
BRANCH   1   4
ATOM      4  C   UNL     1       0.136   0.887   0.097  0.00  0.00    +0.097 C 
BRANCH   4   5
ATOM      5  S   UNL     1       0.666   2.601   0.509  0.00  0.00    -0.137 S 
BRANCH   5   6
ATOM      6  C   UNL     1      -0.964   3.264   0.905  0.00  0.00    +0.058 C 
ATOM      7  C   UNL     1      -0.863   4.725   1.302  0.00  0.00    +0.013 C 
ENDBRANCH   5   6
ENDBRANCH   4   5
BRANCH   4   8
ATOM      8  C   UNL     1       1.294  -0.143   0.280  0.00  0.00    +0.107 C 
BRANCH   8   9
ATOM      9  S   UNL     1       2.836   0.368  -0.602  0.00  0.00    -0.129 S 
BRANCH   9  10
ATOM     10  C   UNL     1       3.646  -1.244  -0.758  0.00  0.00    +0.058 C 
ATOM     11  C   UNL     1       4.978  -1.104  -1.471  0.00  0.00    +0.013 C 
ENDBRANCH   9  10
ENDBRANCH   8   9
BRANCH   8  12
ATOM     12  S   UNL     1       1.708  -0.514   2.039  0.00  0.00    -0.129 S 
BRANCH  12  13
ATOM     13  C   UNL     1       0.368  -1.668   2.429  0.00  0.00    +0.058 C 
ATOM     14  C   UNL     1       0.476  -2.144   3.866  0.00  0.00    +0.013 C 
ENDBRANCH  12  13
ENDBRANCH   8  12
ENDBRANCH   4   8
ENDBRANCH   1   4
BRANCH   1  15
ATOM     15  C   UNL     1      -1.131  -0.603  -1.685  0.00  0.00    +0.167 C 
BRANCH  15  16
ATOM     16  O   UNL     1      -2.030  -0.461  -2.789  0.00  0.00    -0.379 OA
ATOM     17  H   UNL     1      -1.585   0.011  -3.510  0.00  0.00    +0.211 HD
ENDBRANCH  15  16
BRANCH  15  18
ATOM     18  C   UNL     1      -1.865  -1.355  -0.560  0.00  0.00    +0.169 C 
BRANCH  18  19
ATOM     19  O   UNL     1      -2.370  -2.586  -1.093  0.00  0.00    -0.379 OA
ATOM     20  H   UNL     1      -1.645  -3.082  -1.504  0.00  0.00    +0.211 HD
ENDBRANCH  18  19
BRANCH  18  21
ATOM     21  C   UNL     1      -3.031  -0.600   0.078  0.00  0.00    +0.169 C 
BRANCH  21  22
ATOM     22  O   UNL     1      -3.645  -1.369   1.105  0.00  0.00    -0.379 OA
ATOM     23  H   UNL     1      -4.380  -0.866   1.490  0.00  0.00    +0.211 HD
ENDBRANCH  21  22
ENDBRANCH  18  21
ENDBRANCH  15  18
ENDBRANCH   1  15
TORSDOF 15
