REMARK  Name = 124000
REMARK  8 active torsions:
REMARK  status: ('A' for Active; 'I' for Inactive)
REMARK    1  A    between atoms: C_4  and  C_13
REMARK    2  A    between atoms: C_7  and  C_10
REMARK    3  A    between atoms: C_8  and  S_17
REMARK    4  A    between atoms: C_10  and  O_11
REMARK    5  A    between atoms: C_13  and  O_15
REMARK    6  A    between atoms: S_17  and  C_18
REMARK    7  A    between atoms: C_18  and  C_19
REMARK    8  A    between atoms: C_19  and  N_20
REMARK                            x       y       z     vdW  Elec       q    Type
REMARK                         _______ _______ _______ _____ _____    ______ ____
ROOT
ATOM      1  O   UNL     1      -2.429  -1.919  -0.400  0.00  0.00    -0.274 OA
ATOM      2  N   UNL     1      -0.841  -0.396   0.456  0.00  0.00    -0.254 N 
ATOM      3  C   UNL     1      -1.108   1.051   0.296  0.00  0.00    +0.096 C 
ATOM      4  C   UNL     1      -2.464   0.636  -0.335  0.00  0.00    +0.123 C 
ATOM      5  C   UNL     1       0.090   1.571  -0.506  0.00  0.00    +0.055 C 
ATOM      6  C   UNL     1      -2.006  -0.823  -0.111  0.00  0.00    +0.233 C 
ATOM      7  C   UNL     1       0.414  -0.691   0.004  0.00  0.00    +0.132 C 
ATOM      8  C   UNL     1       1.013   0.379  -0.533  0.00  0.00    +0.025 C 
ENDROOT
BRANCH   7  10
ATOM      9  O   UNL     1       1.659  -2.583  -0.718  0.00  0.00    -0.244 OA
ATOM     10  C   UNL     1       0.905  -2.063   0.089  0.00  0.00    +0.352 C 
BRANCH  10  11
ATOM     11  O   UNL     1       0.401  -2.663   1.190  0.00  0.00    -0.476 OA
ATOM     12  H   UNL     1      -0.174  -2.189   1.759  0.00  0.00    +0.295 HD
ENDBRANCH  10  11
ENDBRANCH   7  10
BRANCH   4  13
ATOM     13  C   UNL     1      -3.693   1.034   0.446  0.00  0.00    +0.121 C 
ATOM     14  C   UNL     1      -4.123   2.469   0.156  0.00  0.00    +0.032 C 
BRANCH  13  15
ATOM     15  O   UNL     1      -4.774   0.159   0.121  0.00  0.00    -0.384 OA
ATOM     16  H   UNL     1      -4.514  -0.758   0.301  0.00  0.00    +0.210 HD
ENDBRANCH  13  15
ENDBRANCH   4  13
BRANCH   8  17
ATOM     17  S   UNL     1       2.571   0.491  -1.243  0.00  0.00    -0.119 S 
BRANCH  17  18
ATOM     18  C   UNL     1       3.553   0.919   0.216  0.00  0.00    +0.038 C 
BRANCH  18  19
ATOM     19  C   UNL     1       5.026   1.042  -0.154  0.00  0.00    -0.074 C 
BRANCH  19  20
ATOM     20  N   UNL     1       5.808   1.387   1.029  0.00  0.00    +0.381 N 
ATOM     21  H   UNL     1       6.792   1.467   0.775  0.00  0.00    -0.089 HD
ATOM     22  H   UNL     1       5.697   0.658   1.734  0.00  0.00    -0.089 HD
ATOM     23  H   UNL     1       5.480   2.276   1.406  0.00  0.00    -0.089 HD
ENDBRANCH  19  20
ENDBRANCH  18  19
ENDBRANCH  17  18
ENDBRANCH   8  17
TORSDOF 8
