124000
  -OEChem-03292013323D

 34 35  0     1  0  0  0  0  0999 V2000
    2.5715    0.4914   -1.2430 S   0  0  0  0  0  0  0  0  0  0  0  0
   -4.7743    0.1592    0.1206 O   0  0  0  0  0  0  0  0  0  0  0  0
   -2.4292   -1.9193   -0.4000 O   0  0  0  0  0  0  0  0  0  0  0  0
    0.4006   -2.6625    1.1899 O   0  0  0  0  0  0  0  0  0  0  0  0
    1.6586   -2.5831   -0.7184 O   0  0  0  0  0  0  0  0  0  0  0  0
   -0.8412   -0.3960    0.4555 N   0  0  0  0  0  0  0  0  0  0  0  0
    5.8078    1.3868    1.0293 N   0  0  0  0  0  0  0  0  0  0  0  0
   -1.1078    1.0506    0.2965 C   0  0  2  0  0  0  0  0  0  0  0  0
   -2.4642    0.6356   -0.3354 C   0  0  1  0  0  0  0  0  0  0  0  0
    0.0899    1.5713   -0.5061 C   0  0  0  0  0  0  0  0  0  0  0  0
   -2.0060   -0.8227   -0.1112 C   0  0  0  0  0  0  0  0  0  0  0  0
   -3.6934    1.0341    0.4455 C   0  0  1  0  0  0  0  0  0  0  0  0
    0.4136   -0.6912    0.0037 C   0  0  0  0  0  0  0  0  0  0  0  0
    1.0130    0.3791   -0.5327 C   0  0  0  0  0  0  0  0  0  0  0  0
   -4.1235    2.4686    0.1557 C   0  0  0  0  0  0  0  0  0  0  0  0
    0.9051   -2.0633    0.0890 C   0  0  0  0  0  0  0  0  0  0  0  0
    3.5534    0.9195    0.2157 C   0  0  0  0  0  0  0  0  0  0  0  0
    5.0262    1.0420   -0.1545 C   0  0  0  0  0  0  0  0  0  0  0  0
   -1.1898    1.5387    1.2771 H   0  0  0  0  0  0  0  0  0  0  0  0
   -2.5451    0.8646   -1.4063 H   0  0  0  0  0  0  0  0  0  0  0  0
    0.5542    2.4224    0.0035 H   0  0  0  0  0  0  0  0  0  0  0  0
   -0.2045    1.8724   -1.5169 H   0  0  0  0  0  0  0  0  0  0  0  0
   -3.5243    0.9348    1.5245 H   0  0  0  0  0  0  0  0  0  0  0  0
   -4.3684    2.5943   -0.9049 H   0  0  0  0  0  0  0  0  0  0  0  0
   -5.0256    2.7212    0.7227 H   0  0  0  0  0  0  0  0  0  0  0  0
   -3.3323    3.1796    0.4120 H   0  0  0  0  0  0  0  0  0  0  0  0
   -4.5517   -0.7249    0.4580 H   0  0  0  0  0  0  0  0  0  0  0  0
    3.1837    1.8655    0.6276 H   0  0  0  0  0  0  0  0  0  0  0  0
    3.4192    0.1436    0.9785 H   0  0  0  0  0  0  0  0  0  0  0  0
    5.4036    0.0958   -0.5583 H   0  0  0  0  0  0  0  0  0  0  0  0
    5.1735    1.8175   -0.9149 H   0  0  0  0  0  0  0  0  0  0  0  0
    0.7103   -3.5890    1.2795 H   0  0  0  0  0  0  0  0  0  0  0  0
    5.4924    2.2824    1.4000 H   0  0  0  0  0  0  0  0  0  0  0  0
    6.7833    1.5154    0.7637 H   0  0  0  0  0  0  0  0  0  0  0  0
  1 14  1  0  0  0  0
  1 17  1  0  0  0  0
  2 12  1  0  0  0  0
  2 27  1  0  0  0  0
  3 11  2  0  0  0  0
  4 16  1  0  0  0  0
  4 32  1  0  0  0  0
  5 16  2  0  0  0  0
  6  8  1  0  0  0  0
  6 11  1  0  0  0  0
  6 13  1  0  0  0  0
  7 18  1  0  0  0  0
  7 33  1  0  0  0  0
  7 34  1  0  0  0  0
  8  9  1  0  0  0  0
  8 10  1  0  0  0  0
  8 19  1  0  0  0  0
  9 11  1  0  0  0  0
  9 12  1  0  0  0  0
  9 20  1  0  0  0  0
 10 14  1  0  0  0  0
 10 21  1  0  0  0  0
 10 22  1  0  0  0  0
 12 15  1  0  0  0  0
 12 23  1  0  0  0  0
 13 14  2  0  0  0  0
 13 16  1  0  0  0  0
 15 24  1  0  0  0  0
 15 25  1  0  0  0  0
 15 26  1  0  0  0  0
 17 18  1  0  0  0  0
 17 28  1  0  0  0  0
 17 29  1  0  0  0  0
 18 30  1  0  0  0  0
 18 31  1  0  0  0  0
M  END
> <PUBCHEM_COMPOUND_CID>
124000

> <PUBCHEM_CONFORMER_RMSD>
0.8

> <PUBCHEM_CONFORMER_DIVERSEORDER>
1
52
59
70
30
25
20
44
45
50
34
62
57
12
5
55
26
29
35
60
18
11
53
58
41
49
10
8
65
22
71
54
51
69
36
21
32
19
66
2
15
67
13
28
46
38
3
24
23
14
40
9
56
47
48
6
17
63
64
7
61
4
37
27
16
33
43
72
42
68
31
39

> <PUBCHEM_MMFF94_PARTIAL_CHARGES>
21
1 -0.33
10 0.14
11 0.58
12 0.28
13 0.12
14 -0.04
16 0.71
17 0.23
18 0.27
2 -0.68
27 0.4
3 -0.57
32 0.5
33 0.36
34 0.36
4 -0.65
5 -0.57
6 -0.39
7 -0.99
8 0.22
9 0.05

> <PUBCHEM_EFFECTIVE_ROTOR_COUNT>
5.4

> <PUBCHEM_PHARMACOPHORE_FEATURES>
9
1 2 acceptor
1 2 donor
1 3 acceptor
1 4 acceptor
1 5 acceptor
1 7 cation
1 7 donor
3 4 5 16 anion
7 6 8 9 10 11 13 14 rings

> <PUBCHEM_HEAVY_ATOM_COUNT>
18

> <PUBCHEM_ATOM_DEF_STEREO_COUNT>
0

> <PUBCHEM_ATOM_UDEF_STEREO_COUNT>
3

> <PUBCHEM_BOND_DEF_STEREO_COUNT>
0

> <PUBCHEM_BOND_UDEF_STEREO_COUNT>
0

> <PUBCHEM_ISOTOPIC_ATOM_COUNT>
0

> <PUBCHEM_COMPONENT_COUNT>
1

> <PUBCHEM_CACTVS_TAUTO_COUNT>
1

> <PUBCHEM_CONFORMER_ID>
0001E46000000001

> <PUBCHEM_MMFF94_ENERGY>
53.4457

> <PUBCHEM_FEATURE_SELFOVERLAP>
45.725

> <PUBCHEM_SHAPE_FINGERPRINT>
10062212 137 18334571390785662606
10411042 1 17474388457795236758
10980938 120 18262246508327389221
11132069 177 18408890650377588980
11578080 2 16807843235952879422
12403260 363 18193832863253932108
12788726 201 17392500079043451930
13140716 1 18192440877354589105
13380535 76 18333737926685877595
14178342 30 18335425689882284527
14466204 15 18410852144831050488
14897335 6 18410578357723557735
15536298 74 18340774714998498503
16945 1 18410862079205690445
19784866 170 18261116231495833788
20645477 70 18194122920023582679
212916 134 18341319076982413352
21452121 103 18338233744027504720
21524375 3 18334579074386956374
22182313 1 18194430898505563574
23402539 116 18270675480540975980
23558518 356 17901951073289546592
23559900 14 17984421841491599094
2748010 2 18190767295723234727
2916195 48 18201715184857223232
34934 24 18272087171666188613
4340502 62 17822021882746285635
474 4 18114471101555553548
5104073 3 18263373486487431705
58807428 26 18186799162964710162
59755656 215 18268998601023429206
7364860 26 18197501723055060670

> <PUBCHEM_SHAPE_MULTIPOLES>
340.84
8.95
2.57
0.91
5.37
1.48
0.03
-6.59
-1.68
-0.29
-0.25
0.61
0.04
0.15

> <PUBCHEM_SHAPE_SELFOVERLAP>
697.455

> <PUBCHEM_SHAPE_VOLUME>
200.6

> <PUBCHEM_COORDINATE_TYPE>
2
5
10

$$$$
