REMARK  Name = 124070
REMARK  3 active torsions:
REMARK  status: ('A' for Active; 'I' for Inactive)
REMARK    1  A    between atoms: N_3  and  C_25
REMARK    2  A    between atoms: C_12  and  C_22
REMARK    3  A    between atoms: C_22  and  O_23
REMARK                            x       y       z     vdW  Elec       q    Type
REMARK                         _______ _______ _______ _____ _____    ______ ____
ROOT
ATOM      1  F   UNL     1      -1.804   2.772   0.332  0.00  0.00    -0.200 F 
ATOM      2  O   UNL     1       3.221   2.208   0.395  0.00  0.00    -0.290 OA
ATOM      3  N   UNL     1       1.678  -1.470  -0.394  0.00  0.00    -0.264 N 
ATOM      4  N   UNL     1      -0.573  -0.588  -0.297  0.00  0.00    -0.373 NA
ATOM      5  C   UNL     1      -1.391   0.473  -0.114  0.00  0.00    +0.212 C 
ATOM      6  C   UNL     1       0.771  -0.394  -0.211  0.00  0.00    +0.177 C 
ATOM      7  C   UNL     1       1.288   0.884   0.063  0.00  0.00    +0.153 C 
ATOM      8  C   UNL     1      -0.951   1.754   0.158  0.00  0.00    +0.180 C 
ATOM      9  C   UNL     1       0.417   1.960   0.248  0.00  0.00    +0.023 C 
ATOM     10  C   UNL     1       2.754   1.101   0.158  0.00  0.00    +0.192 C 
ATOM     11  C   UNL     1       3.038  -1.255  -0.303  0.00  0.00    +0.076 C 
ATOM     12  C   UNL     1       3.627  -0.081  -0.048  0.00  0.00    +0.126 C 
ATOM     13  O   UNL     1      -5.303  -1.631   1.429  0.00  0.00    -0.273 OA
ATOM     14  N   UNL     1      -2.771   0.274  -0.203  0.00  0.00    -0.272 N 
ATOM     15  N   UNL     1      -5.556  -0.015  -0.180  0.00  0.00    -0.301 N 
ATOM     16  C   UNL     1      -3.629   1.341  -0.726  0.00  0.00    +0.115 C 
ATOM     17  C   UNL     1      -3.355  -1.020   0.164  0.00  0.00    +0.179 C 
ATOM     18  C   UNL     1      -4.946   0.769  -1.223  0.00  0.00    +0.111 C 
ATOM     19  C   UNL     1      -4.817  -0.914   0.554  0.00  0.00    +0.243 C 
ATOM     20  H   UNL     1      -6.516   0.093   0.009  0.00  0.00    +0.150 HD
ENDROOT
BRANCH  12  22
ATOM     21  O   UNL     1       5.833  -0.760  -0.617  0.00  0.00    -0.245 OA
ATOM     22  C   UNL     1       5.088  -0.031   0.014  0.00  0.00    +0.342 C 
BRANCH  22  23
ATOM     23  O   UNL     1       5.474   0.939   0.871  0.00  0.00    -0.477 OA
ATOM     24  H   UNL     1       4.830   1.454   1.315  0.00  0.00    +0.295 HD
ENDBRANCH  22  23
ENDBRANCH  12  22
BRANCH   3  25
ATOM     25  C   UNL     1       1.089  -2.773  -0.676  0.00  0.00    +0.098 C 
ATOM     26  C   UNL     1       0.817  -3.542   0.606  0.00  0.00    +0.024 C 
ENDBRANCH   3  25
TORSDOF 3
