REMARK  Name = 124099
REMARK  11 active torsions:
REMARK  status: ('A' for Active; 'I' for Inactive)
REMARK    1  A    between atoms: C_2  and  C_10
REMARK    2  A    between atoms: C_3  and  O_23
REMARK    3  A    between atoms: C_6  and  N_20
REMARK    4  A    between atoms: N_9  and  C_12
REMARK    5  A    between atoms: C_12  and  C_13
REMARK    6  A    between atoms: C_13  and  N_14
REMARK    7  A    between atoms: N_14  and  C_16
REMARK    8  A    between atoms: N_14  and  C_18
REMARK    9  A    between atoms: O_23  and  C_24
REMARK   10  A    between atoms: C_24  and  C_25
REMARK   11  A    between atoms: C_25  and  S_26
REMARK                            x       y       z     vdW  Elec       q    Type
REMARK                         _______ _______ _______ _____ _____    ______ ____
ROOT
ATOM      1 CL   UNL     1      -5.627  -2.540   0.205  0.00  0.00    -0.081 Cl
ATOM      2  C   UNL     1      -1.950  -1.018  -0.108  0.00  0.00    +0.088 C 
ATOM      3  C   UNL     1      -2.173   0.358  -0.056  0.00  0.00    +0.144 C 
ATOM      4  C   UNL     1      -3.025  -1.902  -0.025  0.00  0.00    +0.020 C 
ATOM      5  C   UNL     1      -3.472   0.850   0.078  0.00  0.00    +0.052 C 
ATOM      6  C   UNL     1      -4.547  -0.035   0.160  0.00  0.00    +0.055 C 
ATOM      7  C   UNL     1      -4.324  -1.411   0.109  0.00  0.00    +0.071 C 
ENDROOT
BRANCH   2  10
ATOM      8  O   UNL     1      -0.314  -2.665   0.220  0.00  0.00    -0.270 OA
ATOM      9  N   UNL     1       0.328  -0.765  -0.946  0.00  0.00    -0.303 N 
ATOM     10  C   UNL     1      -0.575  -1.561  -0.251  0.00  0.00    +0.249 C 
ATOM     11  H   UNL     1       0.024   0.107  -1.287  0.00  0.00    +0.150 HD
BRANCH   9  12
ATOM     12  C   UNL     1       1.688  -1.164  -1.188  0.00  0.00    +0.067 C 
BRANCH  12  13
ATOM     13  C   UNL     1       2.606  -0.704  -0.065  0.00  0.00    -0.056 C 
BRANCH  13  14
ATOM     14  N   UNL     1       3.977  -1.145  -0.317  0.00  0.00    +0.388 N 
ATOM     15  H   UNL     1       4.176  -1.030  -1.310  0.00  0.00    -0.080 HD
BRANCH  14  16
ATOM     16  C   UNL     1       4.131  -2.558   0.027  0.00  0.00    -0.077 C 
ATOM     17  C   UNL     1       5.535  -3.049  -0.286  0.00  0.00    -0.025 C 
ENDBRANCH  14  16
BRANCH  14  18
ATOM     18  C   UNL     1       4.924  -0.328   0.443  0.00  0.00    -0.077 C 
ATOM     19  C   UNL     1       4.701  -0.477   1.938  0.00  0.00    -0.025 C 
ENDBRANCH  14  18
ENDBRANCH  13  14
ENDBRANCH  12  13
ENDBRANCH   9  12
ENDBRANCH   2  10
BRANCH   6  20
ATOM     20  N   UNL     1      -5.851   0.493   0.295  0.00  0.00    -0.356 N 
ATOM     21  H   UNL     1      -5.987   1.468   0.330  0.00  0.00    +0.142 HD
ATOM     22  H   UNL     1      -6.624  -0.114   0.354  0.00  0.00    +0.142 HD
ENDBRANCH   6  20
BRANCH   3  23
ATOM     23  O   UNL     1      -1.136   1.239  -0.135  0.00  0.00    -0.473 OA
BRANCH  23  24
ATOM     24  C   UNL     1      -0.946   2.117   0.973  0.00  0.00    +0.231 C 
BRANCH  24  25
ATOM     25  C   UNL     1       0.518   2.486   1.112  0.00  0.00    +0.198 C 
BRANCH  25  26
ATOM     26  S   UNL     1       1.132   3.279  -0.342  0.00  0.00    -0.004 S 
ATOM     27  O   UNL     1       1.165   2.298  -1.413  0.00  0.00    -0.173 OA
ATOM     28  O   UNL     1       0.420   4.534  -0.510  0.00  0.00    -0.173 OA
ATOM     29  C   UNL     1       2.814   3.667   0.083  0.00  0.00    +0.176 C 
ENDBRANCH  25  26
ENDBRANCH  24  25
ENDBRANCH  23  24
ENDBRANCH   3  23
TORSDOF 11
