REMARK  Name = 124040734
REMARK  6 active torsions:
REMARK  status: ('A' for Active; 'I' for Inactive)
REMARK    1  A    between atoms: C_7  and  O_22
REMARK    2  A    between atoms: C_7  and  C_27
REMARK    3  A    between atoms: C_10  and  O_24
REMARK    4  A    between atoms: C_27  and  C_28
REMARK    5  A    between atoms: C_28  and  O_29
REMARK    6  A    between atoms: O_29  and  C_31
REMARK                            x       y       z     vdW  Elec       q    Type
REMARK                         _______ _______ _______ _____ _____    ______ ____
ROOT
ATOM      1  F   UNL     1      -1.701   0.955  -1.449  0.00  0.00    -0.237 F 
ATOM      2  O   UNL     1      -7.147   1.161  -0.094  0.00  0.00    -0.291 OA
ATOM      3  C   UNL     1       1.190  -0.667   0.688  0.00  0.00    +0.032 C 
ATOM      4  C   UNL     1       0.005  -1.651   0.420  0.00  0.00    +0.005 C 
ATOM      5  C   UNL     1      -1.050  -1.105  -0.575  0.00  0.00    +0.033 C 
ATOM      6  C   UNL     1      -1.602   0.317  -0.220  0.00  0.00    +0.161 C 
ATOM      7  C   UNL     1       2.371  -1.300  -0.096  0.00  0.00    +0.143 C 
ATOM      8  C   UNL     1       0.859   0.771   0.240  0.00  0.00    +0.035 C 
ATOM      9  C   UNL     1      -3.067   0.317   0.368  0.00  0.00    +0.046 C 
ATOM     10  C   UNL     1      -0.580   1.146   0.595  0.00  0.00    +0.141 C 
ATOM     11  C   UNL     1       0.658  -2.965  -0.074  0.00  0.00    +0.003 C 
ATOM     12  C   UNL     1       2.165  -2.798   0.090  0.00  0.00    +0.034 C 
ATOM     13  C   UNL     1      -2.164  -2.139  -0.840  0.00  0.00    +0.007 C 
ATOM     14  C   UNL     1       1.477  -0.662   2.216  0.00  0.00    +0.003 C 
ATOM     15  C   UNL     1      -3.998  -0.425  -0.599  0.00  0.00    -0.039 C 
ATOM     16  C   UNL     1      -3.402  -1.511  -1.459  0.00  0.00    +0.022 C 
ATOM     17  C   UNL     1      -3.603   1.769   0.517  0.00  0.00    +0.014 C 
ATOM     18  C   UNL     1      -3.127  -0.365   1.757  0.00  0.00    +0.007 C 
ATOM     19  C   UNL     1      -5.079   1.838   0.897  0.00  0.00    +0.070 C 
ATOM     20  C   UNL     1      -5.296  -0.118  -0.760  0.00  0.00    +0.029 C 
ATOM     21  C   UNL     1      -5.934   0.983  -0.002  0.00  0.00    +0.173 C 
ENDROOT
BRANCH   7  22
ATOM     22  O   UNL     1       2.303  -0.988  -1.484  0.00  0.00    -0.380 OA
ATOM     23  H   UNL     1       1.439  -1.259  -1.834  0.00  0.00    +0.211 HD
ENDBRANCH   7  22
BRANCH  10  24
ATOM     24  O   UNL     1      -0.756   2.536   0.321  0.00  0.00    -0.382 OA
ATOM     25  H   UNL     1      -1.664   2.796   0.539  0.00  0.00    +0.210 HD
ENDBRANCH  10  24
BRANCH   7  27
ATOM     26  O   UNL     1       4.340  -1.418   1.240  0.00  0.00    -0.290 OA
ATOM     27  C   UNL     1       3.731  -0.844   0.338  0.00  0.00    +0.218 C 
BRANCH  27  28
ATOM     28  C   UNL     1       4.302   0.353  -0.393  0.00  0.00    +0.274 C 
BRANCH  28  29
ATOM     29  O   UNL     1       5.586   0.671   0.100  0.00  0.00    -0.440 OA
BRANCH  29  31
ATOM     30  O   UNL     1       5.750   2.433  -1.387  0.00  0.00    -0.250 OA
ATOM     31  C   UNL     1       6.210   1.743  -0.487  0.00  0.00    +0.318 C 
ATOM     32  C   UNL     1       7.557   1.962   0.133  0.00  0.00    +0.121 C 
ENDBRANCH  29  31
ENDBRANCH  28  29
ENDBRANCH  27  28
ENDBRANCH   7  27
TORSDOF 6
