REMARK  Name = 124041
REMARK  7 active torsions:
REMARK  status: ('A' for Active; 'I' for Inactive)
REMARK    1  A    between atoms: C_4  and  O_31
REMARK    2  A    between atoms: C_5  and  O_23
REMARK    3  A    between atoms: C_7  and  O_25
REMARK    4  A    between atoms: C_8  and  O_27
REMARK    5  A    between atoms: C_20  and  O_29
REMARK    6  A    between atoms: O_31  and  C_33
REMARK    7  A    between atoms: C_37  and  O_39
REMARK                            x       y       z     vdW  Elec       q    Type
REMARK                         _______ _______ _______ _____ _____    ______ ____
ROOT
ATOM      1  O   UNL     1      -0.623   2.678  -2.359  0.00  0.00    -0.291 OA
ATOM      2  O   UNL     1       1.375   0.527  -2.408  0.00  0.00    -0.287 OA
ATOM      3  O   UNL     1       1.793  -1.999   2.251  0.00  0.00    -0.286 OA
ATOM      4  C   UNL     1      -0.778   1.078  -0.552  0.00  0.00    +0.196 C 
ATOM      5  C   UNL     1      -1.706   1.409   0.670  0.00  0.00    +0.142 C 
ATOM      6  C   UNL     1      -1.510   2.845   1.234  0.00  0.00    +0.064 C 
ATOM      7  C   UNL     1      -0.069   3.379   1.153  0.00  0.00    +0.122 C 
ATOM      8  C   UNL     1       0.424   3.386  -0.308  0.00  0.00    +0.195 C 
ATOM      9  C   UNL     1      -0.358   2.411  -1.184  0.00  0.00    +0.210 C 
ATOM     10  C   UNL     1       0.442   0.209  -0.237  0.00  0.00    +0.053 C 
ATOM     11  C   UNL     1      -1.567   0.407   1.790  0.00  0.00    +0.003 C 
ATOM     12  C   UNL     1       0.539  -0.477   0.918  0.00  0.00    +0.041 C 
ATOM     13  C   UNL     1       0.005   4.762   1.815  0.00  0.00    +0.032 C 
ATOM     14  C   UNL     1      -0.542  -0.447   1.885  0.00  0.00    +0.001 C 
ATOM     15  C   UNL     1       1.513   0.081  -1.274  0.00  0.00    +0.195 C 
ATOM     16  C   UNL     1       1.733  -1.315   1.235  0.00  0.00    +0.198 C 
ATOM     17  C   UNL     1       2.758  -0.616  -0.915  0.00  0.00    +0.045 C 
ATOM     18  C   UNL     1       2.864  -1.293   0.295  0.00  0.00    +0.076 C 
ATOM     19  C   UNL     1       3.838  -0.609  -1.808  0.00  0.00    +0.003 C 
ATOM     20  C   UNL     1       4.050  -1.965   0.619  0.00  0.00    +0.137 C 
ATOM     21  C   UNL     1       5.019  -1.276  -1.482  0.00  0.00    +0.003 C 
ATOM     22  C   UNL     1       5.125  -1.954  -0.270  0.00  0.00    +0.037 C 
ENDROOT
BRANCH   5  23
ATOM     23  O   UNL     1      -3.083   1.356   0.253  0.00  0.00    -0.380 OA
ATOM     24  H   UNL     1      -3.226   1.986  -0.470  0.00  0.00    +0.211 HD
ENDBRANCH   5  23
BRANCH   7  25
ATOM     25  O   UNL     1       0.773   2.517   1.923  0.00  0.00    -0.384 OA
ATOM     26  H   UNL     1       0.759   1.625   1.540  0.00  0.00    +0.210 HD
ENDBRANCH   7  25
BRANCH   8  27
ATOM     27  O   UNL     1       0.249   4.669  -0.897  0.00  0.00    -0.375 OA
ATOM     28  H   UNL     1       0.729   5.332  -0.377  0.00  0.00    +0.211 HD
ENDBRANCH   8  27
BRANCH  20  29
ATOM     29  O   UNL     1       4.220  -2.641   1.792  0.00  0.00    -0.505 OA
ATOM     30  H   UNL     1       3.524  -2.674   2.418  0.00  0.00    +0.292 HD
ENDBRANCH  20  29
BRANCH   4  31
ATOM     31  O   UNL     1      -1.549   0.363  -1.524  0.00  0.00    -0.321 OA
BRANCH  31  33
ATOM     32  O   UNL     1      -2.753  -0.728   0.159  0.00  0.00    -0.331 OA
ATOM     33  C   UNL     1      -1.966  -0.903  -1.020  0.00  0.00    +0.236 C 
ATOM     34  C   UNL     1      -2.776  -1.593  -2.114  0.00  0.00    +0.064 C 
ATOM     35  C   UNL     1      -3.355  -2.910  -1.620  0.00  0.00    +0.037 C 
ATOM     36  C   UNL     1      -3.268  -1.941   0.720  0.00  0.00    +0.144 C 
ATOM     37  C   UNL     1      -4.114  -2.696  -0.313  0.00  0.00    +0.138 C 
ATOM     38  C   UNL     1      -2.156  -2.773   1.361  0.00  0.00    +0.035 C 
BRANCH  37  39
ATOM     39  O   UNL     1      -4.548  -3.942   0.214  0.00  0.00    -0.382 OA
ATOM     40  H   UNL     1      -5.081  -4.406  -0.450  0.00  0.00    +0.210 HD
ENDBRANCH  37  39
ENDBRANCH  31  33
ENDBRANCH   4  31
TORSDOF 7
