REMARK  Name = 124037380
REMARK  4 active torsions:
REMARK  status: ('A' for Active; 'I' for Inactive)
REMARK    1  A    between atoms: N_1  and  C_19
REMARK    2  A    between atoms: N_4  and  C_11
REMARK    3  A    between atoms: C_7  and  C_30
REMARK    4  A    between atoms: C_20  and  N_24
REMARK                            x       y       z     vdW  Elec       q    Type
REMARK                         _______ _______ _______ _____ _____    ______ ____
ROOT
ATOM      1  N   UNL     1       2.033  -2.034   0.167  0.00  0.00    -0.272 N 
ATOM      2  N   UNL     1      -0.028  -0.976   0.333  0.00  0.00    -0.322 NA
ATOM      3  N   UNL     1       0.135  -3.321  -0.200  0.00  0.00    -0.170 NA
ATOM      4  N   UNL     1      -2.149   0.070   0.493  0.00  0.00    -0.287 N 
ATOM      5  C   UNL     1       0.653  -2.114   0.097  0.00  0.00    +0.146 C 
ATOM      6  C   UNL     1      -1.370  -1.090   0.256  0.00  0.00    +0.202 C 
ATOM      7  C   UNL     1      -2.024  -2.268  -0.040  0.00  0.00    +0.118 C 
ATOM      8  C   UNL     1      -1.212  -3.362  -0.261  0.00  0.00    +0.120 C 
ATOM      9  H   UNL     1       2.555  -2.851  -0.002  0.00  0.00    +0.159 HD
ATOM     10  H   UNL     1      -3.034  -0.119   0.880  0.00  0.00    +0.155 HD
ENDROOT
BRANCH   4  11
ATOM     11  C   UNL     1      -1.901   1.436   0.284  0.00  0.00    +0.050 C 
ATOM     12  C   UNL     1      -2.493   2.387   1.116  0.00  0.00    +0.014 C 
ATOM     13  C   UNL     1      -1.065   1.842  -0.755  0.00  0.00    +0.014 C 
ATOM     14  C   UNL     1      -1.411   4.151  -0.132  0.00  0.00    -0.022 C 
ATOM     15  C   UNL     1      -2.248   3.744   0.907  0.00  0.00    -0.003 C 
ATOM     16  C   UNL     1      -0.819   3.200  -0.963  0.00  0.00    -0.003 C 
ATOM     17  C   UNL     1      -1.149   5.602  -0.355  0.00  0.00    +0.031 C 
ENDBRANCH   4  11
BRANCH   1  19
ATOM     18  O   UNL     1       5.001   0.920   0.035  0.00  0.00    -0.356 OA
ATOM     19  C   UNL     1       2.750  -0.813   0.474  0.00  0.00    +0.064 C 
ATOM     20  C   UNL     1       2.825   0.114  -0.751  0.00  0.00    -0.016 C 
ATOM     21  C   UNL     1       4.146  -1.138   1.010  0.00  0.00    +0.050 C 
ATOM     22  C   UNL     1       3.709   1.323  -0.428  0.00  0.00    +0.122 C 
ATOM     23  C   UNL     1       4.936   0.145   1.232  0.00  0.00    +0.144 C 
BRANCH  20  24
ATOM     24  N   UNL     1       3.378  -0.576  -1.923  0.00  0.00    +0.385 N 
ATOM     25  H   UNL     1       2.797  -1.384  -2.147  0.00  0.00    -0.089 HD
ATOM     26  H   UNL     1       4.327  -0.887  -1.717  0.00  0.00    -0.089 HD
ATOM     27  H   UNL     1       3.394   0.063  -2.718  0.00  0.00    -0.089 HD
ENDBRANCH  20  24
ENDBRANCH   1  19
BRANCH   7  30
ATOM     28  O   UNL     1      -4.154  -2.670   0.881  0.00  0.00    -0.270 OA
ATOM     29  N   UNL     1      -4.072  -2.176  -1.357  0.00  0.00    -0.325 N 
ATOM     30  C   UNL     1      -3.470  -2.394  -0.120  0.00  0.00    +0.248 C 
ATOM     31  H   UNL     1      -5.049  -2.253  -1.449  0.00  0.00    +0.145 HD
ATOM     32  H   UNL     1      -3.520  -1.946  -2.139  0.00  0.00    +0.145 HD
ENDBRANCH   7  30
TORSDOF 4
