REMARK  Name = 124156
REMARK  5 active torsions:
REMARK  status: ('A' for Active; 'I' for Inactive)
REMARK    1  A    between atoms: C2*_2  and  O2*_15
REMARK    2  A    between atoms: C1*_3  and  N_6
REMARK    3  A    between atoms: C3*_4  and  O3*_17
REMARK    4  A    between atoms: C4*_5  and  C5*_19
REMARK    5  A    between atoms: C5*_19  and  O5*_20
REMARK                            x       y       z     vdW  Elec       q    Type
REMARK                         _______ _______ _______ _____ _____    ______ ____
ROOT
ATOM      1  O4* UNL     1       2.624   0.540   0.913  0.00  0.00    -0.333 OA
ATOM      2  C2* UNL     1       2.293  -0.925  -0.917  0.00  0.00    +0.187 C 
ATOM      3  C1* UNL     1       1.691  -0.422   0.386  0.00  0.00    +0.225 C 
ATOM      4  C3* UNL     1       3.774  -0.899  -0.595  0.00  0.00    +0.171 C 
ATOM      5  C4* UNL     1       3.899   0.363   0.254  0.00  0.00    +0.175 C 
ENDROOT
BRANCH   3   6
ATOM      6  N   UNL     1       0.377   0.199   0.233  0.00  0.00    -0.247 N 
ATOM      7  N   UNL     1      -1.154   1.776  -0.151  0.00  0.00    -0.247 NA
ATOM      8  N   UNL     1      -1.080  -1.691   0.687  0.00  0.00    -0.208 NA
ATOM      9  N   UNL     1      -3.432  -1.058   0.529  0.00  0.00    -0.243 NA
ATOM     10  C   UNL     1      -0.839  -0.408   0.377  0.00  0.00    +0.152 C 
ATOM     11  C   UNL     1       0.134   1.511  -0.083  0.00  0.00    +0.223 C 
ATOM     12  C   UNL     1      -1.774   0.586   0.135  0.00  0.00    +0.112 C 
ATOM     13  C   UNL     1      -3.115   0.223   0.220  0.00  0.00    +0.175 C 
ATOM     14  C   UNL     1      -2.410  -1.922   0.740  0.00  0.00    +0.196 C 
ENDBRANCH   3   6
BRANCH   2  15
ATOM     15  O2* UNL     1       1.823  -2.215  -1.251  0.00  0.00    -0.378 OA
ATOM     16  H2* UNL     1       0.874  -2.173  -1.447  0.00  0.00    +0.211 HD
ENDBRANCH   2  15
BRANCH   4  17
ATOM     17  O3* UNL     1       4.106  -2.030   0.210  0.00  0.00    -0.379 OA
ATOM     18  H3* UNL     1       4.030  -2.838  -0.321  0.00  0.00    +0.211 HD
ENDBRANCH   4  17
BRANCH   5  19
ATOM     19  C5* UNL     1       4.190   1.608  -0.572  0.00  0.00    +0.169 C 
BRANCH  19  20
ATOM     20  O5* UNL     1       4.277   2.721   0.300  0.00  0.00    -0.379 OA
ATOM     21  H5* UNL     1       4.462   3.522  -0.215  0.00  0.00    +0.211 HD
ENDBRANCH  19  20
ENDBRANCH   5  19
TORSDOF 5
REMARK  Name = 124156
REMARK  5 active torsions:
REMARK  status: ('A' for Active; 'I' for Inactive)
REMARK    1  A    between atoms: C2*_2  and  O2*_15
REMARK    2  A    between atoms: C1*_3  and  N_6
REMARK    3  A    between atoms: C3*_4  and  O3*_17
REMARK    4  A    between atoms: C4*_5  and  C5*_19
REMARK    5  A    between atoms: C5*_19  and  O5*_20
REMARK                            x       y       z     vdW  Elec       q    Type
REMARK                         _______ _______ _______ _____ _____    ______ ____
ROOT
ATOM      1  N   UNL     1      -5.159   0.667  -0.486  0.00  0.00    +0.000 NA
ATOM      2  N   UNL     1      -6.114   0.215  -0.918  0.00  0.00    +0.000 NA
ENDROOT
TORSDOF 0
