REMARK  Name = 124147
REMARK  6 active torsions:
REMARK  status: ('A' for Active; 'I' for Inactive)
REMARK    1  A    between atoms: N_4  and  C1*_13
REMARK    2  A    between atoms: C_6  and  O_22
REMARK    3  A    between atoms: C3*_15  and  O3*_17
REMARK    4  A    between atoms: C4*_16  and  C5*_19
REMARK    5  A    between atoms: C5*_19  and  O5*_20
REMARK    6  A    between atoms: O_22  and  C_23
REMARK                            x       y       z     vdW  Elec       q    Type
REMARK                         _______ _______ _______ _____ _____    ______ ____
ROOT
ATOM      1 BR   UNL     1      -4.309   0.110  -1.296  0.00  0.00    -0.069 Br
ATOM      2  O   UNL     1       0.593  -0.744   1.974  0.00  0.00    -0.252 OA
ATOM      3  O   UNL     1      -3.972  -0.925   1.526  0.00  0.00    -0.274 OA
ATOM      4  N   UNL     1      -0.295  -0.133  -0.092  0.00  0.00    -0.217 N 
ATOM      5  N   UNL     1      -1.689  -0.703   1.724  0.00  0.00    -0.239 N 
ATOM      6  C   UNL     1      -1.488   0.285  -0.825  0.00  0.00    +0.215 C 
ATOM      7  C   UNL     1      -2.670  -0.636  -0.509  0.00  0.00    +0.160 C 
ATOM      8  C   UNL     1      -0.381  -0.535   1.246  0.00  0.00    +0.313 C 
ATOM      9  C   UNL     1      -2.880  -0.741   0.993  0.00  0.00    +0.242 C 
ATOM     10  C   UNL     1      -2.480  -2.040  -1.089  0.00  0.00    +0.025 C 
ATOM     11  H   UNL     1      -1.781  -0.808   2.698  0.00  0.00    +0.159 HD
ENDROOT
BRANCH   4  13
ATOM     12  O4* UNL     1       1.916   0.564   0.250  0.00  0.00    -0.335 OA
ATOM     13  C1* UNL     1       0.977   0.072  -0.721  0.00  0.00    +0.200 C 
ATOM     14  C2* UNL     1       1.564  -1.200  -1.303  0.00  0.00    +0.083 C 
ATOM     15  C3* UNL     1       3.047  -0.945  -1.172  0.00  0.00    +0.144 C 
ATOM     16  C4* UNL     1       3.109  -0.234   0.171  0.00  0.00    +0.173 C 
BRANCH  15  17
ATOM     17  O3* UNL     1       3.781  -2.151  -1.178  0.00  0.00    -0.382 OA
ATOM     18  H3* UNL     1       3.712  -2.567  -2.052  0.00  0.00    +0.210 HD
ENDBRANCH  15  17
BRANCH  16  19
ATOM     19  C5* UNL     1       4.329   0.656   0.327  0.00  0.00    +0.169 C 
BRANCH  19  20
ATOM     20  O5* UNL     1       4.280   1.273   1.601  0.00  0.00    -0.379 OA
ATOM     21  H5* UNL     1       5.055   1.845   1.714  0.00  0.00    +0.211 HD
ENDBRANCH  19  20
ENDBRANCH  16  19
ENDBRANCH   4  13
BRANCH   6  22
ATOM     22  O   UNL     1      -1.762   1.640  -0.471  0.00  0.00    -0.336 OA
BRANCH  22  23
ATOM     23  C   UNL     1      -0.661   2.483  -0.768  0.00  0.00    +0.144 C 
ATOM     24  C   UNL     1      -1.012   3.906  -0.387  0.00  0.00    +0.035 C 
ENDBRANCH  22  23
ENDBRANCH   6  22
TORSDOF 6
