REMARK  Name = 124126
REMARK  11 active torsions:
REMARK  status: ('A' for Active; 'I' for Inactive)
REMARK    1  A    between atoms: C_2  and  O_18
REMARK    2  A    between atoms: C_3  and  O_20
REMARK    3  A    between atoms: C_4  and  N_6
REMARK    4  A    between atoms: C_5  and  C_22
REMARK    5  A    between atoms: C_22  and  S_23
REMARK    6  A    between atoms: S_23  and  C_24
REMARK    7  A    between atoms: C_24  and  C_25
REMARK    8  A    between atoms: C_25  and  C_26
REMARK    9  A    between atoms: C_26  and  N_27
REMARK   10  A    between atoms: C_26  and  C_32
REMARK   11  A    between atoms: C_32  and  O_33
REMARK                            x       y       z     vdW  Elec       q    Type
REMARK                         _______ _______ _______ _____ _____    ______ ____
ROOT
ATOM      1  O   UNK     1      -0.150  -0.970   0.906  0.00  0.00    -0.337 OA
ATOM      2  C   UNK     1      -1.265  -2.156  -0.814  0.00  0.00    +0.183 C 
ATOM      3  C   UNK     1      -0.038  -2.949  -0.411  0.00  0.00    +0.169 C 
ATOM      4  C   UNK     1      -1.467  -1.271   0.407  0.00  0.00    +0.208 C 
ATOM      5  C   UNK     1       0.791  -1.909   0.337  0.00  0.00    +0.157 C 
ENDROOT
BRANCH   4   6
ATOM      6  N   UNK     1      -2.186  -0.029   0.130  0.00  0.00    -0.220 NA
ATOM      7  N   UNK     1      -2.517   2.089  -0.469  0.00  0.00    -0.252 NA
ATOM      8  N   UNK     1      -6.052   1.271   0.279  0.00  0.00    -0.229 NA
ATOM      9  N   UNK     1      -5.227   3.381  -0.480  0.00  0.00    -0.342 N 
ATOM     10  C   UNK     1      -3.536   0.184   0.255  0.00  0.00    +0.128 C 
ATOM     11  C   UNK     1      -1.622   1.140  -0.306  0.00  0.00    +0.203 C 
ATOM     12  C   UNK     1      -3.716   1.510  -0.124  0.00  0.00    +0.105 C 
ATOM     13  C   UNK     1      -4.580  -0.639   0.653  0.00  0.00    +0.016 C 
ATOM     14  C   UNK     1      -5.005   2.044  -0.104  0.00  0.00    +0.140 C 
ATOM     15  C   UNK     1      -5.820  -0.016   0.638  0.00  0.00    +0.097 C 
ATOM     16  H   UNK     1      -6.139   3.752  -0.465  0.00  0.00    +0.144 HD
ATOM     17  H   UNK     1      -4.470   3.946  -0.759  0.00  0.00    +0.144 HD
ENDBRANCH   4   6
BRANCH   2  18
ATOM     18  O   UNK     1      -2.392  -2.970  -1.067  0.00  0.00    -0.378 OA
ATOM     19  H   UNK     1      -2.226  -3.518  -1.849  0.00  0.00    +0.211 HD
ENDBRANCH   2  18
BRANCH   3  20
ATOM     20  O   UNK     1      -0.415  -3.980   0.502  0.00  0.00    -0.379 OA
ATOM     21  H   UNK     1      -0.943  -4.647   0.035  0.00  0.00    +0.211 HD
ENDBRANCH   3  20
BRANCH   5  22
ATOM     22  C   UNK     1       1.744  -1.145  -0.571  0.00  0.00    +0.090 C 
BRANCH  22  23
ATOM     23  S   UNK     1       2.697   0.061   0.387  0.00  0.00    -0.138 S 
BRANCH  23  24
ATOM     24  C   UNK     1       3.682   0.754  -0.962  0.00  0.00    +0.056 C 
BRANCH  24  25
ATOM     25  C   UNK     1       4.648   1.850  -0.501  0.00  0.00    +0.001 C 
BRANCH  25  26
ATOM     26  C   UNK     1       5.672   1.426   0.562  0.00  0.00    +0.037 C 
BRANCH  26  27
ATOM     27  N   UNK     1       6.574   2.548   0.837  0.00  0.00    +0.389 N 
ATOM     28  H   UNK     1       6.033   3.343   1.178  0.00  0.00    -0.088 HD
ATOM     29  H   UNK     1       7.061   2.811  -0.019  0.00  0.00    -0.088 HD
ATOM     30  H   UNK     1       7.255   2.272   1.545  0.00  0.00    -0.088 HD
ENDBRANCH  26  27
BRANCH  26  32
ATOM     31  O   UNK     1       7.554   0.419  -0.614  0.00  0.00    -0.253 OA
ATOM     32  C   UNK     1       6.541   0.286   0.061  0.00  0.00    +0.293 C 
BRANCH  32  33
ATOM     33  O   UNK     1       6.087  -0.927   0.469  0.00  0.00    -0.482 OA
ATOM     34  H   UNK     1       5.307  -0.986   0.985  0.00  0.00    +0.295 HD
ENDBRANCH  32  33
ENDBRANCH  26  32
ENDBRANCH  25  26
ENDBRANCH  24  25
ENDBRANCH  23  24
ENDBRANCH  22  23
ENDBRANCH   5  22
TORSDOF 11
