124136
  -OEChem-03292013323D

 40 43  0     1  0  0  0  0  0999 V2000
   -1.6469   -1.2170   -1.3024 O   0  0  0  0  0  0  0  0  0  0  0  0
   -1.4065   -3.2144   -0.0931 O   0  0  0  0  0  0  0  0  0  0  0  0
    2.3577   -1.4238    0.1988 O   0  0  0  0  0  0  0  0  0  0  0  0
    1.9518    0.3366    1.8814 O   0  0  0  0  0  0  0  0  0  0  0  0
    1.1402    4.8448   -1.0882 O   0  0  0  0  0  0  0  0  0  0  0  0
    3.5291   -2.6598   -1.3503 O   0  0  0  0  0  0  0  0  0  0  0  0
   -3.9064   -1.6729    0.5703 N   0  0  0  0  0  0  0  0  0  0  0  0
   -1.8416    0.1672   -1.1184 N   0  0  1  0  0  0  0  0  0  0  0  0
    4.6221   -1.3374    0.1805 N   0  0  0  0  0  0  0  0  0  0  0  0
   -2.5222   -1.4161    0.9661 C   0  0  2  0  0  0  0  0  0  0  0  0
   -3.4615   -0.2839    0.6070 C   0  0  1  0  0  0  0  0  0  0  0  0
   -1.4011   -1.7867    0.0035 C   0  0  2  0  0  0  0  0  0  0  0  0
   -3.2160    0.4392   -0.6863 C   0  0  0  0  0  0  0  0  0  0  0  0
   -0.0082   -1.2805    0.4986 C   0  0  2  0  0  0  0  0  0  0  0  0
    0.0843    0.2342    0.3633 C   0  0  0  0  0  0  0  0  0  0  0  0
   -0.8394    0.9139   -0.4574 C   0  0  0  0  0  0  0  0  0  0  0  0
    1.1383   -1.9091   -0.3188 C   0  0  0  0  0  0  0  0  0  0  0  0
    1.0607    0.9603    1.0591 C   0  0  0  0  0  0  0  0  0  0  0  0
   -0.7660    2.3091   -0.5663 C   0  0  0  0  0  0  0  0  0  0  0  0
    0.2150    3.0204    0.1252 C   0  0  0  0  0  0  0  0  0  0  0  0
    1.1257    2.3475    0.9368 C   0  0  0  0  0  0  0  0  0  0  0  0
    0.2865    4.5047   -0.0025 C   0  0  0  0  0  0  0  0  0  0  0  0
    3.5044   -1.8763   -0.4070 C   0  0  0  0  0  0  0  0  0  0  0  0
   -2.2973   -1.6132    2.0057 H   0  0  0  0  0  0  0  0  0  0  0  0
   -3.8773    0.3332    1.3906 H   0  0  0  0  0  0  0  0  0  0  0  0
   -4.4704   -1.8792    1.3941 H   0  0  0  0  0  0  0  0  0  0  0  0
   -3.9126    0.0860   -1.4566 H   0  0  0  0  0  0  0  0  0  0  0  0
   -3.4052    1.5120   -0.5667 H   0  0  0  0  0  0  0  0  0  0  0  0
    0.0982   -1.5663    1.5530 H   0  0  0  0  0  0  0  0  0  0  0  0
    1.0562   -1.6378   -1.3788 H   0  0  0  0  0  0  0  0  0  0  0  0
    1.1268   -3.0006   -0.2320 H   0  0  0  0  0  0  0  0  0  0  0  0
   -0.7648   -3.5727    0.5422 H   0  0  0  0  0  0  0  0  0  0  0  0
   -1.4724    2.8402   -1.2007 H   0  0  0  0  0  0  0  0  0  0  0  0
    1.8882    2.9003    1.4805 H   0  0  0  0  0  0  0  0  0  0  0  0
    1.7965   -0.6184    1.9186 H   0  0  0  0  0  0  0  0  0  0  0  0
   -0.7018    4.9387   -0.1873 H   0  0  0  0  0  0  0  0  0  0  0  0
    0.6768    4.9677    0.9103 H   0  0  0  0  0  0  0  0  0  0  0  0
    1.9694    4.3461   -0.9921 H   0  0  0  0  0  0  0  0  0  0  0  0
    4.5494   -0.6916    0.9595 H   0  0  0  0  0  0  0  0  0  0  0  0
    5.5544   -1.5674   -0.1465 H   0  0  0  0  0  0  0  0  0  0  0  0
  1  8  1  0  0  0  0
  1 12  1  0  0  0  0
  2 12  1  0  0  0  0
  2 32  1  0  0  0  0
  3 17  1  0  0  0  0
  3 23  1  0  0  0  0
  4 18  1  0  0  0  0
  4 35  1  0  0  0  0
  5 22  1  0  0  0  0
  5 38  1  0  0  0  0
  6 23  2  0  0  0  0
  7 10  1  0  0  0  0
  7 11  1  0  0  0  0
  7 26  1  0  0  0  0
  8 13  1  0  0  0  0
  8 16  1  0  0  0  0
  9 23  1  0  0  0  0
  9 39  1  0  0  0  0
  9 40  1  0  0  0  0
 10 11  1  0  0  0  0
 10 12  1  0  0  0  0
 10 24  1  0  0  0  0
 11 13  1  0  0  0  0
 11 25  1  0  0  0  0
 12 14  1  0  0  0  0
 13 27  1  0  0  0  0
 13 28  1  0  0  0  0
 14 15  1  0  0  0  0
 14 17  1  0  0  0  0
 14 29  1  0  0  0  0
 15 16  2  0  0  0  0
 15 18  1  0  0  0  0
 16 19  1  0  0  0  0
 17 30  1  0  0  0  0
 17 31  1  0  0  0  0
 18 21  2  0  0  0  0
 19 20  2  0  0  0  0
 19 33  1  0  0  0  0
 20 21  1  0  0  0  0
 20 22  1  0  0  0  0
 21 34  1  0  0  0  0
 22 36  1  0  0  0  0
 22 37  1  0  0  0  0
M  END
> <PUBCHEM_COMPOUND_CID>
124136

> <PUBCHEM_CONFORMER_RMSD>
0.8

> <PUBCHEM_CONFORMER_DIVERSEORDER>
1
18
7
24
23
12
25
8
14
19
22
15
5
16
20
26
4
2
6
21
10
13
3
17
11
9

> <PUBCHEM_MMFF94_PARTIAL_CHARGES>
33
1 -0.26
10 -0.04
11 -0.04
12 0.65
13 0.46
14 0.14
15 -0.14
16 0.1
17 0.28
18 0.08
19 -0.15
2 -0.68
20 -0.14
21 -0.15
22 0.42
23 0.78
24 0.1
25 0.1
26 0.36
3 -0.43
32 0.4
33 0.15
34 0.15
35 0.45
38 0.4
39 0.37
4 -0.53
40 0.37
5 -0.68
6 -0.57
7 -0.68
8 -0.49
9 -0.8

> <PUBCHEM_EFFECTIVE_ROTOR_COUNT>
4.8

> <PUBCHEM_PHARMACOPHORE_FEATURES>
12
1 2 acceptor
1 2 donor
1 4 donor
1 5 acceptor
1 5 donor
1 6 acceptor
1 7 cation
1 7 donor
1 9 donor
6 1 8 12 14 15 16 rings
6 15 16 18 19 20 21 rings
7 1 7 8 10 11 12 13 rings

> <PUBCHEM_HEAVY_ATOM_COUNT>
23

> <PUBCHEM_ATOM_DEF_STEREO_COUNT>
0

> <PUBCHEM_ATOM_UDEF_STEREO_COUNT>
4

> <PUBCHEM_BOND_DEF_STEREO_COUNT>
0

> <PUBCHEM_BOND_UDEF_STEREO_COUNT>
0

> <PUBCHEM_ISOTOPIC_ATOM_COUNT>
0

> <PUBCHEM_COMPONENT_COUNT>
1

> <PUBCHEM_CACTVS_TAUTO_COUNT>
6

> <PUBCHEM_CONFORMER_ID>
0001E4E800000001

> <PUBCHEM_MMFF94_ENERGY>
83.8301

> <PUBCHEM_FEATURE_SELFOVERLAP>
61.539

> <PUBCHEM_SHAPE_FINGERPRINT>
104564 63 18052538759768658611
11578080 2 16446119492476589526
11833330 49 18263365798321975704
12035758 1 18411135823077998427
12054548 360 18410576193144650870
12173636 292 17760648071027590988
12788726 201 17976256841998721771
13027679 85 18339081493209667149
13140716 1 18267009566744754993
14022347 108 18190726558032084137
14790565 3 17908148676517241345
15309172 13 17327172659860745145
16945 1 18194956572859133879
17357779 13 18200018539256250758
1813 80 18129680628696505191
18785283 64 18121228824489468659
20510252 161 18125441908561323066
20600515 1 18199489712828825190
20645476 183 17114379239540536156
21285901 2 17843398488359540830
21330990 113 17980783544497842179
21524375 3 16964904490403916712
2334 1 18338780239850796049
23366157 5 18046059629967682554
23419403 2 17128987535610444776
23558518 356 16895659975891320719
23559900 14 18197774612624424091
23566358 27 18052260892791830263
2748010 2 18195501775659801393
43471831 8 17473828806186054095
458136 41 17762072320800850297
7364860 26 18122628511502887625
81228 2 18196649592927109256
90525 40 17329421156448726441

> <PUBCHEM_SHAPE_MULTIPOLES>
423.17
5.35
5.03
1.17
1.6
6.53
0.09
-5.25
-0.11
2.65
-1.19
0.17
0.07
0.87

> <PUBCHEM_SHAPE_SELFOVERLAP>
926.375

> <PUBCHEM_SHAPE_VOLUME>
226.2

> <PUBCHEM_COORDINATE_TYPE>
2
5
10

$$$$
