REMARK  Name = 124164
REMARK  14 active torsions:
REMARK  status: ('A' for Active; 'I' for Inactive)
REMARK    1  A    between atoms: C_1  and  O_2
REMARK    2  A    between atoms: C_1  and  C_10
REMARK    3  A    between atoms: C_1  and  C_19
REMARK    4  A    between atoms: O_2  and  C_3
REMARK    5  A    between atoms: C_3  and  C_4
REMARK    6  A    between atoms: C_4  and  C_5
REMARK    7  A    between atoms: C_5  and  N_6
REMARK    8  A    between atoms: C_10  and  O_11
REMARK    9  A    between atoms: C_10  and  C_13
REMARK   10  A    between atoms: C_13  and  O_14
REMARK   11  A    between atoms: C_13  and  C_16
REMARK   12  A    between atoms: C_16  and  O_17
REMARK   13  A    between atoms: C_19  and  O_20
REMARK   14  A    between atoms: C_19  and  C_23
REMARK                            x       y       z     vdW  Elec       q    Type
REMARK                         _______ _______ _______ _____ _____    ______ ____
ROOT
ATOM      1  C   UNL     1      -1.071   0.425  -0.583  0.00  0.00    +0.179 C 
ENDROOT
BRANCH   1   2
ATOM      2  O   UNL     1      -0.021   0.887   0.275  0.00  0.00    -0.351 OA
BRANCH   2   3
ATOM      3  C   UNL     1       0.783   1.856  -0.377  0.00  0.00    +0.140 C 
BRANCH   3   4
ATOM      4  C   UNL     1       1.879   2.310   0.578  0.00  0.00    +0.009 C 
BRANCH   4   5
ATOM      5  C   UNL     1       2.756   1.143   1.019  0.00  0.00    -0.075 C 
BRANCH   5   6
ATOM      6  N   UNL     1       3.410   0.537  -0.135  0.00  0.00    +0.384 N 
ATOM      7  C   UNL     1       3.885  -0.809   0.189  0.00  0.00    -0.101 C 
ATOM      8  C   UNL     1       4.523   1.371  -0.593  0.00  0.00    -0.101 C 
ATOM      9  H   UNL     1       2.726   0.467  -0.888  0.00  0.00    -0.080 HD
ENDBRANCH   5   6
ENDBRANCH   4   5
ENDBRANCH   3   4
ENDBRANCH   2   3
ENDBRANCH   1   2
BRANCH   1  10
ATOM     10  C   UNL     1      -1.476  -0.976  -0.095  0.00  0.00    +0.170 C 
BRANCH  10  11
ATOM     11  O   UNL     1      -2.121  -0.881   1.180  0.00  0.00    -0.379 OA
ATOM     12  H   UNL     1      -2.856  -0.250   1.125  0.00  0.00    +0.211 HD
ENDBRANCH  10  11
BRANCH  10  13
ATOM     13  C   UNL     1      -0.327  -1.984   0.050  0.00  0.00    +0.169 C 
BRANCH  13  14
ATOM     14  O   UNL     1       0.502  -1.877  -1.117  0.00  0.00    -0.379 OA
ATOM     15  H   UNL     1       0.813  -0.962  -1.210  0.00  0.00    +0.211 HD
ENDBRANCH  13  14
BRANCH  13  16
ATOM     16  C   UNL     1      -0.781  -3.436   0.142  0.00  0.00    +0.169 C 
BRANCH  16  17
ATOM     17  O   UNL     1       0.368  -4.273   0.239  0.00  0.00    -0.379 OA
ATOM     18  H   UNL     1       0.089  -5.200   0.298  0.00  0.00    +0.211 HD
ENDBRANCH  16  17
ENDBRANCH  13  16
ENDBRANCH  10  13
ENDBRANCH   1  10
BRANCH   1  19
ATOM     19  C   UNL     1      -2.179   1.484  -0.659  0.00  0.00    +0.205 C 
BRANCH  19  20
ATOM     20  O   UNL     1      -3.143   1.042  -1.609  0.00  0.00    -0.375 OA
ATOM     21  H   UNL     1      -2.709   0.887  -2.462  0.00  0.00    +0.211 HD
ENDBRANCH  19  20
BRANCH  19  23
ATOM     22  O   UNL     1      -4.087   1.469   0.843  0.00  0.00    -0.286 OA
ATOM     23  C   UNL     1      -2.899   1.713   0.654  0.00  0.00    +0.239 C 
ENDBRANCH  19  23
ENDBRANCH   1  19
TORSDOF 14
