REMARK  Name = 124173903
REMARK  9 active torsions:
REMARK  status: ('A' for Active; 'I' for Inactive)
REMARK    1  A    between atoms: N_1  and  C_4
REMARK    2  A    between atoms: N_1  and  C1*_12
REMARK    3  A    between atoms: N_2  and  C_20
REMARK    4  A    between atoms: C3*_9  and  O3*_13
REMARK    5  A    between atoms: C2*_10  and  O2*_15
REMARK    6  A    between atoms: C4*_11  and  C5*_17
REMARK    7  A    between atoms: C5*_17  and  O5*_18
REMARK    8  A    between atoms: C_20  and  C_22
REMARK    9  A    between atoms: C_22  and  O_23
REMARK                            x       y       z     vdW  Elec       q    Type
REMARK                         _______ _______ _______ _____ _____    ______ ____
ROOT
ATOM      1  N   UNL     1      -0.399  -0.093   0.233  0.00  0.00    -0.209 NA
ENDROOT
BRANCH   1   4
ATOM      2  N   UNL     1      -2.449   1.047   0.376  0.00  0.00    -0.309 N 
ATOM      3  N   UNL     1      -0.634   1.787   1.675  0.00  0.00    -0.370 N 
ATOM      4  C   UNL     1      -1.103   0.872   0.750  0.00  0.00    +0.198 C 
ATOM      5  C   UNL     1      -3.469   1.607   1.260  0.00  0.00    +0.129 C 
ATOM      6  H   UNL     1       0.297   1.736   1.990  0.00  0.00    +0.159 HD
ATOM      7  H   UNL     1      -1.232   2.491   2.018  0.00  0.00    +0.159 HD
BRANCH   2   8
ATOM      8  C   UNL     1      -2.933   0.553  -0.913  0.00  0.00    +0.214 C 
BRANCH   8  10
ATOM      9  O   UNL     1      -3.425  -1.519   0.268  0.00  0.00    -0.248 OA
ATOM     10  C   UNL     1      -3.421  -0.861  -0.761  0.00  0.00    +0.337 C 
BRANCH  10  11
ATOM     11  O   UNL     1      -3.870  -1.327  -1.956  0.00  0.00    -0.479 OA
ATOM     12  H   UNL     1      -3.842  -0.777  -2.714  0.00  0.00    +0.295 HD
ENDBRANCH  10  11
ENDBRANCH   8  10
ENDBRANCH   2   8
ENDBRANCH   1   4
BRANCH   1  17
ATOM     13  O4* UNL     1       1.849   0.910   0.396  0.00  0.00    -0.330 OA
ATOM     14  C3* UNL     1       3.101  -1.048  -0.045  0.00  0.00    +0.171 C 
ATOM     15  C2* UNL     1       1.629  -1.401  -0.073  0.00  0.00    +0.191 C 
ATOM     16  C4* UNL     1       3.069   0.462  -0.229  0.00  0.00    +0.176 C 
ATOM     17  C1* UNL     1       0.997  -0.225   0.660  0.00  0.00    +0.252 C 
BRANCH  14  18
ATOM     18  O3* UNL     1       3.652  -1.323   1.242  0.00  0.00    -0.379 OA
ATOM     19  H3* UNL     1       3.682  -2.282   1.382  0.00  0.00    +0.211 HD
ENDBRANCH  14  18
BRANCH  15  20
ATOM     20  O2* UNL     1       1.365  -2.639   0.555  0.00  0.00    -0.378 OA
ATOM     21  H2* UNL     1       1.787  -3.353   0.052  0.00  0.00    +0.211 HD
ENDBRANCH  15  20
BRANCH  16  22
ATOM     22  C5* UNL     1       3.040   0.890  -1.690  0.00  0.00    +0.169 C 
BRANCH  22  23
ATOM     23  O5* UNL     1       3.001   2.306  -1.746  0.00  0.00    -0.379 OA
ATOM     24  H5* UNL     1       2.982   2.592  -2.673  0.00  0.00    +0.211 HD
ENDBRANCH  22  23
ENDBRANCH  16  22
ENDBRANCH   1  17
TORSDOF 9
