REMARK  Name = 124181
REMARK  9 active torsions:
REMARK  status: ('A' for Active; 'I' for Inactive)
REMARK    1  A    between atoms: C_1  and  C_14
REMARK    2  A    between atoms: C_2  and  S_7
REMARK    3  A    between atoms: C_3  and  O_25
REMARK    4  A    between atoms: C_5  and  C_22
REMARK    5  A    between atoms: S_7  and  N_10
REMARK    6  A    between atoms: C_14  and  C_15
REMARK    7  A    between atoms: C_22  and  O_23
REMARK    8  A    between atoms: O_25  and  C_26
REMARK    9  A    between atoms: C_26  and  C_28
REMARK                            x       y       z     vdW  Elec       q    Type
REMARK                         _______ _______ _______ _____ _____    ______ ____
ROOT
ATOM      1  C   UNL     1       0.904  -0.155   0.602  0.00  0.00    +0.091 C 
ATOM      2  C   UNL     1       2.149  -0.669   0.317  0.00  0.00    +0.128 C 
ATOM      3  C   UNL     1       0.613   1.187   0.488  0.00  0.00    +0.144 C 
ATOM      4  C   UNL     1       3.154   0.201  -0.104  0.00  0.00    +0.027 C 
ATOM      5  C   UNL     1       2.889   1.565  -0.228  0.00  0.00    +0.080 C 
ATOM      6  C   UNL     1       1.618   2.058   0.068  0.00  0.00    +0.044 C 
ENDROOT
BRANCH   2   7
ATOM      7  S   UNL     1       2.524  -2.374   0.459  0.00  0.00    +0.057 S 
ATOM      8  O   UNL     1       3.959  -2.508   0.660  0.00  0.00    -0.153 OA
ATOM      9  O   UNL     1       1.598  -2.968   1.411  0.00  0.00    -0.153 OA
BRANCH   7  10
ATOM     10  N   UNL     1       2.130  -2.921  -1.110  0.00  0.00    -0.203 NA
ATOM     11  H   UNL     1       2.303  -3.924  -1.174  0.00  0.00    +0.144 HD
ATOM     12  H   UNL     1       2.706  -2.432  -1.795  0.00  0.00    +0.144 HD
ENDBRANCH   7  10
ENDBRANCH   2   7
BRANCH   1  14
ATOM     13  O   UNL     1      -0.295  -1.268   2.273  0.00  0.00    -0.286 OA
ATOM     14  C   UNL     1      -0.185  -1.074   1.054  0.00  0.00    +0.200 C 
BRANCH  14  15
ATOM     15  C   UNL     1      -1.091  -1.725   0.122  0.00  0.00    +0.039 C 
ATOM     16  C   UNL     1      -0.962  -1.502  -1.249  0.00  0.00    +0.003 C 
ATOM     17  C   UNL     1      -2.090  -2.574   0.599  0.00  0.00    +0.003 C 
ATOM     18  C   UNL     1      -1.832  -2.127  -2.143  0.00  0.00    +0.000 C 
ATOM     19  C   UNL     1      -2.960  -3.199  -0.294  0.00  0.00    +0.000 C 
ATOM     20  C   UNL     1      -2.831  -2.975  -1.665  0.00  0.00    +0.000 C 
ENDBRANCH  14  15
ENDBRANCH   1  14
BRANCH   5  22
ATOM     21  O   UNL     1       5.093   2.147  -0.954  0.00  0.00    -0.245 OA
ATOM     22  C   UNL     1       3.937   2.473  -0.667  0.00  0.00    +0.338 C 
BRANCH  22  23
ATOM     23  O   UNL     1       3.512   3.764  -0.736  0.00  0.00    -0.477 OA
ATOM     24  H   UNL     1       2.628   3.979  -0.511  0.00  0.00    +0.295 HD
ENDBRANCH  22  23
ENDBRANCH   5  22
BRANCH   3  25
ATOM     25  O   UNL     1      -0.621   1.692   0.772  0.00  0.00    -0.470 OA
BRANCH  25  26
ATOM     26  C   UNL     1      -1.306   2.360  -0.285  0.00  0.00    +0.233 C 
BRANCH  26  28
ATOM     27  S   UNL     1      -5.241   1.625  -0.429  0.00  0.00    -0.086 S 
ATOM     28  C   UNL     1      -2.785   2.220  -0.076  0.00  0.00    +0.028 C 
ATOM     29  C   UNL     1      -3.455   2.695   1.076  0.00  0.00    +0.007 C 
ATOM     30  C   UNL     1      -3.619   1.618  -0.978  0.00  0.00    +0.035 C 
ATOM     31  C   UNL     1      -4.806   2.436   1.015  0.00  0.00    +0.035 C 
ENDBRANCH  26  28
ENDBRANCH  25  26
ENDBRANCH   3  25
TORSDOF 9
