124199
  -OEChem-03292013323D

 59 62  0     1  0  0  0  0  0999 V2000
    4.0228    1.3359    2.2955 O   0  0  0  0  0  0  0  0  0  0  0  0
    7.3712    2.5052   -1.2864 O   0  0  0  0  0  0  0  0  0  0  0  0
    5.3607    2.0262   -2.2240 O   0  0  0  0  0  0  0  0  0  0  0  0
    7.5756   -3.1971   -1.1615 O   0  0  0  0  0  0  0  0  0  0  0  0
    8.3095   -2.2579    0.7690 O   0  0  0  0  0  0  0  0  0  0  0  0
   -3.9783   -0.3189   -0.4633 N   0  0  3  0  0  0  0  0  0  0  0  0
   -7.6254   -0.6320   -0.2111 N   0  0  0  0  0  0  0  0  0  0  0  0
   -7.0399    1.6932   -0.0558 N   0  0  0  0  0  0  0  0  0  0  0  0
   -4.8526    2.4285   -0.1625 N   0  0  0  0  0  0  0  0  0  0  0  0
   -9.2797    1.0099    0.0461 N   0  0  0  0  0  0  0  0  0  0  0  0
    4.4163    0.9368    0.0455 N   0  0  0  0  0  0  0  0  0  0  0  0
   -3.6123   -1.6776   -0.8484 C   0  0  1  0  0  0  0  0  0  0  0  0
   -1.8769   -0.6586    0.5257 C   0  0  2  0  0  0  0  0  0  0  0  0
   -2.1194   -1.7671   -0.5163 C   0  0  0  0  0  0  0  0  0  0  0  0
   -2.8541    0.4408    0.0559 C   0  0  0  0  0  0  0  0  0  0  0  0
   -4.4945   -2.6664   -0.0890 C   0  0  0  0  0  0  0  0  0  0  0  0
   -5.2951    0.0333   -0.3346 C   0  0  0  0  0  0  0  0  0  0  0  0
   -5.9611   -2.3963   -0.4465 C   0  0  0  0  0  0  0  0  0  0  0  0
   -0.4356   -0.2267    0.6980 C   0  0  0  0  0  0  0  0  0  0  0  0
   -6.3098   -0.9297   -0.3268 C   0  0  0  0  0  0  0  0  0  0  0  0
   -5.7435    1.3366   -0.1839 C   0  0  0  0  0  0  0  0  0  0  0  0
    0.2673    0.2912   -0.3868 C   0  0  0  0  0  0  0  0  0  0  0  0
    0.1804   -0.3505    1.9407 C   0  0  0  0  0  0  0  0  0  0  0  0
    1.5951    0.6878   -0.2279 C   0  0  0  0  0  0  0  0  0  0  0  0
    1.5082    0.0463    2.0998 C   0  0  0  0  0  0  0  0  0  0  0  0
   -7.9142    0.6742   -0.0809 C   0  0  0  0  0  0  0  0  0  0  0  0
    2.2155    0.5654    1.0155 C   0  0  0  0  0  0  0  0  0  0  0  0
    3.5995    0.9809    1.1812 C   0  0  0  0  0  0  0  0  0  0  0  0
    5.8165    1.2951    0.0540 C   0  0  1  0  0  0  0  0  0  0  0  0
    6.7294    0.1085    0.3863 C   0  0  0  0  0  0  0  0  0  0  0  0
    6.6935   -1.0607   -0.6063 C   0  0  0  0  0  0  0  0  0  0  0  0
    6.1291    1.9541   -1.2737 C   0  0  0  0  0  0  0  0  0  0  0  0
    7.6016   -2.2105   -0.2273 C   0  0  0  0  0  0  0  0  0  0  0  0
   -3.7524   -1.8168   -1.9283 H   0  0  0  0  0  0  0  0  0  0  0  0
   -2.2486   -1.0380    1.4893 H   0  0  0  0  0  0  0  0  0  0  0  0
   -1.8213   -2.7540   -0.1467 H   0  0  0  0  0  0  0  0  0  0  0  0
   -1.5409   -1.5796   -1.4293 H   0  0  0  0  0  0  0  0  0  0  0  0
   -2.4224    1.0643   -0.7340 H   0  0  0  0  0  0  0  0  0  0  0  0
   -3.0991    1.0635    0.9233 H   0  0  0  0  0  0  0  0  0  0  0  0
   -4.2312   -3.6986   -0.3451 H   0  0  0  0  0  0  0  0  0  0  0  0
   -4.3536   -2.5521    0.9940 H   0  0  0  0  0  0  0  0  0  0  0  0
   -6.1548   -2.7094   -1.4795 H   0  0  0  0  0  0  0  0  0  0  0  0
   -6.6111   -2.9869    0.2089 H   0  0  0  0  0  0  0  0  0  0  0  0
   -0.1992    0.4015   -1.3616 H   0  0  0  0  0  0  0  0  0  0  0  0
   -0.3574   -0.7542    2.7943 H   0  0  0  0  0  0  0  0  0  0  0  0
    2.0982    1.1158   -1.0899 H   0  0  0  0  0  0  0  0  0  0  0  0
    1.9745   -0.0613    3.0756 H   0  0  0  0  0  0  0  0  0  0  0  0
   -4.0804    2.4123   -0.8167 H   0  0  0  0  0  0  0  0  0  0  0  0
   -5.2760    3.3361   -0.0052 H   0  0  0  0  0  0  0  0  0  0  0  0
   -9.5458    1.9796    0.1469 H   0  0  0  0  0  0  0  0  0  0  0  0
   -9.9750    0.2765    0.0331 H   0  0  0  0  0  0  0  0  0  0  0  0
    4.0490    0.5639   -0.8239 H   0  0  0  0  0  0  0  0  0  0  0  0
    5.9483    2.0650    0.8249 H   0  0  0  0  0  0  0  0  0  0  0  0
    6.4672   -0.2722    1.3824 H   0  0  0  0  0  0  0  0  0  0  0  0
    7.7649    0.4650    0.4635 H   0  0  0  0  0  0  0  0  0  0  0  0
    7.0012   -0.7091   -1.5972 H   0  0  0  0  0  0  0  0  0  0  0  0
    5.6738   -1.4557   -0.6740 H   0  0  0  0  0  0  0  0  0  0  0  0
    7.5667    2.9457   -2.1408 H   0  0  0  0  0  0  0  0  0  0  0  0
    8.1767   -3.9365   -0.9287 H   0  0  0  0  0  0  0  0  0  0  0  0
  1 28  2  0  0  0  0
  2 32  1  0  0  0  0
  2 58  1  0  0  0  0
  3 32  2  0  0  0  0
  4 33  1  0  0  0  0
  4 59  1  0  0  0  0
  5 33  2  0  0  0  0
  6 12  1  0  0  0  0
  6 15  1  0  0  0  0
  6 17  1  0  0  0  0
  7 20  1  0  0  0  0
  7 26  2  0  0  0  0
  8 21  2  0  0  0  0
  8 26  1  0  0  0  0
  9 21  1  0  0  0  0
  9 48  1  0  0  0  0
  9 49  1  0  0  0  0
 10 26  1  0  0  0  0
 10 50  1  0  0  0  0
 10 51  1  0  0  0  0
 11 28  1  0  0  0  0
 11 29  1  0  0  0  0
 11 52  1  0  0  0  0
 12 14  1  0  0  0  0
 12 16  1  0  0  0  0
 12 34  1  0  0  0  0
 13 14  1  0  0  0  0
 13 15  1  0  0  0  0
 13 19  1  0  0  0  0
 13 35  1  0  0  0  0
 14 36  1  0  0  0  0
 14 37  1  0  0  0  0
 15 38  1  0  0  0  0
 15 39  1  0  0  0  0
 16 18  1  0  0  0  0
 16 40  1  0  0  0  0
 16 41  1  0  0  0  0
 17 20  2  0  0  0  0
 17 21  1  0  0  0  0
 18 20  1  0  0  0  0
 18 42  1  0  0  0  0
 18 43  1  0  0  0  0
 19 22  2  0  0  0  0
 19 23  1  0  0  0  0
 22 24  1  0  0  0  0
 22 44  1  0  0  0  0
 23 25  2  0  0  0  0
 23 45  1  0  0  0  0
 24 27  2  0  0  0  0
 24 46  1  0  0  0  0
 25 27  1  0  0  0  0
 25 47  1  0  0  0  0
 27 28  1  0  0  0  0
 29 30  1  0  0  0  0
 29 32  1  0  0  0  0
 29 53  1  0  0  0  0
 30 31  1  0  0  0  0
 30 54  1  0  0  0  0
 30 55  1  0  0  0  0
 31 33  1  0  0  0  0
 31 56  1  0  0  0  0
 31 57  1  0  0  0  0
M  END
> <PUBCHEM_COMPOUND_CID>
124199

> <PUBCHEM_CONFORMER_RMSD>
1

> <PUBCHEM_CONFORMER_DIVERSEORDER>
2
154
66
51
56
108
49
144
59
58
27
145
41
73
8
78
167
99
166
6
40
110
36
151
132
147
121
100
98
65
50
155
45
159
140
21
14
146
130
54
156
103
71
136
72
23
69
76
81
29
126
43
152
148
5
13
26
106
83
52
133
96
125
109
10
127
107
68
149
70
34
105
77
24
131
93
84
128
102
86
12
7
46
134
92
57
20
62
158
129
1
44
17
143
28
163
35
112
25
116
74
3
124
80
16
47
142
117
42
91
11
39
157
53
67
37
94
15
88
135
160
32
113
82
30
123
55
150
141
97
111
101
139
61
138
9
64
114
63
89
165
31
75
90
22
162
60
120
95
48
161
164
122
33
119
18
137
87
79
153
104
38
115
85
118
4
19

> <PUBCHEM_MMFF94_PARTIAL_CHARGES>
41
1 -0.57
10 -0.9
11 -0.73
12 0.37
13 0.14
15 0.37
17 0.1
18 0.14
19 -0.14
2 -0.65
20 0.17
21 0.41
22 -0.15
23 -0.15
24 -0.15
25 -0.15
26 0.72
27 0.09
28 0.54
29 0.36
3 -0.57
31 0.06
32 0.66
33 0.66
4 -0.65
44 0.15
45 0.15
46 0.15
47 0.15
48 0.4
49 0.4
5 -0.57
50 0.4
51 0.4
52 0.37
58 0.5
59 0.5
6 -0.84
7 -0.62
8 -0.62
9 -0.9

> <PUBCHEM_EFFECTIVE_ROTOR_COUNT>
9

> <PUBCHEM_PHARMACOPHORE_FEATURES>
16
1 1 acceptor
1 10 donor
1 11 donor
1 2 acceptor
1 3 acceptor
1 4 acceptor
1 5 acceptor
1 6 cation
1 9 donor
3 2 3 32 anion
3 4 5 33 anion
4 7 8 10 26 cation
5 6 12 13 14 15 rings
6 19 22 23 24 25 27 rings
6 6 12 16 17 18 20 rings
6 7 8 17 20 21 26 rings

> <PUBCHEM_HEAVY_ATOM_COUNT>
33

> <PUBCHEM_ATOM_DEF_STEREO_COUNT>
1

> <PUBCHEM_ATOM_UDEF_STEREO_COUNT>
2

> <PUBCHEM_BOND_DEF_STEREO_COUNT>
0

> <PUBCHEM_BOND_UDEF_STEREO_COUNT>
0

> <PUBCHEM_ISOTOPIC_ATOM_COUNT>
0

> <PUBCHEM_COMPONENT_COUNT>
1

> <PUBCHEM_CACTVS_TAUTO_COUNT>
18

> <PUBCHEM_CONFORMER_ID>
0001E52700000002

> <PUBCHEM_MMFF94_ENERGY>
109.4753

> <PUBCHEM_FEATURE_SELFOVERLAP>
81.453

> <PUBCHEM_SHAPE_FINGERPRINT>
10 15 11602540926853570024
10299344 5 18261107486878699896
10391435 84 13110952137428458277
11719270 70 17704072885247433942
12082328 90 18336826485229777711
12236239 1 18040707091842312993
13008946 282 15123210192356482634
13782708 43 17774153638291876198
14040221 8 18340779126420924956
14849402 71 17313387897989862893
15183329 4 17775013400903318816
15230672 131 18343295955502430479
15328829 1 17676207983291376269
15475509 8 18113338600737696612
1577012 14 18040989683347146001
15840311 113 17676211290178947556
19841028 212 18270398288407100506
20105231 36 17894917326051545467
20567600 234 11169909490183113794
21033648 29 17487879285468714873
21315764 119 18410576193445370138
21781055 127 17560522777623827211
23522609 53 17967820457052228437
23559900 14 17988352771326776089
3004659 81 18410289199736540226
4073 2 18114184180529235115
4098825 35 18409165493629486294
439807 62 18343866598358671190
474113 269 17275106081528555654
5265222 85 18056198209270152679
5758199 1 17168140165607808969
6697151 62 16486964120434418072
9831232 110 18340771447462621886

> <PUBCHEM_SHAPE_MULTIPOLES>
619.89
28.59
2.71
1.42
4.97
1.2
-0.41
1.73
7.25
2.64
0.93
2.61
-0.46
-0.93

> <PUBCHEM_SHAPE_SELFOVERLAP>
1335.9

> <PUBCHEM_SHAPE_VOLUME>
337.5

> <PUBCHEM_COORDINATE_TYPE>
2
5
10

$$$$
