REMARK  Name = 124199
REMARK  9 active torsions:
REMARK  status: ('A' for Active; 'I' for Inactive)
REMARK    1  A    between atoms: C_1  and  C_13
REMARK    2  A    between atoms: C_6  and  C_28
REMARK    3  A    between atoms: N_27  and  CA_30
REMARK    4  A    between atoms: CA_30  and  C_32
REMARK    5  A    between atoms: CA_30  and  CB_35
REMARK    6  A    between atoms: C_32  and  O_33
REMARK    7  A    between atoms: CB_35  and  CG_36
REMARK    8  A    between atoms: CG_36  and  CD_38
REMARK    9  A    between atoms: CD_38  and  OE1_39
REMARK                            x       y       z     vdW  Elec       q    Type
REMARK                         _______ _______ _______ _____ _____    ______ ____
ROOT
ATOM      1  C   UNL     1      -0.436  -0.227   0.698  0.00  0.00    -0.021 C 
ATOM      2  C   UNL     1       0.267   0.291  -0.387  0.00  0.00    -0.004 C 
ATOM      3  C   UNL     1       0.180  -0.350   1.941  0.00  0.00    -0.004 C 
ATOM      4  C   UNL     1       1.595   0.688  -0.228  0.00  0.00    +0.004 C 
ATOM      5  C   UNL     1       1.508   0.046   2.100  0.00  0.00    +0.004 C 
ATOM      6  C   UNL     1       2.216   0.565   1.016  0.00  0.00    +0.053 C 
ENDROOT
BRANCH   1  13
ATOM      7  N   UNL     1      -3.978  -0.319  -0.463  0.00  0.00    -0.263 NA
ATOM      8  N   UNL     1      -7.625  -0.632  -0.211  0.00  0.00    -0.335 NA
ATOM      9  N   UNL     1      -7.040   1.693  -0.056  0.00  0.00    -0.316 NA
ATOM     10  N   UNL     1      -4.853   2.429  -0.163  0.00  0.00    -0.334 N 
ATOM     11  N   UNL     1      -9.280   1.010   0.046  0.00  0.00    -0.283 N 
ATOM     12  C   UNL     1      -3.612  -1.678  -0.848  0.00  0.00    +0.059 C 
ATOM     13  C   UNL     1      -1.877  -0.659   0.526  0.00  0.00    +0.040 C 
ATOM     14  C   UNL     1      -2.119  -1.767  -0.516  0.00  0.00    +0.022 C 
ATOM     15  C   UNL     1      -2.854   0.441   0.056  0.00  0.00    +0.077 C 
ATOM     16  C   UNL     1      -4.495  -2.666  -0.089  0.00  0.00    +0.023 C 
ATOM     17  C   UNL     1      -5.295   0.033  -0.335  0.00  0.00    +0.175 C 
ATOM     18  C   UNL     1      -5.961  -2.396  -0.447  0.00  0.00    +0.059 C 
ATOM     19  C   UNL     1      -6.310  -0.930  -0.327  0.00  0.00    +0.123 C 
ATOM     20  C   UNL     1      -5.744   1.337  -0.184  0.00  0.00    +0.189 C 
ATOM     21  C   UNL     1      -7.914   0.674  -0.081  0.00  0.00    +0.196 C 
ATOM     22  H   UNL     1      -5.198   3.344  -0.054  0.00  0.00    +0.144 HD
ATOM     23  H   UNL     1      -3.885   2.276  -0.256  0.00  0.00    +0.144 HD
ATOM     24  H   UNL     1      -9.964   0.302   0.034  0.00  0.00    +0.156 HD
ATOM     25  H   UNL     1      -9.548   1.952   0.147  0.00  0.00    +0.156 HD
ENDBRANCH   1  13
BRANCH   6  28
ATOM     26  O   UNL     1       4.023   1.336   2.296  0.00  0.00    -0.270 OA
ATOM     27  N   UNL     1       4.416   0.937   0.045  0.00  0.00    -0.293 N 
ATOM     28  C   ACE A   0       3.599   0.981   1.181  0.00  0.00    +0.246 C 
ATOM     29  H   UNL     1       4.015   0.646  -0.805  0.00  0.00    +0.150 HD
BRANCH  27  30
ATOM     30  CA  UNL     1       5.816   1.295   0.054  0.00  0.00    +0.172 C 
BRANCH  30  32
ATOM     31  OXT UNL     1       5.361   2.026  -2.224  0.00  0.00    -0.248 OA
ATOM     32  C   UNL     1       6.129   1.954  -1.274  0.00  0.00    +0.332 C 
BRANCH  32  33
ATOM     33  O   UNL     1       7.371   2.505  -1.286  0.00  0.00    -0.479 OA
ATOM     34  H   UNL     1       7.927   2.426  -0.536  0.00  0.00    +0.295 HD
ENDBRANCH  32  33
ENDBRANCH  30  32
BRANCH  30  35
ATOM     35  CB  UNL     1       6.729   0.108   0.386  0.00  0.00    +0.043 C 
BRANCH  35  36
ATOM     36  CG  UNL     1       6.694  -1.061  -0.606  0.00  0.00    +0.112 C 
BRANCH  36  38
ATOM     37  OE2 UNL     1       8.309  -2.258   0.769  0.00  0.00    -0.250 OA
ATOM     38  CD  UNL     1       7.602  -2.211  -0.227  0.00  0.00    +0.314 C 
BRANCH  38  39
ATOM     39  OE1 UNL     1       7.576  -3.197  -1.161  0.00  0.00    -0.480 OA
ATOM     40  HE1 UNL     1       7.017  -3.119  -1.910  0.00  0.00    +0.295 HD
ENDBRANCH  38  39
ENDBRANCH  36  38
ENDBRANCH  35  36
ENDBRANCH  30  35
ENDBRANCH  27  30
ENDBRANCH   6  28
TORSDOF 9
