124129
  -OEChem-03292013323D

 66 70  0     0  0  0  0  0  0999 V2000
    1.5448    1.8923   -0.3999 O   0  0  0  0  0  0  0  0  0  0  0  0
   -7.3406   -2.1997   -0.4565 N   0  3  0  0  0  0  0  0  0  0  0  0
   -4.5900    0.6815    0.7059 N   0  0  0  0  0  0  0  0  0  0  0  0
   -9.0657    3.0722   -0.2762 N   0  0  0  0  0  0  0  0  0  0  0  0
    1.7520   -0.1053    0.8136 N   0  0  0  0  0  0  0  0  0  0  0  0
    7.2950   -0.8036    1.1210 N   0  0  0  0  0  0  0  0  0  0  0  0
   -0.5667   -0.4437   -1.7578 N   0  0  0  0  0  0  0  0  0  0  0  0
   10.3993    0.2796   -1.3953 N   0  3  0  0  0  0  0  0  0  0  0  0
   -6.8617    0.0885   -0.0248 C   0  0  0  0  0  0  0  0  0  0  0  0
   -7.7668   -0.9231   -0.4155 C   0  0  0  0  0  0  0  0  0  0  0  0
   -5.5501   -0.2778    0.3063 C   0  0  0  0  0  0  0  0  0  0  0  0
   -5.1609   -1.6115    0.2473 C   0  0  0  0  0  0  0  0  0  0  0  0
   -7.3092    1.4184    0.0169 C   0  0  0  0  0  0  0  0  0  0  0  0
   -6.0898   -2.5620   -0.1424 C   0  0  0  0  0  0  0  0  0  0  0  0
   -9.0849   -0.6018   -0.7541 C   0  0  0  0  0  0  0  0  0  0  0  0
   -3.1922    0.7386    0.5719 C   0  0  0  0  0  0  0  0  0  0  0  0
   -8.6269    1.7318   -0.3226 C   0  0  0  0  0  0  0  0  0  0  0  0
   -9.5116    0.7247   -0.7069 C   0  0  0  0  0  0  0  0  0  0  0  0
   -8.2424   -3.2875   -0.8554 C   0  0  0  0  0  0  0  0  0  0  0  0
   -2.5649    0.1264   -0.5164 C   0  0  0  0  0  0  0  0  0  0  0  0
   -0.4126    0.8525    0.3062 C   0  0  0  0  0  0  0  0  0  0  0  0
   -2.4222    1.4081    1.5266 C   0  0  0  0  0  0  0  0  0  0  0  0
   -1.1776    0.1832   -0.6490 C   0  0  0  0  0  0  0  0  0  0  0  0
   -1.0349    1.4650    1.3941 C   0  0  0  0  0  0  0  0  0  0  0  0
    1.0387    0.9302    0.1968 C   0  0  0  0  0  0  0  0  0  0  0  0
    3.1553   -0.2813    0.8925 C   0  0  0  0  0  0  0  0  0  0  0  0
    5.8978   -0.6271    1.0445 C   0  0  0  0  0  0  0  0  0  0  0  0
    3.6618   -1.3859    1.5555 C   0  0  0  0  0  0  0  0  0  0  0  0
    3.9884    0.6544    0.3036 C   0  0  0  0  0  0  0  0  0  0  0  0
    8.3513   -0.4354    0.2653 C   0  0  0  0  0  0  0  0  0  0  0  0
    5.0436   -1.5601    1.6322 C   0  0  0  0  0  0  0  0  0  0  0  0
    5.3702    0.4802    0.3802 C   0  0  0  0  0  0  0  0  0  0  0  0
    9.6108   -0.1561    0.7895 C   0  0  0  0  0  0  0  0  0  0  0  0
    8.1394   -0.3490   -1.1082 C   0  0  0  0  0  0  0  0  0  0  0  0
   10.6321    0.2045   -0.0779 C   0  0  0  0  0  0  0  0  0  0  0  0
    9.1980    0.0166   -1.9276 C   0  0  0  0  0  0  0  0  0  0  0  0
   11.4933    0.6622   -2.2833 C   0  0  0  0  0  0  0  0  0  0  0  0
   -4.1632   -1.9392    0.5208 H   0  0  0  0  0  0  0  0  0  0  0  0
   -6.6443    2.2297    0.3040 H   0  0  0  0  0  0  0  0  0  0  0  0
   -5.8299   -3.6130   -0.1956 H   0  0  0  0  0  0  0  0  0  0  0  0
   -4.9714    1.4261    1.2813 H   0  0  0  0  0  0  0  0  0  0  0  0
   -9.8127   -1.3467   -1.0594 H   0  0  0  0  0  0  0  0  0  0  0  0
  -10.5389    0.9622   -0.9723 H   0  0  0  0  0  0  0  0  0  0  0  0
   -9.0768   -3.3239   -0.1492 H   0  0  0  0  0  0  0  0  0  0  0  0
   -8.5798   -3.1017   -1.8791 H   0  0  0  0  0  0  0  0  0  0  0  0
   -7.7291   -4.2529   -0.8321 H   0  0  0  0  0  0  0  0  0  0  0  0
   -3.1489   -0.3781   -1.2828 H   0  0  0  0  0  0  0  0  0  0  0  0
   -2.8943    1.8889    2.3798 H   0  0  0  0  0  0  0  0  0  0  0  0
   -0.4498    1.9895    2.1453 H   0  0  0  0  0  0  0  0  0  0  0  0
  -10.0194    3.3012   -0.5229 H   0  0  0  0  0  0  0  0  0  0  0  0
   -8.4264    3.8052    0.0010 H   0  0  0  0  0  0  0  0  0  0  0  0
    1.2024   -0.8300    1.2712 H   0  0  0  0  0  0  0  0  0  0  0  0
    3.0051   -2.1186    2.0161 H   0  0  0  0  0  0  0  0  0  0  0  0
    3.6586    1.5377   -0.2223 H   0  0  0  0  0  0  0  0  0  0  0  0
    7.5989   -1.2920    1.9588 H   0  0  0  0  0  0  0  0  0  0  0  0
    5.4427   -2.4277    2.1515 H   0  0  0  0  0  0  0  0  0  0  0  0
    6.0128    1.2336   -0.0671 H   0  0  0  0  0  0  0  0  0  0  0  0
   -1.1373   -0.9260   -2.4397 H   0  0  0  0  0  0  0  0  0  0  0  0
    0.4369   -0.4202   -1.8752 H   0  0  0  0  0  0  0  0  0  0  0  0
    9.8026   -0.2164    1.8564 H   0  0  0  0  0  0  0  0  0  0  0  0
    7.1802   -0.5801   -1.5600 H   0  0  0  0  0  0  0  0  0  0  0  0
   11.6339    0.4285    0.2684 H   0  0  0  0  0  0  0  0  0  0  0  0
    9.0990    0.0911   -3.0038 H   0  0  0  0  0  0  0  0  0  0  0  0
   11.0928    1.1975   -3.1486 H   0  0  0  0  0  0  0  0  0  0  0  0
   12.1854    1.3210   -1.7516 H   0  0  0  0  0  0  0  0  0  0  0  0
   11.9999   -0.2539   -2.5983 H   0  0  0  0  0  0  0  0  0  0  0  0
  1 25  2  0  0  0  0
  2 10  2  0  0  0  0
  2 14  1  0  0  0  0
  2 19  1  0  0  0  0
  3 11  1  0  0  0  0
  3 16  1  0  0  0  0
  3 41  1  0  0  0  0
  4 17  1  0  0  0  0
  4 50  1  0  0  0  0
  4 51  1  0  0  0  0
  5 25  1  0  0  0  0
  5 26  1  0  0  0  0
  5 52  1  0  0  0  0
  6 27  1  0  0  0  0
  6 30  1  0  0  0  0
  6 55  1  0  0  0  0
  7 23  1  0  0  0  0
  7 58  1  0  0  0  0
  7 59  1  0  0  0  0
  8 35  2  0  0  0  0
  8 36  1  0  0  0  0
  8 37  1  0  0  0  0
  9 10  1  0  0  0  0
  9 11  2  0  0  0  0
  9 13  1  0  0  0  0
 10 15  1  0  0  0  0
 11 12  1  0  0  0  0
 12 14  2  0  0  0  0
 12 38  1  0  0  0  0
 13 17  2  0  0  0  0
 13 39  1  0  0  0  0
 14 40  1  0  0  0  0
 15 18  2  0  0  0  0
 15 42  1  0  0  0  0
 16 20  2  0  0  0  0
 16 22  1  0  0  0  0
 17 18  1  0  0  0  0
 18 43  1  0  0  0  0
 19 44  1  0  0  0  0
 19 45  1  0  0  0  0
 19 46  1  0  0  0  0
 20 23  1  0  0  0  0
 20 47  1  0  0  0  0
 21 23  2  0  0  0  0
 21 24  1  0  0  0  0
 21 25  1  0  0  0  0
 22 24  2  0  0  0  0
 22 48  1  0  0  0  0
 24 49  1  0  0  0  0
 26 28  2  0  0  0  0
 26 29  1  0  0  0  0
 27 31  2  0  0  0  0
 27 32  1  0  0  0  0
 28 31  1  0  0  0  0
 28 53  1  0  0  0  0
 29 32  2  0  0  0  0
 29 54  1  0  0  0  0
 30 33  2  0  0  0  0
 30 34  1  0  0  0  0
 31 56  1  0  0  0  0
 32 57  1  0  0  0  0
 33 35  1  0  0  0  0
 33 60  1  0  0  0  0
 34 36  2  0  0  0  0
 34 61  1  0  0  0  0
 35 62  1  0  0  0  0
 36 63  1  0  0  0  0
 37 64  1  0  0  0  0
 37 65  1  0  0  0  0
 37 66  1  0  0  0  0
M  CHG  2   2   1   8   1
M  END
> <PUBCHEM_COMPOUND_CID>
124129

> <PUBCHEM_CONFORMER_RMSD>
1

> <PUBCHEM_CONFORMER_DIVERSEORDER>
1
39
115
82
51
121
120
124
38
68
56
70
89
6
42
48
8
59
96
119
53
125
50
40
92
32
88
60
101
72
57
15
28
113
117
85
43
7
122
87
74
26
83
114
23
24
98
78
123
75
34
31
49
99
67
110
81
44
112
77
4
61
71
95
107
54
111
80
106
91
25
109
58
11
55
47
29
105
33
3
12
20
104
36
69
73
21
90
37
108
65
93
76
16
9
30
86
116
97
94
19
63
22
66
46
2
64
10
102
18
41
45
35
62
13
103
17
118
79
27
100
14
52
5
84

> <PUBCHEM_MMFF94_PARTIAL_CHARGES>
59
1 -0.57
10 0.36
11 0.1
12 -0.15
13 -0.15
14 0.21
15 -0.15
16 0.1
17 0.1
18 -0.15
19 0.49
2 -0.21
20 -0.15
21 0.09
22 -0.15
23 0.1
24 -0.15
25 0.54
26 0.12
27 0.1
28 -0.15
29 -0.15
3 -0.6
30 0.1
31 -0.15
32 -0.15
33 -0.15
34 -0.15
35 0.21
36 0.21
37 0.49
38 0.15
39 0.15
4 -0.9
40 0.15
41 0.4
42 0.15
43 0.15
47 0.15
48 0.15
49 0.15
5 -0.55
50 0.4
51 0.4
52 0.37
53 0.15
54 0.15
55 0.4
56 0.15
57 0.15
58 0.4
59 0.4
6 -0.6
60 0.15
61 0.15
62 0.15
63 0.15
7 -0.9
8 -0.21

> <PUBCHEM_EFFECTIVE_ROTOR_COUNT>
7

> <PUBCHEM_PHARMACOPHORE_FEATURES>
15
1 1 acceptor
1 3 cation
1 3 donor
1 4 cation
1 4 donor
1 5 donor
1 6 cation
1 6 donor
1 7 cation
1 7 donor
6 16 20 21 22 23 24 rings
6 2 9 10 11 12 14 rings
6 26 27 28 29 31 32 rings
6 8 30 33 34 35 36 rings
6 9 10 13 15 17 18 rings

> <PUBCHEM_HEAVY_ATOM_COUNT>
37

> <PUBCHEM_ATOM_DEF_STEREO_COUNT>
0

> <PUBCHEM_ATOM_UDEF_STEREO_COUNT>
0

> <PUBCHEM_BOND_DEF_STEREO_COUNT>
0

> <PUBCHEM_BOND_UDEF_STEREO_COUNT>
0

> <PUBCHEM_ISOTOPIC_ATOM_COUNT>
0

> <PUBCHEM_COMPONENT_COUNT>
1

> <PUBCHEM_CACTVS_TAUTO_COUNT>
30

> <PUBCHEM_CONFORMER_ID>
0001E4E100000001

> <PUBCHEM_MMFF94_ENERGY>
185.1672

> <PUBCHEM_FEATURE_SELFOVERLAP>
76.155

> <PUBCHEM_SHAPE_FINGERPRINT>
10076449 9 17894627054316810124
10168742 298 17917443012648629020
10299344 5 18259699000157968283
10580692 12 18261670390500285881
10677351 14 18411421722008192968
10883706 142 10375870779325353449
11456790 92 10952047870904512110
12013929 2 17346880027541815873
12013929 94 18271242819866967331
12089408 11 18114177528062230202
12144603 126 18113336384070146953
12522641 33 17749389248253894986
12539745 222 16343712001525266569
12664476 115 17385441030015478676
13553643 46 14201400495716151422
13947947 74 17894912949252380768
14251764 46 17775283859373220168
14344974 52 14779271938258767833
150020 25 17988638614348673378
15183329 4 17458613524569680963
15247644 1 15913329095992655124
15461852 350 18411702084081757376
15510794 2 17632859720043649390
16992752 21 18412265021293124000
1754911 235 18187086165674989876
19315958 150 13479131286013256512
20105231 36 17203613675586130198
21591340 7 10807930471057122436
22164985 6 18040145228547460694
24893992 56 9295277348848787756
335507 130 16732983115556080495
395649 100 17022625311724611827
4017518 198 17632577158573024599
45377200 153 17703507787626105326
4625314 4 18341893025793250000
5028188 123 18408604785680518831
5381727 24 10447926174530267708
59521270 166 18335135363595207485
6201320 215 10231492782333427435
636775 8 18130793381687368326
6523845 18 16128654137572517794
9937071 3 17132114633434026166

> <PUBCHEM_SHAPE_MULTIPOLES>
720.71
44.26
2.14
1.5
50
0.71
0.3
2.09
18.67
-7.43
0.06
3.84
0.07
-2.13

> <PUBCHEM_SHAPE_SELFOVERLAP>
1594.189

> <PUBCHEM_SHAPE_VOLUME>
385.7

> <PUBCHEM_COORDINATE_TYPE>
2
5
10

$$$$
