REMARK  Name = 124136
REMARK  7 active torsions:
REMARK  status: ('A' for Active; 'I' for Inactive)
REMARK    1  A    between atoms: C_6  and  O_17
REMARK    2  A    between atoms: C_8  and  C_21
REMARK    3  A    between atoms: C_11  and  O_19
REMARK    4  A    between atoms: C_13  and  C_28
REMARK    5  A    between atoms: C_21  and  O_22
REMARK    6  A    between atoms: O_22  and  C_25
REMARK    7  A    between atoms: C_28  and  O_29
REMARK                            x       y       z     vdW  Elec       q    Type
REMARK                         _______ _______ _______ _____ _____    ______ ____
ROOT
ATOM      1  O   UNL     1      -1.647  -1.217  -1.302  0.00  0.00    -0.236 OA
ATOM      2  N   UNL     1      -3.906  -1.673   0.570  0.00  0.00    +0.388 N 
ATOM      3  N   UNL     1      -1.842   0.167  -1.118  0.00  0.00    -0.239 N 
ATOM      4  C   UNL     1      -2.522  -1.416   0.966  0.00  0.00    -0.024 C 
ATOM      5  C   UNL     1      -3.462  -0.284   0.607  0.00  0.00    -0.051 C 
ATOM      6  C   UNL     1      -1.401  -1.787   0.004  0.00  0.00    +0.196 C 
ATOM      7  C   UNL     1      -3.216   0.439  -0.686  0.00  0.00    +0.109 C 
ATOM      8  C   UNL     1      -0.008  -1.280   0.499  0.00  0.00    +0.122 C 
ATOM      9  C   UNL     1       0.084   0.234   0.363  0.00  0.00    +0.037 C 
ATOM     10  C   UNL     1      -0.839   0.914  -0.457  0.00  0.00    +0.081 C 
ATOM     11  C   UNL     1       1.061   0.960   1.059  0.00  0.00    +0.131 C 
ATOM     12  C   UNL     1      -0.766   2.309  -0.566  0.00  0.00    +0.017 C 
ATOM     13  C   UNL     1       0.215   3.020   0.125  0.00  0.00    +0.011 C 
ATOM     14  C   UNL     1       1.126   2.348   0.937  0.00  0.00    +0.035 C 
ATOM     15  H   UNL     1      -4.575  -2.006   1.265  0.00  0.00    -0.084 HD
ATOM     16  H   UNL     1      -4.342  -2.258  -0.143  0.00  0.00    -0.084 HD
ENDROOT
BRANCH   6  17
ATOM     17  O   UNL     1      -1.407  -3.214  -0.093  0.00  0.00    -0.363 OA
ATOM     18  H   UNL     1      -2.276  -3.514  -0.401  0.00  0.00    +0.213 HD
ENDBRANCH   6  17
BRANCH  11  19
ATOM     19  O   UNL     1       1.952   0.337   1.881  0.00  0.00    -0.506 OA
ATOM     20  H   UNL     1       1.927  -0.595   1.979  0.00  0.00    +0.292 HD
ENDBRANCH  11  19
BRANCH   8  21
ATOM     21  C   UNL     1       1.138  -1.909  -0.319  0.00  0.00    +0.219 C 
BRANCH  21  22
ATOM     22  O   UNL     1       2.358  -1.424   0.199  0.00  0.00    -0.434 OA
BRANCH  22  25
ATOM     23  O   UNL     1       3.529  -2.660  -1.350  0.00  0.00    -0.227 OA
ATOM     24  N   UNL     1       4.622  -1.337   0.180  0.00  0.00    -0.295 N 
ATOM     25  C   UNL     1       3.504  -1.876  -0.407  0.00  0.00    +0.398 C 
ATOM     26  H   UNL     1       4.529  -0.713   0.936  0.00  0.00    +0.148 HD
ATOM     27  H   UNL     1       5.517  -1.575  -0.154  0.00  0.00    +0.148 HD
ENDBRANCH  22  25
ENDBRANCH  21  22
ENDBRANCH   8  21
BRANCH  13  28
ATOM     28  C   UNL     1       0.286   4.505  -0.003  0.00  0.00    +0.164 C 
BRANCH  28  29
ATOM     29  O   UNL     1       1.140   4.845  -1.088  0.00  0.00    -0.377 OA
ATOM     30  H   UNL     1       1.188   5.810  -1.172  0.00  0.00    +0.211 HD
ENDBRANCH  28  29
ENDBRANCH  13  28
TORSDOF 7
