REMARK  Name = 124129
REMARK  8 active torsions:
REMARK  status: ('A' for Active; 'I' for Inactive)
REMARK    1  A    between atoms: C_1  and  N_29
REMARK    2  A    between atoms: C_3  and  C_9
REMARK    3  A    between atoms: C_5  and  N_26
REMARK    4  A    between atoms: N_8  and  C_11
REMARK    5  A    between atoms: C_12  and  N_17
REMARK    6  A    between atoms: N_17  and  C_20
REMARK    7  A    between atoms: N_29  and  C_34
REMARK    8  A    between atoms: C_39  and  N_42
REMARK                            x       y       z     vdW  Elec       q    Type
REMARK                         _______ _______ _______ _____ _____    ______ ____
ROOT
ATOM      1  C   UNL     1      -3.192   0.739   0.572  0.00  0.00    +0.050 C 
ATOM      2  C   UNL     1      -2.565   0.126  -0.516  0.00  0.00    +0.029 C 
ATOM      3  C   UNL     1      -0.413   0.853   0.306  0.00  0.00    +0.067 C 
ATOM      4  C   UNL     1      -2.422   1.408   1.527  0.00  0.00    +0.015 C 
ATOM      5  C   UNL     1      -1.178   0.183  -0.649  0.00  0.00    +0.047 C 
ATOM      6  C   UNL     1      -1.035   1.465   1.394  0.00  0.00    +0.007 C 
ENDROOT
BRANCH   3   9
ATOM      7  O   UNL     1       1.545   1.892  -0.400  0.00  0.00    -0.270 OA
ATOM      8  N   UNL     1       1.752  -0.105   0.814  0.00  0.00    -0.280 N 
ATOM      9  C   UNL     1       1.039   0.930   0.197  0.00  0.00    +0.251 C 
ATOM     10  H   UNL     1       1.208  -0.801   1.249  0.00  0.00    +0.155 HD
BRANCH   8  11
ATOM     11  C   UNL     1       3.155  -0.281   0.892  0.00  0.00    +0.051 C 
ATOM     12  C   UNL     1       5.898  -0.627   1.044  0.00  0.00    +0.048 C 
ATOM     13  C   UNL     1       3.662  -1.386   1.556  0.00  0.00    +0.016 C 
ATOM     14  C   UNL     1       3.988   0.654   0.304  0.00  0.00    +0.016 C 
ATOM     15  C   UNL     1       5.044  -1.560   1.632  0.00  0.00    +0.016 C 
ATOM     16  C   UNL     1       5.370   0.480   0.380  0.00  0.00    +0.016 C 
BRANCH  12  17
ATOM     17  N   UNL     1       7.295  -0.804   1.121  0.00  0.00    -0.313 N 
ATOM     18  H   UNL     1       7.590  -1.277   1.932  0.00  0.00    +0.152 HD
BRANCH  17  20
ATOM     19  N   UNL     1      10.399   0.280  -1.395  0.00  0.00    -0.301 N 
ATOM     20  C   UNL     1       8.351  -0.435   0.265  0.00  0.00    +0.047 C 
ATOM     21  C   UNL     1       9.611  -0.156   0.789  0.00  0.00    +0.010 C 
ATOM     22  C   UNL     1       8.139  -0.349  -1.108  0.00  0.00    +0.030 C 
ATOM     23  C   UNL     1      10.632   0.204  -0.078  0.00  0.00    +0.119 C 
ATOM     24  C   UNL     1       9.198   0.017  -1.928  0.00  0.00    +0.063 C 
ATOM     25  C   UNL     1      11.493   0.662  -2.283  0.00  0.00    +0.113 C 
ENDBRANCH  17  20
ENDBRANCH  12  17
ENDBRANCH   8  11
ENDBRANCH   3   9
BRANCH   5  26
ATOM     26  N   UNL     1      -0.567  -0.444  -1.758  0.00  0.00    -0.357 N 
ATOM     27  H   UNL     1      -1.119  -0.913  -2.424  0.00  0.00    +0.142 HD
ATOM     28  H   UNL     1       0.412  -0.412  -1.864  0.00  0.00    +0.142 HD
ENDBRANCH   5  26
BRANCH   1  29
ATOM     29  N   UNL     1      -4.590   0.681   0.706  0.00  0.00    -0.313 N 
ATOM     30  H   UNL     1      -4.976   1.461   1.168  0.00  0.00    +0.152 HD
BRANCH  29  34
ATOM     31  N   UNL     1      -7.341  -2.200  -0.457  0.00  0.00    -0.299 N 
ATOM     32  C   UNL     1      -6.862   0.088  -0.025  0.00  0.00    +0.014 C 
ATOM     33  C   UNL     1      -7.767  -0.923  -0.415  0.00  0.00    +0.119 C 
ATOM     34  C   UNL     1      -5.550  -0.278   0.306  0.00  0.00    +0.047 C 
ATOM     35  C   UNL     1      -5.161  -1.611   0.247  0.00  0.00    +0.030 C 
ATOM     36  C   UNL     1      -7.309   1.418   0.017  0.00  0.00    +0.013 C 
ATOM     37  C   UNL     1      -6.090  -2.562  -0.142  0.00  0.00    +0.063 C 
ATOM     38  C   UNL     1      -9.085  -0.602  -0.754  0.00  0.00    -0.001 C 
ATOM     39  C   UNL     1      -8.627   1.732  -0.323  0.00  0.00    +0.041 C 
ATOM     40  C   UNL     1      -9.512   0.725  -0.707  0.00  0.00    +0.011 C 
ATOM     41  C   UNL     1      -8.242  -3.288  -0.855  0.00  0.00    +0.113 C 
BRANCH  39  42
ATOM     42  N   UNL     1      -9.066   3.072  -0.276  0.00  0.00    -0.357 N 
ATOM     43  H   UNL     1      -8.443   3.785  -0.005  0.00  0.00    +0.142 HD
ATOM     44  H   UNL     1      -9.995   3.295  -0.515  0.00  0.00    +0.142 HD
ENDBRANCH  39  42
ENDBRANCH  29  34
ENDBRANCH   1  29
TORSDOF 8
