124126
  -OEChem-03292013323D

 47 49  0     1  0  0  0  0  0999 V2000
    2.6974    0.0608    0.3871 S   0  0  0  0  0  0  0  0  0  0  0  0
   -0.1501   -0.9695    0.9061 O   0  0  0  0  0  0  0  0  0  0  0  0
   -2.3920   -2.9704   -1.0665 O   0  0  0  0  0  0  0  0  0  0  0  0
   -0.4154   -3.9801    0.5016 O   0  0  0  0  0  0  0  0  0  0  0  0
    6.0869   -0.9272    0.4690 O   0  0  0  0  0  0  0  0  0  0  0  0
    7.5542    0.4192   -0.6138 O   0  0  0  0  0  0  0  0  0  0  0  0
   -2.1857   -0.0294    0.1297 N   0  0  0  0  0  0  0  0  0  0  0  0
   -2.5171    2.0886   -0.4695 N   0  0  0  0  0  0  0  0  0  0  0  0
   -6.0517    1.2710    0.2791 N   0  0  0  0  0  0  0  0  0  0  0  0
   -5.2268    3.3808   -0.4803 N   0  0  0  0  0  0  0  0  0  0  0  0
    6.5739    2.5484    0.8374 N   0  0  0  0  0  0  0  0  0  0  0  0
   -1.2652   -2.1561   -0.8136 C   0  0  2  0  0  0  0  0  0  0  0  0
   -0.0377   -2.9494   -0.4110 C   0  0  1  0  0  0  0  0  0  0  0  0
   -1.4673   -1.2711    0.4069 C   0  0  1  0  0  0  0  0  0  0  0  0
    0.7906   -1.9095    0.3371 C   0  0  1  0  0  0  0  0  0  0  0  0
    1.7435   -1.1448   -0.5710 C   0  0  0  0  0  0  0  0  0  0  0  0
   -3.5360    0.1840    0.2549 C   0  0  0  0  0  0  0  0  0  0  0  0
   -1.6222    1.1398   -0.3063 C   0  0  0  0  0  0  0  0  0  0  0  0
   -3.7160    1.5104   -0.1240 C   0  0  0  0  0  0  0  0  0  0  0  0
    3.6819    0.7541   -0.9616 C   0  0  0  0  0  0  0  0  0  0  0  0
   -4.5804   -0.6390    0.6531 C   0  0  0  0  0  0  0  0  0  0  0  0
    4.6478    1.8498   -0.5012 C   0  0  0  0  0  0  0  0  0  0  0  0
   -5.0052    2.0437   -0.1043 C   0  0  0  0  0  0  0  0  0  0  0  0
    5.6716    1.4259    0.5617 C   0  0  1  0  0  0  0  0  0  0  0  0
   -5.8202   -0.0161    0.6383 C   0  0  0  0  0  0  0  0  0  0  0  0
    6.5411    0.2862    0.0612 C   0  0  0  0  0  0  0  0  0  0  0  0
   -1.0553   -1.5601   -1.7091 H   0  0  0  0  0  0  0  0  0  0  0  0
    0.4849   -3.4185   -1.2497 H   0  0  0  0  0  0  0  0  0  0  0  0
   -2.0113   -1.7833    1.2094 H   0  0  0  0  0  0  0  0  0  0  0  0
    1.3375   -2.3741    1.1667 H   0  0  0  0  0  0  0  0  0  0  0  0
    1.1899   -0.5973   -1.3405 H   0  0  0  0  0  0  0  0  0  0  0  0
    2.4351   -1.8386   -1.0595 H   0  0  0  0  0  0  0  0  0  0  0  0
   -2.6243   -3.4348   -0.2448 H   0  0  0  0  0  0  0  0  0  0  0  0
   -0.9193   -4.6417   -0.0024 H   0  0  0  0  0  0  0  0  0  0  0  0
   -0.5626    1.2452   -0.4940 H   0  0  0  0  0  0  0  0  0  0  0  0
    2.9985    1.1816   -1.7035 H   0  0  0  0  0  0  0  0  0  0  0  0
    4.2354   -0.0523   -1.4534 H   0  0  0  0  0  0  0  0  0  0  0  0
   -4.4491   -1.6712    0.9474 H   0  0  0  0  0  0  0  0  0  0  0  0
    4.0666    2.7035   -0.1265 H   0  0  0  0  0  0  0  0  0  0  0  0
    5.1776    2.2116   -1.3936 H   0  0  0  0  0  0  0  0  0  0  0  0
    5.1935    1.1381    1.5033 H   0  0  0  0  0  0  0  0  0  0  0  0
   -6.7087   -0.5681    0.9313 H   0  0  0  0  0  0  0  0  0  0  0  0
   -4.4537    3.9652   -0.7684 H   0  0  0  0  0  0  0  0  0  0  0  0
   -6.1680    3.7493   -0.4602 H   0  0  0  0  0  0  0  0  0  0  0  0
    6.0335    3.3457    1.1712 H   0  0  0  0  0  0  0  0  0  0  0  0
    7.2073    2.2985    1.5962 H   0  0  0  0  0  0  0  0  0  0  0  0
    6.6589   -1.6577    0.1504 H   0  0  0  0  0  0  0  0  0  0  0  0
  1 16  1  0  0  0  0
  1 20  1  0  0  0  0
  2 14  1  0  0  0  0
  2 15  1  0  0  0  0
  3 12  1  0  0  0  0
  3 33  1  0  0  0  0
  4 13  1  0  0  0  0
  4 34  1  0  0  0  0
  5 26  1  0  0  0  0
  5 47  1  0  0  0  0
  6 26  2  0  0  0  0
  7 14  1  0  0  0  0
  7 17  1  0  0  0  0
  7 18  1  0  0  0  0
  8 18  2  0  0  0  0
  8 19  1  0  0  0  0
  9 23  2  0  0  0  0
  9 25  1  0  0  0  0
 10 23  1  0  0  0  0
 10 43  1  0  0  0  0
 10 44  1  0  0  0  0
 11 24  1  0  0  0  0
 11 45  1  0  0  0  0
 11 46  1  0  0  0  0
 12 13  1  0  0  0  0
 12 14  1  0  0  0  0
 12 27  1  0  0  0  0
 13 15  1  0  0  0  0
 13 28  1  0  0  0  0
 14 29  1  0  0  0  0
 15 16  1  0  0  0  0
 15 30  1  0  0  0  0
 16 31  1  0  0  0  0
 16 32  1  0  0  0  0
 17 19  2  0  0  0  0
 17 21  1  0  0  0  0
 18 35  1  0  0  0  0
 19 23  1  0  0  0  0
 20 22  1  0  0  0  0
 20 36  1  0  0  0  0
 20 37  1  0  0  0  0
 21 25  2  0  0  0  0
 21 38  1  0  0  0  0
 22 24  1  0  0  0  0
 22 39  1  0  0  0  0
 22 40  1  0  0  0  0
 24 26  1  0  0  0  0
 24 41  1  0  0  0  0
 25 42  1  0  0  0  0
M  END
> <PUBCHEM_COMPOUND_CID>
124126

> <PUBCHEM_CONFORMER_RMSD>
1

> <PUBCHEM_CONFORMER_DIVERSEORDER>
127
723
347
763
242
88
36
281
82
912
675
303
96
121
157
324
308
889
897
161
35
137
61
306
796
779
255
630
238
164
447
211
816
293
69
688
789
514
315
783
398
222
350
854
417
328
873
162
909
271
5
150
408
14
820
799
31
413
449
906
674
233
612
470
478
254
471
591
666
807
700
97
823
43
352
574
542
650
89
474
403
601
360
729
569
219
393
401
331
673
856
658
9
356
625
426
833
83
864
672
590
123
879
200
476
913
583
216
855
142
197
524
90
46
237
775
740
726
175
759
99
499
275
652
146
374
506
405
911
633
690
272
209
98
145
580
120
294
791
841
353
267
63
564
429
556
757
462
80
74
866
77
493
433
832
568
198
203
485
768
110
346
10
679
867
704
915
665
228
91
280
152
678
292
78
202
750
788
886
731
454
166
773
227
456
845
905
561
715
745
784
144
218
283
104
720
321
18
217
686
865
287
234
858
176
639
567
501
204
133
546
57
155
257
54
539
572
119
508
215
301
92
609
243
256
719
611
370
795
270
65
770
49
440
642
592
705
11
540
535
208
8
573
504
846
278
239
136
537
368
58
42
118
377
190
302
872
279
20
610
874
600
529
28
762
40
777
388
378
7
349
207
892
1
885
81
667
108
232
437
66
800
714
205
159
516
553
488
907
6
334
221
587
16
21
532
380
345
878
296
339
738
3
579
490
13
457
261
882

> <PUBCHEM_MMFF94_PARTIAL_CHARGES>
35
1 -0.46
10 -0.9
11 -0.99
12 0.28
13 0.28
14 0.54
15 0.28
16 0.23
17 -0.15
18 0.04
19 0.23
2 -0.56
20 0.23
21 -0.15
23 0.41
24 0.33
25 0.16
26 0.66
3 -0.68
33 0.4
34 0.4
35 0.15
38 0.15
4 -0.68
42 0.15
43 0.4
44 0.4
45 0.36
46 0.36
47 0.5
5 -0.65
6 -0.57
7 0.05
8 -0.57
9 -0.62

> <PUBCHEM_EFFECTIVE_ROTOR_COUNT>
8

> <PUBCHEM_PHARMACOPHORE_FEATURES>
17
1 10 donor
1 11 cation
1 11 donor
1 2 acceptor
1 3 acceptor
1 3 donor
1 4 acceptor
1 4 donor
1 5 acceptor
1 6 acceptor
3 5 6 26 anion
3 7 8 18 cation
3 9 10 23 cation
4 1 16 20 22 hydrophobe
5 2 12 13 14 15 rings
5 7 8 17 18 19 rings
6 9 17 19 21 23 25 rings

> <PUBCHEM_HEAVY_ATOM_COUNT>
26

> <PUBCHEM_ATOM_DEF_STEREO_COUNT>
4

> <PUBCHEM_ATOM_UDEF_STEREO_COUNT>
1

> <PUBCHEM_BOND_DEF_STEREO_COUNT>
0

> <PUBCHEM_BOND_UDEF_STEREO_COUNT>
0

> <PUBCHEM_ISOTOPIC_ATOM_COUNT>
0

> <PUBCHEM_COMPONENT_COUNT>
1

> <PUBCHEM_CACTVS_TAUTO_COUNT>
2

> <PUBCHEM_CONFORMER_ID>
0001E4DE0000007F

> <PUBCHEM_MMFF94_ENERGY>
54.7265

> <PUBCHEM_FEATURE_SELFOVERLAP>
86.458

> <PUBCHEM_SHAPE_FINGERPRINT>
10165383 225 18272374161596951489
10411042 1 17762338424449376175
12107183 9 18335691703847466906
12293681 160 17917994949235115418
13402501 40 18412545414196623096
14257110 125 18410012122014744325
1454969 45 18411412935027260255
14790565 3 18411142420211334233
15183329 4 18131637772974985744
15961568 22 18114745936956482317
18608769 82 18270401710883423731
19611394 137 17896898731903624203
20567600 254 18408037394809989189
21033648 144 18115583730657140733
21236236 1 18271242845230459358
21756936 100 18410851096563189166
23198884 109 16630533929104386467
23227448 37 18341615983349084237
23559900 14 17832142724193181323
2838139 119 18413102866412115988
4073 2 18189336943903741306
5104073 3 18042696001050478033
57724786 102 17241617289772099916
59682541 35 18261684735701448921
5969126 39 17985259931466503503
59755656 520 18408599279817476910
6327066 14 18410569565757107229
6669772 16 18059299768611772230
67856867 119 18117838802956583579
7808743 9 18411696620983447283
9981440 41 18260839184968016155

> <PUBCHEM_SHAPE_MULTIPOLES>
484.67
17.41
3.62
0.88
21.84
1.65
0.04
-14.19
-1.72
-2.26
0.41
0.2
0.11
0.5

> <PUBCHEM_SHAPE_SELFOVERLAP>
1014.235

> <PUBCHEM_SHAPE_VOLUME>
277.5

> <PUBCHEM_COORDINATE_TYPE>
2
5
10

$$$$
