REMARK  Name = 124201523
REMARK  0 active torsions:
REMARK  status: ('A' for Active; 'I' for Inactive)
REMARK                            x       y       z     vdW  Elec       q    Type
REMARK                         _______ _______ _______ _____ _____    ______ ____
ROOT
ATOM      1  O   PRO A   1       0.609  -1.578   0.722  0.00  0.00    -0.273 OA
ATOM      2  O   ALA A   5       3.298   1.571   1.654  0.00  0.00    -0.273 OA
ATOM      3  O   GLY A   2      -1.658  -0.138  -2.131  0.00  0.00    -0.273 OA
ATOM      4  O   PRO A   3      -1.994   0.694   1.796  0.00  0.00    -0.273 OA
ATOM      5  O   GLY A   4      -0.268   2.796  -1.678  0.00  0.00    -0.273 OA
ATOM      6  N   PRO A   1       3.060  -0.381   0.459  0.00  0.00    -0.272 N 
ATOM      7  N   PRO A   3      -2.691  -1.121  -0.316  0.00  0.00    -0.272 N 
ATOM      8  N   GLY A   2       0.443  -1.897  -1.570  0.00  0.00    -0.295 N 
ATOM      9  N   GLY A   4      -2.399   2.199   0.080  0.00  0.00    -0.295 N 
ATOM     10  N   ALA A   5       0.907   2.296   0.262  0.00  0.00    -0.297 N 
ATOM     11  CA  PRO A   1       2.579  -1.212  -0.647  0.00  0.00    +0.152 C 
ATOM     12  CB  PRO A   1       3.448  -2.469  -0.580  0.00  0.00    +0.031 C 
ATOM     13  CA  PRO A   3      -3.507   0.045   0.017  0.00  0.00    +0.152 C 
ATOM     14  CG  PRO A   1       3.759  -2.601   0.907  0.00  0.00    +0.024 C 
ATOM     15  CD  PRO A   1       3.903  -1.157   1.363  0.00  0.00    +0.094 C 
ATOM     16  CB  PRO A   3      -4.619  -0.502   0.905  0.00  0.00    +0.031 C 
ATOM     17  CG  PRO A   3      -3.992  -1.720   1.576  0.00  0.00    +0.024 C 
ATOM     18  CD  PRO A   3      -3.037  -2.265   0.525  0.00  0.00    +0.094 C 
ATOM     19  C   PRO A   1       1.113  -1.563  -0.400  0.00  0.00    +0.241 C 
ATOM     20  C   ALA A   5       2.870   0.977   0.658  0.00  0.00    +0.244 C 
ATOM     21  C   GLY A   2      -1.801  -1.108  -1.381  0.00  0.00    +0.246 C 
ATOM     22  C   PRO A   3      -2.579   1.003   0.760  0.00  0.00    +0.241 C 
ATOM     23  CA  ALA A   5       2.079   1.739  -0.401  0.00  0.00    +0.149 C 
ATOM     24  CA  GLY A   2      -0.938  -2.342  -1.568  0.00  0.00    +0.176 C 
ATOM     25  CB  ALA A   5       2.959   2.836  -0.994  0.00  0.00    +0.031 C 
ATOM     26  CA  GLY A   4      -1.357   3.141   0.432  0.00  0.00    +0.176 C 
ATOM     27  C   GLY A   4      -0.189   2.758  -0.450  0.00  0.00    +0.243 C 
ATOM     28  H   GLY A   2       0.921  -1.830  -2.428  0.00  0.00    +0.150 HD
ATOM     29  H   GLY A   4      -3.000   2.415  -0.669  0.00  0.00    +0.150 HD
ATOM     30  H   ALA A   5       0.893   2.345   1.245  0.00  0.00    +0.150 HD
ENDROOT
TORSDOF 0
