REMARK  Name = 124202093
REMARK  11 active torsions:
REMARK  status: ('A' for Active; 'I' for Inactive)
REMARK    1  A    between atoms: C_1  and  C_3
REMARK    2  A    between atoms: C_1  and  C_17
REMARK    3  A    between atoms: C_5  and  C_13
REMARK    4  A    between atoms: C_6  and  O_10
REMARK    5  A    between atoms: C_13  and  O_14
REMARK    6  A    between atoms: C_17  and  O_18
REMARK    7  A    between atoms: O_18  and  C_19
REMARK    8  A    between atoms: C_19  and  C_20
REMARK    9  A    between atoms: C_20  and  C_21
REMARK   10  A    between atoms: C_24  and  O_27
REMARK   11  A    between atoms: C_26  and  O_29
REMARK                            x       y       z     vdW  Elec       q    Type
REMARK                         _______ _______ _______ _____ _____    ______ ____
ROOT
ATOM      1  C   UNL     1       1.265   0.842   1.130  0.00  0.00    +0.118 C 
ENDROOT
BRANCH   1   3
ATOM      2  O   UNL     1       2.474  -2.042  -1.703  0.00  0.00    -0.446 OA
ATOM      3  C   UNL     1       1.972  -0.473   0.761  0.00  0.00    +0.067 C 
ATOM      4  C   UNL     1       1.023  -1.541   0.215  0.00  0.00    +0.025 C 
ATOM      5  C   UNL     1       3.092  -0.239  -0.228  0.00  0.00    +0.094 C 
ATOM      6  C   UNL     1       1.690  -2.605  -0.635  0.00  0.00    +0.305 C 
ATOM      7  C   UNL     1       3.245  -0.967  -1.342  0.00  0.00    +0.178 C 
ATOM      8  C   UNL     1      -0.308  -1.568   0.400  0.00  0.00    -0.028 C 
ATOM      9  C   UNL     1      -1.195  -2.646  -0.117  0.00  0.00    +0.030 C 
BRANCH   6  10
ATOM     10  O   UNL     1       2.469  -3.496   0.167  0.00  0.00    -0.347 OA
ATOM     11  H   UNL     1       2.883  -4.164  -0.402  0.00  0.00    +0.214 HD
ENDBRANCH   6  10
BRANCH   5  13
ATOM     12  O   UNL     1       4.324   1.714  -0.769  0.00  0.00    -0.245 OA
ATOM     13  C   UNL     1       4.109   0.791   0.003  0.00  0.00    +0.341 C 
BRANCH  13  14
ATOM     14  O   UNL     1       4.732   0.532   1.180  0.00  0.00    -0.441 OA
ATOM     15  C   UNL     1       5.760   1.458   1.548  0.00  0.00    +0.256 C 
ENDBRANCH  13  14
ENDBRANCH   5  13
ENDBRANCH   1   3
BRANCH   1  17
ATOM     16  O   UNL     1       1.082   1.427  -1.223  0.00  0.00    -0.250 OA
ATOM     17  C   UNL     1       0.658   1.504  -0.078  0.00  0.00    +0.318 C 
BRANCH  17  18
ATOM     18  O   UNL     1      -0.445   2.205   0.322  0.00  0.00    -0.448 OA
BRANCH  18  19
ATOM     19  C   UNL     1      -1.143   2.899  -0.716  0.00  0.00    +0.213 C 
BRANCH  19  20
ATOM     20  C   UNL     1      -2.626   2.989  -0.369  0.00  0.00    +0.074 C 
BRANCH  20  21
ATOM     21  C   UNL     1      -3.271   1.629  -0.254  0.00  0.00    -0.015 C 
ATOM     22  C   UNL     1      -3.296   0.971   0.975  0.00  0.00    +0.036 C 
ATOM     23  C   UNL     1      -3.844   1.032  -1.377  0.00  0.00    -0.001 C 
ATOM     24  C   UNL     1      -3.894  -0.285   1.082  0.00  0.00    +0.167 C 
ATOM     25  C   UNL     1      -4.441  -0.224  -1.270  0.00  0.00    +0.039 C 
ATOM     26  C   UNL     1      -4.466  -0.882  -0.041  0.00  0.00    +0.167 C 
BRANCH  24  27
ATOM     27  O   UNL     1      -3.913  -0.917   2.289  0.00  0.00    -0.503 OA
ATOM     28  H   UNL     1      -3.526  -0.509   3.038  0.00  0.00    +0.292 HD
ENDBRANCH  24  27
BRANCH  26  29
ATOM     29  O   UNL     1      -5.053  -2.108   0.051  0.00  0.00    -0.503 OA
ATOM     30  H   UNL     1      -5.074  -2.557   0.873  0.00  0.00    +0.292 HD
ENDBRANCH  26  29
ENDBRANCH  20  21
ENDBRANCH  19  20
ENDBRANCH  18  19
ENDBRANCH  17  18
ENDBRANCH   1  17
TORSDOF 11
