REMARK  Name = 124201
REMARK  4 active torsions:
REMARK  status: ('A' for Active; 'I' for Inactive)
REMARK    1  A    between atoms: C_7  and  C_16
REMARK    2  A    between atoms: C_17  and  O_20
REMARK    3  A    between atoms: C_19  and  C_22
REMARK    4  A    between atoms: C_22  and  O_23
REMARK                            x       y       z     vdW  Elec       q    Type
REMARK                         _______ _______ _______ _____ _____    ______ ____
ROOT
ATOM      1 CL   UNL     1      -1.895  -3.369   0.338  0.00  0.00    +0.024 Cl
ATOM      2  N   UNL     1      -0.680   2.415  -0.300  0.00  0.00    -0.249 N 
ATOM      3  N   UNL     1      -2.018   2.274  -0.206  0.00  0.00    -0.179 NA
ATOM      4  N   UNL     1      -0.756  -1.045   0.042  0.00  0.00    -0.332 NA
ATOM      5  N   UNL     1      -3.239  -1.138   0.202  0.00  0.00    -0.314 NA
ATOM      6  N   UNL     1      -4.662   0.808   0.097  0.00  0.00    -0.331 N 
ATOM      7  C   UNL     1       0.015   1.248  -0.228  0.00  0.00    +0.169 C 
ATOM      8  C   UNL     1      -0.937   0.288  -0.077  0.00  0.00    +0.167 C 
ATOM      9  C   UNL     1      -2.211   0.951  -0.065  0.00  0.00    +0.170 C 
ATOM     10  C   UNL     1      -3.392   0.210   0.079  0.00  0.00    +0.212 C 
ATOM     11  C   UNL     1      -1.969  -1.660   0.176  0.00  0.00    +0.206 C 
ATOM     12  H   UNL     1      -0.243   3.290  -0.412  0.00  0.00    +0.169 HD
ATOM     13  H   UNL     1      -5.467   0.251   0.200  0.00  0.00    +0.145 HD
ATOM     14  H   UNL     1      -4.747   1.785   0.006  0.00  0.00    +0.145 HD
ENDROOT
BRANCH   7  16
ATOM     15  O   UNL     1       1.915  -0.022  -0.967  0.00  0.00    -0.351 OA
ATOM     16  C   UNL     1       1.518   1.198  -0.315  0.00  0.00    +0.144 C 
ATOM     17  C   UNL     1       3.501   0.475   0.742  0.00  0.00    +0.142 C 
ATOM     18  C   UNL     1       2.215   1.213   1.038  0.00  0.00    +0.064 C 
ATOM     19  C   UNL     1       3.086  -0.550  -0.308  0.00  0.00    +0.171 C 
BRANCH  17  20
ATOM     20  O   UNL     1       4.458   1.378   0.190  0.00  0.00    -0.382 OA
ATOM     21  H   UNL     1       4.717   2.026   0.864  0.00  0.00    +0.210 HD
ENDBRANCH  17  20
BRANCH  19  22
ATOM     22  C   UNL     1       2.716  -1.895   0.301  0.00  0.00    +0.169 C 
BRANCH  22  23
ATOM     23  O   UNL     1       2.334  -2.779  -0.740  0.00  0.00    -0.379 OA
ATOM     24  H   UNL     1       2.096  -3.640  -0.361  0.00  0.00    +0.211 HD
ENDBRANCH  22  23
ENDBRANCH  19  22
ENDBRANCH   7  16
TORSDOF 4
