REMARK  Name = 124201527
REMARK  9 active torsions:
REMARK  status: ('A' for Active; 'I' for Inactive)
REMARK    1  A    between atoms: C_4  and  O_22
REMARK    2  A    between atoms: C_5  and  O_24
REMARK    3  A    between atoms: C_6  and  O_36
REMARK    4  A    between atoms: C_10  and  C_30
REMARK    5  A    between atoms: C_11  and  O_26
REMARK    6  A    between atoms: C_13  and  O_28
REMARK    7  A    between atoms: C_30  and  C_32
REMARK    8  A    between atoms: C_32  and  O_34
REMARK    9  A    between atoms: O_36  and  C_38
REMARK                            x       y       z     vdW  Elec       q    Type
REMARK                         _______ _______ _______ _____ _____    ______ ____
ROOT
ATOM      1  O   UNL     1       1.521  -0.965   0.575  0.00  0.00    -0.452 OA
ATOM      2  O   UNL     1       0.723  -1.911  -1.375  0.00  0.00    -0.250 OA
ATOM      3  C   UNL     1       0.142   1.977  -0.600  0.00  0.00    +0.069 C 
ATOM      4  C   UNL     1      -2.321   1.964  -1.567  0.00  0.00    +0.113 C 
ATOM      5  C   UNL     1      -1.381   2.190  -0.345  0.00  0.00    +0.138 C 
ATOM      6  C   UNL     1       0.964   1.923   0.726  0.00  0.00    +0.174 C 
ATOM      7  C   UNL     1       2.401   1.325   0.569  0.00  0.00    +0.080 C 
ATOM      8  C   UNL     1      -3.666   1.269  -1.193  0.00  0.00    +0.032 C 
ATOM      9  C   UNL     1      -3.716  -0.050  -0.347  0.00  0.00    +0.029 C 
ATOM     10  C   UNL     1       2.416  -0.070  -0.123  0.00  0.00    +0.174 C 
ATOM     11  C   UNL     1      -2.578  -1.084  -0.592  0.00  0.00    +0.113 C 
ATOM     12  C   UNL     1      -2.646  -2.376   0.276  0.00  0.00    +0.054 C 
ATOM     13  C   UNL     1      -1.367  -3.270   0.127  0.00  0.00    +0.123 C 
ATOM     14  C   UNL     1       0.741   3.016  -1.553  0.00  0.00    +0.006 C 
ATOM     15  C   UNL     1      -2.668   3.286  -2.285  0.00  0.00    +0.032 C 
ATOM     16  C   UNL     1       3.104   1.295   1.937  0.00  0.00    +0.007 C 
ATOM     17  C   UNL     1      -0.101  -2.659   0.800  0.00  0.00    +0.126 C 
ATOM     18  C   UNL     1      -3.926   0.260   1.145  0.00  0.00    +0.003 C 
ATOM     19  C   UNL     1      -3.919  -3.187  -0.038  0.00  0.00    +0.005 C 
ATOM     20  C   UNL     1       0.738  -1.817  -0.156  0.00  0.00    +0.319 C 
ATOM     21  C   UNL     1       0.841  -3.721   1.387  0.00  0.00    +0.014 C 
ENDROOT
BRANCH   4  22
ATOM     22  O   UNL     1      -1.664   1.130  -2.528  0.00  0.00    -0.384 OA
ATOM     23  H   UNL     1      -1.428   0.285  -2.115  0.00  0.00    +0.210 HD
ENDBRANCH   4  22
BRANCH   5  24
ATOM     24  O   UNL     1      -1.598   3.461   0.265  0.00  0.00    -0.382 OA
ATOM     25  H   UNL     1      -0.997   3.565   1.019  0.00  0.00    +0.210 HD
ENDBRANCH   5  24
BRANCH  11  26
ATOM     26  O   UNL     1      -2.597  -1.494  -1.962  0.00  0.00    -0.384 OA
ATOM     27  H   UNL     1      -2.556  -0.711  -2.534  0.00  0.00    +0.210 HD
ENDBRANCH  11  26
BRANCH  13  28
ATOM     28  O   UNL     1      -1.621  -4.544   0.732  0.00  0.00    -0.384 OA
ATOM     29  H   UNL     1      -2.406  -4.943   0.327  0.00  0.00    +0.210 HD
ENDBRANCH  13  28
BRANCH  10  30
ATOM     30  C   UNL     1       3.796  -0.723  -0.166  0.00  0.00    +0.067 C 
ATOM     31  C   UNL     1       3.681  -2.125  -0.781  0.00  0.00    +0.006 C 
BRANCH  30  32
ATOM     32  C   UNL     1       4.831   0.123  -0.940  0.00  0.00    +0.114 C 
ATOM     33  C   UNL     1       4.479   0.316  -2.411  0.00  0.00    +0.032 C 
BRANCH  32  34
ATOM     34  O   UNL     1       6.099  -0.531  -0.874  0.00  0.00    -0.384 OA
ATOM     35  H   UNL     1       6.346  -0.666   0.054  0.00  0.00    +0.210 HD
ENDBRANCH  32  34
ENDBRANCH  30  32
ENDBRANCH  10  30
BRANCH   6  36
ATOM     36  O   UNL     1       0.242   1.165   1.700  0.00  0.00    -0.452 OA
BRANCH  36  38
ATOM     37  O   UNL     1       0.073   3.036   3.044  0.00  0.00    -0.250 OA
ATOM     38  C   UNL     1      -0.141   1.854   2.813  0.00  0.00    +0.317 C 
ATOM     39  C   UNL     1      -0.883   0.938   3.739  0.00  0.00    +0.121 C 
ENDBRANCH  36  38
ENDBRANCH   6  36
TORSDOF 9
