REMARK  Name = 124277
REMARK  4 active torsions:
REMARK  status: ('A' for Active; 'I' for Inactive)
REMARK    1  A    between atoms: C_6  and  N_24
REMARK    2  A    between atoms: C_6  and  C_30
REMARK    3  A    between atoms: C_15  and  C_32
REMARK    4  A    between atoms: C_22  and  O_28
REMARK                            x       y       z     vdW  Elec       q    Type
REMARK                         _______ _______ _______ _____ _____    ______ ____
ROOT
ATOM      1  O   UNL     1      -5.434   0.632  -0.364  0.00  0.00    -0.445 OA
ATOM      2  O   UNL     1      -2.123   3.209   0.233  0.00  0.00    -0.270 OA
ATOM      3  O   UNL     1      -6.213  -1.382  -0.930  0.00  0.00    -0.252 OA
ATOM      4  N   UNL     1      -0.631   1.452   0.090  0.00  0.00    -0.249 N 
ATOM      5  N   UNL     1       1.674  -1.303  -0.082  0.00  0.00    -0.405 NA
ATOM      6  C   UNL     1      -3.900  -1.309  -0.219  0.00  0.00    +0.063 C 
ATOM      7  C   UNL     1      -2.772  -0.304  -0.128  0.00  0.00    -0.026 C 
ATOM      8  C   UNL     1      -0.394   0.093  -0.023  0.00  0.00    +0.083 C 
ATOM      9  C   UNL     1       0.636   2.205   0.193  0.00  0.00    +0.127 C 
ATOM     10  C   UNL     1       1.656   1.117   0.128  0.00  0.00    +0.022 C 
ATOM     11  C   UNL     1      -3.024   1.011   0.000  0.00  0.00    +0.070 C 
ATOM     12  C   UNL     1       1.046  -0.123   0.002  0.00  0.00    +0.142 C 
ATOM     13  C   UNL     1      -1.394  -0.785  -0.125  0.00  0.00    +0.012 C 
ATOM     14  C   UNL     1      -1.895   2.007   0.118  0.00  0.00    +0.252 C 
ATOM     15  C   UNL     1       3.029   1.170   0.173  0.00  0.00    -0.034 C 
ATOM     16  C   UNL     1      -4.407   1.553   0.049  0.00  0.00    +0.239 C 
ATOM     17  C   UNL     1      -5.265  -0.694  -0.549  0.00  0.00    +0.302 C 
ATOM     18  C   UNL     1       3.743  -0.037   0.089  0.00  0.00    +0.095 C 
ATOM     19  C   UNL     1       3.022  -1.258  -0.038  0.00  0.00    +0.117 C 
ATOM     20  C   UNL     1       5.146  -0.049   0.129  0.00  0.00    +0.021 C 
ATOM     21  C   UNL     1       3.750  -2.440  -0.119  0.00  0.00    +0.031 C 
ATOM     22  C   UNL     1       5.845  -1.250   0.044  0.00  0.00    +0.130 C 
ATOM     23  C   UNL     1       5.147  -2.445  -0.079  0.00  0.00    +0.039 C 
ENDROOT
BRANCH   6  24
ATOM     24  N   UNL     1      -3.686  -2.298  -1.289  0.00  0.00    +0.392 N 
ATOM     25  H   UNL     1      -2.789  -2.763  -1.148  0.00  0.00    -0.088 HD
ATOM     26  H   UNL     1      -3.686  -1.827  -2.193  0.00  0.00    -0.088 HD
ATOM     27  H   UNL     1      -4.435  -2.991  -1.266  0.00  0.00    -0.088 HD
ENDBRANCH   6  24
BRANCH  22  28
ATOM     28  O   UNL     1       7.205  -1.254   0.084  0.00  0.00    -0.506 OA
ATOM     29  H   UNL     1       7.673  -0.447   0.167  0.00  0.00    +0.292 HD
ENDBRANCH  22  28
BRANCH   6  30
ATOM     30  C   UNL     1      -4.057  -2.054   1.117  0.00  0.00    -0.006 C 
ATOM     31  C   UNL     1      -4.401  -1.095   2.235  0.00  0.00    -0.001 C 
ENDBRANCH   6  30
BRANCH  15  32
ATOM     32  C   UNL     1       3.699   2.498   0.308  0.00  0.00    +0.023 C 
ATOM     33  C   UNL     1       4.000   3.134  -1.045  0.00  0.00    +0.005 C 
ENDBRANCH  15  32
TORSDOF 4
