REMARK  Name = 124211
REMARK  7 active torsions:
REMARK  status: ('A' for Active; 'I' for Inactive)
REMARK    1  A    between atoms: C_5  and  O_22
REMARK    2  A    between atoms: C_6  and  C_12
REMARK    3  A    between atoms: C_7  and  O_28
REMARK    4  A    between atoms: C_8  and  O_24
REMARK    5  A    between atoms: C_10  and  O_26
REMARK    6  A    between atoms: C_13  and  O_18
REMARK    7  A    between atoms: C_14  and  O_20
REMARK                            x       y       z     vdW  Elec       q    Type
REMARK                         _______ _______ _______ _____ _____    ______ ____
ROOT
ATOM      1  O   UNL     1       0.541  -0.479   0.126  0.00  0.00    -0.450 OA
ATOM      2  O   UNL     1      -0.641   3.418   0.002  0.00  0.00    -0.286 OA
ATOM      3  C   UNL     1      -1.266   1.139  -0.013  0.00  0.00    +0.113 A 
ATOM      4  C   UNL     1      -0.793  -0.172   0.035  0.00  0.00    +0.188 A 
ATOM      5  C   UNL     1      -1.691  -1.238  -0.008  0.00  0.00    +0.210 A 
ATOM      6  C   UNL     1       1.457   0.561   0.164  0.00  0.00    +0.154 C 
ATOM      7  C   UNL     1      -2.636   1.393  -0.104  0.00  0.00    +0.177 A 
ATOM      8  C   UNL     1      -3.060  -0.989  -0.100  0.00  0.00    +0.212 A 
ATOM      9  C   UNL     1      -0.297   2.245   0.036  0.00  0.00    +0.205 C 
ATOM     10  C   UNL     1      -3.532   0.324  -0.148  0.00  0.00    +0.209 A 
ATOM     11  C   UNL     1       1.126   1.862   0.131  0.00  0.00    +0.080 C 
ENDROOT
BRANCH   6  12
ATOM     12  C   UNL     1       2.862   0.119   0.267  0.00  0.00    +0.102 C 
ATOM     13  C   UNL     1       3.622  -0.100  -0.888  0.00  0.00    +0.145 C 
ATOM     14  C   UNL     1       3.449  -0.085   1.522  0.00  0.00    +0.139 C 
ATOM     15  C   UNL     1       4.949  -0.518  -0.790  0.00  0.00    +0.037 C 
ATOM     16  C   UNL     1       4.776  -0.502   1.619  0.00  0.00    +0.037 C 
ATOM     17  C   UNL     1       5.526  -0.719   0.464  0.00  0.00    +0.006 C 
BRANCH  13  18
ATOM     18  O   UNL     1       3.084   0.086  -2.128  0.00  0.00    -0.471 OA
ATOM     19  C   UNL     1       3.933  -0.161  -3.245  0.00  0.00    +0.252 C 
ENDBRANCH  13  18
BRANCH  14  20
ATOM     20  O   UNL     1       2.740   0.118   2.669  0.00  0.00    -0.505 OA
ATOM     21  H   UNL     1       1.847   0.399   2.625  0.00  0.00    +0.292 HD
ENDBRANCH  14  20
ENDBRANCH   6  12
BRANCH   5  22
ATOM     22  O   UNL     1      -1.236  -2.523   0.038  0.00  0.00    -0.465 OA
ATOM     23  C   UNL     1      -1.101  -3.115   1.328  0.00  0.00    +0.253 C 
ENDBRANCH   5  22
BRANCH   8  24
ATOM     24  O   UNL     1      -3.941  -2.030  -0.143  0.00  0.00    -0.465 OA
ATOM     25  C   UNL     1      -4.276  -2.541  -1.431  0.00  0.00    +0.253 C 
ENDBRANCH   8  24
BRANCH  10  26
ATOM     26  O   UNL     1      -4.872   0.560  -0.237  0.00  0.00    -0.465 OA
ATOM     27  C   UNL     1      -5.589   0.688   0.988  0.00  0.00    +0.253 C 
ENDBRANCH  10  26
BRANCH   7  28
ATOM     28  O   UNL     1      -3.134   2.661  -0.153  0.00  0.00    -0.503 OA
ATOM     29  H   UNL     1      -2.552   3.394  -0.125  0.00  0.00    +0.292 HD
ENDBRANCH   7  28
TORSDOF 7
