REMARK  Name = 124243
REMARK  3 active torsions:
REMARK  status: ('A' for Active; 'I' for Inactive)
REMARK    1  A    between atoms: N_3  and  C_15
REMARK    2  A    between atoms: C_16  and  O_20
REMARK    3  A    between atoms: C_17  and  O_22
REMARK                            x       y       z     vdW  Elec       q    Type
REMARK                         _______ _______ _______ _____ _____    ______ ____
ROOT
ATOM      1  O   UNL     1      -4.165  -1.707   0.389  0.00  0.00    -0.268 OA
ATOM      2  O   UNL     1      -3.207   2.776  -0.414  0.00  0.00    -0.252 OA
ATOM      3  N   UNL     1       0.169  -0.540  -0.180  0.00  0.00    -0.207 NA
ATOM      4  N   UNL     1      -1.436   1.300  -0.334  0.00  0.00    -0.272 N 
ATOM      5  N   UNL     1      -1.256  -2.223   0.215  0.00  0.00    -0.249 NA
ATOM      6  N   UNL     1      -3.674   0.539  -0.014  0.00  0.00    -0.235 N 
ATOM      7  C   UNL     1      -1.081  -0.006  -0.156  0.00  0.00    +0.183 C 
ATOM      8  C   UNL     1       0.010  -1.887   0.049  0.00  0.00    +0.204 C 
ATOM      9  C   UNL     1      -1.935  -1.045   0.086  0.00  0.00    +0.142 C 
ATOM     10  C   UNL     1      -3.350  -0.817   0.174  0.00  0.00    +0.269 C 
ATOM     11  C   UNL     1      -2.795   1.623  -0.266  0.00  0.00    +0.308 C 
ATOM     12  H   UNL     1      -0.757   1.992  -0.505  0.00  0.00    +0.153 HD
ATOM     13  H   UNL     1      -4.632   0.764   0.034  0.00  0.00    +0.159 HD
ENDROOT
BRANCH   3  15
ATOM     14  O   UNL     1       2.353  -0.719  -1.091  0.00  0.00    -0.338 OA
ATOM     15  C   UNL     1       1.435   0.153  -0.402  0.00  0.00    +0.209 C 
ATOM     16  C   UNL     1       2.139   0.582   0.876  0.00  0.00    +0.183 C 
ATOM     17  C   UNL     1       3.582   0.652   0.418  0.00  0.00    +0.168 C 
ATOM     18  C   UNL     1       3.677  -0.532  -0.539  0.00  0.00    +0.146 C 
ATOM     19  C   UNL     1       4.095  -1.822   0.152  0.00  0.00    +0.035 C 
BRANCH  16  20
ATOM     20  O   UNL     1       1.651   1.818   1.357  0.00  0.00    -0.378 OA
ATOM     21  H   UNL     1       0.727   1.715   1.635  0.00  0.00    +0.211 HD
ENDBRANCH  16  20
BRANCH  17  22
ATOM     22  O   UNL     1       3.790   1.857  -0.319  0.00  0.00    -0.379 OA
ATOM     23  H   UNL     1       3.732   2.617   0.281  0.00  0.00    +0.211 HD
ENDBRANCH  17  22
ENDBRANCH   3  15
TORSDOF 3
