REMARK  Name = 124273
REMARK  4 active torsions:
REMARK  status: ('A' for Active; 'I' for Inactive)
REMARK    1  A    between atoms: N_2  and  C_13
REMARK    2  A    between atoms: C_3  and  C_6
REMARK    3  A    between atoms: C_8  and  N_12
REMARK    4  A    between atoms: C_13  and  C_15
REMARK                            x       y       z     vdW  Elec       q    Type
REMARK                         _______ _______ _______ _____ _____    ______ ____
ROOT
ATOM      1  O   UNL     1      -1.550  -1.881   0.315  0.00  0.00    -0.267 OA
ATOM      2  N   UNL     1      -1.376   0.403   0.587  0.00  0.00    -0.296 N 
ATOM      3  C   UNL     1      -0.859  -0.862   0.325  0.00  0.00    +0.281 C 
ATOM      4  H   UNL     1      -0.768   1.177   0.579  0.00  0.00    +0.150 HD
ENDROOT
BRANCH   3   6
ATOM      5  O   UNL     1       1.245   0.245   0.150  0.00  0.00    -0.428 OA
ATOM      6  C   UNL     1       0.590  -0.919   0.087  0.00  0.00    +0.200 C 
ATOM      7  C   UNL     1       1.380  -1.972  -0.188  0.00  0.00    +0.047 C 
ATOM      8  C   UNL     1       2.543  -0.070  -0.100  0.00  0.00    +0.289 C 
ATOM      9  C   UNL     1       2.678  -1.422  -0.315  0.00  0.00    +0.066 C 
BRANCH   8  12
ATOM     10  O   UNL     1       4.667   0.803  -0.309  0.00  0.00    -0.123 OA
ATOM     11  O   UNL     1       3.014   2.174   0.146  0.00  0.00    -0.123 OA
ATOM     12  N   UNL     1       3.436   1.003  -0.087  0.00  0.00    +0.093 N 
ENDBRANCH   8  12
ENDBRANCH   3   6
BRANCH   2  13
ATOM     13  C   UNL     1      -2.774   0.618   0.871  0.00  0.00    +0.122 C 
BRANCH  13  15
ATOM     14  O   UNL     1      -4.470  -0.143  -0.712  0.00  0.00    -0.349 OA
ATOM     15  C   UNL     1      -3.533   0.881  -0.416  0.00  0.00    +0.164 C 
ATOM     16  C   UNL     1      -4.992   1.143  -0.353  0.00  0.00    +0.173 C 
ENDBRANCH  13  15
ENDBRANCH   2  13
TORSDOF 4
