REMARK  Name = 124236
REMARK  8 active torsions:
REMARK  status: ('A' for Active; 'I' for Inactive)
REMARK    1  A    between atoms: C_2  and  C_5
REMARK    2  A    between atoms: C_2  and  O_18
REMARK    3  A    between atoms: C_6  and  C_14
REMARK    4  A    between atoms: C_14  and  O_15
REMARK    5  A    between atoms: O_15  and  C_16
REMARK    6  A    between atoms: O_18  and  C_19
REMARK    7  A    between atoms: C_19  and  C_20
REMARK    8  A    between atoms: C_20  and  N_25
REMARK                            x       y       z     vdW  Elec       q    Type
REMARK                         _______ _______ _______ _____ _____    ______ ____
ROOT
ATOM      1  O   UNL     1      -0.791   3.258  -1.554  0.00  0.00    -0.245 OA
ATOM      2  C   UNL     1      -0.898   2.573  -0.553  0.00  0.00    +0.338 C 
ENDROOT
BRANCH   2   5
ATOM      3  N   UNL     1      -4.124   0.983   0.464  0.00  0.00    -0.334 N 
ATOM      4  C   UNL     1      -1.741   0.186  -0.843  0.00  0.00    -0.011 C 
ATOM      5  C   UNL     1      -1.991   1.609  -0.346  0.00  0.00    +0.067 C 
ATOM      6  C   UNL     1      -2.818  -0.797  -0.386  0.00  0.00    +0.081 C 
ATOM      7  C   UNL     1      -3.157   1.952   0.247  0.00  0.00    +0.098 C 
ATOM      8  C   UNL     1      -3.954  -0.368   0.209  0.00  0.00    +0.028 C 
ATOM      9  C   UNL     1      -1.649   0.176  -2.378  0.00  0.00    +0.031 C 
ATOM     10  C   UNL     1      -3.517   3.319   0.764  0.00  0.00    +0.026 C 
ATOM     11  C   UNL     1      -5.095  -1.246   0.647  0.00  0.00    +0.047 C 
ATOM     12  H   UNL     1      -4.992   1.276   0.824  0.00  0.00    +0.147 HD
BRANCH   6  14
ATOM     13  O   UNL     1      -2.863  -2.855  -1.560  0.00  0.00    -0.245 OA
ATOM     14  C   UNL     1      -2.529  -2.227  -0.571  0.00  0.00    +0.342 C 
BRANCH  14  15
ATOM     15  O   UNL     1      -1.857  -2.674   0.517  0.00  0.00    -0.445 OA
BRANCH  15  16
ATOM     16  C   UNL     1      -1.502  -4.060   0.486  0.00  0.00    +0.209 C 
ATOM     17  C   UNL     1      -0.762  -4.408   1.760  0.00  0.00    +0.051 C 
ENDBRANCH  15  16
ENDBRANCH  14  15
ENDBRANCH   6  14
ENDBRANCH   2   5
BRANCH   2  18
ATOM     18  O   UNL     1      -0.089   2.542   0.533  0.00  0.00    -0.444 OA
BRANCH  18  19
ATOM     19  C   UNL     1       1.030   3.433   0.482  0.00  0.00    +0.232 C 
BRANCH  19  20
ATOM     20  C   UNL     1       2.182   2.842   1.274  0.00  0.00    +0.166 C 
BRANCH  20  25
ATOM     21  S   UNL     1       2.401   0.123   1.705  0.00  0.00    +0.079 S 
ATOM     22  O   UNL     1       3.407   0.139   2.745  0.00  0.00    -0.150 OA
ATOM     23  O   UNL     1       1.009  -0.186   1.950  0.00  0.00    -0.150 OA
ATOM     24  O   UNL     1       3.198   2.115  -1.485  0.00  0.00    -0.268 OA
ATOM     25  N   UNL     1       2.541   1.518   0.716  0.00  0.00    -0.153 N 
ATOM     26  C   UNL     1       2.969  -0.894   0.410  0.00  0.00    +0.130 C 
ATOM     27  C   UNL     1       3.255  -0.165  -0.744  0.00  0.00    +0.074 C 
ATOM     28  C   UNL     1       3.016   1.286  -0.612  0.00  0.00    +0.269 C 
ATOM     29  C   UNL     1       3.128  -2.263   0.486  0.00  0.00    +0.020 C 
ATOM     30  C   UNL     1       3.719  -0.805  -1.880  0.00  0.00    +0.006 C 
ATOM     31  C   UNL     1       3.595  -2.914  -0.655  0.00  0.00    +0.001 C 
ATOM     32  C   UNL     1       3.888  -2.193  -1.828  0.00  0.00    +0.000 C 
ENDBRANCH  20  25
ENDBRANCH  19  20
ENDBRANCH  18  19
ENDBRANCH   2  18
TORSDOF 8
