124201
  -OEChem-03292013323D

 31 33  0     1  0  0  0  0  0999 V2000
   -1.8946   -3.3686    0.3384 Cl  0  0  0  0  0  0  0  0  0  0  0  0
    1.9155   -0.0222   -0.9667 O   0  0  0  0  0  0  0  0  0  0  0  0
    4.4584    1.3777    0.1901 O   0  0  0  0  0  0  0  0  0  0  0  0
    2.3337   -2.7794   -0.7397 O   0  0  0  0  0  0  0  0  0  0  0  0
   -0.6803    2.4147   -0.3005 N   0  0  0  0  0  0  0  0  0  0  0  0
   -2.0177    2.2740   -0.2060 N   0  0  0  0  0  0  0  0  0  0  0  0
   -0.7565   -1.0454    0.0423 N   0  0  0  0  0  0  0  0  0  0  0  0
   -3.2387   -1.1377    0.2015 N   0  0  0  0  0  0  0  0  0  0  0  0
   -4.6616    0.8080    0.0968 N   0  0  0  0  0  0  0  0  0  0  0  0
    1.5177    1.1978   -0.3145 C   0  0  2  0  0  0  0  0  0  0  0  0
    3.5014    0.4754    0.7418 C   0  0  1  0  0  0  0  0  0  0  0  0
    2.2145    1.2131    1.0384 C   0  0  0  0  0  0  0  0  0  0  0  0
    3.0857   -0.5496   -0.3076 C   0  0  1  0  0  0  0  0  0  0  0  0
    0.0148    1.2480   -0.2284 C   0  0  0  0  0  0  0  0  0  0  0  0
    2.7159   -1.8951    0.3012 C   0  0  0  0  0  0  0  0  0  0  0  0
   -0.9367    0.2880   -0.0770 C   0  0  0  0  0  0  0  0  0  0  0  0
   -2.2109    0.9510   -0.0648 C   0  0  0  0  0  0  0  0  0  0  0  0
   -3.3920    0.2105    0.0789 C   0  0  0  0  0  0  0  0  0  0  0  0
   -1.9686   -1.6602    0.1758 C   0  0  0  0  0  0  0  0  0  0  0  0
    1.8821    2.0226   -0.9398 H   0  0  0  0  0  0  0  0  0  0  0  0
    3.9486    0.0328    1.6370 H   0  0  0  0  0  0  0  0  0  0  0  0
    2.3618    2.2332    1.4066 H   0  0  0  0  0  0  0  0  0  0  0  0
    1.6329    0.6561    1.7831 H   0  0  0  0  0  0  0  0  0  0  0  0
    3.8492   -0.6876   -1.0814 H   0  0  0  0  0  0  0  0  0  0  0  0
    1.8755   -1.8143    0.9977 H   0  0  0  0  0  0  0  0  0  0  0  0
    3.5673   -2.3352    0.8288 H   0  0  0  0  0  0  0  0  0  0  0  0
   -0.3106    3.3503   -0.4135 H   0  0  0  0  0  0  0  0  0  0  0  0
    5.2522    0.8604   -0.0289 H   0  0  0  0  0  0  0  0  0  0  0  0
    1.5767   -2.3786   -1.2004 H   0  0  0  0  0  0  0  0  0  0  0  0
   -5.4812    0.2260    0.2039 H   0  0  0  0  0  0  0  0  0  0  0  0
   -4.7543    1.8105    0.0049 H   0  0  0  0  0  0  0  0  0  0  0  0
  1 19  1  0  0  0  0
  2 10  1  0  0  0  0
  2 13  1  0  0  0  0
  3 11  1  0  0  0  0
  3 28  1  0  0  0  0
  4 15  1  0  0  0  0
  4 29  1  0  0  0  0
  5  6  1  0  0  0  0
  5 14  1  0  0  0  0
  5 27  1  0  0  0  0
  6 17  2  0  0  0  0
  7 16  1  0  0  0  0
  7 19  2  0  0  0  0
  8 18  2  0  0  0  0
  8 19  1  0  0  0  0
  9 18  1  0  0  0  0
  9 30  1  0  0  0  0
  9 31  1  0  0  0  0
 10 12  1  0  0  0  0
 10 14  1  0  0  0  0
 10 20  1  0  0  0  0
 11 12  1  0  0  0  0
 11 13  1  0  0  0  0
 11 21  1  0  0  0  0
 12 22  1  0  0  0  0
 12 23  1  0  0  0  0
 13 15  1  0  0  0  0
 13 24  1  0  0  0  0
 14 16  2  0  0  0  0
 15 25  1  0  0  0  0
 15 26  1  0  0  0  0
 16 17  1  0  0  0  0
 17 18  1  0  0  0  0
M  END
> <PUBCHEM_COMPOUND_CID>
124201

> <PUBCHEM_CONFORMER_RMSD>
0.6

> <PUBCHEM_CONFORMER_DIVERSEORDER>
1
6
12
13
10
3
9
2
11
5
14
7
8
4

> <PUBCHEM_MMFF94_PARTIAL_CHARGES>
23
1 -0.18
10 0.46
11 0.28
13 0.28
14 -0.33
15 0.28
16 0.26
17 0.29
18 0.41
19 0.8
2 -0.56
27 0.27
28 0.4
29 0.4
3 -0.68
30 0.4
31 0.4
4 -0.68
5 0.3
6 -0.71
7 -0.57
8 -0.62
9 -0.9

> <PUBCHEM_EFFECTIVE_ROTOR_COUNT>
3

> <PUBCHEM_PHARMACOPHORE_FEATURES>
13
1 2 acceptor
1 3 acceptor
1 3 donor
1 4 acceptor
1 4 donor
1 5 donor
1 6 acceptor
1 9 donor
3 7 8 19 cation
3 8 9 18 cation
5 2 10 11 12 13 rings
5 5 6 14 16 17 rings
6 7 8 16 17 18 19 rings

> <PUBCHEM_HEAVY_ATOM_COUNT>
19

> <PUBCHEM_ATOM_DEF_STEREO_COUNT>
3

> <PUBCHEM_ATOM_UDEF_STEREO_COUNT>
0

> <PUBCHEM_BOND_DEF_STEREO_COUNT>
0

> <PUBCHEM_BOND_UDEF_STEREO_COUNT>
0

> <PUBCHEM_ISOTOPIC_ATOM_COUNT>
0

> <PUBCHEM_COMPONENT_COUNT>
1

> <PUBCHEM_CACTVS_TAUTO_COUNT>
8

> <PUBCHEM_CONFORMER_ID>
0001E52900000001

> <PUBCHEM_MMFF94_ENERGY>
43.4298

> <PUBCHEM_FEATURE_SELFOVERLAP>
66.211

> <PUBCHEM_SHAPE_FINGERPRINT>
10366900 7 18059565931903042656
10616163 171 18337955717767400194
10618630 7 18335421261692017484
10693767 8 18127947777856773415
10967382 1 18410293588222094295
11132069 177 18409448098456759489
12382932 28 18339360867720601346
12500047 106 18411412942762360177
12553582 1 17975991069665681243
12633257 1 18341611456564655418
13140716 1 18194685006050533785
14178342 30 18265887141244713754
14223421 5 18412260636368293674
15196674 1 18410292514575488691
15375358 24 18411414037873532032
15536298 74 18341331097994448746
16945 1 18409736187503861901
17804303 29 18195532480586592558
19049666 15 18199182893455777024
19107657 46 18337953497153179198
19591789 44 18193559965606343275
19784866 170 18339643446778349984
20510252 161 18270398287425587601
20645477 70 18060417976041497262
2334 1 17761214714389142309
23402539 116 18341601638548939533
23463225 33 18408042905216048085
23557571 272 18270687596216449818
23559900 14 18411981356394405308
2748010 2 18191023396196359789
34934 24 18409724092791313407
495365 180 17631997698352970017
5104073 3 18410855455833253955
58807428 26 18265903441231106233
69090 78 18341607110099631175
7364860 26 18270962345738605078
81228 2 18333455339360350529
8809292 202 18410014325465056810
9709674 26 18412265034246383118

> <PUBCHEM_SHAPE_MULTIPOLES>
350.37
7.07
3.06
0.78
0.49
2.16
-0.04
-0.39
-0.75
-0.83
0.07
0.4
0.02
0.61

> <PUBCHEM_SHAPE_SELFOVERLAP>
750.374

> <PUBCHEM_SHAPE_VOLUME>
194.7

> <PUBCHEM_COORDINATE_TYPE>
2
5
10

$$$$
