REMARK  Name = 124241
REMARK  4 active torsions:
REMARK  status: ('A' for Active; 'I' for Inactive)
REMARK    1  A    between atoms: N_3  and  C_15
REMARK    2  A    between atoms: CA_9  and  C_12
REMARK    3  A    between atoms: C_12  and  O_13
REMARK    4  A    between atoms: C_15  and  C_17
REMARK                            x       y       z     vdW  Elec       q    Type
REMARK                         _______ _______ _______ _____ _____    ______ ____
ROOT
ATOM      1  O   UNL     1       1.720   2.097   0.210  0.00  0.00    -0.250 OA
ATOM      2  N   UNL     1      -0.202   0.938   0.084  0.00  0.00    -0.202 N 
ATOM      3  N   UNL     1       1.709  -0.262   0.382  0.00  0.00    -0.155 N 
ATOM      4  N   UNL     1       0.979  -1.433   0.388  0.00  0.00    -0.040 NA
ATOM      5  N   UNL     1      -0.267  -1.407   0.249  0.00  0.00    -0.126 NA
ATOM      6  N   UNL     1      -2.335   1.503  -0.194  0.00  0.00    -0.239 NA
ATOM      7  C   UNL     1      -0.904  -0.232   0.092  0.00  0.00    +0.185 C 
ATOM      8  C   UNL     1       1.170   1.007   0.230  0.00  0.00    +0.332 C 
ATOM      9  CA  UNL     1      -2.218   0.141  -0.081  0.00  0.00    +0.187 C 
ATOM     10  C   UNL     1      -1.104   1.955  -0.091  0.00  0.00    +0.229 C 
ENDROOT
BRANCH   9  12
ATOM     11  OXT UNL     1      -3.325  -1.980  -0.046  0.00  0.00    -0.243 OA
ATOM     12  C   UNL     1      -3.349  -0.735  -0.141  0.00  0.00    +0.358 C 
BRANCH  12  13
ATOM     13  O   UNL     1      -4.537  -0.076  -0.320  0.00  0.00    -0.476 OA
ATOM     14  H   UNL     1      -4.549   0.858  -0.390  0.00  0.00    +0.295 HD
ENDBRANCH  12  13
ENDBRANCH   9  12
BRANCH   3  15
ATOM     15  C   UNL     1       3.148  -0.366   0.547  0.00  0.00    +0.138 C 
BRANCH  15  17
ATOM     16 CL   UNL     1       5.638  -0.641  -0.535  0.00  0.00    -0.112 Cl
ATOM     17  C   UNL     1       3.878  -0.510  -0.777  0.00  0.00    +0.118 C 
ENDBRANCH  15  17
ENDBRANCH   3  15
TORSDOF 4
