REMARK  Name = 124201490
REMARK  5 active torsions:
REMARK  status: ('A' for Active; 'I' for Inactive)
REMARK    1  A    between atoms: C_4  and  O_27
REMARK    2  A    between atoms: C_10  and  O_29
REMARK    3  A    between atoms: C_13  and  C_24
REMARK    4  A    between atoms: C_14  and  O_31
REMARK    5  A    between atoms: C_19  and  O_33
REMARK                            x       y       z     vdW  Elec       q    Type
REMARK                         _______ _______ _______ _____ _____    ______ ____
ROOT
ATOM      1  O   UNL     1      -0.707   1.972  -0.355  0.00  0.00    -0.288 OA
ATOM      2  O   UNL     1      -3.936  -1.684   2.062  0.00  0.00    -0.291 OA
ATOM      3  C   UNL     1      -1.569  -1.571  -0.658  0.00  0.00    +0.051 C 
ATOM      4  C   UNL     1      -1.716  -0.104  -1.093  0.00  0.00    +0.194 C 
ATOM      5  C   UNL     1      -0.182  -2.124  -1.008  0.00  0.00    +0.030 C 
ATOM      6  C   UNL     1      -1.897  -1.746   0.826  0.00  0.00    +0.073 C 
ATOM      7  C   UNL     1       0.939  -1.233  -0.548  0.00  0.00    -0.020 A 
ATOM      8  C   UNL     1      -0.572   0.768  -0.560  0.00  0.00    +0.206 C 
ATOM      9  C   UNL     1       0.759   0.139  -0.348  0.00  0.00    +0.067 A 
ATOM     10  C   UNL     1      -3.054   0.462  -0.649  0.00  0.00    +0.149 C 
ATOM     11  C   UNL     1      -3.273  -1.211   1.140  0.00  0.00    +0.180 C 
ATOM     12  C   UNL     1       2.215  -1.787  -0.358  0.00  0.00    -0.025 A 
ATOM     13  C   UNL     1      -3.788  -0.051   0.356  0.00  0.00    +0.120 C 
ATOM     14  C   UNL     1       1.835   0.939   0.064  0.00  0.00    +0.144 A 
ATOM     15  C   UNL     1       3.302  -0.999   0.051  0.00  0.00    +0.002 A 
ATOM     16  C   UNL     1       3.109   0.383   0.267  0.00  0.00    +0.067 A 
ATOM     17  C   UNL     1       2.418  -3.255  -0.615  0.00  0.00    +0.031 C 
ATOM     18  C   UNL     1       4.577  -1.554   0.250  0.00  0.00    -0.000 C 
ATOM     19  C   UNL     1       4.196   1.173   0.678  0.00  0.00    +0.136 C 
ATOM     20  C   UNL     1       5.646  -0.756   0.659  0.00  0.00    +0.003 C 
ATOM     21  C   UNL     1       5.455   0.605   0.873  0.00  0.00    +0.037 C 
ENDROOT
BRANCH  13  24
ATOM     22  O   UNL     1      -5.991   0.624  -0.137  0.00  0.00    -0.270 OA
ATOM     23  N   UNL     1      -5.147   1.036   1.972  0.00  0.00    -0.325 N 
ATOM     24  C   UNL     1      -5.085   0.563   0.685  0.00  0.00    +0.248 C 
ATOM     25  H   UNL     1      -5.970   1.466   2.299  0.00  0.00    +0.145 HD
ATOM     26  H   UNL     1      -4.369   0.945   2.568  0.00  0.00    +0.145 HD
ENDBRANCH  13  24
BRANCH   4  27
ATOM     27  O   UNL     1      -1.615  -0.081  -2.518  0.00  0.00    -0.373 OA
ATOM     28  H   UNL     1      -0.757  -0.445  -2.787  0.00  0.00    +0.211 HD
ENDBRANCH   4  27
BRANCH  10  29
ATOM     29  O   UNL     1      -3.509   1.567  -1.355  0.00  0.00    -0.507 OA
ATOM     30  H   UNL     1      -2.995   1.921  -2.053  0.00  0.00    +0.292 HD
ENDBRANCH  10  29
BRANCH  14  31
ATOM     31  O   UNL     1       1.644   2.279   0.265  0.00  0.00    -0.471 OA
ATOM     32  C   UNL     1       1.848   3.132  -0.856  0.00  0.00    +0.252 C 
ENDBRANCH  14  31
BRANCH  19  33
ATOM     33  O   UNL     1       4.099   2.515   0.910  0.00  0.00    -0.505 OA
ATOM     34  H   UNL     1       3.278   2.953   0.796  0.00  0.00    +0.292 HD
ENDBRANCH  19  33
TORSDOF 5
