124201523
  -OEChem-03292013293D

 52 54  0     1  0  0  0  0  0999 V2000
    0.6089   -1.5781    0.7217 O   0  0  0  0  0  0  0  0  0  0  0  0
    3.2982    1.5707    1.6540 O   0  0  0  0  0  0  0  0  0  0  0  0
   -1.6578   -0.1383   -2.1315 O   0  0  0  0  0  0  0  0  0  0  0  0
   -1.9936    0.6943    1.7964 O   0  0  0  0  0  0  0  0  0  0  0  0
   -0.2677    2.7965   -1.6777 O   0  0  0  0  0  0  0  0  0  0  0  0
    3.0603   -0.3814    0.4591 N   0  0  0  0  0  0  0  0  0  0  0  0
   -2.6906   -1.1214   -0.3159 N   0  0  0  0  0  0  0  0  0  0  0  0
    0.4432   -1.8971   -1.5696 N   0  0  0  0  0  0  0  0  0  0  0  0
   -2.3986    2.1989    0.0795 N   0  0  0  0  0  0  0  0  0  0  0  0
    0.9072    2.2957    0.2618 N   0  0  0  0  0  0  0  0  0  0  0  0
    2.5790   -1.2121   -0.6467 C   0  0  1  0  0  0  0  0  0  0  0  0
    3.4480   -2.4688   -0.5804 C   0  0  0  0  0  0  0  0  0  0  0  0
   -3.5068    0.0449    0.0168 C   0  0  1  0  0  0  0  0  0  0  0  0
    3.7588   -2.6009    0.9072 C   0  0  0  0  0  0  0  0  0  0  0  0
    3.9026   -1.1575    1.3625 C   0  0  0  0  0  0  0  0  0  0  0  0
   -4.6185   -0.5024    0.9055 C   0  0  0  0  0  0  0  0  0  0  0  0
   -3.9921   -1.7195    1.5762 C   0  0  0  0  0  0  0  0  0  0  0  0
   -3.0369   -2.2649    0.5246 C   0  0  0  0  0  0  0  0  0  0  0  0
    1.1129   -1.5632   -0.3999 C   0  0  0  0  0  0  0  0  0  0  0  0
    2.8697    0.9774    0.6583 C   0  0  0  0  0  0  0  0  0  0  0  0
   -1.8007   -1.1081   -1.3807 C   0  0  0  0  0  0  0  0  0  0  0  0
   -2.5785    1.0031    0.7598 C   0  0  0  0  0  0  0  0  0  0  0  0
    2.0786    1.7394   -0.4009 C   0  0  2  0  0  0  0  0  0  0  0  0
   -0.9380   -2.3418   -1.5676 C   0  0  0  0  0  0  0  0  0  0  0  0
    2.9586    2.8359   -0.9942 C   0  0  0  0  0  0  0  0  0  0  0  0
   -1.3568    3.1410    0.4321 C   0  0  0  0  0  0  0  0  0  0  0  0
   -0.1892    2.7578   -0.4503 C   0  0  0  0  0  0  0  0  0  0  0  0
    2.6993   -0.6972   -1.6041 H   0  0  0  0  0  0  0  0  0  0  0  0
    4.3814   -2.3040   -1.1325 H   0  0  0  0  0  0  0  0  0  0  0  0
    2.9641   -3.3639   -0.9824 H   0  0  0  0  0  0  0  0  0  0  0  0
   -3.9032    0.5016   -0.8959 H   0  0  0  0  0  0  0  0  0  0  0  0
    2.9183   -3.0781    1.4247 H   0  0  0  0  0  0  0  0  0  0  0  0
    4.6563   -3.1941    1.1035 H   0  0  0  0  0  0  0  0  0  0  0  0
    3.5947   -1.0056    2.4015 H   0  0  0  0  0  0  0  0  0  0  0  0
    4.9324   -0.8016    1.2465 H   0  0  0  0  0  0  0  0  0  0  0  0
   -5.4600   -0.8296    0.2825 H   0  0  0  0  0  0  0  0  0  0  0  0
   -4.9940    0.2245    1.6320 H   0  0  0  0  0  0  0  0  0  0  0  0
   -3.4339   -1.4117    2.4678 H   0  0  0  0  0  0  0  0  0  0  0  0
   -4.7340   -2.4595    1.8898 H   0  0  0  0  0  0  0  0  0  0  0  0
   -3.5179   -3.0165   -0.1102 H   0  0  0  0  0  0  0  0  0  0  0  0
   -2.1437   -2.6976    0.9829 H   0  0  0  0  0  0  0  0  0  0  0  0
    1.7204    1.1027   -1.2098 H   0  0  0  0  0  0  0  0  0  0  0  0
   -1.0584   -3.1002   -0.7955 H   0  0  0  0  0  0  0  0  0  0  0  0
   -1.1596   -2.7845   -2.5429 H   0  0  0  0  0  0  0  0  0  0  0  0
    0.9382   -1.8744   -2.4563 H   0  0  0  0  0  0  0  0  0  0  0  0
   -2.9371    2.3862   -0.7611 H   0  0  0  0  0  0  0  0  0  0  0  0
    0.8880    2.3184    1.2775 H   0  0  0  0  0  0  0  0  0  0  0  0
    3.2747    3.5552   -0.2301 H   0  0  0  0  0  0  0  0  0  0  0  0
    2.4258    3.3951   -1.7700 H   0  0  0  0  0  0  0  0  0  0  0  0
    3.8611    2.4073   -1.4431 H   0  0  0  0  0  0  0  0  0  0  0  0
   -1.1202    3.0778    1.4971 H   0  0  0  0  0  0  0  0  0  0  0  0
   -1.6911    4.1506    0.1803 H   0  0  0  0  0  0  0  0  0  0  0  0
  1 19  2  0  0  0  0
  2 20  2  0  0  0  0
  3 21  2  0  0  0  0
  4 22  2  0  0  0  0
  5 27  2  0  0  0  0
  6 11  1  0  0  0  0
  6 15  1  0  0  0  0
  6 20  1  0  0  0  0
  7 13  1  0  0  0  0
  7 18  1  0  0  0  0
  7 21  1  0  0  0  0
  8 19  1  0  0  0  0
  8 24  1  0  0  0  0
  8 45  1  0  0  0  0
  9 22  1  0  0  0  0
  9 26  1  0  0  0  0
  9 46  1  0  0  0  0
 10 23  1  0  0  0  0
 10 27  1  0  0  0  0
 10 47  1  0  0  0  0
 11 12  1  0  0  0  0
 11 19  1  0  0  0  0
 11 28  1  0  0  0  0
 12 14  1  0  0  0  0
 12 29  1  0  0  0  0
 12 30  1  0  0  0  0
 13 16  1  0  0  0  0
 13 22  1  0  0  0  0
 13 31  1  0  0  0  0
 14 15  1  0  0  0  0
 14 32  1  0  0  0  0
 14 33  1  0  0  0  0
 15 34  1  0  0  0  0
 15 35  1  0  0  0  0
 16 17  1  0  0  0  0
 16 36  1  0  0  0  0
 16 37  1  0  0  0  0
 17 18  1  0  0  0  0
 17 38  1  0  0  0  0
 17 39  1  0  0  0  0
 18 40  1  0  0  0  0
 18 41  1  0  0  0  0
 20 23  1  0  0  0  0
 21 24  1  0  0  0  0
 23 25  1  0  0  0  0
 23 42  1  0  0  0  0
 24 43  1  0  0  0  0
 24 44  1  0  0  0  0
 25 48  1  0  0  0  0
 25 49  1  0  0  0  0
 25 50  1  0  0  0  0
 26 27  1  0  0  0  0
 26 51  1  0  0  0  0
 26 52  1  0  0  0  0
M  END
> <PUBCHEM_COMPOUND_CID>
124201523

> <PUBCHEM_CONFORMER_RMSD>
0.6

> <PUBCHEM_CONFORMER_DIVERSEORDER>
1
9
6
8
3
7
5
2
4

> <PUBCHEM_MMFF94_PARTIAL_CHARGES>
25
1 -0.57
10 -0.73
11 0.36
13 0.36
15 0.3
18 0.3
19 0.57
2 -0.57
20 0.57
21 0.57
22 0.57
23 0.36
24 0.36
26 0.36
27 0.57
3 -0.57
4 -0.57
45 0.37
46 0.37
47 0.37
5 -0.57
6 -0.66
7 -0.66
8 -0.73
9 -0.73

> <PUBCHEM_EFFECTIVE_ROTOR_COUNT>
2.4

> <PUBCHEM_PHARMACOPHORE_FEATURES>
10
1 1 acceptor
1 10 donor
1 2 acceptor
1 3 acceptor
1 4 acceptor
1 5 acceptor
1 8 donor
1 9 donor
5 6 11 12 14 15 rings
5 7 13 16 17 18 rings

> <PUBCHEM_HEAVY_ATOM_COUNT>
27

> <PUBCHEM_ATOM_DEF_STEREO_COUNT>
3

> <PUBCHEM_ATOM_UDEF_STEREO_COUNT>
0

> <PUBCHEM_BOND_DEF_STEREO_COUNT>
0

> <PUBCHEM_BOND_UDEF_STEREO_COUNT>
0

> <PUBCHEM_ISOTOPIC_ATOM_COUNT>
0

> <PUBCHEM_COMPONENT_COUNT>
1

> <PUBCHEM_CACTVS_TAUTO_COUNT>
8

> <PUBCHEM_CONFORMER_ID>
07672A3300000001

> <PUBCHEM_MMFF94_ENERGY>
70.7238

> <PUBCHEM_FEATURE_SELFOVERLAP>
50.749

> <PUBCHEM_SHAPE_FINGERPRINT>
10382601 240 18268421499073652450
11387372 6 16532539659623739602
11578080 2 17530960298286040157
12047536 79 17832754267627819033
12156800 1 14612420868096878452
12422481 6 18197236779961464889
12553582 1 18196370540133007917
12633257 1 18194416502096382441
13140716 1 18341051804803212865
13402501 40 17765715724045881357
13583140 156 18113886139958660831
13726171 33 17981358649657773116
13965767 371 18060134379625553914
14725015 67 16465016407807136232
14790565 3 17832713748121091084
16728300 4 16378880744544937731
19930381 70 18262241152403380107
20261772 1 18202280290720293786
20905425 154 18340502122045960373
21033648 29 17559094489980182578
23559900 14 18336271167143181843
2818148 4 18193302765510515902
3187 122 18337395933473615649
35225 105 17317603171676470373
484985 159 16955605465464968178
5282274 181 17911538505425314633
57091435 65 18338806722682297412
6287921 2 17988379112387965759
7064713 232 17846223211378201793
7097593 13 18267024049437780335

> <PUBCHEM_SHAPE_MULTIPOLES>
501.4
7.66
4.05
1.65
0.89
2.05
0.23
-3.36
-3.29
-1.46
0.59
0.21
-0.31
-0.2

> <PUBCHEM_SHAPE_SELFOVERLAP>
1048.44

> <PUBCHEM_SHAPE_VOLUME>
282.6

> <PUBCHEM_COORDINATE_TYPE>
2
5
10

$$$$
