124243
  -OEChem-03292013323D

 31 33  0     1  0  0  0  0  0999 V2000
    2.3525   -0.7192   -1.0907 O   0  0  0  0  0  0  0  0  0  0  0  0
    1.6507    1.8182    1.3567 O   0  0  0  0  0  0  0  0  0  0  0  0
    3.7899    1.8569   -0.3189 O   0  0  0  0  0  0  0  0  0  0  0  0
   -4.1650   -1.7068    0.3886 O   0  0  0  0  0  0  0  0  0  0  0  0
   -3.2065    2.7760   -0.4142 O   0  0  0  0  0  0  0  0  0  0  0  0
    0.1685   -0.5404   -0.1805 N   0  0  0  0  0  0  0  0  0  0  0  0
   -1.4362    1.2997   -0.3338 N   0  0  0  0  0  0  0  0  0  0  0  0
   -1.2564   -2.2234    0.2149 N   0  0  0  0  0  0  0  0  0  0  0  0
   -3.6744    0.5390   -0.0143 N   0  0  0  0  0  0  0  0  0  0  0  0
    1.4355    0.1526   -0.4020 C   0  0  1  0  0  0  0  0  0  0  0  0
    2.1389    0.5822    0.8764 C   0  0  1  0  0  0  0  0  0  0  0  0
    3.5822    0.6518    0.4177 C   0  0  1  0  0  0  0  0  0  0  0  0
    3.6766   -0.5322   -0.5395 C   0  0  1  0  0  0  0  0  0  0  0  0
    4.0954   -1.8222    0.1518 C   0  0  0  0  0  0  0  0  0  0  0  0
   -1.0810   -0.0062   -0.1561 C   0  0  0  0  0  0  0  0  0  0  0  0
    0.0097   -1.8875    0.0494 C   0  0  0  0  0  0  0  0  0  0  0  0
   -1.9354   -1.0450    0.0857 C   0  0  0  0  0  0  0  0  0  0  0  0
   -3.3503   -0.8169    0.1744 C   0  0  0  0  0  0  0  0  0  0  0  0
   -2.7948    1.6235   -0.2657 C   0  0  0  0  0  0  0  0  0  0  0  0
    1.2252    0.9990   -1.0666 H   0  0  0  0  0  0  0  0  0  0  0  0
    2.0253   -0.1700    1.6654 H   0  0  0  0  0  0  0  0  0  0  0  0
    4.3011    0.6343    1.2417 H   0  0  0  0  0  0  0  0  0  0  0  0
    4.3545   -0.3298   -1.3757 H   0  0  0  0  0  0  0  0  0  0  0  0
    4.0958   -2.6516   -0.5636 H   0  0  0  0  0  0  0  0  0  0  0  0
    5.0972   -1.7317    0.5821 H   0  0  0  0  0  0  0  0  0  0  0  0
    3.3952   -2.0985    0.9472 H   0  0  0  0  0  0  0  0  0  0  0  0
    0.8459   -2.5723    0.0908 H   0  0  0  0  0  0  0  0  0  0  0  0
    1.8002    2.4886    0.6684 H   0  0  0  0  0  0  0  0  0  0  0  0
    4.7093    1.8483   -0.6356 H   0  0  0  0  0  0  0  0  0  0  0  0
   -0.7325    2.0095   -0.5062 H   0  0  0  0  0  0  0  0  0  0  0  0
   -4.6626    0.7722    0.0355 H   0  0  0  0  0  0  0  0  0  0  0  0
  1 10  1  0  0  0  0
  1 13  1  0  0  0  0
  2 11  1  0  0  0  0
  2 28  1  0  0  0  0
  3 12  1  0  0  0  0
  3 29  1  0  0  0  0
  4 18  2  0  0  0  0
  5 19  2  0  0  0  0
  6 10  1  0  0  0  0
  6 15  1  0  0  0  0
  6 16  1  0  0  0  0
  7 15  1  0  0  0  0
  7 19  1  0  0  0  0
  7 30  1  0  0  0  0
  8 16  2  0  0  0  0
  8 17  1  0  0  0  0
  9 18  1  0  0  0  0
  9 19  1  0  0  0  0
  9 31  1  0  0  0  0
 10 11  1  0  0  0  0
 10 20  1  0  0  0  0
 11 12  1  0  0  0  0
 11 21  1  0  0  0  0
 12 13  1  0  0  0  0
 12 22  1  0  0  0  0
 13 14  1  0  0  0  0
 13 23  1  0  0  0  0
 14 24  1  0  0  0  0
 14 25  1  0  0  0  0
 14 26  1  0  0  0  0
 15 17  2  0  0  0  0
 16 27  1  0  0  0  0
 17 18  1  0  0  0  0
M  END
> <PUBCHEM_COMPOUND_CID>
124243

> <PUBCHEM_CONFORMER_RMSD>
0.6

> <PUBCHEM_CONFORMER_DIVERSEORDER>
2
4
10
6
1
8
9
3
5
7

> <PUBCHEM_MMFF94_PARTIAL_CHARGES>
23
1 -0.56
10 0.54
11 0.28
12 0.28
13 0.28
15 -0.09
16 0.04
17 0.14
18 0.72
19 0.69
2 -0.68
27 0.15
28 0.4
29 0.4
3 -0.68
30 0.37
31 0.37
4 -0.57
5 -0.57
6 0.05
7 -0.49
8 -0.57
9 -0.49

> <PUBCHEM_EFFECTIVE_ROTOR_COUNT>
2

> <PUBCHEM_PHARMACOPHORE_FEATURES>
13
1 1 acceptor
1 2 acceptor
1 2 donor
1 3 acceptor
1 3 donor
1 4 acceptor
1 5 acceptor
1 7 donor
1 9 donor
3 6 8 16 cation
5 1 10 11 12 13 rings
5 6 8 15 16 17 rings
6 7 9 15 17 18 19 rings

> <PUBCHEM_HEAVY_ATOM_COUNT>
19

> <PUBCHEM_ATOM_DEF_STEREO_COUNT>
4

> <PUBCHEM_ATOM_UDEF_STEREO_COUNT>
0

> <PUBCHEM_BOND_DEF_STEREO_COUNT>
0

> <PUBCHEM_BOND_UDEF_STEREO_COUNT>
0

> <PUBCHEM_ISOTOPIC_ATOM_COUNT>
0

> <PUBCHEM_COMPONENT_COUNT>
1

> <PUBCHEM_CACTVS_TAUTO_COUNT>
6

> <PUBCHEM_CONFORMER_ID>
0001E55300000002

> <PUBCHEM_MMFF94_ENERGY>
42.3508

> <PUBCHEM_FEATURE_SELFOVERLAP>
66.142

> <PUBCHEM_SHAPE_FINGERPRINT>
10498660 4 18261105270987260045
10608611 8 18413386557554975824
10646746 165 18410292475999644572
1100329 8 16468401812946815584
12173636 292 18408601457228466717
12403259 226 18341326773210132715
12403259 415 18342458131746342304
12403260 363 18411689968105648343
12507560 40 18413102871139365810
13134695 92 16988553542935341920
13464514 151 17839463289173292885
13581323 91 18335700584905989054
13675066 3 18201429256125624218
14866123 147 16470941693650899670
15196674 1 18410293609696924269
15219456 202 18272650160173867692
15442244 35 18336544924342775070
15653759 3 18410573993899680408
16945 1 18267573787797290991
17802600 8 18341890796768383795
17804303 29 18410859841216642246
18186145 218 18201729405261227218
19049666 15 18341612603209938962
200 152 17275097328179094703
20510252 161 18412266159691098273
20645477 70 17632588141041140118
21501502 16 18341889740475499918
21524375 3 18265892467368176975
22182937 141 18199757942727996201
23402539 116 18340762758516811591
23557571 272 18340216275341227188
23559900 14 18270962315964016934
23845131 108 17689732870294492617
25 1 18198622120913462301
2748010 2 18412256242543117773
335352 9 18122062005369176166
350125 39 18336832991825396171
4214541 1 18408886205043999100
43471831 8 18186516579718171243
5104073 3 18410575076152311994
69090 78 18130785702460131063
7364860 26 18051692136005694903
77492 1 17094962147424320772
77779 3 18408605855401461004
81228 2 18117552040748238507
9709674 26 18411143541102911574

> <PUBCHEM_SHAPE_MULTIPOLES>
341.74
7.95
2.41
0.82
0.89
0.43
0.08
0.28
-0.06
-0.99
0.1
0.42
0.15
0.72

> <PUBCHEM_SHAPE_SELFOVERLAP>
745.333

> <PUBCHEM_SHAPE_VOLUME>
185.6

> <PUBCHEM_COORDINATE_TYPE>
2
5
10

$$$$
