REMARK  Name = 124283
REMARK  12 active torsions:
REMARK  status: ('A' for Active; 'I' for Inactive)
REMARK    1  A    between atoms: C_1  and  C_9
REMARK    2  A    between atoms: C_2  and  O_22
REMARK    3  A    between atoms: C_3  and  O_24
REMARK    4  A    between atoms: C_4  and  N_21
REMARK    5  A    between atoms: C_6  and  O_26
REMARK    6  A    between atoms: N_8  and  C_11
REMARK    7  A    between atoms: C_11  and  C_12
REMARK    8  A    between atoms: C_12  and  C_13
REMARK    9  A    between atoms: C_13  and  C_14
REMARK   10  A    between atoms: C_14  and  C_15
REMARK   11  A    between atoms: C_15  and  C_16
REMARK   12  A    between atoms: C_16  and  C_17
REMARK                            x       y       z     vdW  Elec       q    Type
REMARK                         _______ _______ _______ _____ _____    ______ ____
ROOT
ATOM      1  C   UNL     1      -0.967  -1.217  -0.334  0.00  0.00    +0.122 C 
ATOM      2  C   UNL     1      -1.338   0.115  -0.517  0.00  0.00    +0.166 C 
ATOM      3  C   UNL     1      -1.802  -2.084   0.371  0.00  0.00    +0.144 C 
ATOM      4  C   UNL     1      -2.545   0.580   0.006  0.00  0.00    +0.210 C 
ATOM      5  C   UNL     1      -3.008  -1.618   0.893  0.00  0.00    +0.075 C 
ATOM      6  C   UNL     1      -3.380  -0.286   0.711  0.00  0.00    +0.162 C 
ENDROOT
BRANCH   1   9
ATOM      7  O   UNL     1       0.518  -1.640  -2.100  0.00  0.00    -0.270 OA
ATOM      8  N   UNL     1       1.228  -2.224   0.030  0.00  0.00    -0.301 N 
ATOM      9  C   UNL     1       0.318  -1.716  -0.890  0.00  0.00    +0.252 C 
ATOM     10  H   UNL     1       0.975  -2.243   0.982  0.00  0.00    +0.150 HD
BRANCH   8  11
ATOM     11  C   UNL     1       2.521  -2.720  -0.349  0.00  0.00    +0.090 C 
BRANCH  11  12
ATOM     12  C   UNL     1       3.592  -1.633  -0.332  0.00  0.00    +0.021 C 
BRANCH  12  13
ATOM     13  C   UNL     1       3.749  -0.985   1.047  0.00  0.00    +0.002 C 
BRANCH  13  14
ATOM     14  C   UNL     1       4.778   0.149   1.074  0.00  0.00    +0.000 C 
BRANCH  14  15
ATOM     15  C   UNL     1       4.452   1.370   0.207  0.00  0.00    +0.000 C 
BRANCH  15  16
ATOM     16  C   UNL     1       3.111   2.020   0.548  0.00  0.00    +0.000 C 
BRANCH  16  17
ATOM     17  C   UNL     1       2.880   3.284  -0.282  0.00  0.00    +0.000 C 
ATOM     18  C   UNL     1       1.534   3.917   0.029  0.00  0.00    +0.000 C 
ENDBRANCH  16  17
ENDBRANCH  15  16
ENDBRANCH  14  15
ENDBRANCH  13  14
ENDBRANCH  12  13
ENDBRANCH  11  12
ENDBRANCH   8  11
ENDBRANCH   1   9
BRANCH   4  21
ATOM     19  O   UNL     1      -3.597   2.246  -1.193  0.00  0.00    -0.126 OA
ATOM     20  O   UNL     1      -2.580   2.787   0.676  0.00  0.00    -0.126 OA
ATOM     21  N   UNL     1      -2.926   1.940  -0.180  0.00  0.00    +0.064 N 
ENDBRANCH   4  21
BRANCH   2  22
ATOM     22  O   UNL     1      -0.517   0.961  -1.206  0.00  0.00    -0.504 OA
ATOM     23  H   UNL     1       0.293   0.646  -1.556  0.00  0.00    +0.292 HD
ENDBRANCH   2  22
BRANCH   3  24
ATOM     24  O   UNL     1      -1.458  -3.389   0.561  0.00  0.00    -0.505 OA
ATOM     25  H   UNL     1      -0.651  -3.716   0.216  0.00  0.00    +0.292 HD
ENDBRANCH   3  24
BRANCH   6  26
ATOM     26  O   UNL     1      -4.564   0.143   1.232  0.00  0.00    -0.504 OA
ATOM     27  H   UNL     1      -4.830   1.035   1.119  0.00  0.00    +0.292 HD
ENDBRANCH   6  26
TORSDOF 12
