REMARK  Name = 124305
REMARK  10 active torsions:
REMARK  status: ('A' for Active; 'I' for Inactive)
REMARK    1  A    between atoms: N_3  and  C1*_15
REMARK    2  A    between atoms: C_10  and  C_24
REMARK    3  A    between atoms: C2*_13  and  O2*_17
REMARK    4  A    between atoms: C3*_14  and  O3*_19
REMARK    5  A    between atoms: C4*_16  and  C5*_21
REMARK    6  A    between atoms: C5*_21  and  O5*_22
REMARK    7  A    between atoms: C_24  and  C_25
REMARK    8  A    between atoms: C_25  and  C_26
REMARK    9  A    between atoms: C_26  and  C_28
REMARK   10  A    between atoms: C_28  and  O_29
REMARK                            x       y       z     vdW  Elec       q    Type
REMARK                         _______ _______ _______ _____ _____    ______ ____
ROOT
ATOM      1  O   UNL     1      -2.213   2.835  -1.148  0.00  0.00    -0.193 OA
ATOM      2  O   UNL     1       2.586  -0.871  -0.283  0.00  0.00    -0.275 OA
ATOM      3  N   UNL     1      -2.022   0.677  -0.344  0.00  0.00    -0.178 N 
ATOM      4  N   UNL     1      -0.132   2.134  -0.561  0.00  0.00    -0.305 NA
ATOM      5  N   UNL     1       1.934   1.339   0.057  0.00  0.00    -0.259 N 
ATOM      6  C   UNL     1      -1.207  -0.322   0.147  0.00  0.00    +0.083 C 
ATOM      7  C   UNL     1      -1.496   1.934  -0.709  0.00  0.00    +0.276 C 
ATOM      8  C   UNL     1       0.107  -0.156   0.299  0.00  0.00    +0.066 C 
ATOM      9  C   UNL     1       0.595   1.173  -0.099  0.00  0.00    +0.201 C 
ATOM     10  C   UNL     1       2.860   0.302  -0.045  0.00  0.00    +0.228 C 
ATOM     11  H   UNL     1       2.269   2.243   0.252  0.00  0.00    +0.157 HD
ENDROOT
BRANCH   3  15
ATOM     12  O4* UNL     1      -3.634  -0.950  -0.808  0.00  0.00    -0.332 OA
ATOM     13  C2* UNL     1      -4.191   0.712   0.803  0.00  0.00    +0.188 C 
ATOM     14  C3* UNL     1      -5.288  -0.327   0.749  0.00  0.00    +0.171 C 
ATOM     15  C1* UNL     1      -3.429   0.435  -0.484  0.00  0.00    +0.236 C 
ATOM     16  C4* UNL     1      -4.549  -1.510   0.148  0.00  0.00    +0.175 C 
BRANCH  13  17
ATOM     17  O2* UNL     1      -4.735   2.019   0.816  0.00  0.00    -0.378 OA
ATOM     18  H2* UNL     1      -5.212   2.163   1.648  0.00  0.00    +0.211 HD
ENDBRANCH  13  17
BRANCH  14  19
ATOM     19  O3* UNL     1      -5.789  -0.637   2.034  0.00  0.00    -0.379 OA
ATOM     20  H3* UNL     1      -6.256   0.133   2.394  0.00  0.00    +0.211 HD
ENDBRANCH  14  19
BRANCH  16  21
ATOM     21  C5* UNL     1      -5.464  -2.506  -0.539  0.00  0.00    +0.169 C 
BRANCH  21  22
ATOM     22  O5* UNL     1      -4.677  -3.560  -1.071  0.00  0.00    -0.379 OA
ATOM     23  H5* UNL     1      -5.254  -4.202  -1.513  0.00  0.00    +0.211 HD
ENDBRANCH  21  22
ENDBRANCH  16  21
ENDBRANCH   3  15
BRANCH  10  24
ATOM     24  C   UNL     1       4.282   0.805   0.142  0.00  0.00    +0.086 C 
BRANCH  24  25
ATOM     25  C   UNL     1       5.343  -0.292   0.041  0.00  0.00    +0.021 C 
BRANCH  25  26
ATOM     26  C   UNL     1       6.768   0.206   0.275  0.00  0.00    +0.110 C 
BRANCH  26  28
ATOM     27  O   UNL     1       7.505  -2.079   0.013  0.00  0.00    -0.250 OA
ATOM     28  C   UNL     1       7.788  -0.903   0.200  0.00  0.00    +0.314 C 
BRANCH  28  29
ATOM     29  O   UNL     1       9.058  -0.458   0.368  0.00  0.00    -0.480 OA
ATOM     30  H   UNL     1       9.220   0.454   0.508  0.00  0.00    +0.295 HD
ENDBRANCH  28  29
ENDBRANCH  26  28
ENDBRANCH  25  26
ENDBRANCH  24  25
ENDBRANCH  10  24
TORSDOF 10
