124317
  -OEChem-03292013323D

 29 30  0     1  0  0  0  0  0999 V2000
   -2.6208   -3.0266    0.3532 I   0  0  0  0  0  0  0  0  0  0  0  0
    1.6058   -0.1655   -0.9989 O   0  0  0  0  0  0  0  0  0  0  0  0
    3.8543    1.5697    0.1436 O   0  0  0  0  0  0  0  0  0  0  0  0
   -1.1003    2.8800   -0.3564 O   0  0  0  0  0  0  0  0  0  0  0  0
   -4.3664   -0.2989    0.2111 O   0  0  0  0  0  0  0  0  0  0  0  0
   -0.4304    0.6506   -0.1849 N   0  0  0  0  0  0  0  0  0  0  0  0
    2.2861   -2.9399   -0.6149 N   0  0  0  0  0  0  0  0  0  0  0  0
   -2.7145    1.2760   -0.0738 N   0  0  0  0  0  0  0  0  0  0  0  0
    3.0510    0.5526    0.7380 C   0  0  2  0  0  0  0  0  0  0  0  0
    2.7870   -0.5554   -0.2720 C   0  0  1  0  0  0  0  0  0  0  0  0
    1.6689    1.0951    1.0199 C   0  0  0  0  0  0  0  0  0  0  0  0
    0.9700    0.9264   -0.3193 C   0  0  1  0  0  0  0  0  0  0  0  0
    2.5099   -1.9018    0.3842 C   0  0  0  0  0  0  0  0  0  0  0  0
   -1.3853    1.6889   -0.2161 C   0  0  0  0  0  0  0  0  0  0  0  0
   -0.8330   -0.6695   -0.0211 C   0  0  0  0  0  0  0  0  0  0  0  0
   -2.1066   -1.0585    0.1151 C   0  0  0  0  0  0  0  0  0  0  0  0
   -3.1757   -0.0230    0.0922 C   0  0  0  0  0  0  0  0  0  0  0  0
    3.5713    0.2042    1.6352 H   0  0  0  0  0  0  0  0  0  0  0  0
    3.6095   -0.6398   -0.9920 H   0  0  0  0  0  0  0  0  0  0  0  0
    1.1147    1.8217   -0.9356 H   0  0  0  0  0  0  0  0  0  0  0  0
    1.1860    0.4895    1.7964 H   0  0  0  0  0  0  0  0  0  0  0  0
    1.6560    2.1384    1.3507 H   0  0  0  0  0  0  0  0  0  0  0  0
    1.6587   -1.8676    1.0688 H   0  0  0  0  0  0  0  0  0  0  0  0
    3.3762   -2.1964    0.9876 H   0  0  0  0  0  0  0  0  0  0  0  0
    3.9507    2.2833    0.7972 H   0  0  0  0  0  0  0  0  0  0  0  0
   -0.0631   -1.4215   -0.0084 H   0  0  0  0  0  0  0  0  0  0  0  0
    3.1019   -3.0106   -1.2224 H   0  0  0  0  0  0  0  0  0  0  0  0
    1.5124   -2.6697   -1.2210 H   0  0  0  0  0  0  0  0  0  0  0  0
   -3.4190    2.0082   -0.0935 H   0  0  0  0  0  0  0  0  0  0  0  0
  1 16  1  0  0  0  0
  2 10  1  0  0  0  0
  2 12  1  0  0  0  0
  3  9  1  0  0  0  0
  3 25  1  0  0  0  0
  4 14  2  0  0  0  0
  5 17  2  0  0  0  0
  6 12  1  0  0  0  0
  6 14  1  0  0  0  0
  6 15  1  0  0  0  0
  7 13  1  0  0  0  0
  7 27  1  0  0  0  0
  7 28  1  0  0  0  0
  8 14  1  0  0  0  0
  8 17  1  0  0  0  0
  8 29  1  0  0  0  0
  9 10  1  0  0  0  0
  9 11  1  0  0  0  0
  9 18  1  0  0  0  0
 10 13  1  0  0  0  0
 10 19  1  0  0  0  0
 11 12  1  0  0  0  0
 11 21  1  0  0  0  0
 11 22  1  0  0  0  0
 12 20  1  0  0  0  0
 13 23  1  0  0  0  0
 13 24  1  0  0  0  0
 15 16  2  0  0  0  0
 15 26  1  0  0  0  0
 16 17  1  0  0  0  0
M  END
> <PUBCHEM_COMPOUND_CID>
124317

> <PUBCHEM_CONFORMER_RMSD>
0.6

> <PUBCHEM_CONFORMER_DIVERSEORDER>
1
10
15
9
3
11
6
14
13
16
5
4
8
12
7
2

> <PUBCHEM_MMFF94_PARTIAL_CHARGES>
21
1 -0.09
10 0.28
12 0.58
13 0.27
14 0.69
15 -0.04
16 0.1
17 0.62
2 -0.56
25 0.4
26 0.15
27 0.36
28 0.36
29 0.37
3 -0.68
4 -0.57
5 -0.57
6 -0.47
7 -0.99
8 -0.49
9 0.28

> <PUBCHEM_EFFECTIVE_ROTOR_COUNT>
3

> <PUBCHEM_PHARMACOPHORE_FEATURES>
11
1 1 hydrophobe
1 2 acceptor
1 3 acceptor
1 3 donor
1 4 acceptor
1 5 acceptor
1 7 cation
1 7 donor
1 8 donor
5 2 9 10 11 12 rings
6 6 8 14 15 16 17 rings

> <PUBCHEM_HEAVY_ATOM_COUNT>
17

> <PUBCHEM_ATOM_DEF_STEREO_COUNT>
3

> <PUBCHEM_ATOM_UDEF_STEREO_COUNT>
0

> <PUBCHEM_BOND_DEF_STEREO_COUNT>
0

> <PUBCHEM_BOND_UDEF_STEREO_COUNT>
0

> <PUBCHEM_ISOTOPIC_ATOM_COUNT>
0

> <PUBCHEM_COMPONENT_COUNT>
1

> <PUBCHEM_CACTVS_TAUTO_COUNT>
3

> <PUBCHEM_CONFORMER_ID>
0001E59D00000001

> <PUBCHEM_MMFF94_ENERGY>
39.4103

> <PUBCHEM_FEATURE_SELFOVERLAP>
55.822

> <PUBCHEM_SHAPE_FINGERPRINT>
10366900 7 18130779113858654865
10608611 8 18339636746397382976
10616163 171 18337955717582952794
10618630 7 18334295374749087535
10967382 1 18410292527518308879
12382932 28 18338234972050820715
12500047 106 18336539430626065861
12553582 1 17975429215092535235
12839892 36 18267284582586609210
12932764 1 17632001005620452796
13140716 1 18195241350233484121
14178342 30 18267017435093218635
14223421 5 18412261735764065266
14251705 54 18048039854725802251
15219456 202 18342171133615775168
15375462 6 18411698781494610228
16945 1 18409450292889661669
17804303 29 18195252122127467926
17834074 16 18411702071307612210
19049666 15 18198054785856499536
19107657 46 18337953510011928151
19591789 44 18050008792688662609
19784866 170 18339642360019735896
20510252 161 18341048523923212321
20645477 70 18271239435205612255
20871998 184 18270400623813475743
21501502 16 18341331080920126592
23184049 29 18337386037489410850
2334 1 17833270096566405045
23402539 116 18115015441774305968
23557571 272 18269845357313674300
23559900 14 18411133615612286260
2748010 2 18191021192888653965
3312278 4 18338519754183750891
34934 24 18337385041278472727
58051976 378 18410855490741754204
69090 78 18342170077417810831
7364860 26 18341895156576927142
81228 2 18260835873506064801
8809292 202 18408888433974231466
9709674 26 18411982429582620718

> <PUBCHEM_SHAPE_MULTIPOLES>
323.37
6.47
3.15
0.81
0.64
1.36
0.06
1.24
0.78
0.89
-0.22
-0.3
0.09
0.62

> <PUBCHEM_SHAPE_SELFOVERLAP>
656.451

> <PUBCHEM_SHAPE_VOLUME>
192.4

> <PUBCHEM_COORDINATE_TYPE>
2
5
10

$$$$
