REMARK  Name = 124354
REMARK  4 active torsions:
REMARK  status: ('A' for Active; 'I' for Inactive)
REMARK    1  A    between atoms: N_3  and  C1*_12
REMARK    2  A    between atoms: C3*_14  and  O3*_16
REMARK    3  A    between atoms: C4*_15  and  C5*_18
REMARK    4  A    between atoms: C5*_18  and  O5*_19
REMARK                            x       y       z     vdW  Elec       q    Type
REMARK                         _______ _______ _______ _____ _____    ______ ____
ROOT
ATOM      1  O   UNL     1      -1.434  -2.563  -0.928  0.00  0.00    -0.252 OA
ATOM      2  O   UNL     1      -4.493   0.581   0.360  0.00  0.00    -0.252 OA
ATOM      3  N   UNL     1      -0.616  -0.478  -0.296  0.00  0.00    -0.223 N 
ATOM      4  N   UNL     1      -2.250   1.201   0.392  0.00  0.00    -0.244 N 
ATOM      5  N   UNL     1      -2.924  -0.889  -0.439  0.00  0.00    -0.223 N 
ATOM      6  C   UNL     1      -0.920   0.931  -0.125  0.00  0.00    +0.197 C 
ATOM      7  C   UNL     1      -1.627  -1.393  -0.591  0.00  0.00    +0.314 C 
ATOM      8  C   UNL     1      -3.309   0.336   0.117  0.00  0.00    +0.312 C 
ATOM      9  C   UNL     1      -2.488   2.514   0.972  0.00  0.00    +0.118 C 
ATOM     10  H   UNL     1      -3.653  -1.466  -0.763  0.00  0.00    +0.161 HD
ENDROOT
BRANCH   3  12
ATOM     11  O4* UNL     1       1.534   0.299  -0.811  0.00  0.00    -0.335 OA
ATOM     12  C1* UNL     1       0.766  -0.845  -0.406  0.00  0.00    +0.199 C 
ATOM     13  C2* UNL     1       1.356  -1.336   0.904  0.00  0.00    +0.083 C 
ATOM     14  C3* UNL     1       2.800  -0.916   0.768  0.00  0.00    +0.144 C 
ATOM     15  C4* UNL     1       2.655   0.431   0.079  0.00  0.00    +0.173 C 
BRANCH  14  16
ATOM     16  O3* UNL     1       3.427  -0.811   2.029  0.00  0.00    -0.382 OA
ATOM     17  H3* UNL     1       3.497  -1.692   2.429  0.00  0.00    +0.210 HD
ENDBRANCH  14  16
BRANCH  15  18
ATOM     18  C5* UNL     1       3.886   0.841  -0.711  0.00  0.00    +0.169 C 
BRANCH  18  19
ATOM     19  O5* UNL     1       3.638   2.097  -1.316  0.00  0.00    -0.379 OA
ATOM     20  H5* UNL     1       4.418   2.371  -1.824  0.00  0.00    +0.211 HD
ENDBRANCH  18  19
ENDBRANCH  15  18
ENDBRANCH   3  12
TORSDOF 4
