124379
  -OEChem-03292013323D

 33 35  0     1  0  0  0  0  0999 V2000
   -1.3569    1.0129   -0.9048 O   0  0  0  0  0  0  0  0  0  0  0  0
   -1.0431   -1.8220    1.2964 O   0  0  0  0  0  0  0  0  0  0  0  0
   -2.7801    3.3753   -0.4270 O   0  0  0  0  0  0  0  0  0  0  0  0
    0.7906    0.3900   -0.1222 N   0  0  0  0  0  0  0  0  0  0  0  0
   -3.2538   -1.3710   -0.2641 N   0  0  0  0  0  0  0  0  0  0  0  0
    2.4875    1.7631    0.3394 N   0  0  0  0  0  0  0  0  0  0  0  0
    2.0189   -1.6688   -0.5157 N   0  0  0  0  0  0  0  0  0  0  0  0
   -4.4792   -1.5627   -0.2199 N   0  3  0  0  0  0  0  0  0  0  0  0
    4.4213   -1.3352   -0.2450 N   0  0  0  0  0  0  0  0  0  0  0  0
    5.3664    0.7847    0.3378 N   0  0  0  0  0  0  0  0  0  0  0  0
   -5.6041   -1.7490   -0.1881 N   0  5  0  0  0  0  0  0  0  0  0  0
   -1.3062   -0.4821    0.9319 C   0  0  1  0  0  0  0  0  0  0  0  0
   -0.5824   -0.0602   -0.3382 C   0  0  1  0  0  0  0  0  0  0  0  0
   -2.7568   -0.2548    0.5549 C   0  0  1  0  0  0  0  0  0  0  0  0
   -2.6788    0.9910   -0.3234 C   0  0  1  0  0  0  0  0  0  0  0  0
   -2.8795    2.2788    0.4644 C   0  0  0  0  0  0  0  0  0  0  0  0
    1.9263   -0.3654   -0.2120 C   0  0  0  0  0  0  0  0  0  0  0  0
    1.1811    1.6613    0.2109 C   0  0  0  0  0  0  0  0  0  0  0  0
    2.9659    0.5038    0.0780 C   0  0  0  0  0  0  0  0  0  0  0  0
    4.2527   -0.0247    0.0545 C   0  0  0  0  0  0  0  0  0  0  0  0
    3.3102   -2.0651   -0.5076 C   0  0  0  0  0  0  0  0  0  0  0  0
   -1.0290    0.1675    1.7713 H   0  0  0  0  0  0  0  0  0  0  0  0
   -0.5393   -0.8705   -1.0762 H   0  0  0  0  0  0  0  0  0  0  0  0
   -3.3888   -0.1280    1.4424 H   0  0  0  0  0  0  0  0  0  0  0  0
   -3.3918    0.9666   -1.1560 H   0  0  0  0  0  0  0  0  0  0  0  0
   -2.1165    2.4085    1.2386 H   0  0  0  0  0  0  0  0  0  0  0  0
   -3.8670    2.3046    0.9344 H   0  0  0  0  0  0  0  0  0  0  0  0
   -1.6271   -2.0413    2.0422 H   0  0  0  0  0  0  0  0  0  0  0  0
    0.4768    2.4697    0.3524 H   0  0  0  0  0  0  0  0  0  0  0  0
   -1.8999    3.3393   -0.8393 H   0  0  0  0  0  0  0  0  0  0  0  0
    3.4823   -3.1099   -0.7432 H   0  0  0  0  0  0  0  0  0  0  0  0
    5.2431    1.7627    0.5626 H   0  0  0  0  0  0  0  0  0  0  0  0
    6.2912    0.3771    0.3155 H   0  0  0  0  0  0  0  0  0  0  0  0
  1 13  1  0  0  0  0
  1 15  1  0  0  0  0
  2 12  1  0  0  0  0
  2 28  1  0  0  0  0
  3 16  1  0  0  0  0
  3 30  1  0  0  0  0
  4 13  1  0  0  0  0
  4 17  1  0  0  0  0
  4 18  1  0  0  0  0
  5  8  2  0  0  0  0
  5 14  1  0  0  0  0
  6 18  2  0  0  0  0
  6 19  1  0  0  0  0
  7 17  2  0  0  0  0
  7 21  1  0  0  0  0
  8 11  2  0  0  0  0
  9 20  1  0  0  0  0
  9 21  2  0  0  0  0
 10 20  1  0  0  0  0
 10 32  1  0  0  0  0
 10 33  1  0  0  0  0
 12 13  1  0  0  0  0
 12 14  1  0  0  0  0
 12 22  1  0  0  0  0
 13 23  1  0  0  0  0
 14 15  1  0  0  0  0
 14 24  1  0  0  0  0
 15 16  1  0  0  0  0
 15 25  1  0  0  0  0
 16 26  1  0  0  0  0
 16 27  1  0  0  0  0
 17 19  1  0  0  0  0
 18 29  1  0  0  0  0
 19 20  2  0  0  0  0
 21 31  1  0  0  0  0
M  CHG  2   8   1  11  -1
M  END
> <PUBCHEM_COMPOUND_CID>
124379

> <PUBCHEM_CONFORMER_RMSD>
0.6

> <PUBCHEM_CONFORMER_DIVERSEORDER>
1
38
14
79
17
23
72
8
4
69
20
19
87
49
63
15
52
36
5
85
22
2
65
11
82
34
30
68
78
43
86
61
9
33
24
10
48
57
12
71
28
67
3
42
6
83
18
47
46
35
75
37
73
7
56
16
60
50
32
80
41
58
13
27
25
59
45
31
54
53
62
64
77
40
51
66
26
39
84
21
76
44
70
55
81
29
74

> <PUBCHEM_MMFF94_PARTIAL_CHARGES>
27
1 -0.56
10 -0.9
11 -0.37
12 0.28
13 0.54
14 0.25
15 0.28
16 0.28
17 0.11
18 0.04
19 0.23
2 -0.68
20 0.41
21 0.47
28 0.4
29 0.15
3 -0.68
30 0.4
31 0.15
32 0.4
33 0.4
4 0.05
5 -0.56
6 -0.57
7 -0.57
8 0.69
9 -0.62

> <PUBCHEM_EFFECTIVE_ROTOR_COUNT>
4

> <PUBCHEM_PHARMACOPHORE_FEATURES>
13
1 1 acceptor
1 10 cation
1 10 donor
1 2 acceptor
1 2 donor
1 3 acceptor
1 3 donor
3 4 6 18 cation
3 4 7 17 cation
3 7 9 21 cation
5 1 12 13 14 15 rings
5 4 6 17 18 19 rings
6 7 9 17 19 20 21 rings

> <PUBCHEM_HEAVY_ATOM_COUNT>
21

> <PUBCHEM_ATOM_DEF_STEREO_COUNT>
3

> <PUBCHEM_ATOM_UDEF_STEREO_COUNT>
1

> <PUBCHEM_BOND_DEF_STEREO_COUNT>
0

> <PUBCHEM_BOND_UDEF_STEREO_COUNT>
0

> <PUBCHEM_ISOTOPIC_ATOM_COUNT>
0

> <PUBCHEM_COMPONENT_COUNT>
1

> <PUBCHEM_CACTVS_TAUTO_COUNT>
3

> <PUBCHEM_CONFORMER_ID>
0001E5DB00000001

> <PUBCHEM_MMFF94_ENERGY>
42.6085

> <PUBCHEM_FEATURE_SELFOVERLAP>
66.58

> <PUBCHEM_SHAPE_FINGERPRINT>
10366900 7 18337399352014336808
10608611 8 18410855447565474528
1100329 8 15959210247230284808
11578080 2 16771792590435481961
12236239 1 17132122367720501810
12403259 226 18341326768804785441
12403260 363 18335416889536506048
13296908 3 18341333293123559774
13583140 156 17632280268615062072
15196674 1 18411982421461742694
15219456 202 18410858720509505892
15375358 24 18410855413537629856
17492 89 18342176618173598007
18186145 218 18042688291262252324
200 152 18131349739203431467
20281475 54 18335422314343932110
21267235 1 18342184379579882766
21501502 16 18409176501598985012
23402539 116 18408599288628567565
23557571 272 18261387875550594045
23558518 356 18334301929159357573
23559900 14 18192709162096174737
2871803 45 18334289885834059551
3286 77 18411135852836489100
3380486 145 17757847988695470563
350125 39 18341896320012144769
4214541 1 18340488867840155725
5104073 3 18271519798086207618
69090 78 18412262878204611379
81228 2 18113905983097542705
8809292 202 18263650576091457792
9709674 26 18409455786379887898

> <PUBCHEM_SHAPE_MULTIPOLES>
374.71
9.77
2.6
0.81
0.68
1.01
0.1
-2.95
-0.39
-2.02
-0.15
-0.21
-0.09
0.53

> <PUBCHEM_SHAPE_SELFOVERLAP>
812.487

> <PUBCHEM_SHAPE_VOLUME>
200.7

> <PUBCHEM_COORDINATE_TYPE>
2
5
10

$$$$
