REMARK  Name = 124325
REMARK  8 active torsions:
REMARK  status: ('A' for Active; 'I' for Inactive)
REMARK    1  A    between atoms: C_2  and  O_15
REMARK    2  A    between atoms: C_3  and  O_17
REMARK    3  A    between atoms: C_4  and  C_19
REMARK    4  A    between atoms: C_5  and  N_8
REMARK    5  A    between atoms: C_19  and  O_20
REMARK    6  A    between atoms: O_20  and  P_21
REMARK    7  A    between atoms: P_21  and  N_23
REMARK    8  A    between atoms: P_21  and  O_28
REMARK                            x       y       z     vdW  Elec       q    Type
REMARK                         _______ _______ _______ _____ _____    ______ ____
ROOT
ATOM      1  O   UNL     1       0.859   1.415   1.104  0.00  0.00    -0.333 OA
ATOM      2  C   UNL     1       0.636   2.855  -0.764  0.00  0.00    +0.171 C 
ATOM      3  C   UNL     1       1.659   1.789  -1.095  0.00  0.00    +0.187 C 
ATOM      4  C   UNL     1      -0.110   2.229   0.406  0.00  0.00    +0.176 C 
ATOM      5  C   UNL     1       2.029   1.269   0.283  0.00  0.00    +0.229 C 
ENDROOT
BRANCH   5   8
ATOM      6  O   UNL     1       4.695   0.359   0.077  0.00  0.00    -0.252 OA
ATOM      7  O   UNL     1       3.389  -4.059   0.210  0.00  0.00    -0.270 OA
ATOM      8  N   UNL     1       2.414  -0.113   0.262  0.00  0.00    -0.217 N 
ATOM      9  N   UNL     1       4.043  -1.841   0.143  0.00  0.00    -0.236 N 
ATOM     10  C   UNL     1       3.780  -0.464   0.155  0.00  0.00    +0.315 C 
ATOM     11  C   UNL     1       1.444  -1.105   0.347  0.00  0.00    +0.076 C 
ATOM     12  C   UNL     1       1.709  -2.413   0.335  0.00  0.00    +0.074 C 
ATOM     13  C   UNL     1       3.111  -2.864   0.225  0.00  0.00    +0.254 C 
ATOM     14  H   UNL     1       4.987  -2.109   0.068  0.00  0.00    +0.159 HD
ENDBRANCH   5   8
BRANCH   2  15
ATOM     15  O   UNL     1       1.285   4.035  -0.291  0.00  0.00    -0.379 OA
ATOM     16  H   UNL     1       1.768   4.453  -1.021  0.00  0.00    +0.211 HD
ENDBRANCH   2  15
BRANCH   3  17
ATOM     17  O   UNL     1       2.770   2.311  -1.796  0.00  0.00    -0.378 OA
ATOM     18  H   UNL     1       2.483   2.629  -2.666  0.00  0.00    +0.211 HD
ENDBRANCH   3  17
BRANCH   4  19
ATOM     19  C   UNL     1      -1.261   1.330  -0.025  0.00  0.00    +0.185 C 
BRANCH  19  20
ATOM     20  O   UNL     1      -1.876   0.794   1.133  0.00  0.00    -0.277 OA
BRANCH  20  21
ATOM     21  P   UNL     1      -3.450   0.432   1.128  0.00  0.00    +0.433 P 
ATOM     22  O   UNL     1      -4.004  -0.207   2.365  0.00  0.00    -0.236 OA
BRANCH  21  23
ATOM     23  N   UNL     1      -3.635  -0.714  -0.084  0.00  0.00    -0.184 N 
ATOM     24  N   UNL     1      -4.308  -1.667  -2.014  0.00  0.00    -0.224 NA
ATOM     25  C   UNL     1      -3.093  -1.992  -0.128  0.00  0.00    +0.097 C 
ATOM     26  C   UNL     1      -4.360  -0.590  -1.262  0.00  0.00    +0.176 C 
ATOM     27  C   UNL     1      -3.521  -2.545  -1.312  0.00  0.00    +0.117 C 
ENDBRANCH  21  23
BRANCH  21  28
ATOM     28  O   UNL     1      -4.204   1.756   0.597  0.00  0.00    -0.309 OA
ATOM     29  H   UNL     1      -4.130   2.459   1.261  0.00  0.00    +0.221 HD
ENDBRANCH  21  28
ENDBRANCH  20  21
ENDBRANCH  19  20
ENDBRANCH   4  19
TORSDOF 8
