REMARK  Name = 124345
REMARK  5 active torsions:
REMARK  status: ('A' for Active; 'I' for Inactive)
REMARK    1  A    between atoms: C_2  and  O_17
REMARK    2  A    between atoms: C_3  and  O_19
REMARK    3  A    between atoms: C_4  and  C_10
REMARK    4  A    between atoms: C_5  and  C_21
REMARK    5  A    between atoms: C_21  and  O_22
REMARK                            x       y       z     vdW  Elec       q    Type
REMARK                         _______ _______ _______ _____ _____    ______ ____
ROOT
ATOM      1  O   UNL     1       1.407   0.571   0.991  0.00  0.00    -0.346 OA
ATOM      2  C   UNL     1       1.399  -0.958  -0.816  0.00  0.00    +0.171 C 
ATOM      3  C   UNL     1       2.838  -0.626  -0.476  0.00  0.00    +0.169 C 
ATOM      4  C   UNL     1       0.674  -0.548   0.458  0.00  0.00    +0.173 C 
ATOM      5  C   UNL     1       2.686   0.663   0.323  0.00  0.00    +0.174 C 
ENDROOT
BRANCH   4  10
ATOM      6  O   UNL     1      -1.559  -2.317   0.725  0.00  0.00    -0.270 OA
ATOM      7  N   UNL     1      -3.084  -0.675   0.174  0.00  0.00    -0.254 N 
ATOM      8  N   UNL     1      -2.411   1.521  -0.334  0.00  0.00    -0.216 NA
ATOM      9  N   UNL     1      -4.683   0.939  -0.376  0.00  0.00    -0.331 N 
ATOM     10  C   UNL     1      -0.741  -0.140   0.234  0.00  0.00    +0.080 C 
ATOM     11  C   UNL     1      -1.810  -1.159   0.406  0.00  0.00    +0.251 C 
ATOM     12  C   UNL     1      -1.126   1.097  -0.117  0.00  0.00    +0.104 C 
ATOM     13  C   UNL     1      -3.360   0.638  -0.187  0.00  0.00    +0.185 C 
ATOM     14  H   UNL     1      -3.841  -1.297   0.270  0.00  0.00    +0.158 HD
ATOM     15  H   UNL     1      -5.368   0.242  -0.254  0.00  0.00    +0.145 HD
ATOM     16  H   UNL     1      -4.949   1.851  -0.633  0.00  0.00    +0.145 HD
ENDBRANCH   4  10
BRANCH   2  17
ATOM     17  O   UNL     1       1.204  -2.325  -1.117  0.00  0.00    -0.379 OA
ATOM     18  H   UNL     1       1.680  -2.547  -1.933  0.00  0.00    +0.211 HD
ENDBRANCH   2  17
BRANCH   3  19
ATOM     19  O   UNL     1       3.374  -1.638   0.376  0.00  0.00    -0.379 OA
ATOM     20  H   UNL     1       3.474  -2.462  -0.124  0.00  0.00    +0.211 HD
ENDBRANCH   3  19
BRANCH   5  21
ATOM     21  C   UNL     1       2.674   1.911  -0.549  0.00  0.00    +0.169 C 
BRANCH  21  22
ATOM     22  O   UNL     1       2.517   3.046   0.285  0.00  0.00    -0.379 OA
ATOM     23  H   UNL     1       2.508   3.848  -0.260  0.00  0.00    +0.211 HD
ENDBRANCH  21  22
ENDBRANCH   5  21
TORSDOF 5
