REMARK  Name = 124316
REMARK  6 active torsions:
REMARK  status: ('A' for Active; 'I' for Inactive)
REMARK    1  A    between atoms: N_2  and  C1*_13
REMARK    2  A    between atoms: C_10  and  N_24
REMARK    3  A    between atoms: C2*_14  and  O2*_17
REMARK    4  A    between atoms: C3*_15  and  O3*_19
REMARK    5  A    between atoms: C4*_16  and  C5*_21
REMARK    6  A    between atoms: C5*_21  and  O5*_22
REMARK                            x       y       z     vdW  Elec       q    Type
REMARK                         _______ _______ _______ _____ _____    ______ ____
ROOT
ATOM      1  O   UNL     1      -4.198  -1.985   0.431  0.00  0.00    -0.268 OA
ATOM      2  N   UNL     1       0.007  -0.403  -0.120  0.00  0.00    -0.220 NA
ATOM      3  N   UNL     1      -1.236  -2.217   0.333  0.00  0.00    -0.250 NA
ATOM      4  N   UNL     1      -3.936   0.273  -0.072  0.00  0.00    -0.269 N 
ATOM      5  C   UNL     1      -1.294  -0.011  -0.141  0.00  0.00    +0.131 C 
ATOM      6  C   UNL     1      -0.011  -1.750   0.172  0.00  0.00    +0.203 C 
ATOM      7  C   UNL     1      -2.034  -1.128   0.138  0.00  0.00    +0.128 C 
ATOM      8  C   UNL     1      -1.789   1.274  -0.395  0.00  0.00    +0.025 C 
ATOM      9  C   UNL     1      -3.472  -1.028   0.187  0.00  0.00    +0.265 C 
ATOM     10  C   UNL     1      -3.140   1.399  -0.356  0.00  0.00    +0.094 C 
ATOM     11  H   UNL     1      -4.911   0.409  -0.054  0.00  0.00    +0.156 HD
ENDROOT
BRANCH   2  13
ATOM     12  O4* UNL     1       2.217  -0.401  -0.984  0.00  0.00    -0.336 OA
ATOM     13  C1* UNL     1       1.202   0.404  -0.354  0.00  0.00    +0.208 C 
ATOM     14  C2* UNL     1       1.831   0.962   0.914  0.00  0.00    +0.183 C 
ATOM     15  C3* UNL     1       3.270   1.156   0.477  0.00  0.00    +0.171 C 
ATOM     16  C4* UNL     1       3.504  -0.056  -0.420  0.00  0.00    +0.175 C 
BRANCH  14  17
ATOM     17  O2* UNL     1       1.211   2.163   1.326  0.00  0.00    -0.378 OA
ATOM     18  H2* UNL     1       0.297   1.979   1.593  0.00  0.00    +0.211 HD
ENDBRANCH  14  17
BRANCH  15  19
ATOM     19  O3* UNL     1       3.371   2.340  -0.314  0.00  0.00    -0.379 OA
ATOM     20  H3* UNL     1       3.224   3.117   0.248  0.00  0.00    +0.211 HD
ENDBRANCH  15  19
BRANCH  16  21
ATOM     21  C5* UNL     1       4.035  -1.263   0.340  0.00  0.00    +0.169 C 
BRANCH  21  22
ATOM     22  O5* UNL     1       4.208  -2.333  -0.573  0.00  0.00    -0.379 OA
ATOM     23  H5* UNL     1       4.547  -3.109  -0.100  0.00  0.00    +0.211 HD
ENDBRANCH  21  22
ENDBRANCH  16  21
ENDBRANCH   2  13
BRANCH  10  24
ATOM     24  N   UNL     1      -3.745   2.606  -0.588  0.00  0.00    -0.346 N 
ATOM     25  H   UNL     1      -4.727   2.679  -0.556  0.00  0.00    +0.143 HD
ATOM     26  H   UNL     1      -3.199   3.400  -0.787  0.00  0.00    +0.143 HD
ENDBRANCH  10  24
TORSDOF 6
