124305
  -OEChem-03292013323D

 44 45  0     1  0  0  0  0  0999 V2000
   -3.6344   -0.9501   -0.8079 O   0  0  0  0  0  0  0  0  0  0  0  0
   -4.7348    2.0194    0.8158 O   0  0  0  0  0  0  0  0  0  0  0  0
   -5.7894   -0.6372    2.0345 O   0  0  0  0  0  0  0  0  0  0  0  0
   -4.6772   -3.5596   -1.0715 O   0  0  0  0  0  0  0  0  0  0  0  0
   -2.2126    2.8352   -1.1479 O   0  0  0  0  0  0  0  0  0  0  0  0
    2.5856   -0.8712   -0.2830 O   0  0  0  0  0  0  0  0  0  0  0  0
    9.0576   -0.4580    0.3681 O   0  0  0  0  0  0  0  0  0  0  0  0
    7.5052   -2.0793    0.0130 O   0  0  0  0  0  0  0  0  0  0  0  0
   -2.0219    0.6775   -0.3436 N   0  0  0  0  0  0  0  0  0  0  0  0
   -0.1317    2.1344   -0.5613 N   0  0  0  0  0  0  0  0  0  0  0  0
    1.9337    1.3387    0.0565 N   0  0  0  0  0  0  0  0  0  0  0  0
   -4.1910    0.7119    0.8027 C   0  0  1  0  0  0  0  0  0  0  0  0
   -5.2882   -0.3274    0.7487 C   0  0  1  0  0  0  0  0  0  0  0  0
   -3.4295    0.4346   -0.4840 C   0  0  2  0  0  0  0  0  0  0  0  0
   -4.5487   -1.5096    0.1485 C   0  0  1  0  0  0  0  0  0  0  0  0
   -5.4639   -2.5063   -0.5389 C   0  0  0  0  0  0  0  0  0  0  0  0
   -1.2069   -0.3222    0.1466 C   0  0  0  0  0  0  0  0  0  0  0  0
   -1.4957    1.9341   -0.7092 C   0  0  0  0  0  0  0  0  0  0  0  0
    0.1072   -0.1561    0.2994 C   0  0  0  0  0  0  0  0  0  0  0  0
    0.5954    1.1725   -0.0987 C   0  0  0  0  0  0  0  0  0  0  0  0
    4.2823    0.8053    0.1417 C   0  0  0  0  0  0  0  0  0  0  0  0
    2.8601    0.3019   -0.0447 C   0  0  0  0  0  0  0  0  0  0  0  0
    5.3432   -0.2920    0.0405 C   0  0  0  0  0  0  0  0  0  0  0  0
    6.7682    0.2063    0.2747 C   0  0  0  0  0  0  0  0  0  0  0  0
    7.7876   -0.9029    0.2000 C   0  0  0  0  0  0  0  0  0  0  0  0
   -3.5765    0.5937    1.7027 H   0  0  0  0  0  0  0  0  0  0  0  0
   -6.1206    0.0102    0.1193 H   0  0  0  0  0  0  0  0  0  0  0  0
   -3.8241    1.0256   -1.3190 H   0  0  0  0  0  0  0  0  0  0  0  0
   -3.9519   -2.0338    0.9061 H   0  0  0  0  0  0  0  0  0  0  0  0
   -6.1865   -2.9358    0.1608 H   0  0  0  0  0  0  0  0  0  0  0  0
   -6.0077   -2.0454   -1.3701 H   0  0  0  0  0  0  0  0  0  0  0  0
   -5.2879    2.1308    0.0240 H   0  0  0  0  0  0  0  0  0  0  0  0
   -6.4393   -1.3531    1.9328 H   0  0  0  0  0  0  0  0  0  0  0  0
   -1.6669   -1.2480    0.4700 H   0  0  0  0  0  0  0  0  0  0  0  0
   -4.0349   -3.1643   -1.6854 H   0  0  0  0  0  0  0  0  0  0  0  0
    0.6799   -0.9134    0.8120 H   0  0  0  0  0  0  0  0  0  0  0  0
    2.2892    2.2901    0.0092 H   0  0  0  0  0  0  0  0  0  0  0  0
    4.3435    1.2862    1.1256 H   0  0  0  0  0  0  0  0  0  0  0  0
    4.4761    1.5726   -0.6175 H   0  0  0  0  0  0  0  0  0  0  0  0
    5.2795   -0.7663   -0.9476 H   0  0  0  0  0  0  0  0  0  0  0  0
    5.1112   -1.0823    0.7667 H   0  0  0  0  0  0  0  0  0  0  0  0
    6.8401    0.6652    1.2669 H   0  0  0  0  0  0  0  0  0  0  0  0
    7.0232    0.9558   -0.4826 H   0  0  0  0  0  0  0  0  0  0  0  0
    9.7109   -1.1882    0.3200 H   0  0  0  0  0  0  0  0  0  0  0  0
  1 14  1  0  0  0  0
  1 15  1  0  0  0  0
  2 12  1  0  0  0  0
  2 32  1  0  0  0  0
  3 13  1  0  0  0  0
  3 33  1  0  0  0  0
  4 16  1  0  0  0  0
  4 35  1  0  0  0  0
  5 18  2  0  0  0  0
  6 22  2  0  0  0  0
  7 25  1  0  0  0  0
  7 44  1  0  0  0  0
  8 25  2  0  0  0  0
  9 14  1  0  0  0  0
  9 17  1  0  0  0  0
  9 18  1  0  0  0  0
 10 18  1  0  0  0  0
 10 20  2  0  0  0  0
 11 20  1  0  0  0  0
 11 22  1  0  0  0  0
 11 37  1  0  0  0  0
 12 13  1  0  0  0  0
 12 14  1  0  0  0  0
 12 26  1  0  0  0  0
 13 15  1  0  0  0  0
 13 27  1  0  0  0  0
 14 28  1  0  0  0  0
 15 16  1  0  0  0  0
 15 29  1  0  0  0  0
 16 30  1  0  0  0  0
 16 31  1  0  0  0  0
 17 19  2  0  0  0  0
 17 34  1  0  0  0  0
 19 20  1  0  0  0  0
 19 36  1  0  0  0  0
 21 22  1  0  0  0  0
 21 23  1  0  0  0  0
 21 38  1  0  0  0  0
 21 39  1  0  0  0  0
 23 24  1  0  0  0  0
 23 40  1  0  0  0  0
 23 41  1  0  0  0  0
 24 25  1  0  0  0  0
 24 42  1  0  0  0  0
 24 43  1  0  0  0  0
M  END
> <PUBCHEM_COMPOUND_CID>
124305

> <PUBCHEM_CONFORMER_RMSD>
1

> <PUBCHEM_CONFORMER_DIVERSEORDER>
1
87
16
69
66
90
70
52
83
73
75
119
29
88
108
39
4
28
101
51
99
117
49
40
14
100
57
2
106
9
118
86
17
46
109
78
10
35
104
58
62
111
103
6
20
60
61
64
31
96
94
41
19
120
84
47
79
48
44
18
91
55
33
72
8
82
115
107
85
54
92
68
53
12
114
36
59
71
45
13
5
80
37
110
77
113
65
21
112
30
81
42
56
76
74
95
7
26
93
67
3
43
97
102
89
32
11
63
98
50
25
116
34
38
23
105
27
24
22
15

> <PUBCHEM_MMFF94_PARTIAL_CHARGES>
31
1 -0.56
10 -0.66
11 -0.49
12 0.28
13 0.28
14 0.58
15 0.28
16 0.28
17 -0.04
18 0.84
19 -0.14
2 -0.68
20 0.5
21 0.06
22 0.57
24 0.06
25 0.66
3 -0.68
32 0.4
33 0.4
34 0.15
35 0.4
36 0.15
37 0.37
4 -0.68
44 0.5
5 -0.57
6 -0.57
7 -0.65
8 -0.57
9 -0.47

> <PUBCHEM_EFFECTIVE_ROTOR_COUNT>
9

> <PUBCHEM_PHARMACOPHORE_FEATURES>
16
1 1 acceptor
1 10 donor
1 11 donor
1 2 acceptor
1 2 donor
1 3 acceptor
1 3 donor
1 4 acceptor
1 4 donor
1 5 acceptor
1 6 acceptor
1 7 acceptor
1 8 acceptor
3 7 8 25 anion
5 1 12 13 14 15 rings
6 9 10 17 18 19 20 rings

> <PUBCHEM_HEAVY_ATOM_COUNT>
25

> <PUBCHEM_ATOM_DEF_STEREO_COUNT>
3

> <PUBCHEM_ATOM_UDEF_STEREO_COUNT>
1

> <PUBCHEM_BOND_DEF_STEREO_COUNT>
0

> <PUBCHEM_BOND_UDEF_STEREO_COUNT>
0

> <PUBCHEM_ISOTOPIC_ATOM_COUNT>
0

> <PUBCHEM_COMPONENT_COUNT>
1

> <PUBCHEM_CACTVS_TAUTO_COUNT>
4

> <PUBCHEM_CONFORMER_ID>
0001E59100000001

> <PUBCHEM_MMFF94_ENERGY>
66.5526

> <PUBCHEM_FEATURE_SELFOVERLAP>
81.318

> <PUBCHEM_SHAPE_FINGERPRINT>
10299344 5 18410296913397134976
11315181 36 18413107273191031785
11524674 6 17060336336128201254
11963148 33 18408877435238953534
12091667 2 17240483585118375860
12166972 35 18113059338091695556
125118 31 9727340343864808798
12760667 363 18333733528591705570
13288520 33 18335137600856619029
13583140 156 16271926017541373657
13782708 43 18412820292472195658
13862211 1 18335701680133147110
14251764 18 18335140908703954404
14344974 204 17916304008032935462
14556957 393 16081377310821066470
14729087 3 10519982656693418178
14849402 71 17844808273506543032
15183329 4 17894342294455230034
15716309 27 18335424577485871896
17093844 174 18412260614793652945
17780758 139 18131634474181619897
18927931 339 18187364316051497349
21033648 29 14764088752311005097
21130935 74 18272367573507918634
21150785 3 13984665858601452474
21267235 1 18186806897773483561
23402539 116 17821728334179045325
23522609 53 18192462768967018364
23559900 14 18335413625599504356
2838139 119 8142079866945025738
300161 21 11455889153221926956
328310 630 11239993490566165938
397830 11 17488731415427893810
4169191 19 10592044661488887402
445580 167 17749395905853707884
5104073 3 18339354150977482368
58260988 114 17313969518856352897
636775 8 17749402464084360282
9953998 17 18060139842781444827
9996256 80 18410009923540147386
999808 66 18259992582262566066

> <PUBCHEM_SHAPE_MULTIPOLES>
452.59
21.11
2.57
0.97
44.76
0.73
-0.2
13.12
-4.04
-3.82
0.96
-1.57
0.02
-0.74

> <PUBCHEM_SHAPE_SELFOVERLAP>
941.95

> <PUBCHEM_SHAPE_VOLUME>
255.2

> <PUBCHEM_COORDINATE_TYPE>
2
5
10

$$$$
