REMARK  Name = 124317
REMARK  4 active torsions:
REMARK  status: ('A' for Active; 'I' for Inactive)
REMARK    1  A    between atoms: C_2  and  O_16
REMARK    2  A    between atoms: C_3  and  C_18
REMARK    3  A    between atoms: C_5  and  N_9
REMARK    4  A    between atoms: C_18  and  N_19
REMARK                            x       y       z     vdW  Elec       q    Type
REMARK                         _______ _______ _______ _____ _____    ______ ____
ROOT
ATOM      1  O   UNL     1       1.606  -0.166  -0.999  0.00  0.00    -0.339 OA
ATOM      2  C   UNL     1       3.051   0.553   0.738  0.00  0.00    +0.140 C 
ATOM      3  C   UNL     1       2.787  -0.555  -0.272  0.00  0.00    +0.122 C 
ATOM      4  C   UNL     1       1.669   1.095   1.020  0.00  0.00    +0.083 C 
ATOM      5  C   UNL     1       0.970   0.926  -0.319  0.00  0.00    +0.201 C 
ENDROOT
BRANCH   5   9
ATOM      6  I   UNL     1      -2.621  -3.027   0.353  0.00  0.00    -0.036 I 
ATOM      7  O   UNL     1      -1.100   2.880  -0.356  0.00  0.00    -0.252 OA
ATOM      8  O   UNL     1      -4.366  -0.299   0.211  0.00  0.00    -0.269 OA
ATOM      9  N   UNL     1      -0.430   0.651  -0.185  0.00  0.00    -0.218 N 
ATOM     10  N   UNL     1      -2.715   1.276  -0.074  0.00  0.00    -0.235 N 
ATOM     11  C   UNL     1      -1.385   1.689  -0.216  0.00  0.00    +0.315 C 
ATOM     12  C   UNL     1      -0.833  -0.669  -0.021  0.00  0.00    +0.081 C 
ATOM     13  C   UNL     1      -2.107  -1.058   0.115  0.00  0.00    +0.099 C 
ATOM     14  C   UNL     1      -3.176  -0.023   0.092  0.00  0.00    +0.259 C 
ATOM     15  H   UNL     1      -3.398   1.984  -0.094  0.00  0.00    +0.159 HD
ENDBRANCH   5   9
BRANCH   2  16
ATOM     16  O   UNL     1       3.854   1.570   0.144  0.00  0.00    -0.382 OA
ATOM     17  H   UNL     1       4.740   1.218  -0.036  0.00  0.00    +0.210 HD
ENDBRANCH   2  16
BRANCH   3  18
ATOM     18  C   UNL     1       2.510  -1.902   0.384  0.00  0.00    -0.053 C 
BRANCH  18  19
ATOM     19  N   UNL     1       2.286  -2.940  -0.615  0.00  0.00    +0.382 N 
ATOM     20  H   UNL     1       2.104  -3.828  -0.147  0.00  0.00    -0.089 HD
ATOM     21  H   UNL     1       3.114  -3.029  -1.204  0.00  0.00    -0.089 HD
ATOM     22  H   UNL     1       1.484  -2.689  -1.193  0.00  0.00    -0.089 HD
ENDBRANCH  18  19
ENDBRANCH   3  18
TORSDOF 4
