124354
  -OEChem-03292013323D

 32 33  0     1  0  0  0  0  0999 V2000
    1.5338    0.2992   -0.8108 O   0  0  0  0  0  0  0  0  0  0  0  0
    3.4271   -0.8111    2.0290 O   0  0  0  0  0  0  0  0  0  0  0  0
    3.6384    2.0974   -1.3162 O   0  0  0  0  0  0  0  0  0  0  0  0
   -1.4337   -2.5632   -0.9281 O   0  0  0  0  0  0  0  0  0  0  0  0
   -4.4929    0.5812    0.3600 O   0  0  0  0  0  0  0  0  0  0  0  0
   -0.6160   -0.4785   -0.2957 N   0  0  0  0  0  0  0  0  0  0  0  0
   -2.2504    1.2014    0.3924 N   0  0  0  0  0  0  0  0  0  0  0  0
   -2.9235   -0.8889   -0.4390 N   0  0  0  0  0  0  0  0  0  0  0  0
    0.7657   -0.8452   -0.4056 C   0  0  2  0  0  0  0  0  0  0  0  0
    1.3557   -1.3357    0.9039 C   0  0  0  0  0  0  0  0  0  0  0  0
    2.7998   -0.9159    0.7683 C   0  0  1  0  0  0  0  0  0  0  0  0
    2.6552    0.4312    0.0787 C   0  0  1  0  0  0  0  0  0  0  0  0
   -0.9204    0.9313   -0.1248 C   0  0  0  0  0  0  0  0  0  0  0  0
    3.8859    0.8409   -0.7106 C   0  0  0  0  0  0  0  0  0  0  0  0
   -1.6272   -1.3934   -0.5908 C   0  0  0  0  0  0  0  0  0  0  0  0
   -3.3095    0.3357    0.1174 C   0  0  0  0  0  0  0  0  0  0  0  0
   -2.4879    2.5137    0.9719 C   0  0  0  0  0  0  0  0  0  0  0  0
    0.8869   -1.6107   -1.1813 H   0  0  0  0  0  0  0  0  0  0  0  0
    1.2325   -2.4139    1.0478 H   0  0  0  0  0  0  0  0  0  0  0  0
    0.8882   -0.8484    1.7696 H   0  0  0  0  0  0  0  0  0  0  0  0
    3.3495   -1.6337    0.1489 H   0  0  0  0  0  0  0  0  0  0  0  0
    2.4056    1.2249    0.7945 H   0  0  0  0  0  0  0  0  0  0  0  0
   -0.2059    1.3631    0.5844 H   0  0  0  0  0  0  0  0  0  0  0  0
   -0.8306    1.4290   -1.0969 H   0  0  0  0  0  0  0  0  0  0  0  0
    4.1094    0.1247   -1.5081 H   0  0  0  0  0  0  0  0  0  0  0  0
    4.7617    0.9335   -0.0620 H   0  0  0  0  0  0  0  0  0  0  0  0
    2.9367   -0.1634    2.5632 H   0  0  0  0  0  0  0  0  0  0  0  0
   -3.6784   -1.5329   -0.6599 H   0  0  0  0  0  0  0  0  0  0  0  0
   -3.5090    2.6001    1.3519 H   0  0  0  0  0  0  0  0  0  0  0  0
   -2.3297    3.2714    0.1991 H   0  0  0  0  0  0  0  0  0  0  0  0
   -1.7852    2.6728    1.7947 H   0  0  0  0  0  0  0  0  0  0  0  0
    2.8544    2.0010   -1.8835 H   0  0  0  0  0  0  0  0  0  0  0  0
  1  9  1  0  0  0  0
  1 12  1  0  0  0  0
  2 11  1  0  0  0  0
  2 27  1  0  0  0  0
  3 14  1  0  0  0  0
  3 32  1  0  0  0  0
  4 15  2  0  0  0  0
  5 16  2  0  0  0  0
  6  9  1  0  0  0  0
  6 13  1  0  0  0  0
  6 15  1  0  0  0  0
  7 13  1  0  0  0  0
  7 16  1  0  0  0  0
  7 17  1  0  0  0  0
  8 15  1  0  0  0  0
  8 16  1  0  0  0  0
  8 28  1  0  0  0  0
  9 10  1  0  0  0  0
  9 18  1  0  0  0  0
 10 11  1  0  0  0  0
 10 19  1  0  0  0  0
 10 20  1  0  0  0  0
 11 12  1  0  0  0  0
 11 21  1  0  0  0  0
 12 14  1  0  0  0  0
 12 22  1  0  0  0  0
 13 23  1  0  0  0  0
 13 24  1  0  0  0  0
 14 25  1  0  0  0  0
 14 26  1  0  0  0  0
 17 29  1  0  0  0  0
 17 30  1  0  0  0  0
 17 31  1  0  0  0  0
M  END
> <PUBCHEM_COMPOUND_CID>
124354

> <PUBCHEM_CONFORMER_RMSD>
0.6

> <PUBCHEM_CONFORMER_DIVERSEORDER>
1
15
13
9
12
5
2
11
3
10
14
7
4
8
16
6

> <PUBCHEM_MMFF94_PARTIAL_CHARGES>
19
1 -0.56
11 0.28
12 0.28
13 0.6
14 0.28
15 0.69
16 0.69
17 0.3
2 -0.68
27 0.4
28 0.37
3 -0.68
32 0.4
4 -0.57
5 -0.57
6 -0.66
7 -0.66
8 -0.49
9 0.58

> <PUBCHEM_EFFECTIVE_ROTOR_COUNT>
3.8

> <PUBCHEM_PHARMACOPHORE_FEATURES>
10
1 1 acceptor
1 2 acceptor
1 2 donor
1 3 acceptor
1 3 donor
1 4 acceptor
1 5 acceptor
1 8 donor
5 1 9 10 11 12 rings
6 6 7 8 13 15 16 rings

> <PUBCHEM_HEAVY_ATOM_COUNT>
17

> <PUBCHEM_ATOM_DEF_STEREO_COUNT>
3

> <PUBCHEM_ATOM_UDEF_STEREO_COUNT>
0

> <PUBCHEM_BOND_DEF_STEREO_COUNT>
0

> <PUBCHEM_BOND_UDEF_STEREO_COUNT>
0

> <PUBCHEM_ISOTOPIC_ATOM_COUNT>
0

> <PUBCHEM_COMPONENT_COUNT>
1

> <PUBCHEM_CACTVS_TAUTO_COUNT>
3

> <PUBCHEM_CONFORMER_ID>
0001E5C200000001

> <PUBCHEM_MMFF94_ENERGY>
41.5209

> <PUBCHEM_FEATURE_SELFOVERLAP>
50.752

> <PUBCHEM_SHAPE_FINGERPRINT>
11132069 177 17988635281796779931
12173636 292 18201433653939987869
12251169 10 18337381652391046786
12346645 44 18334861662171737828
13296908 3 14996274795595615682
13538477 17 18410849992645570958
13764800 53 18131636681557446243
14787075 74 17826810422988320683
15279307 12 18408603664863119150
15342168 16 17241622786728767548
15669948 3 18270959158355984991
15775835 57 18408046220936159764
16945 1 18201712981258976999
17846911 113 18130780127924344433
1813 80 17752200579548871178
18186145 218 18113333133159939398
201361 129 18261116249123615232
20510252 161 17988366975200602009
20559304 39 18337388245360784616
2255824 54 17967530152044432178
23048698 100 18040434373628802401
23236772 104 18261675977445571019
23402539 116 17987497283030361815
23557571 272 17059200621999300042
23559900 14 17988650653416394934
23598291 2 18335132077581560390
23598294 1 18269551805079390083
2748010 2 17326877488296481838
4340502 62 17167870789838554553
474 4 17677903511878682444
53812653 8 18341336630128454445
6049 1 16917071126327431690
7097593 13 18119232987821530298
7615 1 18263346105801809102
77492 1 18334005116532828998
88987 49 18059847394168781718
9981440 41 17400364941815570752

> <PUBCHEM_SHAPE_MULTIPOLES>
305.56
7.25
2.18
1.18
0.11
0.3
0.33
2.63
0.49
-0.72
-0.2
1.1
-0.02
-1.91

> <PUBCHEM_SHAPE_SELFOVERLAP>
631.526

> <PUBCHEM_SHAPE_VOLUME>
174.7

> <PUBCHEM_COORDINATE_TYPE>
2
5
10

$$$$
