REMARK  Name = 124379
REMARK  4 active torsions:
REMARK  status: ('A' for Active; 'I' for Inactive)
REMARK    1  A    between atoms: N_1  and  C_12
REMARK    2  A    between atoms: C_11  and  O_15
REMARK    3  A    between atoms: C_14  and  C_17
REMARK    4  A    between atoms: C_17  and  O_18
REMARK                            x       y       z     vdW  Elec       q    Type
REMARK                         _______ _______ _______ _____ _____    ______ ____
ROOT
ATOM      1  N   UNL     1       0.791   0.390  -0.122  0.00  0.00    -0.247 N 
ATOM      2  N   UNL     1       2.487   1.763   0.339  0.00  0.00    -0.242 NA
ATOM      3  N   UNL     1       2.019  -1.669  -0.516  0.00  0.00    -0.228 NA
ATOM      4  N   UNL     1       4.421  -1.335  -0.245  0.00  0.00    -0.229 NA
ATOM      5  C   UNL     1       1.926  -0.365  -0.212  0.00  0.00    +0.152 C 
ATOM      6  C   UNL     1       1.181   1.661   0.211  0.00  0.00    +0.223 C 
ATOM      7  C   UNL     1       2.966   0.504   0.078  0.00  0.00    +0.140 C 
ATOM      8  C   UNL     1       4.253  -0.025   0.054  0.00  0.00    +0.143 C 
ATOM      9  C   UNL     1       3.310  -2.065  -0.508  0.00  0.00    +0.253 C 
ATOM     10  N   UNL     1       5.366   0.785   0.338  0.00  0.00    -0.342 N 
ATOM     11  H   UNL     1       6.272   0.400   0.318  0.00  0.00    +0.144 HD
ATOM     12  H   UNL     1       5.240   1.736   0.556  0.00  0.00    +0.144 HD
ENDROOT
BRANCH   1  15
ATOM     13  O   UNL     1      -1.357   1.013  -0.905  0.00  0.00    -0.335 OA
ATOM     14  C   UNL     1      -1.306  -0.482   0.932  0.00  0.00    +0.160 C 
ATOM     15  C   UNL     1      -0.582  -0.060  -0.338  0.00  0.00    +0.222 C 
ATOM     16  C   UNL     1      -2.757  -0.255   0.555  0.00  0.00    +0.066 C 
ATOM     17  C   UNL     1      -2.679   0.991  -0.323  0.00  0.00    +0.149 C 
BRANCH  14  18
ATOM     18  O   UNL     1      -1.043  -1.822   1.296  0.00  0.00    -0.380 OA
ATOM     19  H   UNL     1      -0.106  -1.916   1.528  0.00  0.00    +0.211 HD
ENDBRANCH  14  18
BRANCH  17  20
ATOM     20  C   UNL     1      -2.880   2.279   0.464  0.00  0.00    +0.167 C 
BRANCH  20  21
ATOM     21  O   UNL     1      -2.780   3.375  -0.427  0.00  0.00    -0.379 OA
ATOM     22  H   UNL     1      -2.906   4.203   0.063  0.00  0.00    +0.211 HD
ENDBRANCH  20  21
ENDBRANCH  17  20
ENDBRANCH   1  15
TORSDOF 4
REMARK  Name = 124379
REMARK  4 active torsions:
REMARK  status: ('A' for Active; 'I' for Inactive)
REMARK    1  A    between atoms: N_1  and  C_12
REMARK    2  A    between atoms: C_11  and  O_15
REMARK    3  A    between atoms: C_14  and  C_17
REMARK    4  A    between atoms: C_17  and  O_18
REMARK                            x       y       z     vdW  Elec       q    Type
REMARK                         _______ _______ _______ _____ _____    ______ ____
ROOT
ATOM      1  N   UNL     1      -4.479  -1.563  -0.220  0.00  0.00    +0.000 NA
ATOM      2  N   UNL     1      -5.604  -1.749  -0.188  0.00  0.00    +0.000 NA
ENDROOT
TORSDOF 0
