REMARK  Name = 124300747
REMARK  12 active torsions:
REMARK  status: ('A' for Active; 'I' for Inactive)
REMARK    1  A    between atoms: C_3  and  O_10
REMARK    2  A    between atoms: C_6  and  C_17
REMARK    3  A    between atoms: O_10  and  C_12
REMARK    4  A    between atoms: C_12  and  C_13
REMARK    5  A    between atoms: C_17  and  O_18
REMARK    6  A    between atoms: O_18  and  C_20
REMARK    7  A    between atoms: C_20  and  C_21
REMARK    8  A    between atoms: C_21  and  C_22
REMARK    9  A    between atoms: C_21  and  O_27
REMARK   10  A    between atoms: C_21  and  C_29
REMARK   11  A    between atoms: C_22  and  O_25
REMARK   12  A    between atoms: C_29  and  O_31
REMARK                            x       y       z     vdW  Elec       q    Type
REMARK                         _______ _______ _______ _____ _____    ______ ____
ROOT
ATOM      1  N   UNL     1       1.691   3.033  -0.471  0.00  0.00    +0.396 N 
ATOM      2  C   UNL     1       1.002   1.706  -0.458  0.00  0.00    +0.006 C 
ATOM      3  C   UNL     1       2.019   0.695  -1.000  0.00  0.00    +0.152 C 
ATOM      4  C   UNL     1       3.029   1.566  -1.733  0.00  0.00    +0.019 C 
ATOM      5  C   UNL     1       3.088   2.811  -0.861  0.00  0.00    -0.073 C 
ATOM      6  C   UNL     1       0.481   1.522   0.931  0.00  0.00    -0.023 C 
ATOM      7  C   UNL     1       1.547   3.598   0.886  0.00  0.00    -0.050 C 
ATOM      8  C   UNL     1       0.790   2.584   1.680  0.00  0.00    -0.056 C 
ATOM      9  H   UNL     1       1.294   3.694  -1.139  0.00  0.00    -0.079 HD
ENDROOT
BRANCH   3  10
ATOM     10  O   UNL     1       2.679  -0.035   0.028  0.00  0.00    -0.451 OA
BRANCH  10  12
ATOM     11  O   UNL     1       3.061  -1.774  -1.432  0.00  0.00    -0.245 OA
ATOM     12  C   UNL     1       3.155  -1.264  -0.325  0.00  0.00    +0.337 C 
BRANCH  12  13
ATOM     13  C   UNL     1       3.812  -1.907   0.854  0.00  0.00    +0.049 C 
ATOM     14  C   UNL     1       2.997  -2.120   2.095  0.00  0.00    +0.037 C 
ATOM     15  C   UNL     1       5.113  -2.218   0.704  0.00  0.00    -0.024 C 
ATOM     16  C   UNL     1       5.965  -1.990  -0.504  0.00  0.00    +0.031 C 
ENDBRANCH  12  13
ENDBRANCH  10  12
ENDBRANCH   3  10
BRANCH   6  17
ATOM     17  C   UNL     1      -0.304   0.329   1.340  0.00  0.00    +0.229 C 
BRANCH  17  18
ATOM     18  O   UNL     1      -1.464   0.194   0.514  0.00  0.00    -0.442 OA
BRANCH  18  20
ATOM     19  O   UNL     1      -2.067  -1.691   1.680  0.00  0.00    -0.247 OA
ATOM     20  C   UNL     1      -2.270  -0.870   0.792  0.00  0.00    +0.346 C 
BRANCH  20  21
ATOM     21  C   UNL     1      -3.475  -0.912  -0.161  0.00  0.00    +0.224 C 
BRANCH  21  22
ATOM     22  C   UNL     1      -4.517   0.209   0.163  0.00  0.00    +0.123 C 
ATOM     23  C   UNL     1      -5.046   0.106   1.606  0.00  0.00    +0.032 C 
ATOM     24  C   UNL     1      -5.722   0.164  -0.794  0.00  0.00    +0.032 C 
BRANCH  22  25
ATOM     25  O   UNL     1      -3.913   1.497   0.024  0.00  0.00    -0.384 OA
ATOM     26  H   UNL     1      -3.147   1.560   0.616  0.00  0.00    +0.210 HD
ENDBRANCH  22  25
ENDBRANCH  21  22
BRANCH  21  27
ATOM     27  O   UNL     1      -4.112  -2.167   0.159  0.00  0.00    -0.373 OA
ATOM     28  H   UNL     1      -4.412  -2.152   1.082  0.00  0.00    +0.211 HD
ENDBRANCH  21  27
BRANCH  21  29
ATOM     29  C   UNL     1      -3.033  -1.032  -1.647  0.00  0.00    +0.148 C 
ATOM     30  C   UNL     1      -2.148  -2.208  -2.042  0.00  0.00    +0.035 C 
BRANCH  29  31
ATOM     31  O   UNL     1      -2.358   0.176  -2.026  0.00  0.00    -0.381 OA
ATOM     32  H   UNL     1      -2.904   0.941  -1.784  0.00  0.00    +0.210 HD
ENDBRANCH  29  31
ENDBRANCH  21  29
ENDBRANCH  20  21
ENDBRANCH  18  20
ENDBRANCH  17  18
ENDBRANCH   6  17
TORSDOF 12
