124325
  -OEChem-03292013323D

 40 42  0     1  0  0  0  0  0999 V2000
   -3.4505    0.4323    1.1283 P   0  0  2  0  0  0  0  0  0  0  0  0
    0.8587    1.4155    1.1037 O   0  0  0  0  0  0  0  0  0  0  0  0
    1.2850    4.0350   -0.2914 O   0  0  0  0  0  0  0  0  0  0  0  0
    2.7696    2.3111   -1.7956 O   0  0  0  0  0  0  0  0  0  0  0  0
   -1.8762    0.7938    1.1331 O   0  0  0  0  0  0  0  0  0  0  0  0
    4.6949    0.3589    0.0773 O   0  0  0  0  0  0  0  0  0  0  0  0
   -4.2037    1.7560    0.5969 O   0  0  0  0  0  0  0  0  0  0  0  0
   -4.0044   -0.2074    2.3652 O   0  0  0  0  0  0  0  0  0  0  0  0
    3.3890   -4.0594    0.2101 O   0  0  0  0  0  0  0  0  0  0  0  0
    2.4142   -0.1133    0.2622 N   0  0  0  0  0  0  0  0  0  0  0  0
    4.0426   -1.8408    0.1429 N   0  0  0  0  0  0  0  0  0  0  0  0
   -3.6347   -0.7144   -0.0836 N   0  0  0  0  0  0  0  0  0  0  0  0
   -4.3084   -1.6667   -2.0135 N   0  0  0  0  0  0  0  0  0  0  0  0
    0.6357    2.8551   -0.7643 C   0  0  1  0  0  0  0  0  0  0  0  0
    1.6591    1.7894   -1.0952 C   0  0  2  0  0  0  0  0  0  0  0  0
   -0.1100    2.2288    0.4062 C   0  0  1  0  0  0  0  0  0  0  0  0
    2.0292    1.2691    0.2831 C   0  0  1  0  0  0  0  0  0  0  0  0
   -1.2613    1.3301   -0.0251 C   0  0  0  0  0  0  0  0  0  0  0  0
    3.7804   -0.4643    0.1550 C   0  0  0  0  0  0  0  0  0  0  0  0
    1.4440   -1.1051    0.3475 C   0  0  0  0  0  0  0  0  0  0  0  0
    1.7092   -2.4131    0.3347 C   0  0  0  0  0  0  0  0  0  0  0  0
    3.1111   -2.8642    0.2248 C   0  0  0  0  0  0  0  0  0  0  0  0
   -3.0929   -1.9918   -0.1282 C   0  0  0  0  0  0  0  0  0  0  0  0
   -4.3600   -0.5895   -1.2617 C   0  0  0  0  0  0  0  0  0  0  0  0
   -3.5206   -2.5449   -1.3123 C   0  0  0  0  0  0  0  0  0  0  0  0
    0.0035    3.1390   -1.6095 H   0  0  0  0  0  0  0  0  0  0  0  0
    1.1952    1.0103   -1.7121 H   0  0  0  0  0  0  0  0  0  0  0  0
   -0.4686    2.9775    1.1218 H   0  0  0  0  0  0  0  0  0  0  0  0
    2.8357    1.8617    0.7313 H   0  0  0  0  0  0  0  0  0  0  0  0
   -1.9860    1.9177   -0.5981 H   0  0  0  0  0  0  0  0  0  0  0  0
   -0.9322    0.5006   -0.6556 H   0  0  0  0  0  0  0  0  0  0  0  0
    1.7677    3.8257    0.5255 H   0  0  0  0  0  0  0  0  0  0  0  0
    3.4154    1.5913   -1.8966 H   0  0  0  0  0  0  0  0  0  0  0  0
    0.4123   -0.7979    0.4319 H   0  0  0  0  0  0  0  0  0  0  0  0
    5.0178   -2.1160    0.0663 H   0  0  0  0  0  0  0  0  0  0  0  0
    0.9260   -3.1580    0.4040 H   0  0  0  0  0  0  0  0  0  0  0  0
   -4.3000    2.5238    1.1996 H   0  0  0  0  0  0  0  0  0  0  0  0
   -2.4695   -2.3624    0.6730 H   0  0  0  0  0  0  0  0  0  0  0  0
   -4.8979    0.3171   -1.5000 H   0  0  0  0  0  0  0  0  0  0  0  0
   -3.2999   -3.5302   -1.6960 H   0  0  0  0  0  0  0  0  0  0  0  0
  1  5  1  0  0  0  0
  1  7  1  0  0  0  0
  1  8  2  0  0  0  0
  1 12  1  0  0  0  0
  2 16  1  0  0  0  0
  2 17  1  0  0  0  0
  3 14  1  0  0  0  0
  3 32  1  0  0  0  0
  4 15  1  0  0  0  0
  4 33  1  0  0  0  0
  5 18  1  0  0  0  0
  6 19  2  0  0  0  0
  7 37  1  0  0  0  0
  9 22  2  0  0  0  0
 10 17  1  0  0  0  0
 10 19  1  0  0  0  0
 10 20  1  0  0  0  0
 11 19  1  0  0  0  0
 11 22  1  0  0  0  0
 11 35  1  0  0  0  0
 12 23  1  0  0  0  0
 12 24  1  0  0  0  0
 13 24  2  0  0  0  0
 13 25  1  0  0  0  0
 14 15  1  0  0  0  0
 14 16  1  0  0  0  0
 14 26  1  0  0  0  0
 15 17  1  0  0  0  0
 15 27  1  0  0  0  0
 16 18  1  0  0  0  0
 16 28  1  0  0  0  0
 17 29  1  0  0  0  0
 18 30  1  0  0  0  0
 18 31  1  0  0  0  0
 20 21  2  0  0  0  0
 20 34  1  0  0  0  0
 21 22  1  0  0  0  0
 21 36  1  0  0  0  0
 23 25  2  0  0  0  0
 23 38  1  0  0  0  0
 24 39  1  0  0  0  0
 25 40  1  0  0  0  0
M  END
> <PUBCHEM_COMPOUND_CID>
124325

> <PUBCHEM_CONFORMER_RMSD>
0.8

> <PUBCHEM_CONFORMER_DIVERSEORDER>
1
28
321
279
343
300
317
112
294
386
295
23
332
47
354
403
110
93
398
211
327
78
104
116
355
232
77
258
296
221
81
149
305
198
319
94
302
241
250
134
334
146
405
359
86
201
340
59
350
161
331
133
50
197
76
362
369
236
382
358
119
49
100
98
256
267
88
260
335
270
389
140
381
164
71
407
374
220
338
346
372
114
356
347
271
187
54
341
411
380
361
231
287
379
348
251
36
144
247
20
167
109
269
373
246
163
21
199
170
360
194
363
209
169
316
137
218
11
268
35
223
200
89
278
48
222
123
325
393
308
284
178
371
384
399
301
129
64
237
10
128
62
353
291
118
143
19
391
394
180
375
99
388
328
25
315
31
90
283
111
404
175
261
288
351
141
385
191
323
226
97
253
309
159
34
192
266
365
322
80
75
378
414
131
345
69
139
370
330
298
213
190
18
160
70
193
152
310
390
280
183
415
290
324
259
125
12
51
165
188
195
342
138
402
376
219
87
9
55
8
38
412
196
132
410
244
368
217
297
286
73
4
303
41
392
252
289
72
239
91
311
366
63
242
185
17
245
33
320
409
151
344
357
265
43
306
2
326
243
103
153
224
262
352
42
60
208
32
121
117
147
154
273
401
40
46
281
207
58
395
230
145
293
173
383
16
142
214
157
276
299
329
215
30
179
83
156
264
240
6
61
235
3
377
314
406
107
5
182
84
166
337
189
115
216
396
400
254
176
238
95
124
171
205
184
177
336
24
56
397
44
228
101
85
307
312
14
22
102
202
53
39
367
339
13
203
277
136
135
96
181
292
82
37
210
364
249
79
227
15
130
229
168
272
113
408
225
52
150
126
108
263
212
158
313
349
275
233
148
74
282
413
92
333
7
274
206
45
155
255
304
127
204
29
318
174
285
106
162
57
27
122
234
67
387
120
186
68
248
172
26
257
66
65
105

> <PUBCHEM_MMFF94_PARTIAL_CHARGES>
34
1 1.36
10 -0.47
11 -0.49
12 0.19
13 -0.57
14 0.28
15 0.28
16 0.28
17 0.58
18 0.28
19 0.69
2 -0.56
20 -0.04
21 -0.14
22 0.62
23 -0.3
24 0.04
25 0.08
3 -0.68
32 0.4
33 0.4
34 0.15
35 0.37
36 0.15
37 0.5
38 0.15
39 0.15
4 -0.68
40 0.15
5 -0.55
6 -0.57
7 -0.77
8 -0.7
9 -0.57

> <PUBCHEM_EFFECTIVE_ROTOR_COUNT>
6

> <PUBCHEM_PHARMACOPHORE_FEATURES>
14
1 11 donor
1 2 acceptor
1 3 acceptor
1 3 donor
1 4 acceptor
1 4 donor
1 6 acceptor
1 7 acceptor
1 8 acceptor
1 9 acceptor
3 12 13 24 cation
5 12 13 23 24 25 rings
5 2 14 15 16 17 rings
6 10 11 19 20 21 22 rings

> <PUBCHEM_HEAVY_ATOM_COUNT>
25

> <PUBCHEM_ATOM_DEF_STEREO_COUNT>
3

> <PUBCHEM_ATOM_UDEF_STEREO_COUNT>
1

> <PUBCHEM_BOND_DEF_STEREO_COUNT>
0

> <PUBCHEM_BOND_UDEF_STEREO_COUNT>
0

> <PUBCHEM_ISOTOPIC_ATOM_COUNT>
0

> <PUBCHEM_COMPONENT_COUNT>
1

> <PUBCHEM_CACTVS_TAUTO_COUNT>
3

> <PUBCHEM_CONFORMER_ID>
0001E5A500000001

> <PUBCHEM_MMFF94_ENERGY>
42.9674

> <PUBCHEM_FEATURE_SELFOVERLAP>
71.072

> <PUBCHEM_SHAPE_FINGERPRINT>
10042902 136 18059584555239941286
10369192 42 16375551835500203893
10622 236 18057861659243156471
11069576 57 18056455465206123063
11552529 35 18059008363633314248
11578080 2 17987212535199901641
12403259 327 16772944792774422603
12553582 1 18336554845332308522
12596599 1 17845664646317766511
12633257 1 17346038844810897627
13004483 165 18047466721172151000
13257819 101 15286776917848176148
14117953 113 17838895932773220039
14787075 74 18130506452782836592
14790565 3 18193000541969408204
15537594 2 18340506485727490715
17357779 13 17967531238027280868
19141452 34 18199185088321131025
20645477 70 18042399300056038697
20775530 9 18192434065599754730
21315759 227 17676781953846114419
23557571 272 15267351734182580787
23559900 14 18198041763958782769
238 59 18046064023602883091
26353 1 17822006467486668572
392239 28 18060412522060837776
46194498 28 17676199217231093757
463206 1 18409171008319950274
59682541 52 18192967483858949727

> <PUBCHEM_SHAPE_MULTIPOLES>
451.46
9.31
4.34
1.43
4.54
0.4
-0.05
5.46
-0.66
-3.4
-0.85
1.76
-0.13
-2.29

> <PUBCHEM_SHAPE_SELFOVERLAP>
946.75

> <PUBCHEM_SHAPE_VOLUME>
256.6

> <PUBCHEM_COORDINATE_TYPE>
2
5
10

$$$$
