REMARK  Name = 124349
REMARK  11 active torsions:
REMARK  status: ('A' for Active; 'I' for Inactive)
REMARK    1  A    between atoms: C_2  and  O_18
REMARK    2  A    between atoms: C_3  and  O_20
REMARK    3  A    between atoms: C_4  and  N_6
REMARK    4  A    between atoms: C_5  and  C_22
REMARK    5  A    between atoms: C_22  and  S_23
REMARK    6  A    between atoms: S_23  and  C_24
REMARK    7  A    between atoms: C_24  and  C_25
REMARK    8  A    between atoms: C_25  and  C_26
REMARK    9  A    between atoms: C_26  and  N_27
REMARK   10  A    between atoms: C_26  and  C_32
REMARK   11  A    between atoms: C_32  and  O_33
REMARK                            x       y       z     vdW  Elec       q    Type
REMARK                         _______ _______ _______ _____ _____    ______ ____
ROOT
ATOM      1  O   UNK     1      -0.138  -0.362   0.497  0.00  0.00    -0.334 OA
ATOM      2  C   UNK     1      -1.426  -2.275  -0.167  0.00  0.00    +0.187 C 
ATOM      3  C   UNK     1      -0.154  -2.181  -0.989  0.00  0.00    +0.169 C 
ATOM      4  C   UNK     1      -1.466  -0.925   0.553  0.00  0.00    +0.227 C 
ATOM      5  C   UNK     1       0.739  -1.328  -0.104  0.00  0.00    +0.157 C 
ENDROOT
BRANCH   4   6
ATOM      6  N   UNK     1      -2.422   0.021  -0.026  0.00  0.00    -0.250 N 
ATOM      7  N   UNK     1      -4.319  -0.464   1.382  0.00  0.00    -0.233 NA
ATOM      8  N   UNK     1      -6.277   0.878   0.842  0.00  0.00    -0.234 NA
ATOM      9  C   UNK     1      -3.720   0.203   0.381  0.00  0.00    +0.122 C 
ATOM     10  C   UNK     1      -2.153   0.871  -1.071  0.00  0.00    +0.064 C 
ATOM     11  C   UNK     1      -4.289   1.187  -0.418  0.00  0.00    +0.131 C 
ATOM     12  C   UNK     1      -3.290   1.605  -1.335  0.00  0.00    +0.004 C 
ATOM     13  C   UNK     1      -5.618   1.516  -0.154  0.00  0.00    +0.110 C 
ATOM     14  C   UNK     1      -5.596  -0.059   1.538  0.00  0.00    +0.252 C 
ATOM     15  N   UNK     1      -6.279   2.499  -0.911  0.00  0.00    -0.346 N 
ATOM     16  H   UNK     1      -7.217   2.723  -0.716  0.00  0.00    +0.143 HD
ATOM     17  H   UNK     1      -5.802   2.965  -1.637  0.00  0.00    +0.143 HD
ENDBRANCH   4   6
BRANCH   2  18
ATOM     18  O   UNK     1      -1.341  -3.321   0.799  0.00  0.00    -0.378 OA
ATOM     19  H   UNK     1      -1.316  -4.178   0.346  0.00  0.00    +0.211 HD
ENDBRANCH   2  18
BRANCH   3  20
ATOM     20  O   UNK     1       0.424  -3.436  -1.276  0.00  0.00    -0.379 OA
ATOM     21  H   UNK     1      -0.177  -3.947  -1.841  0.00  0.00    +0.211 HD
ENDBRANCH   3  20
BRANCH   5  22
ATOM     22  C   UNK     1       1.843  -0.617  -0.866  0.00  0.00    +0.090 C 
BRANCH  22  23
ATOM     23  S   UNK     1       2.861   0.364   0.268  0.00  0.00    -0.138 S 
BRANCH  23  24
ATOM     24  C   UNK     1       4.025   1.042  -0.938  0.00  0.00    +0.056 C 
BRANCH  24  25
ATOM     25  C   UNK     1       5.079   1.957  -0.309  0.00  0.00    +0.001 C 
BRANCH  25  26
ATOM     26  C   UNK     1       5.958   1.310   0.771  0.00  0.00    +0.037 C 
BRANCH  26  27
ATOM     27  N   UNK     1       6.967   2.277   1.215  0.00  0.00    +0.389 N 
ATOM     28  H   UNK     1       6.503   3.101   1.597  0.00  0.00    -0.088 HD
ATOM     29  H   UNK     1       7.548   2.550   0.422  0.00  0.00    -0.088 HD
ATOM     30  H   UNK     1       7.552   1.852   1.935  0.00  0.00    -0.088 HD
ENDBRANCH  26  27
BRANCH  26  32
ATOM     31  O   UNK     1       7.788   0.178  -0.373  0.00  0.00    -0.253 OA
ATOM     32  C   UNK     1       6.717   0.117   0.218  0.00  0.00    +0.293 C 
BRANCH  32  33
ATOM     33  O   UNK     1       6.087  -1.059   0.473  0.00  0.00    -0.482 OA
ATOM     34  H   UNK     1       5.268  -1.062   0.928  0.00  0.00    +0.295 HD
ENDBRANCH  32  33
ENDBRANCH  26  32
ENDBRANCH  25  26
ENDBRANCH  24  25
ENDBRANCH  23  24
ENDBRANCH  22  23
ENDBRANCH   5  22
TORSDOF 11
