REMARK  Name = 124443
REMARK  4 active torsions:
REMARK  status: ('A' for Active; 'I' for Inactive)
REMARK    1  A    between atoms: C_1  and  N_4
REMARK    2  A    between atoms: C_1  and  C_12
REMARK    3  A    between atoms: C_1  and  C_14
REMARK    4  A    between atoms: C_14  and  C_19
REMARK                            x       y       z     vdW  Elec       q    Type
REMARK                         _______ _______ _______ _____ _____    ______ ____
ROOT
ATOM      1  C   UNL     1       0.455  -0.814   0.433  0.00  0.00    -0.058 C 
ENDROOT
BRANCH   1   4
ATOM      2  O   UNL     1       4.555  -0.470  -1.894  0.00  0.00    -0.277 OA
ATOM      3  O   UNL     1       3.935   2.014   1.929  0.00  0.00    -0.277 OA
ATOM      4  N   UNL     1       1.859  -0.405   0.395  0.00  0.00    +0.400 N 
ATOM      5  N   UNL     1       4.260   0.747   0.036  0.00  0.00    -0.259 N 
ATOM      6  C   UNL     1       2.341  -0.382  -0.986  0.00  0.00    +0.011 C 
ATOM      7  C   UNL     1       2.017   0.914   1.009  0.00  0.00    +0.011 C 
ATOM      8  C   UNL     1       3.818  -0.068  -0.994  0.00  0.00    +0.207 C 
ATOM      9  C   UNL     1       3.485   1.267   1.061  0.00  0.00    +0.207 C 
ATOM     10  H   UNL     1       2.413  -1.079   0.923  0.00  0.00    -0.078 HD
ATOM     11  H   UNL     1       5.216   0.980   0.040  0.00  0.00    +0.157 HD
ENDBRANCH   1   4
BRANCH   1  12
ATOM     12  C   UNL     1       0.308  -2.239  -0.131  0.00  0.00    -0.021 C 
ATOM     13  C   UNL     1       1.141  -3.273   0.617  0.00  0.00    -0.002 C 
ENDBRANCH   1  12
BRANCH   1  14
ATOM     14  C   UNL     1      -0.437   0.161  -0.358  0.00  0.00    -0.033 C 
BRANCH  14  19
ATOM     15  O   UNL     1      -2.289   1.460  -2.047  0.00  0.00    -0.277 OA
ATOM     16  O   UNL     1      -5.867   0.325   0.610  0.00  0.00    -0.277 OA
ATOM     17  N   UNL     1      -2.396  -0.231   1.047  0.00  0.00    +0.397 N 
ATOM     18  N   UNL     1      -4.078   0.889  -0.722  0.00  0.00    -0.259 N 
ATOM     19  C   UNL     1      -1.918  -0.206  -0.335  0.00  0.00    +0.016 C 
ATOM     20  C   UNL     1      -2.746   0.807  -1.109  0.00  0.00    +0.208 C 
ATOM     21  C   UNL     1      -3.770  -0.716   1.104  0.00  0.00    +0.007 C 
ATOM     22  C   UNL     1      -4.672   0.217   0.336  0.00  0.00    +0.206 C 
ATOM     23  H   UNL     1      -2.357   0.713   1.432  0.00  0.00    -0.083 HD
ATOM     24  H   UNL     1      -1.803  -0.858   1.589  0.00  0.00    -0.083 HD
ATOM     25  H   UNL     1      -4.657   1.483  -1.251  0.00  0.00    +0.157 HD
ENDBRANCH  14  19
ENDBRANCH   1  14
TORSDOF 4
