124466
  -OEChem-03292013323D

 35 36  0     1  0  0  0  0  0999 V2000
   -1.7059    0.9097   -1.0430 O   0  0  0  0  0  0  0  0  0  0  0  0
   -3.3466   -1.3945    1.1610 O   0  0  0  0  0  0  0  0  0  0  0  0
   -4.5876    0.5464   -0.2989 O   0  0  0  0  0  0  0  0  0  0  0  0
   -0.8767    3.5047   -0.3752 O   0  0  0  0  0  0  0  0  0  0  0  0
   -1.1499   -3.1659   -0.6543 O   0  0  0  0  0  0  0  0  0  0  0  0
    3.5102    0.9476   -0.5988 O   0  0  0  0  0  0  0  0  0  0  0  0
    3.2599   -2.3210    0.3405 O   0  0  0  0  0  0  0  0  0  0  0  0
    4.9765    2.2579    0.6232 O   0  0  0  0  0  0  0  0  0  0  0  0
   -0.5197   -0.9507   -0.2708 N   0  0  0  0  0  0  0  0  0  0  0  0
    1.0463   -2.7304   -0.1565 N   0  0  0  0  0  0  0  0  0  0  0  0
   -2.6012   -0.2426    0.8240 C   0  0  2  0  0  0  0  0  0  0  0  0
   -3.4874    0.9463    0.5179 C   0  0  1  0  0  0  0  0  0  0  0  0
   -1.8309   -0.4043   -0.4752 C   0  0  1  0  0  0  0  0  0  0  0  0
   -2.5693    1.8195   -0.3265 C   0  0  1  0  0  0  0  0  0  0  0  0
   -1.6942    2.7504    0.5022 C   0  0  0  0  0  0  0  0  0  0  0  0
    0.5208   -0.0830    0.0414 C   0  0  0  0  0  0  0  0  0  0  0  0
   -0.2781   -2.3382   -0.3811 C   0  0  0  0  0  0  0  0  0  0  0  0
    1.7869   -0.4617    0.2558 C   0  0  0  0  0  0  0  0  0  0  0  0
    2.1181   -1.9080    0.1563 C   0  0  0  0  0  0  0  0  0  0  0  0
    2.8898    0.4905    0.5903 C   0  0  0  0  0  0  0  0  0  0  0  0
    4.5390    1.8275   -0.4324 C   0  0  0  0  0  0  0  0  0  0  0  0
   -1.9372   -0.0023    1.6631 H   0  0  0  0  0  0  0  0  0  0  0  0
   -3.8932    1.4362    1.4067 H   0  0  0  0  0  0  0  0  0  0  0  0
   -2.3744   -1.0367   -1.1873 H   0  0  0  0  0  0  0  0  0  0  0  0
   -3.1176    2.3948   -1.0811 H   0  0  0  0  0  0  0  0  0  0  0  0
   -1.0520    2.2167    1.2068 H   0  0  0  0  0  0  0  0  0  0  0  0
   -2.3194    3.4474    1.0699 H   0  0  0  0  0  0  0  0  0  0  0  0
   -2.7187   -2.1305    1.2576 H   0  0  0  0  0  0  0  0  0  0  0  0
   -4.2482    0.2044   -1.1427 H   0  0  0  0  0  0  0  0  0  0  0  0
    0.2913    0.9691    0.1116 H   0  0  0  0  0  0  0  0  0  0  0  0
    1.2424   -3.7247   -0.2312 H   0  0  0  0  0  0  0  0  0  0  0  0
   -0.3372    4.0982    0.1746 H   0  0  0  0  0  0  0  0  0  0  0  0
    3.6305    0.0159    1.2451 H   0  0  0  0  0  0  0  0  0  0  0  0
    2.4822    1.3523    1.1349 H   0  0  0  0  0  0  0  0  0  0  0  0
    4.9291    2.1011   -1.4248 H   0  0  0  0  0  0  0  0  0  0  0  0
  1 13  1  0  0  0  0
  1 14  1  0  0  0  0
  2 11  1  0  0  0  0
  2 28  1  0  0  0  0
  3 12  1  0  0  0  0
  3 29  1  0  0  0  0
  4 15  1  0  0  0  0
  4 32  1  0  0  0  0
  5 17  2  0  0  0  0
  6 20  1  0  0  0  0
  6 21  1  0  0  0  0
  7 19  2  0  0  0  0
  8 21  2  0  0  0  0
  9 13  1  0  0  0  0
  9 16  1  0  0  0  0
  9 17  1  0  0  0  0
 10 17  1  0  0  0  0
 10 19  1  0  0  0  0
 10 31  1  0  0  0  0
 11 12  1  0  0  0  0
 11 13  1  0  0  0  0
 11 22  1  0  0  0  0
 12 14  1  0  0  0  0
 12 23  1  0  0  0  0
 13 24  1  0  0  0  0
 14 15  1  0  0  0  0
 14 25  1  0  0  0  0
 15 26  1  0  0  0  0
 15 27  1  0  0  0  0
 16 18  2  0  0  0  0
 16 30  1  0  0  0  0
 18 19  1  0  0  0  0
 18 20  1  0  0  0  0
 20 33  1  0  0  0  0
 20 34  1  0  0  0  0
 21 35  1  0  0  0  0
M  END
> <PUBCHEM_COMPOUND_CID>
124466

> <PUBCHEM_CONFORMER_RMSD>
0.8

> <PUBCHEM_CONFORMER_DIVERSEORDER>
1
45
47
49
36
13
42
29
38
28
46
22
40
15
16
43
24
32
31
8
41
33
44
34
14
48
37
9
18
26
11
7
6
23
20
39
19
30
17
12
10
4
27
21
35
2
3
25
5

> <PUBCHEM_MMFF94_PARTIAL_CHARGES>
27
1 -0.56
10 -0.49
11 0.28
12 0.28
13 0.58
14 0.28
15 0.28
16 -0.04
17 0.69
18 -0.12
19 0.62
2 -0.68
20 0.42
21 0.66
28 0.4
29 0.4
3 -0.68
30 0.15
31 0.37
32 0.4
35 0.06
4 -0.68
5 -0.57
6 -0.43
7 -0.57
8 -0.57
9 -0.47

> <PUBCHEM_EFFECTIVE_ROTOR_COUNT>
6

> <PUBCHEM_PHARMACOPHORE_FEATURES>
13
1 1 acceptor
1 10 donor
1 2 acceptor
1 2 donor
1 3 acceptor
1 3 donor
1 4 acceptor
1 4 donor
1 5 acceptor
1 7 acceptor
1 8 acceptor
5 1 11 12 13 14 rings
6 9 10 16 17 18 19 rings

> <PUBCHEM_HEAVY_ATOM_COUNT>
21

> <PUBCHEM_ATOM_DEF_STEREO_COUNT>
4

> <PUBCHEM_ATOM_UDEF_STEREO_COUNT>
0

> <PUBCHEM_BOND_DEF_STEREO_COUNT>
0

> <PUBCHEM_BOND_UDEF_STEREO_COUNT>
0

> <PUBCHEM_ISOTOPIC_ATOM_COUNT>
0

> <PUBCHEM_COMPONENT_COUNT>
1

> <PUBCHEM_CACTVS_TAUTO_COUNT>
3

> <PUBCHEM_CONFORMER_ID>
0001E63200000001

> <PUBCHEM_MMFF94_ENERGY>
52.6736

> <PUBCHEM_FEATURE_SELFOVERLAP>
65.993

> <PUBCHEM_SHAPE_FINGERPRINT>
10498660 4 18410855477318853573
10608611 8 18121217576249616957
10967382 1 18411417301990589749
1100329 8 17906739459540318307
12173636 292 18412262830827777868
12403260 363 18195514905548931035
12633257 1 17830456072627887273
13140716 1 17833840751680547665
13583140 156 17241587452117355346
14026960 21 18409452444663028099
14123255 52 18411982498713157728
14648413 74 17906172845684251531
14787075 74 17679029450165755187
14790565 3 18339653350878677617
15375462 6 18409732815938404889
1741750 31 18342173410301675146
19591789 44 17977672227054602937
20645477 56 18269275819561156244
21524375 3 18201431441757880927
23227448 37 18126285478771974660
23557571 272 18055649557927472188
23558518 356 17905604402884689001
23559900 14 18049717417437931211
2748010 2 18338235951297927047
3380486 145 18261972837891753411
350125 39 18266743480751812516
5104073 3 18261962847323043601
633830 44 17916314848450066613
7097593 13 17463683187063298362
7808743 9 18267019647539647480
81228 2 17767104776805119850
9709674 26 18123192299344586439

> <PUBCHEM_SHAPE_MULTIPOLES>
375.25
7.73
3.72
0.85
4.68
0.07
0.05
4.6
0.8
0.99
-0.3
-0.24
0.02
0.07

> <PUBCHEM_SHAPE_SELFOVERLAP>
786.876

> <PUBCHEM_SHAPE_VOLUME>
210.8

> <PUBCHEM_COORDINATE_TYPE>
2
5
10

$$$$
