124412
  -OEChem-03292013323D

 39 40  0     1  0  0  0  0  0999 V2000
    2.9474    0.0683    0.8552 O   0  0  0  0  0  0  0  0  0  0  0  0
    4.0903   -2.6438    0.0125 O   0  0  0  0  0  0  0  0  0  0  0  0
    4.5613    2.1003   -0.2030 O   0  0  0  0  0  0  0  0  0  0  0  0
   -0.7886   -1.5997    1.1598 O   0  0  0  0  0  0  0  0  0  0  0  0
   -3.8193    0.3477   -1.2762 O   0  0  0  0  0  0  0  0  0  0  0  0
   -2.5104    2.5958    0.0279 O   0  0  0  0  0  0  0  0  0  0  0  0
   -5.7682   -1.6224   -1.0869 O   0  0  0  0  0  0  0  0  0  0  0  0
    0.6506    0.0623    0.4080 N   0  0  0  0  0  0  0  0  0  0  0  0
   -1.7020    0.4733    0.6130 N   0  0  0  0  0  0  0  0  0  0  0  0
    1.8248   -0.7543    0.5069 C   0  0  1  0  0  0  0  0  0  0  0  0
    3.6750   -1.5148   -0.7529 C   0  0  1  0  0  0  0  0  0  0  0  0
    2.1654   -1.4572   -0.7972 C   0  0  0  0  0  0  0  0  0  0  0  0
    4.0477   -0.2304   -0.0257 C   0  0  1  0  0  0  0  0  0  0  0  0
    4.2281    0.9530   -0.9673 C   0  0  0  0  0  0  0  0  0  0  0  0
   -0.6247   -0.4437    0.7576 C   0  0  0  0  0  0  0  0  0  0  0  0
    0.7955    1.3647   -0.0412 C   0  0  0  0  0  0  0  0  0  0  0  0
   -3.0361   -0.0006    0.9643 C   0  0  0  0  0  0  0  0  0  0  0  0
   -1.5875    1.7947    0.1607 C   0  0  0  0  0  0  0  0  0  0  0  0
   -0.2149    2.2213   -0.1776 C   0  0  0  0  0  0  0  0  0  0  0  0
   -3.7574   -0.6272   -0.2313 C   0  0  1  0  0  0  0  0  0  0  0  0
   -5.1769   -1.0873    0.0933 C   0  0  0  0  0  0  0  0  0  0  0  0
    1.7006   -1.4900    1.3104 H   0  0  0  0  0  0  0  0  0  0  0  0
    4.1352   -1.5995   -1.7418 H   0  0  0  0  0  0  0  0  0  0  0  0
    1.8441   -0.8635   -1.6615 H   0  0  0  0  0  0  0  0  0  0  0  0
    1.6813   -2.4367   -0.8635 H   0  0  0  0  0  0  0  0  0  0  0  0
    4.9365   -0.3512    0.6036 H   0  0  0  0  0  0  0  0  0  0  0  0
    3.3380    1.1678   -1.5628 H   0  0  0  0  0  0  0  0  0  0  0  0
    5.0553    0.7567   -1.6578 H   0  0  0  0  0  0  0  0  0  0  0  0
    1.7822    1.7195   -0.2882 H   0  0  0  0  0  0  0  0  0  0  0  0
    3.7834   -3.4400   -0.4539 H   0  0  0  0  0  0  0  0  0  0  0  0
   -2.9668   -0.7300    1.7793 H   0  0  0  0  0  0  0  0  0  0  0  0
   -3.6193    0.8496    1.3386 H   0  0  0  0  0  0  0  0  0  0  0  0
   -0.0599    3.2344   -0.5290 H   0  0  0  0  0  0  0  0  0  0  0  0
   -3.1732   -1.4671   -0.6257 H   0  0  0  0  0  0  0  0  0  0  0  0
    4.6859    2.8345   -0.8282 H   0  0  0  0  0  0  0  0  0  0  0  0
   -5.7983   -0.2445    0.4119 H   0  0  0  0  0  0  0  0  0  0  0  0
   -5.1867   -1.8525    0.8752 H   0  0  0  0  0  0  0  0  0  0  0  0
   -4.2782   -0.0620   -2.0295 H   0  0  0  0  0  0  0  0  0  0  0  0
   -5.2321   -2.3858   -1.3617 H   0  0  0  0  0  0  0  0  0  0  0  0
  1 10  1  0  0  0  0
  1 13  1  0  0  0  0
  2 11  1  0  0  0  0
  2 30  1  0  0  0  0
  3 14  1  0  0  0  0
  3 35  1  0  0  0  0
  4 15  2  0  0  0  0
  5 20  1  0  0  0  0
  5 38  1  0  0  0  0
  6 18  2  0  0  0  0
  7 21  1  0  0  0  0
  7 39  1  0  0  0  0
  8 10  1  0  0  0  0
  8 15  1  0  0  0  0
  8 16  1  0  0  0  0
  9 15  1  0  0  0  0
  9 17  1  0  0  0  0
  9 18  1  0  0  0  0
 10 12  1  0  0  0  0
 10 22  1  0  0  0  0
 11 12  1  0  0  0  0
 11 13  1  0  0  0  0
 11 23  1  0  0  0  0
 12 24  1  0  0  0  0
 12 25  1  0  0  0  0
 13 14  1  0  0  0  0
 13 26  1  0  0  0  0
 14 27  1  0  0  0  0
 14 28  1  0  0  0  0
 16 19  2  0  0  0  0
 16 29  1  0  0  0  0
 17 20  1  0  0  0  0
 17 31  1  0  0  0  0
 17 32  1  0  0  0  0
 18 19  1  0  0  0  0
 19 33  1  0  0  0  0
 20 21  1  0  0  0  0
 20 34  1  0  0  0  0
 21 36  1  0  0  0  0
 21 37  1  0  0  0  0
M  END
> <PUBCHEM_COMPOUND_CID>
124412

> <PUBCHEM_CONFORMER_RMSD>
0.8

> <PUBCHEM_CONFORMER_DIVERSEORDER>
1
53
49
85
65
67
43
55
81
35
90
28
63
6
73
37
27
29
32
77
61
78
62
46
86
10
59
74
82
12
57
36
64
84
51
7
87
50
41
80
9
89
21
60
4
15
30
11
56
69
24
71
34
31
42
2
20
18
44
70
13
83
58
25
72
48
16
17
54
88
40
19
5
75
26
47
33
52
79
22
39
45
38
76
14
68
8
3
23
66

> <PUBCHEM_MMFF94_PARTIAL_CHARGES>
26
1 -0.56
10 0.58
11 0.28
13 0.28
14 0.28
15 0.69
16 -0.04
17 0.3
18 0.62
19 -0.14
2 -0.68
20 0.28
21 0.28
29 0.15
3 -0.68
30 0.4
33 0.15
35 0.4
38 0.4
39 0.4
4 -0.57
5 -0.68
6 -0.57
7 -0.68
8 -0.47
9 -0.42

> <PUBCHEM_EFFECTIVE_ROTOR_COUNT>
6

> <PUBCHEM_PHARMACOPHORE_FEATURES>
13
1 1 acceptor
1 2 acceptor
1 2 donor
1 3 acceptor
1 3 donor
1 4 acceptor
1 5 acceptor
1 5 donor
1 6 acceptor
1 7 acceptor
1 7 donor
5 1 10 11 12 13 rings
6 8 9 15 16 18 19 rings

> <PUBCHEM_HEAVY_ATOM_COUNT>
21

> <PUBCHEM_ATOM_DEF_STEREO_COUNT>
3

> <PUBCHEM_ATOM_UDEF_STEREO_COUNT>
1

> <PUBCHEM_BOND_DEF_STEREO_COUNT>
0

> <PUBCHEM_BOND_UDEF_STEREO_COUNT>
0

> <PUBCHEM_ISOTOPIC_ATOM_COUNT>
0

> <PUBCHEM_COMPONENT_COUNT>
1

> <PUBCHEM_CACTVS_TAUTO_COUNT>
1

> <PUBCHEM_CONFORMER_ID>
0001E5FC00000001

> <PUBCHEM_MMFF94_ENERGY>
48.1782

> <PUBCHEM_FEATURE_SELFOVERLAP>
65.992

> <PUBCHEM_SHAPE_FINGERPRINT>
10366900 7 18340496659338092528
11405975 8 18197783189389018000
11806522 49 18410293631351368641
12403259 226 18265613178804061440
12403260 363 18335700477975009442
12670546 177 18187645846831258015
12916754 54 18270687458972512770
13583140 156 15050883075576178147
14576447 43 18271242823850302095
14787075 74 18411140272410876576
15196674 1 18409733928261315417
15238133 3 12540688232622269902
15848700 24 18410291423706276763
17357779 13 18335413574101464941
17492 89 18268994181059710190
18186145 218 17241340074885754112
19141452 34 18129951066334933873
19784866 9 9006790782213961949
200 152 18202562878219887873
20281475 54 18343586209275340217
20645477 70 18412268311596768606
20871999 31 18334859381438667013
21029758 11 18410013268929703337
21501502 16 18267877094646746272
21618674 68 18409454687179347116
23402539 116 18336827485513818338
23557571 272 18272095946015277308
23559900 14 18194681471840821866
2838139 119 14129046041928373311
2871803 45 18408040688976233939
312423 11 18341060601307444682
314194 84 18342741857755602851
3286 77 17703784787082512234
46194498 28 17822848818516860581
5104073 3 18270962328389736832
5283173 99 18041269981323931189
58051976 378 18409737291821873988
76465 3 18340484444235162314
9709674 26 18265908977323059762

> <PUBCHEM_SHAPE_MULTIPOLES>
381.12
10.52
2.45
1
4.72
0.6
0.07
-3.96
3
-0.77
0.24
0.34
-0.2
-0.35

> <PUBCHEM_SHAPE_SELFOVERLAP>
789.805

> <PUBCHEM_SHAPE_VOLUME>
216.6

> <PUBCHEM_COORDINATE_TYPE>
2
5
10

$$$$
