124419
  -OEChem-03292013323D

 40 41  0     1  0  0  0  0  0999 V2000
   -0.4819    0.2499    1.9906 S   0  0  0  0  0  0  0  0  0  0  0  0
   -1.3731   -2.8566    1.6935 O   0  0  0  0  0  0  0  0  0  0  0  0
   -2.0390    1.9064   -0.6632 O   0  0  0  0  0  0  0  0  0  0  0  0
   -0.3052   -0.5420    3.1998 O   0  0  0  0  0  0  0  0  0  0  0  0
   -0.9792    1.6152    2.0864 O   0  0  0  0  0  0  0  0  0  0  0  0
   -3.6369    0.5245   -1.5666 O   0  0  0  0  0  0  0  0  0  0  0  0
    4.9150    1.2683   -1.7679 O   0  5  0  0  0  0  0  0  0  0  0  0
    5.5013   -0.6094   -0.7936 O   0  0  0  0  0  0  0  0  0  0  0  0
   -1.4590   -0.6156    0.9091 N   0  0  0  0  0  0  0  0  0  0  0  0
    4.6807    0.3219   -0.9779 N   0  3  0  0  0  0  0  0  0  0  0  0
   -2.1849   -1.9128   -0.5926 C   0  0  2  0  0  0  0  0  0  0  0  0
   -1.6181   -0.4774   -0.5546 C   0  0  1  0  0  0  0  0  0  0  0  0
   -1.6455   -2.0149    0.8696 C   0  0  0  0  0  0  0  0  0  0  0  0
   -1.5343   -2.9032   -1.5455 C   0  0  0  0  0  0  0  0  0  0  0  0
   -2.5577    0.6842   -0.9966 C   0  0  0  0  0  0  0  0  0  0  0  0
   -2.1193   -2.7722   -2.9450 C   0  0  0  0  0  0  0  0  0  0  0  0
    1.0314    0.2708    1.1197 C   0  0  0  0  0  0  0  0  0  0  0  0
    1.3135    1.3126    0.2361 C   0  0  0  0  0  0  0  0  0  0  0  0
    1.9587   -0.7542    1.3083 C   0  0  0  0  0  0  0  0  0  0  0  0
   -2.8362    3.0413   -1.0191 C   0  0  0  0  0  0  0  0  0  0  0  0
    2.5227    1.3294   -0.4592 C   0  0  0  0  0  0  0  0  0  0  0  0
    3.1679   -0.7372    0.6130 C   0  0  0  0  0  0  0  0  0  0  0  0
    3.4498    0.3047   -0.2707 C   0  0  0  0  0  0  0  0  0  0  0  0
   -3.7707    3.3664    0.1266 C   0  0  0  0  0  0  0  0  0  0  0  0
   -3.2813   -1.9793   -0.6047 H   0  0  0  0  0  0  0  0  0  0  0  0
   -0.6487   -0.4035   -1.0647 H   0  0  0  0  0  0  0  0  0  0  0  0
   -0.4478   -2.7626   -1.5825 H   0  0  0  0  0  0  0  0  0  0  0  0
   -1.7131   -3.9252   -1.1909 H   0  0  0  0  0  0  0  0  0  0  0  0
   -1.6572   -3.4978   -3.6212 H   0  0  0  0  0  0  0  0  0  0  0  0
   -3.1997   -2.9496   -2.9365 H   0  0  0  0  0  0  0  0  0  0  0  0
   -1.9475   -1.7688   -3.3476 H   0  0  0  0  0  0  0  0  0  0  0  0
    0.6084    2.1222    0.0740 H   0  0  0  0  0  0  0  0  0  0  0  0
    1.7566   -1.5788    1.9861 H   0  0  0  0  0  0  0  0  0  0  0  0
   -3.3826    2.8809   -1.9552 H   0  0  0  0  0  0  0  0  0  0  0  0
   -2.1498    3.8777   -1.1859 H   0  0  0  0  0  0  0  0  0  0  0  0
    2.7084    2.1569   -1.1393 H   0  0  0  0  0  0  0  0  0  0  0  0
    3.8657   -1.5530    0.7835 H   0  0  0  0  0  0  0  0  0  0  0  0
   -4.3581    4.2623   -0.0937 H   0  0  0  0  0  0  0  0  0  0  0  0
   -4.4583    2.5368    0.3203 H   0  0  0  0  0  0  0  0  0  0  0  0
   -3.2065    3.5338    1.0499 H   0  0  0  0  0  0  0  0  0  0  0  0
  1  4  2  0  0  0  0
  1  5  2  0  0  0  0
  1  9  1  0  0  0  0
  1 17  1  0  0  0  0
  2 13  2  0  0  0  0
  3 15  1  0  0  0  0
  3 20  1  0  0  0  0
  6 15  2  0  0  0  0
  7 10  1  0  0  0  0
  8 10  2  0  0  0  0
  9 12  1  0  0  0  0
  9 13  1  0  0  0  0
 10 23  1  0  0  0  0
 11 12  1  0  0  0  0
 11 13  1  0  0  0  0
 11 14  1  0  0  0  0
 11 25  1  0  0  0  0
 12 15  1  0  0  0  0
 12 26  1  0  0  0  0
 14 16  1  0  0  0  0
 14 27  1  0  0  0  0
 14 28  1  0  0  0  0
 16 29  1  0  0  0  0
 16 30  1  0  0  0  0
 16 31  1  0  0  0  0
 17 18  2  0  0  0  0
 17 19  1  0  0  0  0
 18 21  1  0  0  0  0
 18 32  1  0  0  0  0
 19 22  2  0  0  0  0
 19 33  1  0  0  0  0
 20 24  1  0  0  0  0
 20 34  1  0  0  0  0
 20 35  1  0  0  0  0
 21 23  2  0  0  0  0
 21 36  1  0  0  0  0
 22 23  1  0  0  0  0
 22 37  1  0  0  0  0
 24 38  1  0  0  0  0
 24 39  1  0  0  0  0
 24 40  1  0  0  0  0
M  CHG  2   7  -1  10   1
M  END
> <PUBCHEM_COMPOUND_CID>
124419

> <PUBCHEM_CONFORMER_RMSD>
0.8

> <PUBCHEM_CONFORMER_DIVERSEORDER>
1
50
70
80
106
103
81
74
26
93
109
114
29
46
72
119
40
8
30
102
49
24
36
84
82
111
117
52
11
20
61
112
62
108
123
95
107
22
44
45
47
53
37
90
34
28
17
89
96
99
86
83
39
73
118
32
41
15
71
115
104
38
58
55
65
67
4
7
51
21
57
101
13
75
68
43
120
59
63
88
124
116
56
121
78
105
122
85
9
6
23
12
48
31
19
66
18
27
79
110
16
77
97
3
33
94
25
98
35
87
76
10
42
5
92
2
69
100
60
64
113
14
54
91

> <PUBCHEM_MMFF94_PARTIAL_CHARGES>
25
1 1.45
10 0.91
11 0.05
12 0.36
13 0.75
15 0.67
17 -0.01
18 -0.15
19 -0.15
2 -0.57
20 0.28
21 -0.15
22 -0.15
23 0.13
3 -0.43
32 0.15
33 0.15
36 0.15
37 0.15
4 -0.65
5 -0.65
6 -0.57
7 -0.52
8 -0.52
9 -0.68

> <PUBCHEM_EFFECTIVE_ROTOR_COUNT>
7.6

> <PUBCHEM_PHARMACOPHORE_FEATURES>
10
1 16 hydrophobe
1 2 acceptor
1 4 acceptor
1 5 acceptor
1 6 acceptor
1 7 acceptor
1 7 anion
1 8 acceptor
4 9 11 12 13 rings
6 17 18 19 21 22 23 rings

> <PUBCHEM_HEAVY_ATOM_COUNT>
24

> <PUBCHEM_ATOM_DEF_STEREO_COUNT>
1

> <PUBCHEM_ATOM_UDEF_STEREO_COUNT>
1

> <PUBCHEM_BOND_DEF_STEREO_COUNT>
0

> <PUBCHEM_BOND_UDEF_STEREO_COUNT>
0

> <PUBCHEM_ISOTOPIC_ATOM_COUNT>
0

> <PUBCHEM_COMPONENT_COUNT>
1

> <PUBCHEM_CACTVS_TAUTO_COUNT>
1

> <PUBCHEM_CONFORMER_ID>
0001E60300000001

> <PUBCHEM_MMFF94_ENERGY>
37.0967

> <PUBCHEM_FEATURE_SELFOVERLAP>
50.85

> <PUBCHEM_SHAPE_FINGERPRINT>
107951 10 18189630353439708487
11578080 2 17916859265435672088
12173636 292 18040988566260263547
12363563 72 15697994163108635252
12714826 92 18201437046705896487
12788726 201 18261664969845486947
133893 2 17333663673999857593
13583140 156 12468633984801923212
14142880 1 15791729745648287791
14713325 29 18409176497820820027
14817 1 12282665138957550729
15475509 35 11451326300226398173
15475509 8 17985246712073871823
15534591 1 18040992900071974449
15664445 248 17260713749098368711
16752209 62 18271512126968674043
20602899 9 17773599321269893776
20775530 9 17127888294756214254
21524375 3 18193257621352055373
21756936 100 17603874364490229896
21860390 5 15587330220369751501
22907989 373 18343029903531006117
23526113 38 16772361093744355475
23557571 272 18050545624381714713
23559900 14 17631717306573110122
238 59 15867962069077651295
2637199 183 18263638464236424633
298252 57 18191860137430103393
3027735 51 16414925110614419319
484985 159 17274559662508709054
513532 50 13465845766640255457
58260988 647 16055741226889240855
70251023 43 18054221308843665583
84936 31 16172310598835025323

> <PUBCHEM_SHAPE_MULTIPOLES>
446.71
7.62
3.47
2.48
10.43
0.34
-0.89
-2.62
5.3
-5.26
1.46
-0.45
0.91
-0.59

> <PUBCHEM_SHAPE_SELFOVERLAP>
916.446

> <PUBCHEM_SHAPE_VOLUME>
258.3

> <PUBCHEM_COORDINATE_TYPE>
2
5
10

$$$$
