REMARK  Name = 124419
REMARK  7 active torsions:
REMARK  status: ('A' for Active; 'I' for Inactive)
REMARK    1  A    between atoms: S_1  and  C_4
REMARK    2  A    between atoms: S_1  and  N_14
REMARK    3  A    between atoms: C_9  and  N_12
REMARK    4  A    between atoms: C_15  and  C_23
REMARK    5  A    between atoms: C_16  and  C_19
REMARK    6  A    between atoms: C_19  and  O_20
REMARK    7  A    between atoms: O_20  and  C_21
REMARK                            x       y       z     vdW  Elec       q    Type
REMARK                         _______ _______ _______ _____ _____    ______ ____
ROOT
ATOM      1  S   UNL     1      -0.482   0.250   1.991  0.00  0.00    +0.079 S 
ATOM      2  O   UNL     1      -0.305  -0.542   3.200  0.00  0.00    -0.150 OA
ATOM      3  O   UNL     1      -0.979   1.615   2.086  0.00  0.00    -0.150 OA
ENDROOT
BRANCH   1   4
ATOM      4  C   UNL     1       1.031   0.271   1.120  0.00  0.00    +0.126 C 
ATOM      5  C   UNL     1       1.313   1.313   0.236  0.00  0.00    +0.022 C 
ATOM      6  C   UNL     1       1.959  -0.754   1.308  0.00  0.00    +0.022 C 
ATOM      7  C   UNL     1       2.523   1.329  -0.459  0.00  0.00    +0.025 C 
ATOM      8  C   UNL     1       3.168  -0.737   0.613  0.00  0.00    +0.025 C 
ATOM      9  C   UNL     1       3.450   0.305  -0.271  0.00  0.00    +0.143 C 
BRANCH   9  12
ATOM     10  O   UNL     1       4.915   1.268  -1.768  0.00  0.00    -0.126 OA
ATOM     11  O   UNL     1       5.501  -0.609  -0.794  0.00  0.00    -0.126 OA
ATOM     12  N   UNL     1       4.681   0.322  -0.978  0.00  0.00    +0.058 N 
ENDBRANCH   9  12
ENDBRANCH   1   4
BRANCH   1  14
ATOM     13  O   UNL     1      -1.373  -2.857   1.694  0.00  0.00    -0.273 OA
ATOM     14  N   UNL     1      -1.459  -0.616   0.909  0.00  0.00    -0.150 N 
ATOM     15  C   UNL     1      -2.185  -1.913  -0.593  0.00  0.00    +0.109 C 
ATOM     16  C   UNL     1      -1.618  -0.477  -0.555  0.00  0.00    +0.205 C 
ATOM     17  C   UNL     1      -1.645  -2.015   0.870  0.00  0.00    +0.246 C 
BRANCH  16  19
ATOM     18  O   UNL     1      -3.637   0.524  -1.567  0.00  0.00    -0.248 OA
ATOM     19  C   UNL     1      -2.558   0.684  -0.997  0.00  0.00    +0.338 C 
BRANCH  19  20
ATOM     20  O   UNL     1      -2.039   1.906  -0.663  0.00  0.00    -0.447 OA
BRANCH  20  21
ATOM     21  C   UNL     1      -2.836   3.041  -1.019  0.00  0.00    +0.209 C 
ATOM     22  C   UNL     1      -3.771   3.366   0.127  0.00  0.00    +0.051 C 
ENDBRANCH  20  21
ENDBRANCH  19  20
ENDBRANCH  16  19
BRANCH  15  23
ATOM     23  C   UNL     1      -1.534  -2.903  -1.546  0.00  0.00    +0.011 C 
ATOM     24  C   UNL     1      -2.119  -2.772  -2.945  0.00  0.00    +0.001 C 
ENDBRANCH  15  23
ENDBRANCH   1  14
TORSDOF 7
