124475
  -OEChem-03292013323D

 38 39  0     1  0  0  0  0  0999 V2000
    3.6314    2.2511    0.1034 P   0  0  0  0  0  0  0  0  0  0  0  0
    1.2414   -1.2238    1.0004 O   0  0  0  0  0  0  0  0  0  0  0  0
    2.2655   -3.8551   -0.1826 O   0  0  0  0  0  0  0  0  0  0  0  0
    3.1582    0.7734    0.5632 O   0  0  0  0  0  0  0  0  0  0  0  0
   -2.6203   -2.4828    0.4944 O   0  0  0  0  0  0  0  0  0  0  0  0
    2.4611    2.7334   -0.9029 O   0  0  0  0  0  0  0  0  0  0  0  0
    4.8702    1.9403   -0.8884 O   0  0  0  0  0  0  0  0  0  0  0  0
    3.9409    3.1963    1.2274 O   0  0  0  0  0  0  0  0  0  0  0  0
   -5.2454    1.3690    0.1980 O   0  0  0  0  0  0  0  0  0  0  0  0
   -0.9564   -0.9004    0.2656 N   0  0  0  0  0  0  0  0  0  0  0  0
   -3.2991   -0.3315    0.2435 N   0  0  0  0  0  0  0  0  0  0  0  0
   -3.9879    1.8745   -0.0157 N   0  0  0  0  0  0  0  0  0  0  0  0
    2.0636   -2.5710   -0.7687 C   0  0  2  0  0  0  0  0  0  0  0  0
    2.4309   -1.4822    0.2298 C   0  0  1  0  0  0  0  0  0  0  0  0
    0.5874   -2.3420   -0.9972 C   0  0  0  0  0  0  0  0  0  0  0  0
    0.1178   -1.8451    0.3603 C   0  0  1  0  0  0  0  0  0  0  0  0
    2.8469   -0.1792   -0.4405 C   0  0  0  0  0  0  0  0  0  0  0  0
   -0.6484    0.4390    0.0925 C   0  0  0  0  0  0  0  0  0  0  0  0
   -2.3136   -1.2988    0.3426 C   0  0  0  0  0  0  0  0  0  0  0  0
   -1.5813    1.3841   -0.0062 C   0  0  0  0  0  0  0  0  0  0  0  0
   -2.9934    0.9290    0.0806 C   0  0  0  0  0  0  0  0  0  0  0  0
   -5.9697    1.6216   -0.9996 C   0  0  0  0  0  0  0  0  0  0  0  0
    2.6561   -2.5313   -1.6877 H   0  0  0  0  0  0  0  0  0  0  0  0
    3.2040   -1.8074    0.9348 H   0  0  0  0  0  0  0  0  0  0  0  0
    0.4480   -1.5748   -1.7684 H   0  0  0  0  0  0  0  0  0  0  0  0
    0.0383   -3.2359   -1.3093 H   0  0  0  0  0  0  0  0  0  0  0  0
   -0.1857   -2.6916    0.9875 H   0  0  0  0  0  0  0  0  0  0  0  0
    2.0699    0.2143   -1.0997 H   0  0  0  0  0  0  0  0  0  0  0  0
    3.7416   -0.3568   -1.0467 H   0  0  0  0  0  0  0  0  0  0  0  0
    1.9654   -4.5191   -0.8266 H   0  0  0  0  0  0  0  0  0  0  0  0
    0.3860    0.7361    0.0451 H   0  0  0  0  0  0  0  0  0  0  0  0
   -1.3504    2.4328   -0.1373 H   0  0  0  0  0  0  0  0  0  0  0  0
   -3.8582    2.8788   -0.0606 H   0  0  0  0  0  0  0  0  0  0  0  0
    2.4922    3.6443   -1.2653 H   0  0  0  0  0  0  0  0  0  0  0  0
    5.3984    2.6896   -1.2370 H   0  0  0  0  0  0  0  0  0  0  0  0
   -6.0431    2.6977   -1.1906 H   0  0  0  0  0  0  0  0  0  0  0  0
   -6.9815    1.2256   -0.8752 H   0  0  0  0  0  0  0  0  0  0  0  0
   -5.5049    1.1142   -1.8520 H   0  0  0  0  0  0  0  0  0  0  0  0
  1  4  1  0  0  0  0
  1  6  1  0  0  0  0
  1  7  1  0  0  0  0
  1  8  2  0  0  0  0
  2 14  1  0  0  0  0
  2 16  1  0  0  0  0
  3 13  1  0  0  0  0
  3 30  1  0  0  0  0
  4 17  1  0  0  0  0
  5 19  2  0  0  0  0
  6 34  1  0  0  0  0
  7 35  1  0  0  0  0
  9 12  1  0  0  0  0
  9 22  1  0  0  0  0
 10 16  1  0  0  0  0
 10 18  1  0  0  0  0
 10 19  1  0  0  0  0
 11 19  1  0  0  0  0
 11 21  2  0  0  0  0
 12 21  1  0  0  0  0
 12 33  1  0  0  0  0
 13 14  1  0  0  0  0
 13 15  1  0  0  0  0
 13 23  1  0  0  0  0
 14 17  1  0  0  0  0
 14 24  1  0  0  0  0
 15 16  1  0  0  0  0
 15 25  1  0  0  0  0
 15 26  1  0  0  0  0
 16 27  1  0  0  0  0
 17 28  1  0  0  0  0
 17 29  1  0  0  0  0
 18 20  2  0  0  0  0
 18 31  1  0  0  0  0
 20 21  1  0  0  0  0
 20 32  1  0  0  0  0
 22 36  1  0  0  0  0
 22 37  1  0  0  0  0
 22 38  1  0  0  0  0
M  END
> <PUBCHEM_COMPOUND_CID>
124475

> <PUBCHEM_CONFORMER_RMSD>
0.8

> <PUBCHEM_CONFORMER_DIVERSEORDER>
1
44
52
25
35
37
73
60
56
81
32
76
65
38
26
58
24
64
30
79
15
69
43
62
36
2
77
39
71
6
42
55
23
50
12
57
27
33
21
59
67
78
4
45
40
17
48
51
14
20
31
19
29
63
74
10
54
61
18
34
75
13
22
9
41
70
3
5
11
7
49
53
16
72
66
82
83
68
46
47
8
28
80

> <PUBCHEM_MMFF94_PARTIAL_CHARGES>
27
1 1.51
10 -0.47
11 -0.66
12 -0.47
13 0.28
14 0.28
16 0.58
17 0.28
18 -0.04
19 0.84
2 -0.56
20 -0.14
21 0.49
22 0.28
3 -0.68
30 0.4
31 0.15
32 0.15
33 0.4
34 0.5
35 0.5
4 -0.55
5 -0.57
6 -0.77
7 -0.77
8 -0.7
9 -0.26

> <PUBCHEM_EFFECTIVE_ROTOR_COUNT>
7

> <PUBCHEM_PHARMACOPHORE_FEATURES>
12
1 11 donor
1 12 donor
1 2 acceptor
1 3 acceptor
1 3 donor
1 5 acceptor
1 6 acceptor
1 7 acceptor
1 8 acceptor
4 1 6 7 8 anion
5 2 13 14 15 16 rings
6 10 11 18 19 20 21 rings

> <PUBCHEM_HEAVY_ATOM_COUNT>
22

> <PUBCHEM_ATOM_DEF_STEREO_COUNT>
3

> <PUBCHEM_ATOM_UDEF_STEREO_COUNT>
0

> <PUBCHEM_BOND_DEF_STEREO_COUNT>
0

> <PUBCHEM_BOND_UDEF_STEREO_COUNT>
0

> <PUBCHEM_ISOTOPIC_ATOM_COUNT>
0

> <PUBCHEM_COMPONENT_COUNT>
1

> <PUBCHEM_CACTVS_TAUTO_COUNT>
3

> <PUBCHEM_CONFORMER_ID>
0001E63B00000001

> <PUBCHEM_MMFF94_ENERGY>
25.4769

> <PUBCHEM_FEATURE_SELFOVERLAP>
60.98

> <PUBCHEM_SHAPE_FINGERPRINT>
10411042 1 17690561883884946622
10498660 4 18341055202259571864
12173636 292 18052817241601615582
12403259 226 17756706330305445351
12633257 1 18041547062580213738
12769317 202 18413384332709370560
13140716 1 18409161121637394994
138480 1 18123191199795684622
13955234 65 18340207379994419939
17134986 127 18341897420051046494
17980427 23 18053066650310660154
21524375 3 18266181811067943210
23227448 37 18408885157251353181
23558518 356 18115310110606233203
23559900 14 18269271274905898251
43658 37 18341889714373425608
474 4 18410011005222981665
495365 180 18130212809461980816
5104073 3 18261397719937260771
59755656 215 18409732824787413396
6327066 14 18337107998903801372
7364860 26 18340489954788583086
7808743 9 17690843780480557072
9709674 26 18411141290666564359
9981440 41 18265048209926231746

> <PUBCHEM_SHAPE_MULTIPOLES>
394.7
9.81
4.09
0.91
9.63
0.7
-0.07
-9.14
-1.4
-4.27
-0.2
-0.29
-0.12
0.93

> <PUBCHEM_SHAPE_SELFOVERLAP>
802.566

> <PUBCHEM_SHAPE_VOLUME>
231.2

> <PUBCHEM_COORDINATE_TYPE>
2
5
10

$$$$
