REMARK  Name = 12444784
REMARK  0 active torsions:
REMARK  status: ('A' for Active; 'I' for Inactive)
REMARK                            x       y       z     vdW  Elec       q    Type
REMARK                         _______ _______ _______ _____ _____    ______ ____
ROOT
ATOM      1  O   UNL     1      -1.429   2.917   2.158  0.00  0.00    -0.351 OA
ATOM      2  O   UNL     1      -3.744   1.845  -0.436  0.00  0.00    -0.352 OA
ATOM      3  O   UNL     1       0.614   2.590  -0.128  0.00  0.00    -0.449 OA
ATOM      4  O   UNL     1      -0.736  -2.109  -0.031  0.00  0.00    -0.445 OA
ATOM      5  O   UNL     1       2.017   1.513  -1.615  0.00  0.00    -0.245 OA
ATOM      6  O   UNL     1       0.284  -3.113  -1.850  0.00  0.00    -0.245 OA
ATOM      7  O   UNL     1       4.219  -1.161  -0.234  0.00  0.00    -0.445 OA
ATOM      8  O   UNL     1       4.042   0.586   1.267  0.00  0.00    -0.245 OA
ATOM      9  C   UNL     1      -1.186   1.002   0.556  0.00  0.00    +0.070 C 
ATOM     10  C   UNL     1      -2.070   2.038   1.221  0.00  0.00    +0.148 C 
ATOM     11  C   UNL     1      -2.188  -0.102  -0.051  0.00  0.00    +0.075 C 
ATOM     12  C   UNL     1      -2.760   2.735   0.102  0.00  0.00    +0.146 C 
ATOM     13  C   UNL     1      -0.569   1.899  -0.596  0.00  0.00    +0.174 C 
ATOM     14  C   UNL     1      -2.492   2.100   2.668  0.00  0.00    +0.172 C 
ATOM     15  C   UNL     1      -1.625   2.995  -0.898  0.00  0.00    +0.076 C 
ATOM     16  C   UNL     1      -3.238   0.613  -0.984  0.00  0.00    +0.140 C 
ATOM     17  C   UNL     1      -0.102   0.422   1.472  0.00  0.00    +0.006 C 
ATOM     18  C   UNL     1      -2.996  -0.822   1.078  0.00  0.00    +0.011 C 
ATOM     19  C   UNL     1      -1.413  -1.173  -0.889  0.00  0.00    +0.211 C 
ATOM     20  C   UNL     1      -4.454  -0.219  -1.298  0.00  0.00    -0.006 C 
ATOM     21  C   UNL     1      -4.012  -1.840   0.541  0.00  0.00    +0.022 C 
ATOM     22  C   UNL     1      -4.805  -1.332  -0.633  0.00  0.00    -0.046 C 
ATOM     23  C   UNL     1       1.805   2.319  -0.725  0.00  0.00    +0.341 C 
ATOM     24  C   UNL     1      -6.007  -2.142  -1.019  0.00  0.00    +0.026 C 
ATOM     25  C   UNL     1       0.063  -3.014  -0.654  0.00  0.00    +0.341 C 
ATOM     26  C   UNL     1       2.814   3.211  -0.101  0.00  0.00    +0.082 C 
ATOM     27  C   UNL     1       0.627  -3.900   0.381  0.00  0.00    +0.074 C 
ATOM     28  C   UNL     1       4.140   3.140  -0.289  0.00  0.00    +0.007 C 
ATOM     29  C   UNL     1       1.949  -4.005   0.603  0.00  0.00    -0.034 C 
ATOM     30  C   UNL     1       4.892   2.200  -1.086  0.00  0.00    +0.007 C 
ATOM     31  C   UNL     1       3.010  -3.233  -0.144  0.00  0.00    +0.070 C 
ATOM     32  C   UNL     1       2.461  -4.924   1.681  0.00  0.00    +0.027 C 
ATOM     33  C   UNL     1       3.502  -2.031   0.658  0.00  0.00    +0.213 C 
ATOM     34  C   UNL     1       5.011   0.875  -0.914  0.00  0.00    +0.082 C 
ATOM     35  C   UNL     1       4.375   0.121   0.189  0.00  0.00    +0.341 C 
ENDROOT
TORSDOF 0
