REMARK  Name = 124466
REMARK  8 active torsions:
REMARK  status: ('A' for Active; 'I' for Inactive)
REMARK    1  A    between atoms: N_3  and  C1*_13
REMARK    2  A    between atoms: C_7  and  C_22
REMARK    3  A    between atoms: C2*_11  and  O2*_15
REMARK    4  A    between atoms: C3*_12  and  O3*_17
REMARK    5  A    between atoms: C4*_14  and  C5*_19
REMARK    6  A    between atoms: C5*_19  and  O5*_20
REMARK    7  A    between atoms: C_22  and  O_23
REMARK    8  A    between atoms: O_23  and  C_25
REMARK                            x       y       z     vdW  Elec       q    Type
REMARK                         _______ _______ _______ _____ _____    ______ ____
ROOT
ATOM      1  O   UNL     1      -1.150  -3.166  -0.654  0.00  0.00    -0.252 OA
ATOM      2  O   UNL     1       3.260  -2.321   0.341  0.00  0.00    -0.270 OA
ATOM      3  N   UNL     1      -0.520  -0.951  -0.271  0.00  0.00    -0.217 N 
ATOM      4  N   UNL     1       1.046  -2.730  -0.157  0.00  0.00    -0.236 N 
ATOM      5  C   UNL     1       0.521  -0.083   0.041  0.00  0.00    +0.075 C 
ATOM      6  C   UNL     1      -0.278  -2.338  -0.381  0.00  0.00    +0.315 C 
ATOM      7  C   UNL     1       1.787  -0.462   0.256  0.00  0.00    +0.090 C 
ATOM      8  C   UNL     1       2.118  -1.908   0.156  0.00  0.00    +0.253 C 
ATOM      9  H   UNL     1       1.238  -3.693  -0.228  0.00  0.00    +0.159 HD
ENDROOT
BRANCH   3  13
ATOM     10  O4* UNL     1      -1.706   0.910  -1.043  0.00  0.00    -0.333 OA
ATOM     11  C2* UNL     1      -2.601  -0.243   0.824  0.00  0.00    +0.187 C 
ATOM     12  C3* UNL     1      -3.487   0.946   0.518  0.00  0.00    +0.171 C 
ATOM     13  C1* UNL     1      -1.831  -0.404  -0.475  0.00  0.00    +0.229 C 
ATOM     14  C4* UNL     1      -2.569   1.819  -0.327  0.00  0.00    +0.175 C 
BRANCH  11  15
ATOM     15  O2* UNL     1      -3.347  -1.395   1.161  0.00  0.00    -0.378 OA
ATOM     16  H2* UNL     1      -3.818  -1.242   1.995  0.00  0.00    +0.211 HD
ENDBRANCH  11  15
BRANCH  12  17
ATOM     17  O3* UNL     1      -4.588   0.546  -0.299  0.00  0.00    -0.379 OA
ATOM     18  H3* UNL     1      -5.188  -0.012   0.219  0.00  0.00    +0.211 HD
ENDBRANCH  12  17
BRANCH  14  19
ATOM     19  C5* UNL     1      -1.694   2.750   0.502  0.00  0.00    +0.169 C 
BRANCH  19  20
ATOM     20  O5* UNL     1      -0.877   3.505  -0.375  0.00  0.00    -0.379 OA
ATOM     21  H5* UNL     1      -0.314   4.102   0.141  0.00  0.00    +0.211 HD
ENDBRANCH  19  20
ENDBRANCH  14  19
ENDBRANCH   3  13
BRANCH   7  22
ATOM     22  C   UNL     1       2.890   0.490   0.590  0.00  0.00    +0.241 C 
BRANCH  22  23
ATOM     23  O   UNL     1       3.510   0.948  -0.599  0.00  0.00    -0.436 OA
BRANCH  23  25
ATOM     24  O   UNL     1       4.976   2.258   0.623  0.00  0.00    -0.238 OA
ATOM     25  C   UNL     1       4.539   1.827  -0.432  0.00  0.00    +0.418 C 
ENDBRANCH  23  25
ENDBRANCH  22  23
ENDBRANCH   7  22
TORSDOF 8
