REMARK  Name = 12444646
REMARK  8 active torsions:
REMARK  status: ('A' for Active; 'I' for Inactive)
REMARK    1  A    between atoms: C_2  and  O_7
REMARK    2  A    between atoms: C_3  and  O_9
REMARK    3  A    between atoms: C_4  and  C_15
REMARK    4  A    between atoms: C_5  and  O_11
REMARK    5  A    between atoms: C_6  and  O_13
REMARK    6  A    between atoms: C_15  and  O_16
REMARK    7  A    between atoms: O_16  and  C_18
REMARK    8  A    between atoms: C_18  and  C_19
REMARK                            x       y       z     vdW  Elec       q    Type
REMARK                         _______ _______ _______ _____ _____    ______ ____
ROOT
ATOM      1  O   UNL     1      -1.730  -0.382   1.335  0.00  0.00    -0.325 OA
ATOM      2  C   UNL     1      -1.865  -0.531  -1.081  0.00  0.00    +0.171 C 
ATOM      3  C   UNL     1      -3.202   0.209  -1.060  0.00  0.00    +0.172 C 
ATOM      4  C   UNL     1      -1.640  -1.286   0.232  0.00  0.00    +0.190 C 
ATOM      5  C   UNL     1      -3.358   1.033   0.219  0.00  0.00    +0.196 C 
ATOM      6  C   UNL     1      -3.024   0.203   1.459  0.00  0.00    +0.262 C 
ENDROOT
BRANCH   2   7
ATOM      7  O   UNL     1      -1.856  -1.458  -2.164  0.00  0.00    -0.379 OA
ATOM      8  H   UNL     1      -1.998  -0.982  -2.998  0.00  0.00    +0.211 HD
ENDBRANCH   2   7
BRANCH   3   9
ATOM      9  O   UNL     1      -3.244   1.078  -2.193  0.00  0.00    -0.379 OA
ATOM     10  H   UNL     1      -3.145   0.556  -3.004  0.00  0.00    +0.211 HD
ENDBRANCH   3   9
BRANCH   5  11
ATOM     11  O   UNL     1      -4.708   1.481   0.332  0.00  0.00    -0.378 OA
ATOM     12  H   UNL     1      -4.940   2.010  -0.447  0.00  0.00    +0.211 HD
ENDBRANCH   5  11
BRANCH   6  13
ATOM     13  O   UNL     1      -3.053   1.073   2.590  0.00  0.00    -0.358 OA
ATOM     14  H   UNL     1      -2.843   0.568   3.391  0.00  0.00    +0.213 HD
ENDBRANCH   6  13
BRANCH   4  15
ATOM     15  C   UNL     1      -0.262  -1.936   0.281  0.00  0.00    +0.241 C 
BRANCH  15  16
ATOM     16  O   UNL     1       0.720  -0.924   0.152  0.00  0.00    -0.443 OA
BRANCH  16  18
ATOM     17  O   UNL     1       2.400  -2.491   0.297  0.00  0.00    -0.245 OA
ATOM     18  C   UNL     1       2.020  -1.337   0.176  0.00  0.00    +0.341 C 
BRANCH  18  19
ATOM     19  C   UNL     1       2.946  -0.184   0.035  0.00  0.00    +0.076 C 
ATOM     20  C   UNL     1       4.189  -0.251   0.631  0.00  0.00    +0.006 C 
ATOM     21  C   UNL     1       2.535   0.917  -0.688  0.00  0.00    +0.006 C 
ATOM     22  C   UNL     1       5.059   0.831   0.498  0.00  0.00    +0.000 C 
ATOM     23  C   UNL     1       3.405   1.999  -0.821  0.00  0.00    +0.000 C 
ATOM     24  C   UNL     1       4.667   1.956  -0.228  0.00  0.00    +0.000 C 
ENDBRANCH  18  19
ENDBRANCH  16  18
ENDBRANCH  15  16
ENDBRANCH   4  15
TORSDOF 8
