REMARK  Name = 12442966
REMARK  5 active torsions:
REMARK  status: ('A' for Active; 'I' for Inactive)
REMARK    1  A    between atoms: C_7  and  O_25
REMARK    2  A    between atoms: C_9  and  O_27
REMARK    3  A    between atoms: C_10  and  S_23
REMARK    4  A    between atoms: C_17  and  O_29
REMARK    5  A    between atoms: C_20  and  O_31
REMARK                            x       y       z     vdW  Elec       q    Type
REMARK                         _______ _______ _______ _____ _____    ______ ____
ROOT
ATOM      1 CL   UNL     1       4.491   2.694  -0.782  0.00  0.00    -0.079 Cl
ATOM      2  O   UNL     1      -3.575   2.266  -0.526  0.00  0.00    -0.272 OA
ATOM      3  O   UNL     1      -2.232  -2.751   0.758  0.00  0.00    -0.268 OA
ATOM      4  N   UNL     1      -1.628  -0.536   0.536  0.00  0.00    -0.243 N 
ATOM      5  N   UNL     1       0.609  -1.390   0.931  0.00  0.00    -0.287 N 
ATOM      6  N   UNL     1      -4.071  -0.003  -0.678  0.00  0.00    -0.251 N 
ATOM      7  C   UNL     1       0.049   0.908   1.468  0.00  0.00    +0.170 C 
ATOM      8  C   UNL     1      -0.477  -0.556   1.462  0.00  0.00    +0.185 C 
ATOM      9  C   UNL     1      -1.055   1.731   0.786  0.00  0.00    +0.177 C 
ATOM     10  C   UNL     1      -1.768   0.736  -0.157  0.00  0.00    +0.198 C 
ATOM     11  C   UNL     1       1.343   0.793   0.720  0.00  0.00    +0.025 C 
ATOM     12  C   UNL     1       1.628  -0.556   0.484  0.00  0.00    +0.085 C 
ATOM     13  C   UNL     1      -3.232   1.087  -0.400  0.00  0.00    +0.258 C 
ATOM     14  C   UNL     1      -2.437  -1.627   0.303  0.00  0.00    +0.265 C 
ATOM     15  C   UNL     1       0.880  -2.734   1.382  0.00  0.00    +0.114 C 
ATOM     16  C   UNL     1       2.214   1.803   0.339  0.00  0.00    +0.014 C 
ATOM     17  C   UNL     1       2.817  -0.910  -0.138  0.00  0.00    +0.186 C 
ATOM     18  C   UNL     1      -3.672  -1.326  -0.490  0.00  0.00    +0.108 C 
ATOM     19  C   UNL     1       3.401   1.446  -0.298  0.00  0.00    +0.094 C 
ATOM     20  C   UNL     1       3.702   0.097  -0.532  0.00  0.00    +0.184 C 
ATOM     21  C   UNL     1      -5.415   0.279  -1.187  0.00  0.00    +0.120 C 
ATOM     22  C   UNL     1      -4.365  -2.395  -0.918  0.00  0.00    +0.021 C 
ENDROOT
BRANCH  10  23
ATOM     23  S   UNL     1      -0.971   0.685  -1.816  0.00  0.00    -0.112 S 
ATOM     24  C   UNL     1      -1.309   2.391  -2.293  0.00  0.00    +0.071 C 
ENDBRANCH  10  23
BRANCH   7  25
ATOM     25  O   UNL     1       0.338   1.357   2.781  0.00  0.00    -0.377 OA
ATOM     26  H   UNL     1      -0.487   1.438   3.284  0.00  0.00    +0.211 HD
ENDBRANCH   7  25
BRANCH   9  27
ATOM     27  O   UNL     1      -1.966   2.193   1.793  0.00  0.00    -0.379 OA
ATOM     28  H   UNL     1      -1.510   2.817   2.379  0.00  0.00    +0.211 HD
ENDBRANCH   9  27
BRANCH  17  29
ATOM     29  O   UNL     1       3.127  -2.210  -0.398  0.00  0.00    -0.467 OA
ATOM     30  C   UNL     1       2.709  -2.739  -1.655  0.00  0.00    +0.253 C 
ENDBRANCH  17  29
BRANCH  20  31
ATOM     31  O   UNL     1       4.868  -0.249  -1.155  0.00  0.00    -0.467 OA
ATOM     32  C   UNL     1       5.999  -0.482  -0.320  0.00  0.00    +0.253 C 
ENDBRANCH  20  31
TORSDOF 5
