REMARK  Name = 124459
REMARK  8 active torsions:
REMARK  status: ('A' for Active; 'I' for Inactive)
REMARK    1  A    between atoms: C_2  and  C_18
REMARK    2  A    between atoms: C_10  and  O_26
REMARK    3  A    between atoms: C_12  and  O_28
REMARK    4  A    between atoms: C_18  and  C_19
REMARK    5  A    between atoms: C_19  and  C_20
REMARK    6  A    between atoms: C_20  and  C_22
REMARK    7  A    between atoms: C_22  and  O_23
REMARK    8  A    between atoms: O_23  and  C_24
REMARK                            x       y       z     vdW  Elec       q    Type
REMARK                         _______ _______ _______ _____ _____    ______ ____
ROOT
ATOM      1  O   UNL     1      -3.920  -0.435  -1.243  0.00  0.00    -0.286 OA
ATOM      2  C   UNL     1      -0.296  -0.111   0.744  0.00  0.00    +0.102 C 
ATOM      3  C   UNL     1      -1.156   1.101   0.468  0.00  0.00    -0.006 C 
ATOM      4  C   UNL     1      -1.018  -1.433   0.630  0.00  0.00    -0.005 C 
ATOM      5  C   UNL     1      -2.400   0.996  -0.166  0.00  0.00    +0.069 C 
ATOM      6  C   UNL     1      -2.261  -1.545  -0.004  0.00  0.00    +0.069 C 
ATOM      7  C   UNL     1      -2.938  -0.335  -0.519  0.00  0.00    +0.201 C 
ATOM      8  C   UNL     1      -0.686   2.377   0.820  0.00  0.00    -0.007 C 
ATOM      9  C   UNL     1      -0.415  -2.597   1.137  0.00  0.00    -0.003 C 
ATOM     10  C   UNL     1      -3.154   2.141  -0.452  0.00  0.00    +0.136 C 
ATOM     11  C   UNL     1      -1.439   3.518   0.540  0.00  0.00    -0.019 C 
ATOM     12  C   UNL     1      -2.885  -2.792  -0.137  0.00  0.00    +0.136 C 
ATOM     13  C   UNL     1      -2.670   3.400  -0.098  0.00  0.00    +0.032 C 
ATOM     14  C   UNL     1      -1.038  -3.838   1.010  0.00  0.00    +0.003 C 
ATOM     15  C   UNL     1      -2.271  -3.935   0.371  0.00  0.00    +0.037 C 
ATOM     16  C   UNL     1      -0.921   4.864   0.919  0.00  0.00    +0.031 C 
ENDROOT
BRANCH   2  18
ATOM     17  O   UNL     1       0.758  -0.180  -1.391  0.00  0.00    -0.295 OA
ATOM     18  C   UNL     1       0.896  -0.103  -0.172  0.00  0.00    +0.159 C 
BRANCH  18  19
ATOM     19  C   UNL     1       2.254   0.016   0.502  0.00  0.00    +0.077 C 
BRANCH  19  20
ATOM     20  C   UNL     1       3.424  -0.078  -0.474  0.00  0.00    +0.117 C 
BRANCH  20  22
ATOM     21  O   UNL     1       4.939   0.142   1.419  0.00  0.00    -0.250 OA
ATOM     22  C   UNL     1       4.769   0.000   0.216  0.00  0.00    +0.317 C 
BRANCH  22  23
ATOM     23  O   UNL     1       5.754  -0.105  -0.725  0.00  0.00    -0.448 OA
BRANCH  23  24
ATOM     24  C   UNL     1       7.093  -0.039  -0.225  0.00  0.00    +0.209 C 
ATOM     25  C   UNL     1       8.059  -0.170  -1.383  0.00  0.00    +0.051 C 
ENDBRANCH  23  24
ENDBRANCH  22  23
ENDBRANCH  20  22
ENDBRANCH  19  20
ENDBRANCH  18  19
ENDBRANCH   2  18
BRANCH  10  26
ATOM     26  O   UNL     1      -4.376   2.092  -1.055  0.00  0.00    -0.505 OA
ATOM     27  H   UNL     1      -4.740   1.267  -1.310  0.00  0.00    +0.292 HD
ENDBRANCH  10  26
BRANCH  12  28
ATOM     28  O   UNL     1      -4.100  -2.952  -0.735  0.00  0.00    -0.505 OA
ATOM     29  H   UNL     1      -4.549  -2.210  -1.090  0.00  0.00    +0.292 HD
ENDBRANCH  12  28
TORSDOF 8
