REMARK  Name = 124412
REMARK  9 active torsions:
REMARK  status: ('A' for Active; 'I' for Inactive)
REMARK    1  A    between atoms: N_3  and  C1*_10
REMARK    2  A    between atoms: N_4  and  C_19
REMARK    3  A    between atoms: C3*_11  and  O3*_14
REMARK    4  A    between atoms: C4*_13  and  C5*_16
REMARK    5  A    between atoms: C5*_16  and  O5*_17
REMARK    6  A    between atoms: C_19  and  C_20
REMARK    7  A    between atoms: C_20  and  O_21
REMARK    8  A    between atoms: C_20  and  C_23
REMARK    9  A    between atoms: C_23  and  O_24
REMARK                            x       y       z     vdW  Elec       q    Type
REMARK                         _______ _______ _______ _____ _____    ______ ____
ROOT
ATOM      1  O   UNL     1      -0.789  -1.600   1.160  0.00  0.00    -0.252 OA
ATOM      2  O   UNL     1      -2.510   2.596   0.028  0.00  0.00    -0.269 OA
ATOM      3  N   UNL     1       0.651   0.062   0.408  0.00  0.00    -0.218 N 
ATOM      4  N   UNL     1      -1.702   0.473   0.613  0.00  0.00    -0.208 N 
ATOM      5  C   UNL     1      -0.625  -0.444   0.758  0.00  0.00    +0.319 C 
ATOM      6  C   UNL     1       0.795   1.365  -0.041  0.00  0.00    +0.076 C 
ATOM      7  C   UNL     1      -1.587   1.795   0.161  0.00  0.00    +0.257 C 
ATOM      8  C   UNL     1      -0.215   2.221  -0.178  0.00  0.00    +0.075 C 
ENDROOT
BRANCH   3  10
ATOM      9  O4* UNL     1       2.947   0.068   0.855  0.00  0.00    -0.335 OA
ATOM     10  C1* UNL     1       1.825  -0.754   0.507  0.00  0.00    +0.202 C 
ATOM     11  C3* UNL     1       3.675  -1.515  -0.753  0.00  0.00    +0.144 C 
ATOM     12  C2* UNL     1       2.165  -1.457  -0.797  0.00  0.00    +0.083 C 
ATOM     13  C4* UNL     1       4.048  -0.230  -0.026  0.00  0.00    +0.173 C 
BRANCH  11  14
ATOM     14  O3* UNL     1       4.090  -2.644   0.013  0.00  0.00    -0.382 OA
ATOM     15  H3* UNL     1       3.850  -3.458  -0.456  0.00  0.00    +0.210 HD
ENDBRANCH  11  14
BRANCH  13  16
ATOM     16  C5* UNL     1       4.228   0.953  -0.967  0.00  0.00    +0.169 C 
BRANCH  16  17
ATOM     17  O5* UNL     1       4.561   2.100  -0.203  0.00  0.00    -0.379 OA
ATOM     18  H5* UNL     1       4.678   2.860  -0.795  0.00  0.00    +0.211 HD
ENDBRANCH  16  17
ENDBRANCH  13  16
ENDBRANCH   3  10
BRANCH   4  19
ATOM     19  C   UNL     1      -3.036  -0.001   0.964  0.00  0.00    +0.134 C 
BRANCH  19  20
ATOM     20  C   UNL     1      -3.757  -0.627  -0.231  0.00  0.00    +0.160 C 
BRANCH  20  21
ATOM     21  O   UNL     1      -3.819   0.348  -1.276  0.00  0.00    -0.380 OA
ATOM     22  H   UNL     1      -2.923   0.648  -1.492  0.00  0.00    +0.211 HD
ENDBRANCH  20  21
BRANCH  20  23
ATOM     23  C   UNL     1      -5.177  -1.087   0.093  0.00  0.00    +0.168 C 
BRANCH  23  24
ATOM     24  O   UNL     1      -5.768  -1.622  -1.087  0.00  0.00    -0.379 OA
ATOM     25  H   UNL     1      -6.671  -1.918  -0.891  0.00  0.00    +0.211 HD
ENDBRANCH  23  24
ENDBRANCH  20  23
ENDBRANCH  19  20
ENDBRANCH   4  19
TORSDOF 9
