REMARK  Name = 12443122
REMARK  7 active torsions:
REMARK  status: ('A' for Active; 'I' for Inactive)
REMARK    1  A    between atoms: C_5  and  C_12
REMARK    2  A    between atoms: C_6  and  O_22
REMARK    3  A    between atoms: C_7  and  O_26
REMARK    4  A    between atoms: C_9  and  O_24
REMARK    5  A    between atoms: C_10  and  O_28
REMARK    6  A    between atoms: C_15  and  O_18
REMARK    7  A    between atoms: C_17  and  O_20
REMARK                            x       y       z     vdW  Elec       q    Type
REMARK                         _______ _______ _______ _____ _____    ______ ____
ROOT
ATOM      1  O   UNL     1       0.161   0.230  -0.191  0.00  0.00    -0.450 OA
ATOM      2  O   UNL     1      -1.728  -3.345   0.310  0.00  0.00    -0.286 OA
ATOM      3  C   UNL     1      -1.919  -1.013  -0.022  0.00  0.00    +0.113 A 
ATOM      4  C   UNL     1      -1.210   0.175  -0.190  0.00  0.00    +0.188 A 
ATOM      5  C   UNL     1       0.869  -0.949  -0.010  0.00  0.00    +0.149 C 
ATOM      6  C   UNL     1      -1.895   1.377  -0.366  0.00  0.00    +0.210 A 
ATOM      7  C   UNL     1      -3.316  -1.009  -0.030  0.00  0.00    +0.177 A 
ATOM      8  C   UNL     1      -1.171  -2.266   0.160  0.00  0.00    +0.205 C 
ATOM      9  C   UNL     1      -3.999   0.195  -0.207  0.00  0.00    +0.209 A 
ATOM     10  C   UNL     1      -3.290   1.385  -0.374  0.00  0.00    +0.209 A 
ATOM     11  C   UNL     1       0.301  -2.154   0.154  0.00  0.00    +0.080 C 
ENDROOT
BRANCH   5  12
ATOM     12  C   UNL     1       2.336  -0.777  -0.035  0.00  0.00    +0.038 C 
ATOM     13  C   UNL     1       2.910   0.416   0.412  0.00  0.00    +0.043 C 
ATOM     14  C   UNL     1       3.155  -1.806  -0.505  0.00  0.00    +0.006 C 
ATOM     15  C   UNL     1       4.296   0.578   0.389  0.00  0.00    +0.172 C 
ATOM     16  C   UNL     1       4.540  -1.644  -0.528  0.00  0.00    +0.040 C 
ATOM     17  C   UNL     1       5.111  -0.452  -0.081  0.00  0.00    +0.168 C 
BRANCH  15  18
ATOM     18  O   UNL     1       4.841   1.746   0.828  0.00  0.00    -0.468 OA
ATOM     19  C   UNL     1       5.025   2.779  -0.138  0.00  0.00    +0.253 C 
ENDBRANCH  15  18
BRANCH  17  20
ATOM     20  O   UNL     1       6.465  -0.306  -0.108  0.00  0.00    -0.503 OA
ATOM     21  H   UNL     1       6.856   0.491   0.190  0.00  0.00    +0.292 HD
ENDBRANCH  17  20
ENDBRANCH   5  12
BRANCH   6  22
ATOM     22  O   UNL     1      -1.208   2.543  -0.530  0.00  0.00    -0.465 OA
ATOM     23  C   UNL     1      -0.889   3.277   0.650  0.00  0.00    +0.253 C 
ENDBRANCH   6  22
BRANCH   9  24
ATOM     24  O   UNL     1      -5.363   0.211  -0.214  0.00  0.00    -0.465 OA
ATOM     25  C   UNL     1      -6.013   0.401   1.040  0.00  0.00    +0.253 C 
ENDBRANCH   9  24
BRANCH   7  26
ATOM     26  O   UNL     1      -4.043  -2.151   0.130  0.00  0.00    -0.503 OA
ATOM     27  H   UNL     1      -3.606  -2.972   0.250  0.00  0.00    +0.292 HD
ENDBRANCH   7  26
BRANCH  10  28
ATOM     28  O   UNL     1      -3.963   2.559  -0.547  0.00  0.00    -0.501 OA
ATOM     29  H   UNL     1      -3.488   3.359  -0.659  0.00  0.00    +0.292 HD
ENDBRANCH  10  28
TORSDOF 7
