REMARK  Name = 124475
REMARK  8 active torsions:
REMARK  status: ('A' for Active; 'I' for Inactive)
REMARK    1  A    between atoms: C_2  and  O_17
REMARK    2  A    between atoms: C_3  and  C_19
REMARK    3  A    between atoms: C_5  and  N_7
REMARK    4  A    between atoms: N_9  and  O_15
REMARK    5  A    between atoms: C_19  and  O_20
REMARK    6  A    between atoms: O_20  and  P_21
REMARK    7  A    between atoms: P_21  and  O_23
REMARK    8  A    between atoms: P_21  and  O_25
REMARK                            x       y       z     vdW  Elec       q    Type
REMARK                         _______ _______ _______ _____ _____    ______ ____
ROOT
ATOM      1  O   UNL     1       1.241  -1.224   1.000  0.00  0.00    -0.334 OA
ATOM      2  C   UNL     1       2.064  -2.571  -0.769  0.00  0.00    +0.144 C 
ATOM      3  C   UNL     1       2.431  -1.482   0.230  0.00  0.00    +0.174 C 
ATOM      4  C   UNL     1       0.587  -2.342  -0.997  0.00  0.00    +0.084 C 
ATOM      5  C   UNL     1       0.118  -1.845   0.360  0.00  0.00    +0.209 C 
ENDROOT
BRANCH   5   7
ATOM      6  O   UNL     1      -2.620  -2.483   0.494  0.00  0.00    -0.193 OA
ATOM      7  N   UNL     1      -0.956  -0.900   0.266  0.00  0.00    -0.180 N 
ATOM      8  N   UNL     1      -3.299  -0.332   0.243  0.00  0.00    -0.301 NA
ATOM      9  N   UNL     1      -3.988   1.875  -0.016  0.00  0.00    -0.236 N 
ATOM     10  C   UNL     1      -0.648   0.439   0.092  0.00  0.00    +0.084 C 
ATOM     11  C   UNL     1      -2.314  -1.299   0.343  0.00  0.00    +0.276 C 
ATOM     12  C   UNL     1      -1.581   1.384  -0.006  0.00  0.00    +0.070 C 
ATOM     13  C   UNL     1      -2.993   0.929   0.081  0.00  0.00    +0.227 C 
ATOM     14  H   UNL     1      -3.814   2.822  -0.218  0.00  0.00    +0.197 HD
BRANCH   9  15
ATOM     15  O   UNL     1      -5.245   1.369   0.198  0.00  0.00    -0.256 OA
ATOM     16  C   UNL     1      -5.970   1.622  -1.000  0.00  0.00    +0.208 C 
ENDBRANCH   9  15
ENDBRANCH   5   7
BRANCH   2  17
ATOM     17  O   UNL     1       2.265  -3.855  -0.183  0.00  0.00    -0.382 OA
ATOM     18  H   UNL     1       3.214  -3.999  -0.037  0.00  0.00    +0.210 HD
ENDBRANCH   2  17
BRANCH   3  19
ATOM     19  C   UNL     1       2.847  -0.179  -0.441  0.00  0.00    +0.186 C 
BRANCH  19  20
ATOM     20  O   UNL     1       3.158   0.773   0.563  0.00  0.00    -0.271 OA
BRANCH  20  21
ATOM     21  P   UNL     1       3.631   2.251   0.103  0.00  0.00    +0.473 P 
ATOM     22  O   UNL     1       3.941   3.196   1.227  0.00  0.00    -0.227 OA
BRANCH  21  23
ATOM     23  O   UNL     1       2.461   2.733  -0.903  0.00  0.00    -0.303 OA
ATOM     24  H   UNL     1       2.331   2.064  -1.593  0.00  0.00    +0.222 HD
ENDBRANCH  21  23
BRANCH  21  25
ATOM     25  O   UNL     1       4.870   1.940  -0.888  0.00  0.00    -0.303 OA
ATOM     26  H   UNL     1       4.583   1.325  -1.581  0.00  0.00    +0.222 HD
ENDBRANCH  21  25
ENDBRANCH  20  21
ENDBRANCH  19  20
ENDBRANCH   3  19
TORSDOF 8
