124527
  -OEChem-03292013323D

 34 35  0     1  0  0  0  0  0999 V2000
   -5.2955    1.3721   -0.8101 Cl  0  0  0  0  0  0  0  0  0  0  0  0
    0.4186   -0.4947   -2.8513 O   0  0  0  0  0  0  0  0  0  0  0  0
    2.7920    3.0794   -0.4629 O   0  0  0  0  0  0  0  0  0  0  0  0
   -0.4472   -1.9676    2.1866 O   0  0  0  0  0  0  0  0  0  0  0  0
    1.4719   -2.1809   -1.7365 O   0  0  0  0  0  0  0  0  0  0  0  0
    1.3341    2.2060    1.0563 O   0  0  0  0  0  0  0  0  0  0  0  0
    0.9028   -0.8847    0.6067 N   0  0  0  0  0  0  0  0  0  0  0  0
    3.4921    0.1482   -0.1024 N   0  0  0  0  0  0  0  0  0  0  0  0
    1.0325   -0.0796   -0.6193 C   0  0  1  0  0  0  0  0  0  0  0  0
    2.2973    0.7891   -0.6515 C   0  0  1  0  0  0  0  0  0  0  0  0
    2.1330   -1.5018    1.1027 C   0  0  0  0  0  0  0  0  0  0  0  0
    3.2639   -0.4877    1.1905 C   0  0  0  0  0  0  0  0  0  0  0  0
   -0.3088   -1.2015    1.2341 C   0  0  0  0  0  0  0  0  0  0  0  0
    1.0138   -1.0484   -1.7667 C   0  0  0  0  0  0  0  0  0  0  0  0
    2.0696    2.0742    0.0893 C   0  0  0  0  0  0  0  0  0  0  0  0
   -1.5341   -0.5698    0.7318 C   0  0  0  0  0  0  0  0  0  0  0  0
   -2.2705   -1.1894   -0.2742 C   0  0  0  0  0  0  0  0  0  0  0  0
   -1.9535    0.6467    1.2638 C   0  0  0  0  0  0  0  0  0  0  0  0
   -3.4351   -0.5881   -0.7517 C   0  0  0  0  0  0  0  0  0  0  0  0
   -3.1180    1.2479    0.7863 C   0  0  0  0  0  0  0  0  0  0  0  0
   -3.8588    0.6305   -0.2215 C   0  0  0  0  0  0  0  0  0  0  0  0
    0.1480    0.5580   -0.7174 H   0  0  0  0  0  0  0  0  0  0  0  0
    2.5017    1.0534   -1.6976 H   0  0  0  0  0  0  0  0  0  0  0  0
    2.4043   -2.3367    0.4494 H   0  0  0  0  0  0  0  0  0  0  0  0
    1.9621   -1.9315    2.0960 H   0  0  0  0  0  0  0  0  0  0  0  0
    3.0454    0.2647    1.9571 H   0  0  0  0  0  0  0  0  0  0  0  0
    4.1815   -0.9989    1.5012 H   0  0  0  0  0  0  0  0  0  0  0  0
    4.2586    0.8168   -0.0379 H   0  0  0  0  0  0  0  0  0  0  0  0
   -1.9488   -2.1390   -0.6937 H   0  0  0  0  0  0  0  0  0  0  0  0
   -1.3831    1.1354    2.0492 H   0  0  0  0  0  0  0  0  0  0  0  0
    0.3965   -1.1128   -3.6126 H   0  0  0  0  0  0  0  0  0  0  0  0
    2.6558    3.9295    0.0073 H   0  0  0  0  0  0  0  0  0  0  0  0
   -4.0021   -1.0806   -1.5375 H   0  0  0  0  0  0  0  0  0  0  0  0
   -3.4358    2.1976    1.2088 H   0  0  0  0  0  0  0  0  0  0  0  0
  1 21  1  0  0  0  0
  2 14  1  0  0  0  0
  2 31  1  0  0  0  0
  3 15  1  0  0  0  0
  3 32  1  0  0  0  0
  4 13  2  0  0  0  0
  5 14  2  0  0  0  0
  6 15  2  0  0  0  0
  7  9  1  0  0  0  0
  7 11  1  0  0  0  0
  7 13  1  0  0  0  0
  8 10  1  0  0  0  0
  8 12  1  0  0  0  0
  8 28  1  0  0  0  0
  9 10  1  0  0  0  0
  9 14  1  0  0  0  0
  9 22  1  0  0  0  0
 10 15  1  0  0  0  0
 10 23  1  0  0  0  0
 11 12  1  0  0  0  0
 11 24  1  0  0  0  0
 11 25  1  0  0  0  0
 12 26  1  0  0  0  0
 12 27  1  0  0  0  0
 13 16  1  0  0  0  0
 16 17  2  0  0  0  0
 16 18  1  0  0  0  0
 17 19  1  0  0  0  0
 17 29  1  0  0  0  0
 18 20  2  0  0  0  0
 18 30  1  0  0  0  0
 19 21  2  0  0  0  0
 19 33  1  0  0  0  0
 20 21  1  0  0  0  0
 20 34  1  0  0  0  0
M  END
> <PUBCHEM_COMPOUND_CID>
124527

> <PUBCHEM_CONFORMER_RMSD>
0.8

> <PUBCHEM_CONFORMER_DIVERSEORDER>
1
33
16
30
26
31
3
15
29
22
12
20
27
18
4
7
17
13
5
35
32
25
9
14
8
24
2
11
10
28
34
6
23
19
21

> <PUBCHEM_MMFF94_PARTIAL_CHARGES>
28
1 -0.18
10 0.33
11 0.3
12 0.27
13 0.54
14 0.66
15 0.66
16 0.09
17 -0.15
18 -0.15
19 -0.15
2 -0.65
20 -0.15
21 0.18
28 0.36
29 0.15
3 -0.65
30 0.15
31 0.5
32 0.5
33 0.15
34 0.15
4 -0.57
5 -0.57
6 -0.57
7 -0.66
8 -0.9
9 0.36

> <PUBCHEM_EFFECTIVE_ROTOR_COUNT>
5.2

> <PUBCHEM_PHARMACOPHORE_FEATURES>
11
1 2 acceptor
1 3 acceptor
1 4 acceptor
1 5 acceptor
1 6 acceptor
1 8 cation
1 8 donor
3 2 5 14 anion
3 3 6 15 anion
6 16 17 18 19 20 21 rings
6 7 8 9 10 11 12 rings

> <PUBCHEM_HEAVY_ATOM_COUNT>
21

> <PUBCHEM_ATOM_DEF_STEREO_COUNT>
0

> <PUBCHEM_ATOM_UDEF_STEREO_COUNT>
2

> <PUBCHEM_BOND_DEF_STEREO_COUNT>
0

> <PUBCHEM_BOND_UDEF_STEREO_COUNT>
0

> <PUBCHEM_ISOTOPIC_ATOM_COUNT>
0

> <PUBCHEM_COMPONENT_COUNT>
1

> <PUBCHEM_CACTVS_TAUTO_COUNT>
1

> <PUBCHEM_CONFORMER_ID>
0001E66F00000001

> <PUBCHEM_MMFF94_ENERGY>
52.0865

> <PUBCHEM_FEATURE_SELFOVERLAP>
55.934

> <PUBCHEM_SHAPE_FINGERPRINT>
10064457 181 17676213484743516827
10863032 1 18262232360283116586
11086676 242 14924488845486049036
11221954 11 18193288609087824401
12633257 1 17894897556005513816
12670546 177 18201141218887259141
12778500 126 8069473707257678413
13132413 78 18117832197111934792
13134695 92 18335691703203686828
13464513 79 10447635920397603048
13464514 151 18336281080001307020
13583140 156 18113623374428483131
13994607 96 17182787000330086844
15295992 7 17821733819015761137
15775835 57 18187083932096719483
16945 1 18273223014132171114
17492 54 17339553109270786997
17980427 23 18059276678777391632
17980427 26 18044067220588102930
18186145 218 18334306335832642299
18981168 100 17460344202419952033
192875 21 18202277000664861353
19784866 135 14491850682400915936
21033648 29 17095790071322632573
21860390 5 18410575067605029852
22892500 29 18187075161599525308
23419403 2 14583890203529988354
23557571 272 18190193454218073547
23559900 14 17917713457337413759
238 59 17986958650765630121
3060560 45 17131823274808899032
474 4 18334572460295829665
5262128 65 17987255342995794301
5845 1 12927882231801944246
5895379 119 17914614951950462929
9981440 41 17975123559275544424

> <PUBCHEM_SHAPE_MULTIPOLES>
394.73
7.02
2.34
1.88
7.49
1.22
0.78
3.15
0.64
-1.55
-0.24
-0.47
-0.85
0.03

> <PUBCHEM_SHAPE_SELFOVERLAP>
830.034

> <PUBCHEM_SHAPE_VOLUME>
220.7

> <PUBCHEM_COORDINATE_TYPE>
2
5
10

$$$$
