REMARK  Name = 124544850
REMARK  4 active torsions:
REMARK  status: ('A' for Active; 'I' for Inactive)
REMARK    1  A    between atoms: C_12  and  C_24
REMARK    2  A    between atoms: C_13  and  O_28
REMARK    3  A    between atoms: C_16  and  O_30
REMARK    4  A    between atoms: C_18  and  O_32
REMARK                            x       y       z     vdW  Elec       q    Type
REMARK                         _______ _______ _______ _____ _____    ______ ____
ROOT
ATOM      1  O   UNL     1      -0.630   0.092   1.382  0.00  0.00    -0.312 OA
ATOM      2  O   UNL     1       0.000  -2.841  -0.139  0.00  0.00    -0.448 OA
ATOM      3  O   UNL     1       1.075   1.921   1.328  0.00  0.00    -0.423 OA
ATOM      4  O   UNL     1      -2.625   1.514  -0.981  0.00  0.00    -0.450 OA
ATOM      5  O   UNL     1      -1.111  -2.717   1.855  0.00  0.00    -0.247 OA
ATOM      6  O   UNL     1       2.566   3.389   0.338  0.00  0.00    -0.247 OA
ATOM      7  O   UNL     1      -3.631   2.599   0.767  0.00  0.00    -0.250 OA
ATOM      8  C   UNL     1      -0.185  -0.575  -0.899  0.00  0.00    +0.086 C 
ATOM      9  C   UNL     1       0.903   0.374  -0.359  0.00  0.00    +0.108 C 
ATOM     10  C   UNL     1      -1.072  -0.815   0.349  0.00  0.00    +0.214 C 
ATOM     11  C   UNL     1       0.484  -1.933  -1.145  0.00  0.00    +0.198 C 
ATOM     12  C   UNL     1       2.001  -0.628   0.178  0.00  0.00    +0.039 C 
ATOM     13  C   UNL     1      -2.546  -0.668  -0.107  0.00  0.00    +0.167 C 
ATOM     14  C   UNL     1      -1.129  -0.138  -2.022  0.00  0.00    +0.053 C 
ATOM     15  C   UNL     1       0.113   1.095   0.704  0.00  0.00    +0.294 C 
ATOM     16  C   UNL     1       1.974  -1.687  -0.929  0.00  0.00    +0.151 C 
ATOM     17  C   UNL     1      -2.483   0.155  -1.382  0.00  0.00    +0.197 C 
ATOM     18  C   UNL     1       1.523   1.608  -0.998  0.00  0.00    +0.216 C 
ATOM     19  C   UNL     1      -0.744  -2.208   0.807  0.00  0.00    +0.344 C 
ATOM     20  C   UNL     1      -3.455   0.174   0.786  0.00  0.00    +0.130 C 
ATOM     21  C   UNL     1       1.811   2.432   0.264  0.00  0.00    +0.346 C 
ATOM     22  C   UNL     1      -3.265   1.565   0.229  0.00  0.00    +0.319 C 
ATOM     23  C   UNL     1      -4.936  -0.184   0.727  0.00  0.00    +0.014 C 
ENDROOT
BRANCH  12  24
ATOM     24  C   UNL     1       3.429  -0.149   0.444  0.00  0.00    +0.003 C 
ATOM     25  C   UNL     1       4.311  -1.346   0.835  0.00  0.00    +0.000 C 
ATOM     26  C   UNL     1       3.999   0.509  -0.823  0.00  0.00    +0.000 C 
ATOM     27  C   UNL     1       3.426   0.875   1.590  0.00  0.00    +0.000 C 
ENDBRANCH  12  24
BRANCH  13  28
ATOM     28  O   UNL     1      -3.111  -1.928  -0.452  0.00  0.00    -0.380 OA
ATOM     29  H   UNL     1      -2.493  -2.415  -1.018  0.00  0.00    +0.211 HD
ENDBRANCH  13  28
BRANCH  16  30
ATOM     30  O   UNL     1       2.666  -2.865  -0.562  0.00  0.00    -0.381 OA
ATOM     31  H   UNL     1       2.624  -3.505  -1.290  0.00  0.00    +0.210 HD
ENDBRANCH  16  30
BRANCH  18  32
ATOM     32  O   UNL     1       0.642   2.381  -1.784  0.00  0.00    -0.374 OA
ATOM     33  H   UNL     1       0.429   1.899  -2.598  0.00  0.00    +0.211 HD
ENDBRANCH  18  32
TORSDOF 4
