REMARK  Name = 124528
REMARK  5 active torsions:
REMARK  status: ('A' for Active; 'I' for Inactive)
REMARK    1  A    between atoms: C_4  and  C_19
REMARK    2  A    between atoms: CA_5  and  C_23
REMARK    3  A    between atoms: C_8  and  C_12
REMARK    4  A    between atoms: C_19  and  O_20
REMARK    5  A    between atoms: C_23  and  O_24
REMARK                            x       y       z     vdW  Elec       q    Type
REMARK                         _______ _______ _______ _____ _____    ______ ____
ROOT
ATOM      1  O   UNL     1      -0.417  -2.004   2.164  0.00  0.00    -0.270 OA
ATOM      2  N   UNL     1       0.918  -0.890   0.593  0.00  0.00    -0.271 N 
ATOM      3  N   UNL     1       3.497   0.170  -0.113  0.00  0.00    +0.395 N 
ATOM      4  C   UNL     1       1.037  -0.068  -0.622  0.00  0.00    +0.165 C 
ATOM      5  CA  UNL     1       2.295   0.810  -0.648  0.00  0.00    +0.069 C 
ATOM      6  C   UNL     1       2.155  -1.506   1.075  0.00  0.00    +0.071 C 
ATOM      7  C   UNL     1       3.279  -0.485   1.172  0.00  0.00    -0.059 C 
ATOM      8  C   UNL     1      -0.288  -1.224   1.222  0.00  0.00    +0.249 C 
ATOM      9  H1  UNL     1       4.218   0.882   0.005  0.00  0.00    -0.083 HD
ATOM     10  H2  UNL     1       3.775  -0.553  -0.777  0.00  0.00    -0.083 HD
ENDROOT
BRANCH   8  12
ATOM     11 BR   UNL     1      -5.442   1.418  -0.824  0.00  0.00    -0.049 Br
ATOM     12  C   UNL     1      -1.520  -0.594   0.734  0.00  0.00    +0.054 C 
ATOM     13  C   UNL     1      -2.257  -1.205  -0.277  0.00  0.00    +0.005 C 
ATOM     14  C   UNL     1      -1.945   0.613   1.284  0.00  0.00    +0.005 C 
ATOM     15  C   UNL     1      -3.428  -0.604  -0.742  0.00  0.00    +0.007 C 
ATOM     16  C   UNL     1      -3.115   1.213   0.819  0.00  0.00    +0.007 C 
ATOM     17  C   UNL     1      -3.857   0.604  -0.194  0.00  0.00    +0.035 C 
ENDBRANCH   8  12
BRANCH   4  19
ATOM     18  O   UNL     1       1.485  -2.150  -1.770  0.00  0.00    -0.249 OA
ATOM     19  C   UNL     1       1.019  -1.021  -1.783  0.00  0.00    +0.330 C 
BRANCH  19  20
ATOM     20  O   UNL     1       0.415  -0.456  -2.857  0.00  0.00    -0.479 OA
ATOM     21  H   UNL     1       0.079   0.417  -2.800  0.00  0.00    +0.295 HD
ENDBRANCH  19  20
ENDBRANCH   4  19
BRANCH   5  23
ATOM     22  OXT UNL     1       1.331   2.197   1.084  0.00  0.00    -0.253 OA
ATOM     23  C   UNL     1       2.063   2.083   0.112  0.00  0.00    +0.296 C 
BRANCH  23  24
ATOM     24  O   UNL     1       2.776   3.101  -0.430  0.00  0.00    -0.482 OA
ATOM     25  H   UNL     1       3.319   2.946  -1.177  0.00  0.00    +0.295 HD
ENDBRANCH  23  24
ENDBRANCH   5  23
TORSDOF 5
