REMARK  Name = 124551
REMARK  4 active torsions:
REMARK  status: ('A' for Active; 'I' for Inactive)
REMARK    1  A    between atoms: N_3  and  C_5
REMARK    2  A    between atoms: N_3  and  C_23
REMARK    3  A    between atoms: C_6  and  C_14
REMARK    4  A    between atoms: C_23  and  C_24
REMARK                            x       y       z     vdW  Elec       q    Type
REMARK                         _______ _______ _______ _____ _____    ______ ____
ROOT
ATOM      1  O   UNL     1       0.146   1.015  -0.176  0.00  0.00    -0.267 OA
ATOM      2  N   UNL     1       0.503  -1.223   0.400  0.00  0.00    -0.250 N 
ATOM      3  N   UNL     1      -0.875  -3.049   0.820  0.00  0.00    -0.371 N 
ATOM      4  C   UNL     1      -0.805  -1.715   0.493  0.00  0.00    +0.189 C 
ATOM      5  C   UNL     1       0.900   0.081   0.080  0.00  0.00    +0.285 C 
ATOM      6  H   UNL     1       1.225  -1.867   0.582  0.00  0.00    +0.158 HD
ATOM      7  H   UNL     1      -0.049  -3.564   0.963  0.00  0.00    +0.159 HD
ATOM      8  H   UNL     1      -1.751  -3.488   0.910  0.00  0.00    +0.159 HD
ENDROOT
BRANCH   5  13
ATOM      9 BR   UNL     1       5.431  -2.101  -0.930  0.00  0.00    -0.010 Br
ATOM     10  N   UNL     1       3.066  -0.773  -0.349  0.00  0.00    -0.383 NA
ATOM     11  N   UNL     1       4.255   1.695   0.255  0.00  0.00    -0.367 NA
ATOM     12  N   UNL     1       6.386   0.772  -0.190  0.00  0.00    -0.330 N 
ATOM     13  C   UNL     1       2.367   0.304   0.019  0.00  0.00    +0.229 C 
ATOM     14  C   UNL     1       2.921   1.511   0.317  0.00  0.00    +0.213 C 
ATOM     15  C   UNL     1       4.984   0.623  -0.113  0.00  0.00    +0.215 C 
ATOM     16  C   UNL     1       4.400  -0.589  -0.410  0.00  0.00    +0.209 C 
ATOM     17  H   UNL     1       6.801   1.639   0.022  0.00  0.00    +0.145 HD
ATOM     18  H   UNL     1       6.948   0.008  -0.456  0.00  0.00    +0.145 HD
ATOM     19  N   UNL     1       2.103   2.599   0.697  0.00  0.00    -0.331 N 
ATOM     20  H   UNL     1       2.509   3.470   0.911  0.00  0.00    +0.145 HD
ATOM     21  H   UNL     1       1.126   2.486   0.748  0.00  0.00    +0.145 HD
ENDBRANCH   5  13
BRANCH   4  22
ATOM     22  N   UNL     1      -1.789  -0.904   0.274  0.00  0.00    -0.237 NA
BRANCH  22  23
ATOM     23  C   UNL     1      -3.137  -1.445   0.378  0.00  0.00    +0.155 C 
BRANCH  23  24
ATOM     24  C   UNL     1      -4.181  -0.416   0.045  0.00  0.00    +0.002 C 
ATOM     25  C   UNL     1      -4.700   0.385   1.055  0.00  0.00    -0.002 C 
ATOM     26  C   UNL     1      -4.614  -0.277  -1.267  0.00  0.00    -0.002 C 
ATOM     27  C   UNL     1      -5.668   1.340   0.747  0.00  0.00    -0.000 C 
ATOM     28  C   UNL     1      -5.582   0.679  -1.575  0.00  0.00    -0.000 C 
ATOM     29  C   UNL     1      -6.110   1.487  -0.568  0.00  0.00    -0.000 C 
ENDBRANCH  23  24
ENDBRANCH  22  23
ENDBRANCH   4  22
TORSDOF 4
