REMARK  Name = 124518410
REMARK  7 active torsions:
REMARK  status: ('A' for Active; 'I' for Inactive)
REMARK    1  A    between atoms: C_3  and  C_25
REMARK    2  A    between atoms: C_10  and  O_37
REMARK    3  A    between atoms: C_11  and  O_35
REMARK    4  A    between atoms: C_16  and  O_39
REMARK    5  A    between atoms: C_22  and  O_29
REMARK    6  A    between atoms: C_23  and  O_31
REMARK    7  A    between atoms: C_24  and  O_33
REMARK                            x       y       z     vdW  Elec       q    Type
REMARK                         _______ _______ _______ _____ _____    ______ ____
ROOT
ATOM      1  O   UNL     1      -0.012  -0.990  -0.230  0.00  0.00    -0.421 OA
ATOM      2  O   UNL     1       0.144  -3.253  -0.461  0.00  0.00    -0.244 OA
ATOM      3  C   UNL     1      -1.720   1.276  -0.126  0.00  0.00    +0.010 C 
ATOM      4  C   UNL     1      -0.319   1.395   0.002  0.00  0.00    +0.039 C 
ATOM      5  C   UNL     1      -2.548   2.399  -0.074  0.00  0.00    +0.001 C 
ATOM      6  C   UNL     1       0.231   2.680   0.185  0.00  0.00    +0.070 C 
ATOM      7  C   UNL     1       0.569   0.291  -0.044  0.00  0.00    +0.149 A 
ATOM      8  C   UNL     1       1.958   0.406   0.082  0.00  0.00    +0.041 A 
ATOM      9  C   UNL     1      -1.995   3.661   0.107  0.00  0.00    +0.036 C 
ATOM     10  C   UNL     1      -0.614   3.801   0.236  0.00  0.00    +0.137 C 
ATOM     11  C   UNL     1       1.619   2.816   0.314  0.00  0.00    +0.142 C 
ATOM     12  C   UNL     1       2.464   1.700   0.263  0.00  0.00    +0.040 C 
ATOM     13  C   UNL     1       2.786  -0.807   0.018  0.00  0.00    +0.043 A 
ATOM     14  C   UNL     1       2.173  -2.057  -0.167  0.00  0.00    +0.079 A 
ATOM     15  C   UNL     1       0.704  -2.176  -0.299  0.00  0.00    +0.346 A 
ATOM     16  C   UNL     1       4.190  -0.790   0.135  0.00  0.00    +0.139 C 
ATOM     17  C   UNL     1       2.931  -3.238  -0.233  0.00  0.00    +0.002 C 
ATOM     18  C   UNL     1       4.316  -3.189  -0.115  0.00  0.00    -0.019 C 
ATOM     19  C   UNL     1       4.945  -1.965   0.069  0.00  0.00    +0.033 C 
ATOM     20  C   UNL     1       5.119  -4.442  -0.184  0.00  0.00    +0.031 C 
ENDROOT
BRANCH   3  25
ATOM     21  O   UNL     1      -3.582   0.211  -1.155  0.00  0.00    -0.349 OA
ATOM     22  C   UNL     1      -3.735  -1.929   0.799  0.00  0.00    +0.142 C 
ATOM     23  C   UNL     1      -2.854  -0.678   1.014  0.00  0.00    +0.168 C 
ATOM     24  C   UNL     1      -4.883  -1.596  -0.175  0.00  0.00    +0.164 C 
ATOM     25  C   UNL     1      -2.441  -0.044  -0.328  0.00  0.00    +0.167 C 
ATOM     26  C   UNL     1      -4.342  -0.962  -1.464  0.00  0.00    +0.145 C 
ATOM     27  C   UNL     1      -2.931  -3.142   0.308  0.00  0.00    +0.035 C 
ATOM     28  C   UNL     1      -5.460  -0.537  -2.412  0.00  0.00    +0.035 C 
BRANCH  22  29
ATOM     29  O   UNL     1      -4.292  -2.328   2.058  0.00  0.00    -0.382 OA
ATOM     30  H   UNL     1      -4.817  -1.600   2.425  0.00  0.00    +0.210 HD
ENDBRANCH  22  29
BRANCH  23  31
ATOM     31  O   UNL     1      -1.681  -1.020   1.752  0.00  0.00    -0.379 OA
ATOM     32  H   UNL     1      -1.937  -1.419   2.598  0.00  0.00    +0.211 HD
ENDBRANCH  23  31
BRANCH  24  33
ATOM     33  O   UNL     1      -5.777  -0.662   0.441  0.00  0.00    -0.380 OA
ATOM     34  H   UNL     1      -6.130  -1.045   1.259  0.00  0.00    +0.211 HD
ENDBRANCH  24  33
ENDBRANCH   3  25
BRANCH  11  35
ATOM     35  O   UNL     1       2.226   4.029   0.494  0.00  0.00    -0.471 OA
ATOM     36  C   UNL     1       2.615   4.733  -0.681  0.00  0.00    +0.252 C 
ENDBRANCH  11  35
BRANCH  10  37
ATOM     37  O   UNL     1      -0.146   5.073   0.411  0.00  0.00    -0.505 OA
ATOM     38  H   UNL     1       0.774   5.226   0.504  0.00  0.00    +0.292 HD
ENDBRANCH  10  37
BRANCH  16  39
ATOM     39  O   UNL     1       4.942   0.333   0.317  0.00  0.00    -0.471 OA
ATOM     40  C   UNL     1       5.401   1.001  -0.855  0.00  0.00    +0.252 C 
ENDBRANCH  16  39
TORSDOF 7
