REMARK  Name = 124527
REMARK  5 active torsions:
REMARK  status: ('A' for Active; 'I' for Inactive)
REMARK    1  A    between atoms: C_4  and  C_19
REMARK    2  A    between atoms: CA_5  and  C_23
REMARK    3  A    between atoms: C_8  and  C_12
REMARK    4  A    between atoms: C_19  and  O_20
REMARK    5  A    between atoms: C_23  and  O_24
REMARK                            x       y       z     vdW  Elec       q    Type
REMARK                         _______ _______ _______ _____ _____    ______ ____
ROOT
ATOM      1  O   UNL     1      -0.447  -1.968   2.187  0.00  0.00    -0.270 OA
ATOM      2  N   UNL     1       0.903  -0.885   0.607  0.00  0.00    -0.271 N 
ATOM      3  N   UNL     1       3.492   0.148  -0.102  0.00  0.00    +0.395 N 
ATOM      4  C   UNL     1       1.032  -0.080  -0.619  0.00  0.00    +0.165 C 
ATOM      5  CA  UNL     1       2.297   0.789  -0.651  0.00  0.00    +0.069 C 
ATOM      6  C   UNL     1       2.133  -1.502   1.103  0.00  0.00    +0.071 C 
ATOM      7  C   UNL     1       3.264  -0.488   1.190  0.00  0.00    -0.059 C 
ATOM      8  C   UNL     1      -0.309  -1.202   1.234  0.00  0.00    +0.249 C 
ATOM      9  H1  UNL     1       4.217   0.857   0.009  0.00  0.00    -0.083 HD
ATOM     10  H2  UNL     1       3.768  -0.585  -0.755  0.00  0.00    -0.083 HD
ENDROOT
BRANCH   8  12
ATOM     11 CL   UNL     1      -5.295   1.372  -0.810  0.00  0.00    -0.082 Cl
ATOM     12  C   UNL     1      -1.534  -0.570   0.732  0.00  0.00    +0.054 C 
ATOM     13  C   UNL     1      -2.271  -1.189  -0.274  0.00  0.00    +0.005 C 
ATOM     14  C   UNL     1      -1.954   0.647   1.264  0.00  0.00    +0.005 C 
ATOM     15  C   UNL     1      -3.435  -0.588  -0.752  0.00  0.00    +0.012 C 
ATOM     16  C   UNL     1      -3.118   1.248   0.786  0.00  0.00    +0.012 C 
ATOM     17  C   UNL     1      -3.859   0.630  -0.222  0.00  0.00    +0.058 C 
ENDBRANCH   8  12
BRANCH   4  19
ATOM     18  O   UNL     1       1.472  -2.181  -1.736  0.00  0.00    -0.249 OA
ATOM     19  C   UNL     1       1.014  -1.048  -1.767  0.00  0.00    +0.330 C 
BRANCH  19  20
ATOM     20  O   UNL     1       0.419  -0.495  -2.851  0.00  0.00    -0.479 OA
ATOM     21  H   UNL     1       0.088   0.381  -2.808  0.00  0.00    +0.295 HD
ENDBRANCH  19  20
ENDBRANCH   4  19
BRANCH   5  23
ATOM     22  OXT UNL     1       1.334   2.206   1.056  0.00  0.00    -0.253 OA
ATOM     23  C   UNL     1       2.070   2.074   0.089  0.00  0.00    +0.296 C 
BRANCH  23  24
ATOM     24  O   UNL     1       2.792   3.079  -0.463  0.00  0.00    -0.482 OA
ATOM     25  H   UNL     1       3.338   2.911  -1.206  0.00  0.00    +0.295 HD
ENDBRANCH  23  24
ENDBRANCH   5  23
TORSDOF 5
