REMARK  Name = 124503
REMARK  12 active torsions:
REMARK  status: ('A' for Active; 'I' for Inactive)
REMARK    1  A    between atoms: C_1  and  C_25
REMARK    2  A    between atoms: C_2  and  O_12
REMARK    3  A    between atoms: C_3  and  O_10
REMARK    4  A    between atoms: C_5  and  C_8
REMARK    5  A    between atoms: O_12  and  C_13
REMARK    6  A    between atoms: C_13  and  C_14
REMARK    7  A    between atoms: C_14  and  C_15
REMARK    8  A    between atoms: C_15  and  C_16
REMARK    9  A    between atoms: C_16  and  C_17
REMARK   10  A    between atoms: C_17  and  C_18
REMARK   11  A    between atoms: C_18  and  C_23
REMARK   12  A    between atoms: C_25  and  C_26
REMARK                            x       y       z     vdW  Elec       q    Type
REMARK                         _______ _______ _______ _____ _____    ______ ____
ROOT
ATOM      1  C   UNL     1      -3.399  -0.666   0.504  0.00  0.00    +0.045 C 
ATOM      2  C   UNL     1      -2.655   0.446   0.900  0.00  0.00    +0.137 C 
ATOM      3  C   UNL     1      -4.629  -0.493  -0.129  0.00  0.00    +0.135 C 
ATOM      4  C   UNL     1      -3.143   1.731   0.663  0.00  0.00    +0.037 C 
ATOM      5  C   UNL     1      -5.117   0.792  -0.366  0.00  0.00    +0.068 C 
ATOM      6  C   UNL     1      -4.373   1.904   0.030  0.00  0.00    +0.009 C 
ENDROOT
BRANCH   5   8
ATOM      7  O   UNL     1      -6.839   0.183  -1.858  0.00  0.00    -0.291 OA
ATOM      8  C   UNL     1      -6.400   0.998  -1.024  0.00  0.00    +0.176 C 
ATOM      9  C   UNL     1      -7.239   2.228  -0.701  0.00  0.00    +0.077 C 
ENDBRANCH   5   8
BRANCH   3  10
ATOM     10  O   UNL     1      -5.356  -1.582  -0.513  0.00  0.00    -0.506 OA
ATOM     11  H   UNL     1      -5.028  -2.445  -0.353  0.00  0.00    +0.292 HD
ENDBRANCH   3  10
BRANCH   2  12
ATOM     12  O   UNL     1      -1.444   0.295   1.525  0.00  0.00    -0.476 OA
BRANCH  12  13
ATOM     13  C   UNL     1      -0.315   0.866   0.879  0.00  0.00    +0.205 C 
BRANCH  13  14
ATOM     14  C   UNL     1       0.921   0.053   1.238  0.00  0.00    +0.047 C 
BRANCH  14  15
ATOM     15  C   UNL     1       2.175   0.604   0.562  0.00  0.00    +0.004 C 
BRANCH  15  16
ATOM     16  C   UNL     1       3.404  -0.245   0.894  0.00  0.00    +0.001 C 
BRANCH  16  17
ATOM     17  C   UNL     1       4.654   0.291   0.189  0.00  0.00    +0.016 C 
BRANCH  17  18
ATOM     18  C   UNL     1       5.908  -0.547   0.467  0.00  0.00    +0.102 C 
BRANCH  18  23
ATOM     19  N   UNL     1       7.501  -0.451  -1.448  0.00  0.00    -0.114 NA
ATOM     20  N   UNL     1       7.991   0.861   0.332  0.00  0.00    -0.091 NA
ATOM     21  N   UNL     1       8.623   0.269  -1.592  0.00  0.00    -0.140 N 
ATOM     22  N   UNL     1       8.952   1.060  -0.563  0.00  0.00    -0.022 NA
ATOM     23  C   UNL     1       7.141  -0.046  -0.227  0.00  0.00    +0.050 C 
ATOM     24  H   UNL     1       9.172   0.218  -2.407  0.00  0.00    +0.197 HD
ENDBRANCH  18  23
ENDBRANCH  17  18
ENDBRANCH  16  17
ENDBRANCH  15  16
ENDBRANCH  14  15
ENDBRANCH  13  14
ENDBRANCH  12  13
ENDBRANCH   2  12
BRANCH   1  25
ATOM     25  C   UNL     1      -2.875  -2.043   0.761  0.00  0.00    +0.033 C 
BRANCH  25  26
ATOM     26  C   UNL     1      -2.020  -2.562  -0.402  0.00  0.00    +0.005 C 
ATOM     27  C   UNL     1      -1.464  -3.948  -0.120  0.00  0.00    +0.000 C 
ENDBRANCH  25  26
ENDBRANCH   1  25
TORSDOF 12
