124556
  -OEChem-03292013323D

 36 36  0     0  0  0  0  0  0999 V2000
    9.6400    0.3645    0.0758 Br  0  0  0  0  0  0  0  0  0  0  0  0
    1.7642    1.5071    0.0229 O   0  0  0  0  0  0  0  0  0  0  0  0
   -4.5215   -2.0305    1.2184 O   0  0  0  0  0  0  0  0  0  0  0  0
   -4.6622   -2.1420   -1.0475 O   0  0  0  0  0  0  0  0  0  0  0  0
   -4.9930    2.4059    0.0073 O   0  5  0  0  0  0  0  0  0  0  0  0
   -5.6870    0.3234   -0.0145 O   0  0  0  0  0  0  0  0  0  0  0  0
    0.5801   -0.5198   -0.0241 N   0  0  0  0  0  0  0  0  0  0  0  0
   -4.7656    1.1732   -0.0055 N   0  3  0  0  0  0  0  0  0  0  0  0
    4.2755    0.2305   -0.0133 C   0  0  0  0  0  0  0  0  0  0  0  0
    5.5180   -0.6651   -0.0299 C   0  0  0  0  0  0  0  0  0  0  0  0
    2.9775   -0.5759   -0.0238 C   0  0  0  0  0  0  0  0  0  0  0  0
    6.8015    0.1662    0.0159 C   0  0  0  0  0  0  0  0  0  0  0  0
    1.7181    0.2819   -0.0138 C   0  0  0  0  0  0  0  0  0  0  0  0
    8.0306   -0.7247   -0.0414 C   0  0  0  0  0  0  0  0  0  0  0  0
   -0.7714   -0.0994   -0.0196 C   0  0  0  0  0  0  0  0  0  0  0  0
   -1.7772   -1.0516   -0.0290 C   0  0  0  0  0  0  0  0  0  0  0  0
   -3.1091   -0.6370   -0.0246 C   0  0  0  0  0  0  0  0  0  0  0  0
   -1.0591    1.2552   -0.0058 C   0  0  0  0  0  0  0  0  0  0  0  0
   -3.4159    0.7236   -0.0108 C   0  0  0  0  0  0  0  0  0  0  0  0
   -2.3909    1.6696   -0.0013 C   0  0  0  0  0  0  0  0  0  0  0  0
   -4.1526   -1.6554   -0.0355 C   0  0  0  0  0  0  0  0  0  0  0  0
    4.2954    0.9016   -0.8812 H   0  0  0  0  0  0  0  0  0  0  0  0
    4.2972    0.8711    0.8773 H   0  0  0  0  0  0  0  0  0  0  0  0
    5.4912   -1.3471    0.8286 H   0  0  0  0  0  0  0  0  0  0  0  0
    5.5098   -1.2833   -0.9358 H   0  0  0  0  0  0  0  0  0  0  0  0
    2.9473   -1.2108   -0.9178 H   0  0  0  0  0  0  0  0  0  0  0  0
    2.9465   -1.2333    0.8537 H   0  0  0  0  0  0  0  0  0  0  0  0
    6.8140    0.7674    0.9337 H   0  0  0  0  0  0  0  0  0  0  0  0
    6.8134    0.8723   -0.8240 H   0  0  0  0  0  0  0  0  0  0  0  0
    8.0681   -1.4253    0.7973 H   0  0  0  0  0  0  0  0  0  0  0  0
    8.0930   -1.2773   -0.9827 H   0  0  0  0  0  0  0  0  0  0  0  0
    0.7187   -1.5281   -0.0394 H   0  0  0  0  0  0  0  0  0  0  0  0
   -1.5359   -2.1118   -0.0401 H   0  0  0  0  0  0  0  0  0  0  0  0
   -0.3244    2.0465   -0.0002 H   0  0  0  0  0  0  0  0  0  0  0  0
   -2.5894    2.7385    0.0092 H   0  0  0  0  0  0  0  0  0  0  0  0
   -5.2236   -2.7155    1.2029 H   0  0  0  0  0  0  0  0  0  0  0  0
  1 14  1  0  0  0  0
  2 13  2  0  0  0  0
  3 21  1  0  0  0  0
  3 36  1  0  0  0  0
  4 21  2  0  0  0  0
  5  8  1  0  0  0  0
  6  8  2  0  0  0  0
  7 13  1  0  0  0  0
  7 15  1  0  0  0  0
  7 32  1  0  0  0  0
  8 19  1  0  0  0  0
  9 10  1  0  0  0  0
  9 11  1  0  0  0  0
  9 22  1  0  0  0  0
  9 23  1  0  0  0  0
 10 12  1  0  0  0  0
 10 24  1  0  0  0  0
 10 25  1  0  0  0  0
 11 13  1  0  0  0  0
 11 26  1  0  0  0  0
 11 27  1  0  0  0  0
 12 14  1  0  0  0  0
 12 28  1  0  0  0  0
 12 29  1  0  0  0  0
 14 30  1  0  0  0  0
 14 31  1  0  0  0  0
 15 16  2  0  0  0  0
 15 18  1  0  0  0  0
 16 17  1  0  0  0  0
 16 33  1  0  0  0  0
 17 19  2  0  0  0  0
 17 21  1  0  0  0  0
 18 20  2  0  0  0  0
 18 34  1  0  0  0  0
 19 20  1  0  0  0  0
 20 35  1  0  0  0  0
M  CHG  2   5  -1   8   1
M  END
> <PUBCHEM_COMPOUND_CID>
124556

> <PUBCHEM_CONFORMER_RMSD>
0.8

> <PUBCHEM_CONFORMER_DIVERSEORDER>
1
97
111
104
13
95
47
93
68
85
73
76
101
58
81
107
112
51
60
96
54
53
15
75
105
39
24
109
56
2
110
67
71
82
88
102
21
46
100
79
91
44
59
113
16
103
52
7
65
22
114
18
55
42
106
74
34
32
94
84
25
9
6
5
78
35
3
108
4
23
99
69
61
66
70
20
37
31
89
19
62
8
10
57
41
50
98
43
30
64
36
86
48
17
45
11
40
49
92
63
26
12
90
27
77
72
38
14
87
28
29
80
33
83

> <PUBCHEM_MMFF94_PARTIAL_CHARGES>
23
1 -0.23
11 0.06
13 0.57
14 0.23
15 0.12
16 -0.15
17 0.09
18 -0.15
19 0.13
2 -0.57
20 -0.15
21 0.63
3 -0.65
32 0.37
33 0.15
34 0.15
35 0.15
36 0.5
4 -0.57
5 -0.52
6 -0.52
7 -0.55
8 0.91

> <PUBCHEM_EFFECTIVE_ROTOR_COUNT>
9

> <PUBCHEM_PHARMACOPHORE_FEATURES>
11
1 1 hydrophobe
1 2 acceptor
1 3 acceptor
1 4 acceptor
1 5 acceptor
1 5 anion
1 6 acceptor
1 7 donor
3 3 4 21 anion
4 9 10 11 12 hydrophobe
6 15 16 17 18 19 20 rings

> <PUBCHEM_HEAVY_ATOM_COUNT>
21

> <PUBCHEM_ATOM_DEF_STEREO_COUNT>
0

> <PUBCHEM_ATOM_UDEF_STEREO_COUNT>
0

> <PUBCHEM_BOND_DEF_STEREO_COUNT>
0

> <PUBCHEM_BOND_UDEF_STEREO_COUNT>
0

> <PUBCHEM_ISOTOPIC_ATOM_COUNT>
0

> <PUBCHEM_COMPONENT_COUNT>
1

> <PUBCHEM_CACTVS_TAUTO_COUNT>
2

> <PUBCHEM_CONFORMER_ID>
0001E68C00000001

> <PUBCHEM_MMFF94_ENERGY>
60.578

> <PUBCHEM_FEATURE_SELFOVERLAP>
55.965

> <PUBCHEM_SHAPE_FINGERPRINT>
10299344 5 18114180827166747450
10411042 1 18194964278674586807
10968037 39 18408322181559769844
11315181 36 17967534601144974470
11524674 6 16702300169925907886
12091667 2 18412545422633187062
12236239 1 18186240632859449838
12616971 3 17095254613217119580
13288520 33 18411136947989774359
13533116 47 14117528598114562526
13885169 127 18411419484583159788
14251764 18 18186518818260548250
14251764 46 18410573976561523052
14933364 13 18341894100489700048
15183329 4 17530958090841810098
15196674 1 18411136978076099149
15510794 2 18202567260163073246
17093844 174 18411980251954710257
18681886 176 18340762732825615880
18927931 339 18411985784384498359
21267235 1 18336267937723206211
21315763 28 18409448095121719052
220451 1 17749106665264779042
23081809 10 17967818250066012676
23402539 116 18409445894816621055
23559900 14 18342731927348051112
335352 9 18410851049998953237
3545911 37 18412544284303206401
4073 2 18187090546774260370
4214541 1 18410855460360510741
5104073 3 18411136965212225713
559249 180 18409165510835677254
59755656 520 16370730330840488913
67123 10 18410293619821876708
67856867 119 18262241126918536204
8209 1 18412263927130861460

> <PUBCHEM_SHAPE_MULTIPOLES>
398.8
22.62
1.84
0.69
55.84
0.06
0.03
-1.18
0.27
-3.83
0
-0.29
-0.2
0.06

> <PUBCHEM_SHAPE_SELFOVERLAP>
804.043

> <PUBCHEM_SHAPE_VOLUME>
237

> <PUBCHEM_COORDINATE_TYPE>
2
5
10

$$$$
