124518410
  -OEChem-03292013293D

 64 68  0     1  0  0  0  0  0999 V2000
   -3.5819    0.2112   -1.1551 O   0  0  0  0  0  0  0  0  0  0  0  0
   -4.2916   -2.3282    2.0579 O   0  0  0  0  0  0  0  0  0  0  0  0
   -1.6815   -1.0198    1.7515 O   0  0  0  0  0  0  0  0  0  0  0  0
   -5.7765   -0.6625    0.4406 O   0  0  0  0  0  0  0  0  0  0  0  0
   -0.0122   -0.9902   -0.2300 O   0  0  0  0  0  0  0  0  0  0  0  0
    2.2260    4.0285    0.4936 O   0  0  0  0  0  0  0  0  0  0  0  0
   -0.1464    5.0733    0.4115 O   0  0  0  0  0  0  0  0  0  0  0  0
    4.9423    0.3328    0.3173 O   0  0  0  0  0  0  0  0  0  0  0  0
    0.1443   -3.2530   -0.4614 O   0  0  0  0  0  0  0  0  0  0  0  0
   -3.7353   -1.9286    0.7992 C   0  0  2  0  0  0  0  0  0  0  0  0
   -2.8543   -0.6776    1.0136 C   0  0  2  0  0  0  0  0  0  0  0  0
   -4.8828   -1.5963   -0.1747 C   0  0  2  0  0  0  0  0  0  0  0  0
   -2.4407   -0.0437   -0.3282 C   0  0  2  0  0  0  0  0  0  0  0  0
   -4.3421   -0.9620   -1.4645 C   0  0  1  0  0  0  0  0  0  0  0  0
   -1.7205    1.2763   -0.1262 C   0  0  0  0  0  0  0  0  0  0  0  0
   -2.9306   -3.1418    0.3081 C   0  0  0  0  0  0  0  0  0  0  0  0
   -5.4596   -0.5373   -2.4122 C   0  0  0  0  0  0  0  0  0  0  0  0
   -0.3194    1.3945    0.0018 C   0  0  0  0  0  0  0  0  0  0  0  0
   -2.5480    2.3989   -0.0737 C   0  0  0  0  0  0  0  0  0  0  0  0
    0.2312    2.6800    0.1855 C   0  0  0  0  0  0  0  0  0  0  0  0
    0.5685    0.2913   -0.0443 C   0  0  0  0  0  0  0  0  0  0  0  0
    1.9577    0.4062    0.0819 C   0  0  0  0  0  0  0  0  0  0  0  0
   -1.9948    3.6609    0.1075 C   0  0  0  0  0  0  0  0  0  0  0  0
   -0.6140    3.8015    0.2365 C   0  0  0  0  0  0  0  0  0  0  0  0
    1.6194    2.8159    0.3141 C   0  0  0  0  0  0  0  0  0  0  0  0
    2.4642    1.7002    0.2630 C   0  0  0  0  0  0  0  0  0  0  0  0
    2.7861   -0.8067    0.0183 C   0  0  0  0  0  0  0  0  0  0  0  0
    2.1728   -2.0572   -0.1669 C   0  0  0  0  0  0  0  0  0  0  0  0
    0.7035   -2.1763   -0.2993 C   0  0  0  0  0  0  0  0  0  0  0  0
    4.1897   -0.7901    0.1345 C   0  0  0  0  0  0  0  0  0  0  0  0
    2.9306   -3.2378   -0.2330 C   0  0  0  0  0  0  0  0  0  0  0  0
    4.3156   -3.1886   -0.1149 C   0  0  0  0  0  0  0  0  0  0  0  0
    4.9451   -1.9649    0.0688 C   0  0  0  0  0  0  0  0  0  0  0  0
    2.6146    4.7326   -0.6814 C   0  0  0  0  0  0  0  0  0  0  0  0
    5.1191   -4.4423   -0.1839 C   0  0  0  0  0  0  0  0  0  0  0  0
    5.4014    1.0008   -0.8553 C   0  0  0  0  0  0  0  0  0  0  0  0
   -3.4054    0.0493    1.6239 H   0  0  0  0  0  0  0  0  0  0  0  0
   -5.4742   -2.4917   -0.3961 H   0  0  0  0  0  0  0  0  0  0  0  0
   -1.8653   -0.7142   -0.9581 H   0  0  0  0  0  0  0  0  0  0  0  0
   -3.6987   -1.6674   -2.0031 H   0  0  0  0  0  0  0  0  0  0  0  0
   -2.4272   -2.9568   -0.6428 H   0  0  0  0  0  0  0  0  0  0  0  0
   -3.5884   -4.0089    0.1727 H   0  0  0  0  0  0  0  0  0  0  0  0
   -2.1842   -3.4485    1.0490 H   0  0  0  0  0  0  0  0  0  0  0  0
   -6.0757    0.2582   -1.9796 H   0  0  0  0  0  0  0  0  0  0  0  0
   -6.1028   -1.3834   -2.6719 H   0  0  0  0  0  0  0  0  0  0  0  0
   -5.0343   -0.1285   -3.3356 H   0  0  0  0  0  0  0  0  0  0  0  0
   -4.9037   -3.0663    1.8953 H   0  0  0  0  0  0  0  0  0  0  0  0
   -1.9721   -1.4216    2.5880 H   0  0  0  0  0  0  0  0  0  0  0  0
   -5.3285    0.1982    0.4969 H   0  0  0  0  0  0  0  0  0  0  0  0
   -3.6301    2.3293   -0.1438 H   0  0  0  0  0  0  0  0  0  0  0  0
   -2.6534    4.5244    0.1519 H   0  0  0  0  0  0  0  0  0  0  0  0
    3.5034    1.9243    0.4378 H   0  0  0  0  0  0  0  0  0  0  0  0
    2.4449   -4.2001   -0.3784 H   0  0  0  0  0  0  0  0  0  0  0  0
   -0.8902    5.6995    0.4143 H   0  0  0  0  0  0  0  0  0  0  0  0
    6.0281   -1.9194    0.1622 H   0  0  0  0  0  0  0  0  0  0  0  0
    2.8292    5.7689   -0.4064 H   0  0  0  0  0  0  0  0  0  0  0  0
    1.8255    4.7270   -1.4404 H   0  0  0  0  0  0  0  0  0  0  0  0
    3.5245    4.2868   -1.0956 H   0  0  0  0  0  0  0  0  0  0  0  0
    5.3725   -4.6694   -1.2242 H   0  0  0  0  0  0  0  0  0  0  0  0
    6.0475   -4.3511    0.3903 H   0  0  0  0  0  0  0  0  0  0  0  0
    4.5655   -5.2890    0.2362 H   0  0  0  0  0  0  0  0  0  0  0  0
    5.7285    2.0067   -0.5770 H   0  0  0  0  0  0  0  0  0  0  0  0
    4.6178    1.0797   -1.6162 H   0  0  0  0  0  0  0  0  0  0  0  0
    6.2589    0.4632   -1.2721 H   0  0  0  0  0  0  0  0  0  0  0  0
  1 13  1  0  0  0  0
  1 14  1  0  0  0  0
  2 10  1  0  0  0  0
  2 47  1  0  0  0  0
  3 11  1  0  0  0  0
  3 48  1  0  0  0  0
  4 12  1  0  0  0  0
  4 49  1  0  0  0  0
  5 21  1  0  0  0  0
  5 29  1  0  0  0  0
  6 25  1  0  0  0  0
  6 34  1  0  0  0  0
  7 24  1  0  0  0  0
  7 54  1  0  0  0  0
  8 30  1  0  0  0  0
  8 36  1  0  0  0  0
  9 29  2  0  0  0  0
 10 11  1  0  0  0  0
 10 12  1  0  0  0  0
 10 16  1  0  0  0  0
 11 13  1  0  0  0  0
 11 37  1  0  0  0  0
 12 14  1  0  0  0  0
 12 38  1  0  0  0  0
 13 15  1  0  0  0  0
 13 39  1  0  0  0  0
 14 17  1  0  0  0  0
 14 40  1  0  0  0  0
 15 18  2  0  0  0  0
 15 19  1  0  0  0  0
 16 41  1  0  0  0  0
 16 42  1  0  0  0  0
 16 43  1  0  0  0  0
 17 44  1  0  0  0  0
 17 45  1  0  0  0  0
 17 46  1  0  0  0  0
 18 20  1  0  0  0  0
 18 21  1  0  0  0  0
 19 23  2  0  0  0  0
 19 50  1  0  0  0  0
 20 24  2  0  0  0  0
 20 25  1  0  0  0  0
 21 22  2  0  0  0  0
 22 26  1  0  0  0  0
 22 27  1  0  0  0  0
 23 24  1  0  0  0  0
 23 51  1  0  0  0  0
 25 26  2  0  0  0  0
 26 52  1  0  0  0  0
 27 28  2  0  0  0  0
 27 30  1  0  0  0  0
 28 29  1  0  0  0  0
 28 31  1  0  0  0  0
 30 33  2  0  0  0  0
 31 32  2  0  0  0  0
 31 53  1  0  0  0  0
 32 33  1  0  0  0  0
 32 35  1  0  0  0  0
 33 55  1  0  0  0  0
 34 56  1  0  0  0  0
 34 57  1  0  0  0  0
 34 58  1  0  0  0  0
 35 59  1  0  0  0  0
 35 60  1  0  0  0  0
 35 61  1  0  0  0  0
 36 62  1  0  0  0  0
 36 63  1  0  0  0  0
 36 64  1  0  0  0  0
M  END
> <PUBCHEM_COMPOUND_CID>
124518410

> <PUBCHEM_CONFORMER_RMSD>
0.8

> <PUBCHEM_CONFORMER_DIVERSEORDER>
1
4
3
2

> <PUBCHEM_MMFF94_PARTIAL_CHARGES>
39
1 -0.56
10 0.28
11 0.28
12 0.28
13 0.42
14 0.28
15 -0.14
19 -0.15
2 -0.68
21 0.08
23 -0.15
24 0.08
25 0.08
26 -0.15
28 0.09
29 0.63
3 -0.68
30 0.08
31 -0.15
32 -0.14
33 -0.15
34 0.28
35 0.14
36 0.28
4 -0.68
47 0.4
48 0.4
49 0.4
5 -0.23
50 0.15
51 0.15
52 0.15
53 0.15
54 0.45
55 0.15
6 -0.36
7 -0.53
8 -0.36
9 -0.57

> <PUBCHEM_EFFECTIVE_ROTOR_COUNT>
4.2

> <PUBCHEM_PHARMACOPHORE_FEATURES>
16
1 1 acceptor
1 2 acceptor
1 2 donor
1 3 acceptor
1 3 donor
1 4 acceptor
1 4 donor
1 6 acceptor
1 7 donor
1 8 acceptor
1 9 acceptor
6 1 10 11 12 13 14 rings
6 15 18 19 20 23 24 rings
6 18 20 21 22 25 26 rings
6 27 28 30 31 32 33 rings
6 5 21 22 27 28 29 rings

> <PUBCHEM_HEAVY_ATOM_COUNT>
36

> <PUBCHEM_ATOM_DEF_STEREO_COUNT>
5

> <PUBCHEM_ATOM_UDEF_STEREO_COUNT>
0

> <PUBCHEM_BOND_DEF_STEREO_COUNT>
0

> <PUBCHEM_BOND_UDEF_STEREO_COUNT>
0

> <PUBCHEM_ISOTOPIC_ATOM_COUNT>
0

> <PUBCHEM_COMPONENT_COUNT>
1

> <PUBCHEM_CACTVS_TAUTO_COUNT>
28

> <PUBCHEM_CONFORMER_ID>
076C000A00000001

> <PUBCHEM_MMFF94_ENERGY>
172.0724

> <PUBCHEM_FEATURE_SELFOVERLAP>
81.289

> <PUBCHEM_SHAPE_FINGERPRINT>
10290309 65 17617097353039736032
10411042 1 18339643339093191023
10940486 97 17614298667393640374
1100329 8 18123751117649849012
11115154 58 17772442674795271925
11135926 11 18193557993684234693
11136131 41 18119233216039794392
11513181 2 18128261082551005334
12107183 9 18270977769451455921
12553582 1 18339938072781332183
12788726 201 17977371751701672723
13140716 1 17980201104341430072
13690498 29 18054805996191042438
13782708 43 17822576118475736491
138480 1 14519466759093599976
13911987 19 18336270153646522878
140371 6 18409171034327059400
14068700 675 17917416610830719963
14363568 33 18120951760428509080
14659021 117 18048588232055050866
14790565 3 17255971589338757565
14840074 17 18060140959425910871
14866123 147 18051695447746856977
15320467 1 18339081604741998066
15361156 5 18053675680973605214
15927050 60 17620197972246519780
16628084 112 17397821281445151639
17492 89 18266741286335098486
17909252 39 18410015476621872072
19315092 285 16915357005153898147
19591789 44 18122914393453829396
19930381 70 18194400215469554481
20028762 73 16975061778800251335
20101258 96 18340211773740474241
20764821 26 18193286195442428066
20775438 99 17550622985207098183
21133410 171 17397210077414139491
21703447 108 18267008489357031226
22311459 1 18339359768947451708
23536364 44 18118667843482108119
23559900 14 18336255847052696801
24771293 8 18059001917372725624
24771750 20 17755591782029159309
3380486 145 18263379125737793179
350125 39 18265337390259042908
3882209 13 17614525217342944147
4015057 19 18338223960451090415
4403749 210 17185294982179766081
4616759 239 17410752685351008418
463206 1 18194404385899097236
5104073 3 18198899211314295802
5309563 4 18339366391169850235
6004065 56 18268697472097413311
613672 6 18337376193424557098
6669772 16 17980769556301705316
70251023 43 18411973668170583609
9709674 26 18410009897042252387

> <PUBCHEM_SHAPE_MULTIPOLES>
688.04
11.05
6.4
1.14
0.07
5.47
0.16
-9.99
2.08
-4.1
-0.36
1.8
-0.47
0.39

> <PUBCHEM_SHAPE_SELFOVERLAP>
1531.792

> <PUBCHEM_SHAPE_VOLUME>
365

> <PUBCHEM_COORDINATE_TYPE>
2
5
10

$$$$
