REMARK  Name = 124556
REMARK  9 active torsions:
REMARK  status: ('A' for Active; 'I' for Inactive)
REMARK    1  A    between atoms: C_1  and  N_8
REMARK    2  A    between atoms: C_3  and  C_21
REMARK    3  A    between atoms: C_5  and  N_19
REMARK    4  A    between atoms: C_9  and  C_11
REMARK    5  A    between atoms: C_11  and  C_12
REMARK    6  A    between atoms: C_12  and  C_13
REMARK    7  A    between atoms: C_13  and  C_14
REMARK    8  A    between atoms: C_14  and  C_16
REMARK    9  A    between atoms: C_21  and  O_22
REMARK                            x       y       z     vdW  Elec       q    Type
REMARK                         _______ _______ _______ _____ _____    ______ ____
ROOT
ATOM      1  C   UNL     1      -0.771  -0.099  -0.020  0.00  0.00    +0.051 C 
ATOM      2  C   UNL     1      -1.777  -1.052  -0.029  0.00  0.00    +0.023 C 
ATOM      3  C   UNL     1      -3.109  -0.637  -0.025  0.00  0.00    +0.099 C 
ATOM      4  C   UNL     1      -1.059   1.255  -0.006  0.00  0.00    +0.016 C 
ATOM      5  C   UNL     1      -3.416   0.724  -0.011  0.00  0.00    +0.149 C 
ATOM      6  C   UNL     1      -2.391   1.670  -0.001  0.00  0.00    +0.026 C 
ENDROOT
BRANCH   1   8
ATOM      7  O   UNL     1       1.764   1.507   0.023  0.00  0.00    -0.275 OA
ATOM      8  N   UNL     1       0.580  -0.520  -0.024  0.00  0.00    -0.284 N 
ATOM      9  C   UNL     1       1.718   0.282  -0.014  0.00  0.00    +0.226 C 
ATOM     10  H   UNL     1       0.733  -1.492  -0.036  0.00  0.00    +0.155 HD
BRANCH   9  11
ATOM     11  C   UNL     1       2.978  -0.576  -0.024  0.00  0.00    +0.085 C 
BRANCH  11  12
ATOM     12  C   UNL     1       4.276   0.231  -0.013  0.00  0.00    +0.010 C 
BRANCH  12  13
ATOM     13  C   UNL     1       5.518  -0.665  -0.030  0.00  0.00    +0.001 C 
BRANCH  13  14
ATOM     14  C   UNL     1       6.801   0.166   0.016  0.00  0.00    +0.012 C 
BRANCH  14  16
ATOM     15 BR   UNL     1       9.640   0.364   0.076  0.00  0.00    -0.081 Br
ATOM     16  C   UNL     1       8.031  -0.725  -0.041  0.00  0.00    +0.068 C 
ENDBRANCH  14  16
ENDBRANCH  13  14
ENDBRANCH  12  13
ENDBRANCH  11  12
ENDBRANCH   9  11
ENDBRANCH   1   8
BRANCH   5  19
ATOM     17  O   UNL     1      -4.993   2.406   0.007  0.00  0.00    -0.126 OA
ATOM     18  O   UNL     1      -5.687   0.323  -0.015  0.00  0.00    -0.126 OA
ATOM     19  N   UNL     1      -4.766   1.173  -0.005  0.00  0.00    +0.058 N 
ENDBRANCH   5  19
BRANCH   3  21
ATOM     20  O   UNL     1      -4.662  -2.142  -1.048  0.00  0.00    -0.245 OA
ATOM     21  C   UNL     1      -4.153  -1.655  -0.035  0.00  0.00    +0.340 C 
BRANCH  21  22
ATOM     22  O   UNL     1      -4.521  -2.030   1.218  0.00  0.00    -0.477 OA
ATOM     23  H   UNL     1      -4.112  -1.638   1.964  0.00  0.00    +0.295 HD
ENDBRANCH  21  22
ENDBRANCH   3  21
TORSDOF 9
