REMARK  Name = 124695
REMARK  7 active torsions:
REMARK  status: ('A' for Active; 'I' for Inactive)
REMARK    1  A    between atoms: C_1  and  C_2
REMARK    2  A    between atoms: C_1  and  C_12
REMARK    3  A    between atoms: C_1  and  C_14
REMARK    4  A    between atoms: C_7  and  S_8
REMARK    5  A    between atoms: C_14  and  C_15
REMARK    6  A    between atoms: C_14  and  C_25
REMARK    7  A    between atoms: C_20  and  S_21
REMARK                            x       y       z     vdW  Elec       q    Type
REMARK                         _______ _______ _______ _____ _____    ______ ____
ROOT
ATOM      1  C   UNL     1      -0.385   0.627  -0.280  0.00  0.00    +0.026 C 
ENDROOT
BRANCH   1   2
ATOM      2  C   UNL     1      -1.899   0.440  -0.179  0.00  0.00    -0.022 C 
ATOM      3  C   UNL     1      -2.651   0.504  -1.330  0.00  0.00    -0.003 C 
ATOM      4  C   UNL     1      -2.455   0.216   1.061  0.00  0.00    -0.003 C 
ATOM      5  C   UNL     1      -4.032   0.335  -1.237  0.00  0.00    +0.019 C 
ATOM      6  C   UNL     1      -3.836   0.046   1.153  0.00  0.00    +0.019 C 
ATOM      7  C   UNL     1      -4.625   0.106   0.004  0.00  0.00    +0.112 C 
BRANCH   7   8
ATOM      8  S   UNL     1      -6.354  -0.106   0.121  0.00  0.00    +0.042 S 
ATOM      9  O   UNL     1      -6.603  -1.713  -0.052  0.00  0.00    -0.065 OA
ATOM     10  O   UNL     1      -6.759   0.242   1.475  0.00  0.00    -0.065 OA
ATOM     11  O   UNL     1      -6.942   0.568  -1.026  0.00  0.00    -0.065 OA
ENDBRANCH   7   8
ENDBRANCH   1   2
BRANCH   1  12
ATOM     12  C   UNL     1       0.063   1.903   0.478  0.00  0.00    +0.005 C 
ATOM     13  C   UNL     1      -0.553   3.189  -0.066  0.00  0.00    +0.000 C 
ENDBRANCH   1  12
BRANCH   1  14
ATOM     14  C   UNL     1       0.375  -0.667   0.193  0.00  0.00    +0.026 C 
BRANCH  14  15
ATOM     15  C   UNL     1       1.889  -0.465   0.137  0.00  0.00    -0.022 C 
ATOM     16  C   UNL     1       2.609  -0.543   1.307  0.00  0.00    -0.003 C 
ATOM     17  C   UNL     1       2.476  -0.211  -1.082  0.00  0.00    -0.003 C 
ATOM     18  C   UNL     1       3.991  -0.356   1.256  0.00  0.00    +0.019 C 
ATOM     19  C   UNL     1       3.858  -0.025  -1.133  0.00  0.00    +0.019 C 
ATOM     20  C   UNL     1       4.615  -0.097   0.036  0.00  0.00    +0.112 C 
BRANCH  20  21
ATOM     21  S   UNL     1       6.344   0.136  -0.029  0.00  0.00    +0.042 S 
ATOM     22  O   UNL     1       6.569   1.742   0.182  0.00  0.00    -0.065 OA
ATOM     23  O   UNL     1       6.931  -0.529   1.125  0.00  0.00    -0.065 OA
ATOM     24  O   UNL     1       6.768  -0.206  -1.377  0.00  0.00    -0.065 OA
ENDBRANCH  20  21
ENDBRANCH  14  15
BRANCH  14  25
ATOM     25  C   UNL     1      -0.043  -1.930  -0.603  0.00  0.00    +0.005 C 
ATOM     26  C   UNL     1       0.649  -3.208  -0.136  0.00  0.00    +0.000 C 
ENDBRANCH  14  25
ENDBRANCH   1  14
TORSDOF 7
