REMARK  Name = 124640
REMARK  4 active torsions:
REMARK  status: ('A' for Active; 'I' for Inactive)
REMARK    1  A    between atoms: C_5  and  O_16
REMARK    2  A    between atoms: C_6  and  C_13
REMARK    3  A    between atoms: C_9  and  C_19
REMARK    4  A    between atoms: C_19  and  O_20
REMARK                            x       y       z     vdW  Elec       q    Type
REMARK                         _______ _______ _______ _____ _____    ______ ____
ROOT
ATOM      1  O   UNL     1       1.958   0.980  -0.686  0.00  0.00    -0.325 OA
ATOM      2  O   UNL     1       1.501  -1.261  -0.091  0.00  0.00    -0.323 OA
ATOM      3  C   UNL     1       0.560   0.717  -0.671  0.00  0.00    +0.176 C 
ATOM      4  C   UNL     1       0.464  -0.389   0.357  0.00  0.00    +0.169 C 
ATOM      5  C   UNL     1      -0.378   1.858  -0.325  0.00  0.00    +0.145 C 
ATOM      6  C   UNL     1       2.520  -0.339  -0.536  0.00  0.00    +0.258 C 
ATOM      7  C   UNL     1      -1.829   1.314  -0.329  0.00  0.00    +0.064 C 
ATOM      8  C   UNL     1      -0.919  -0.946   0.385  0.00  0.00    +0.008 C 
ATOM      9  C   UNL     1      -1.956  -0.142   0.085  0.00  0.00    +0.054 C 
ATOM     10  C   UNL     1       3.109  -0.823  -1.850  0.00  0.00    +0.071 C 
ENDROOT
BRANCH   6  13
ATOM     11  O   UNL     1       3.853   0.825   1.071  0.00  0.00    -0.270 OA
ATOM     12  N   UNL     1       4.206  -1.432   0.793  0.00  0.00    -0.325 N 
ATOM     13  C   UNL     1       3.578  -0.239   0.522  0.00  0.00    +0.271 C 
ATOM     14  H   UNL     1       4.916  -1.470   1.474  0.00  0.00    +0.145 HD
ATOM     15  H   UNL     1       3.945  -2.247   0.307  0.00  0.00    +0.145 HD
ENDBRANCH   6  13
BRANCH   5  16
ATOM     16  O   UNL     1      -0.065   2.414   0.950  0.00  0.00    -0.382 OA
ATOM     17  H   UNL     1       0.845   2.751   0.941  0.00  0.00    +0.210 HD
ENDBRANCH   5  16
BRANCH   9  19
ATOM     18  O   UNL     1      -3.522  -1.877   0.479  0.00  0.00    -0.245 OA
ATOM     19  C   UNL     1      -3.301  -0.720   0.161  0.00  0.00    +0.337 C 
BRANCH  19  20
ATOM     20  O   UNL     1      -4.204   0.237  -0.173  0.00  0.00    -0.442 OA
ATOM     21  C   UNL     1      -5.574  -0.177  -0.145  0.00  0.00    +0.256 C 
ENDBRANCH  19  20
ENDBRANCH   9  19
TORSDOF 4
