REMARK  Name = 124693
REMARK  10 active torsions:
REMARK  status: ('A' for Active; 'I' for Inactive)
REMARK    1  A    between atoms: C_3  and  N_9
REMARK    2  A    between atoms: C_4  and  N_12
REMARK    3  A    between atoms: C_5  and  N_15
REMARK    4  A    between atoms: C_6  and  N_21
REMARK    5  A    between atoms: N_15  and  C_17
REMARK    6  A    between atoms: C_17  and  C_18
REMARK    7  A    between atoms: C_18  and  O_19
REMARK    8  A    between atoms: N_21  and  C_23
REMARK    9  A    between atoms: C_23  and  C_24
REMARK   10  A    between atoms: C_24  and  O_25
REMARK                            x       y       z     vdW  Elec       q    Type
REMARK                         _______ _______ _______ _____ _____    ______ ____
ROOT
ATOM      1  O   UNL     1       0.828  -2.538   0.585  0.00  0.00    -0.284 OA
ATOM      2  O   UNL     1      -0.874   2.344  -0.649  0.00  0.00    -0.284 OA
ATOM      3  C   UNL     1      -1.023  -1.124   0.180  0.00  0.00    +0.105 C 
ATOM      4  C   UNL     1       0.977   0.929  -0.243  0.00  0.00    +0.105 C 
ATOM      5  C   UNL     1       1.407  -0.304   0.068  0.00  0.00    +0.102 C 
ATOM      6  C   UNL     1      -1.453   0.110  -0.131  0.00  0.00    +0.102 C 
ATOM      7  C   UNL     1       0.434  -1.408   0.299  0.00  0.00    +0.224 C 
ATOM      8  C   UNL     1      -0.480   1.213  -0.363  0.00  0.00    +0.224 C 
ENDROOT
BRANCH   3   9
ATOM      9  N   UNL     1      -1.839  -2.198   0.410  0.00  0.00    -0.301 N 
ATOM     10  C   UNL     1      -1.682  -3.359  -0.461  0.00  0.00    +0.112 C 
ATOM     11  C   UNL     1      -2.878  -2.475  -0.577  0.00  0.00    +0.112 C 
ENDBRANCH   3   9
BRANCH   4  12
ATOM     12  N   UNL     1       1.793   2.004  -0.472  0.00  0.00    -0.301 N 
ATOM     13  C   UNL     1       2.831   2.281   0.515  0.00  0.00    +0.112 C 
ATOM     14  C   UNL     1       1.635   3.164   0.399  0.00  0.00    +0.112 C 
ENDBRANCH   4  12
BRANCH   5  15
ATOM     15  N   UNL     1       2.722  -0.660   0.200  0.00  0.00    -0.327 N 
ATOM     16  H   UNL     1       3.022  -1.035   1.059  0.00  0.00    +0.147 HD
BRANCH  15  17
ATOM     17  C   UNL     1       3.687  -0.514  -0.856  0.00  0.00    +0.119 C 
BRANCH  17  18
ATOM     18  C   UNL     1       5.040  -1.032  -0.398  0.00  0.00    +0.158 C 
BRANCH  18  19
ATOM     19  O   UNL     1       5.488  -0.268   0.715  0.00  0.00    -0.380 OA
ATOM     20  H   UNL     1       6.352  -0.599   1.007  0.00  0.00    +0.211 HD
ENDBRANCH  18  19
ENDBRANCH  17  18
ENDBRANCH  15  17
ENDBRANCH   5  15
BRANCH   6  21
ATOM     21  N   UNL     1      -2.768   0.466  -0.262  0.00  0.00    -0.327 N 
ATOM     22  H   UNL     1      -3.079   0.796  -1.136  0.00  0.00    +0.147 HD
BRANCH  21  23
ATOM     23  C   UNL     1      -3.719   0.382   0.813  0.00  0.00    +0.119 C 
BRANCH  23  24
ATOM     24  C   UNL     1      -5.091   0.817   0.329  0.00  0.00    +0.158 C 
BRANCH  24  25
ATOM     25  O   UNL     1      -5.035   2.171  -0.101  0.00  0.00    -0.380 OA
ATOM     26  H   UNL     1      -5.911   2.449  -0.410  0.00  0.00    +0.211 HD
ENDBRANCH  24  25
ENDBRANCH  23  24
ENDBRANCH  21  23
ENDBRANCH   6  21
TORSDOF 10
