REMARK  Name = 124619
REMARK  5 active torsions:
REMARK  status: ('A' for Active; 'I' for Inactive)
REMARK    1  A    between atoms: C_1  and  C_9
REMARK    2  A    between atoms: C_2  and  C_16
REMARK    3  A    between atoms: C_3  and  O_21
REMARK    4  A    between atoms: N_8  and  N_11
REMARK    5  A    between atoms: N_15  and  N_18
REMARK                            x       y       z     vdW  Elec       q    Type
REMARK                         _______ _______ _______ _____ _____    ______ ____
ROOT
ATOM      1  C   UNL     1      -0.500  -0.048   0.008  0.00  0.00    +0.093 C 
ATOM      2  C   UNL     1       0.501  -1.016   0.098  0.00  0.00    +0.062 C 
ATOM      3  C   UNL     1      -1.810  -0.424  -0.289  0.00  0.00    +0.143 C 
ATOM      4  C   UNL     1       0.191  -2.360  -0.108  0.00  0.00    +0.005 C 
ATOM      5  C   UNL     1      -2.119  -1.768  -0.495  0.00  0.00    +0.037 C 
ATOM      6  C   UNL     1      -1.119  -2.736  -0.405  0.00  0.00    +0.003 C 
ENDROOT
BRANCH   1   9
ATOM      7  O   UNL     1      -0.239   1.848   1.363  0.00  0.00    -0.269 OA
ATOM      8  N   UNL     1       0.187   2.097  -0.904  0.00  0.00    -0.249 N 
ATOM      9  C   UNL     1      -0.185   1.361   0.221  0.00  0.00    +0.262 C 
ATOM     10  H   UNL     1       0.214   1.666  -1.789  0.00  0.00    +0.169 HD
BRANCH   8  11
ATOM     11  N   UNL     1       0.517   3.432  -0.773  0.00  0.00    -0.254 NA
ATOM     12  H   UNL     1       0.434   3.708   0.206  0.00  0.00    +0.140 HD
ATOM     13  H   UNL     1      -0.116   3.996  -1.340  0.00  0.00    +0.140 HD
ENDBRANCH   8  11
ENDBRANCH   1   9
BRANCH   2  16
ATOM     14  O   UNL     1       2.272  -0.632   1.585  0.00  0.00    -0.269 OA
ATOM     15  N   UNL     1       2.710  -0.371  -0.678  0.00  0.00    -0.250 N 
ATOM     16  C   UNL     1       1.879  -0.657   0.406  0.00  0.00    +0.259 C 
ATOM     17  H   UNL     1       2.354  -0.403  -1.595  0.00  0.00    +0.169 HD
BRANCH  15  18
ATOM     18  N   UNL     1       4.034  -0.042  -0.461  0.00  0.00    -0.254 NA
ATOM     19  H   UNL     1       4.229  -0.057   0.541  0.00  0.00    +0.140 HD
ATOM     20  H   UNL     1       4.218   0.892  -0.828  0.00  0.00    +0.140 HD
ENDBRANCH  15  18
ENDBRANCH   2  16
BRANCH   3  21
ATOM     21  O   UNL     1      -2.803   0.505  -0.383  0.00  0.00    -0.471 OA
ATOM     22  C   UNL     1      -3.517   0.812   0.813  0.00  0.00    +0.252 C 
ENDBRANCH   3  21
TORSDOF 5
