REMARK  Name = 124665
REMARK  7 active torsions:
REMARK  status: ('A' for Active; 'I' for Inactive)
REMARK    1  A    between atoms: C_2  and  O_18
REMARK    2  A    between atoms: C_3  and  C_22
REMARK    3  A    between atoms: C_5  and  N_8
REMARK    4  A    between atoms: C_12  and  C_16
REMARK    5  A    between atoms: O_18  and  C_20
REMARK    6  A    between atoms: C_22  and  O_23
REMARK    7  A    between atoms: O_23  and  C_25
REMARK                            x       y       z     vdW  Elec       q    Type
REMARK                         _______ _______ _______ _____ _____    ______ ____
ROOT
ATOM      1  O   UNL     1       1.053  -0.281   0.927  0.00  0.00    -0.332 OA
ATOM      2  C   UNL     1       2.527  -0.490  -0.918  0.00  0.00    +0.204 C 
ATOM      3  C   UNL     1       2.017   0.461   0.156  0.00  0.00    +0.200 C 
ATOM      4  C   UNL     1       1.349  -1.408  -1.149  0.00  0.00    +0.098 C 
ATOM      5  C   UNL     1       0.721  -1.491   0.233  0.00  0.00    +0.203 C 
ENDROOT
BRANCH   5   8
ATOM      6  O   UNL     1      -0.625  -3.968   0.296  0.00  0.00    -0.252 OA
ATOM      7  O   UNL     1      -4.754  -1.967   0.055  0.00  0.00    -0.270 OA
ATOM      8  N   UNL     1      -0.704  -1.637   0.189  0.00  0.00    -0.219 N 
ATOM      9  N   UNL     1      -2.677  -2.951   0.176  0.00  0.00    -0.236 N 
ATOM     10  C   UNL     1      -1.513  -0.510   0.110  0.00  0.00    +0.076 C 
ATOM     11  C   UNL     1      -1.279  -2.925   0.226  0.00  0.00    +0.315 C 
ATOM     12  C   UNL     1      -2.852  -0.534   0.062  0.00  0.00    +0.069 C 
ATOM     13  C   UNL     1      -3.530  -1.861   0.097  0.00  0.00    +0.254 C 
ATOM     14  H   UNL     1      -3.100  -3.839   0.200  0.00  0.00    +0.159 HD
BRANCH  12  16
ATOM     15 BR   UNL     1      -4.175   3.353  -0.734  0.00  0.00    -0.048 Br
ATOM     16  C   UNL     1      -3.632   0.673  -0.019  0.00  0.00    +0.013 C 
ATOM     17  C   UNL     1      -3.192   1.784  -0.613  0.00  0.00    +0.041 C 
ENDBRANCH  12  16
ENDBRANCH   5   8
BRANCH   2  18
ATOM     18  O   UNL     1       3.630  -1.241  -0.417  0.00  0.00    -0.449 OA
BRANCH  18  20
ATOM     19  O   UNL     1       4.878   0.690  -0.193  0.00  0.00    -0.250 OA
ATOM     20  C   UNL     1       4.752  -0.523  -0.090  0.00  0.00    +0.318 C 
ATOM     21  C   UNL     1       5.823  -1.438   0.419  0.00  0.00    +0.121 C 
ENDBRANCH  18  20
ENDBRANCH   2  18
BRANCH   3  22
ATOM     22  C   UNL     1       1.315   1.684  -0.420  0.00  0.00    +0.241 C 
BRANCH  22  23
ATOM     23  O   UNL     1       0.868   2.502   0.649  0.00  0.00    -0.446 OA
BRANCH  23  25
ATOM     24  O   UNL     1      -0.015   4.020  -0.852  0.00  0.00    -0.250 OA
ATOM     25  C   UNL     1       0.212   3.649   0.292  0.00  0.00    +0.318 C 
ATOM     26  C   UNL     1      -0.199   4.408   1.518  0.00  0.00    +0.121 C 
ENDBRANCH  23  25
ENDBRANCH  22  23
ENDBRANCH   3  22
TORSDOF 7
