REMARK  Name = 124623
REMARK  16 active torsions:
REMARK  status: ('A' for Active; 'I' for Inactive)
REMARK    1  A    between atoms: C_1  and  O_2
REMARK    2  A    between atoms: C_1  and  C_4
REMARK    3  A    between atoms: C_1  and  C_20
REMARK    4  A    between atoms: C_4  and  O_5
REMARK    5  A    between atoms: O_5  and  C_7
REMARK    6  A    between atoms: C_6  and  C_17
REMARK    7  A    between atoms: C_8  and  O_15
REMARK    8  A    between atoms: C_9  and  C_13
REMARK    9  A    between atoms: C_17  and  C_18
REMARK   10  A    between atoms: C_20  and  O_21
REMARK   11  A    between atoms: O_21  and  C_22
REMARK   12  A    between atoms: C_23  and  C_38
REMARK   13  A    between atoms: C_24  and  N_29
REMARK   14  A    between atoms: C_30  and  C_33
REMARK   15  A    between atoms: C_33  and  O_34
REMARK   16  A    between atoms: O_34  and  C_35
REMARK                            x       y       z     vdW  Elec       q    Type
REMARK                         _______ _______ _______ _____ _____    ______ ____
ROOT
ATOM      1  C   UNL     1      -3.304  -3.068   1.450  0.00  0.00    +0.198 C 
ENDROOT
BRANCH   1   2
ATOM      2  O   UNL     1      -3.014  -3.825   2.628  0.00  0.00    -0.378 OA
ATOM      3  H   UNL     1      -3.673  -3.625   3.311  0.00  0.00    +0.211 HD
ENDBRANCH   1   2
BRANCH   1   4
ATOM      4  C   UNL     1      -3.281  -1.585   1.803  0.00  0.00    +0.238 C 
BRANCH   4   5
ATOM      5  O   UNL     1      -3.537  -0.808   0.639  0.00  0.00    -0.473 OA
BRANCH   5   7
ATOM      6  C   UNL     1      -2.634   1.043  -0.603  0.00  0.00    +0.045 C 
ATOM      7  C   UNL     1      -2.996   0.450   0.607  0.00  0.00    +0.138 C 
ATOM      8  C   UNL     1      -2.086   2.325  -0.614  0.00  0.00    +0.135 C 
ATOM      9  C   UNL     1      -1.899   3.015   0.584  0.00  0.00    +0.068 C 
ATOM     10  C   UNL     1      -2.810   1.140   1.805  0.00  0.00    +0.037 C 
ATOM     11  C   UNL     1      -2.261   2.423   1.793  0.00  0.00    +0.009 C 
BRANCH   9  13
ATOM     12  O   UNL     1      -0.515   4.722  -0.272  0.00  0.00    -0.291 OA
ATOM     13  C   UNL     1      -1.330   4.356   0.596  0.00  0.00    +0.176 C 
ATOM     14  C   UNL     1      -1.725   5.346   1.684  0.00  0.00    +0.077 C 
ENDBRANCH   9  13
BRANCH   8  15
ATOM     15  O   UNL     1      -1.734   2.905  -1.799  0.00  0.00    -0.506 OA
ATOM     16  H   UNL     1      -1.860   2.440  -2.603  0.00  0.00    +0.292 HD
ENDBRANCH   8  15
BRANCH   6  17
ATOM     17  C   UNL     1      -2.836   0.302  -1.885  0.00  0.00    +0.033 C 
BRANCH  17  18
ATOM     18  C   UNL     1      -4.215   0.573  -2.498  0.00  0.00    +0.005 C 
ATOM     19  C   UNL     1      -4.401  -0.157  -3.819  0.00  0.00    +0.000 C 
ENDBRANCH  17  18
ENDBRANCH   6  17
ENDBRANCH   5   7
ENDBRANCH   4   5
ENDBRANCH   1   4
BRANCH   1  20
ATOM     20  C   UNL     1      -2.251  -3.408   0.403  0.00  0.00    +0.238 C 
BRANCH  20  21
ATOM     21  O   UNL     1      -0.967  -3.053   0.907  0.00  0.00    -0.472 OA
BRANCH  21  22
ATOM     22  C   UNL     1      -0.020  -2.699  -0.017  0.00  0.00    +0.149 C 
ATOM     23  C   UNL     1       0.992  -1.790   0.293  0.00  0.00    +0.116 C 
ATOM     24  C   UNL     1       1.942  -1.449  -0.669  0.00  0.00    +0.063 C 
ATOM     25  C   UNL     1      -0.081  -3.268  -1.289  0.00  0.00    +0.038 C 
ATOM     26  C   UNL     1       1.881  -2.018  -1.941  0.00  0.00    +0.016 C 
ATOM     27  C   UNL     1       0.870  -2.927  -2.251  0.00  0.00    +0.004 C 
BRANCH  24  29
ATOM     28  O   UNL     1       4.201  -0.392  -2.413  0.00  0.00    -0.263 OA
ATOM     29  N   UNL     1       2.969  -0.541  -0.391  0.00  0.00    -0.274 N 
ATOM     30  C   UNL     1       3.974  -0.115  -1.247  0.00  0.00    +0.326 C 
ATOM     31  H   UNL     1       2.980  -0.161   0.517  0.00  0.00    +0.155 HD
BRANCH  30  33
ATOM     32  O   UNL     1       5.029   1.997  -1.029  0.00  0.00    -0.240 OA
ATOM     33  C   UNL     1       4.901   0.868  -0.597  0.00  0.00    +0.396 C 
BRANCH  33  34
ATOM     34  O   UNL     1       5.507   0.262   0.441  0.00  0.00    -0.442 OA
BRANCH  34  35
ATOM     35  C   UNL     1       6.450   1.071   1.149  0.00  0.00    +0.209 C 
ATOM     36  C   UNL     1       7.045   0.259   2.280  0.00  0.00    +0.051 C 
ENDBRANCH  34  35
ENDBRANCH  33  34
ENDBRANCH  30  33
ENDBRANCH  24  29
BRANCH  23  38
ATOM     37  N   UNL     1       1.089  -0.743   2.666  0.00  0.00    -0.191 NA
ATOM     38  C   UNL     1       1.045  -1.211   1.605  0.00  0.00    +0.105 C 
ENDBRANCH  23  38
ENDBRANCH  21  22
ENDBRANCH  20  21
ENDBRANCH   1  20
TORSDOF 16
