124626
  -OEChem-03292013323D

 46 48  0     0  0  0  0  0  0999 V2000
   -6.3367    0.9820    0.8459 S   0  0  0  0  0  0  0  0  0  0  0  0
   -1.0606    1.4885   -1.2752 O   0  0  0  0  0  0  0  0  0  0  0  0
   -2.2493   -2.9036   -0.2846 O   0  0  0  0  0  0  0  0  0  0  0  0
   -7.6654    1.4113    0.0028 O   0  0  0  0  0  0  0  0  0  0  0  0
   -5.7176    2.1799    1.3832 O   0  0  0  0  0  0  0  0  0  0  0  0
   -6.6684   -0.1474    1.6953 O   0  0  0  0  0  0  0  0  0  0  0  0
    2.2515   -1.5432    0.2874 N   0  0  0  0  0  0  0  0  0  0  0  0
   -1.7225   -0.7033   -0.8509 N   0  0  0  0  0  0  0  0  0  0  0  0
    1.5292    0.9935   -0.5932 N   0  0  0  0  0  0  0  0  0  0  0  0
   -0.1009   -2.1966   -0.0307 N   0  0  0  0  0  0  0  0  0  0  0  0
    0.9105   -1.2582   -0.0865 C   0  0  0  0  0  0  0  0  0  0  0  0
    0.5959   -0.0126   -0.5131 C   0  0  0  0  0  0  0  0  0  0  0  0
    3.2483   -0.5135    0.2334 C   0  0  0  0  0  0  0  0  0  0  0  0
    2.8645    0.7761   -0.2214 C   0  0  0  0  0  0  0  0  0  0  0  0
   -3.0924   -0.4069   -1.2538 C   0  0  0  0  0  0  0  0  0  0  0  0
   -0.7955    0.3408   -0.9177 C   0  0  0  0  0  0  0  0  0  0  0  0
   -3.9530    0.0732   -0.0908 C   0  0  0  0  0  0  0  0  0  0  0  0
   -1.4227   -1.9934   -0.3864 C   0  0  0  0  0  0  0  0  0  0  0  0
    4.5913   -0.7003    0.6058 C   0  0  0  0  0  0  0  0  0  0  0  0
    3.7983    1.8182   -0.2977 C   0  0  0  0  0  0  0  0  0  0  0  0
    5.5157    0.3463    0.5267 C   0  0  0  0  0  0  0  0  0  0  0  0
   -5.3764    0.4043   -0.5181 C   0  0  0  0  0  0  0  0  0  0  0  0
    5.1210    1.6017    0.0756 C   0  0  0  0  0  0  0  0  0  0  0  0
    2.7097   -2.8575    0.7421 C   0  0  0  0  0  0  0  0  0  0  0  0
    6.9302    0.0912    0.9361 C   0  0  0  0  0  0  0  0  0  0  0  0
    6.0952    2.7296   -0.0144 C   0  0  0  0  0  0  0  0  0  0  0  0
   -3.5371   -1.3107   -1.6874 H   0  0  0  0  0  0  0  0  0  0  0  0
   -3.0813    0.3533   -2.0439 H   0  0  0  0  0  0  0  0  0  0  0  0
    1.2400    1.9067   -0.9179 H   0  0  0  0  0  0  0  0  0  0  0  0
   -3.4876    0.9563    0.3648 H   0  0  0  0  0  0  0  0  0  0  0  0
   -3.9724   -0.6930    0.6946 H   0  0  0  0  0  0  0  0  0  0  0  0
    0.1330   -3.1233    0.3044 H   0  0  0  0  0  0  0  0  0  0  0  0
    4.9384   -1.6653    0.9654 H   0  0  0  0  0  0  0  0  0  0  0  0
    3.4803    2.7972   -0.6498 H   0  0  0  0  0  0  0  0  0  0  0  0
   -5.3676    1.1978   -1.2724 H   0  0  0  0  0  0  0  0  0  0  0  0
   -5.8787   -0.4754   -0.9322 H   0  0  0  0  0  0  0  0  0  0  0  0
    3.0695   -2.8056    1.7761 H   0  0  0  0  0  0  0  0  0  0  0  0
    3.5092   -3.2366    0.0947 H   0  0  0  0  0  0  0  0  0  0  0  0
    1.9293   -3.6215    0.7268 H   0  0  0  0  0  0  0  0  0  0  0  0
    7.0796   -0.9428    1.2659 H   0  0  0  0  0  0  0  0  0  0  0  0
    7.6114    0.2623    0.0963 H   0  0  0  0  0  0  0  0  0  0  0  0
    7.2123    0.7394    1.7722 H   0  0  0  0  0  0  0  0  0  0  0  0
    6.5088    2.9621    0.9724 H   0  0  0  0  0  0  0  0  0  0  0  0
    6.9103    2.4819   -0.7020 H   0  0  0  0  0  0  0  0  0  0  0  0
    5.6238    3.6446   -0.3901 H   0  0  0  0  0  0  0  0  0  0  0  0
   -7.5699    2.2161   -0.5589 H   0  0  0  0  0  0  0  0  0  0  0  0
  1  4  1  0  0  0  0
  1  5  2  0  0  0  0
  1  6  2  0  0  0  0
  1 22  1  0  0  0  0
  2 16  2  0  0  0  0
  3 18  2  0  0  0  0
  4 46  1  0  0  0  0
  7 11  1  0  0  0  0
  7 13  1  0  0  0  0
  7 24  1  0  0  0  0
  8 15  1  0  0  0  0
  8 16  1  0  0  0  0
  8 18  1  0  0  0  0
  9 12  1  0  0  0  0
  9 14  1  0  0  0  0
  9 29  1  0  0  0  0
 10 11  1  0  0  0  0
 10 18  1  0  0  0  0
 10 32  1  0  0  0  0
 11 12  2  0  0  0  0
 12 16  1  0  0  0  0
 13 14  2  0  0  0  0
 13 19  1  0  0  0  0
 14 20  1  0  0  0  0
 15 17  1  0  0  0  0
 15 27  1  0  0  0  0
 15 28  1  0  0  0  0
 17 22  1  0  0  0  0
 17 30  1  0  0  0  0
 17 31  1  0  0  0  0
 19 21  2  0  0  0  0
 19 33  1  0  0  0  0
 20 23  2  0  0  0  0
 20 34  1  0  0  0  0
 21 23  1  0  0  0  0
 21 25  1  0  0  0  0
 22 35  1  0  0  0  0
 22 36  1  0  0  0  0
 23 26  1  0  0  0  0
 24 37  1  0  0  0  0
 24 38  1  0  0  0  0
 24 39  1  0  0  0  0
 25 40  1  0  0  0  0
 25 41  1  0  0  0  0
 25 42  1  0  0  0  0
 26 43  1  0  0  0  0
 26 44  1  0  0  0  0
 26 45  1  0  0  0  0
M  END
> <PUBCHEM_COMPOUND_CID>
124626

> <PUBCHEM_CONFORMER_RMSD>
0.8

> <PUBCHEM_CONFORMER_DIVERSEORDER>
1
6
9
7
3
4
2
8
5

> <PUBCHEM_MMFF94_PARTIAL_CHARGES>
30
1 1.38
10 -0.54
11 0.21
12 0.11
13 0.1
14 0.1
15 0.3
16 0.62
18 0.69
19 -0.15
2 -0.57
20 -0.15
21 -0.14
22 0.11
23 -0.14
24 0.37
25 0.14
26 0.14
29 0.4
3 -0.57
32 0.37
33 0.15
34 0.15
4 -0.68
46 0.5
5 -0.65
6 -0.65
7 -0.57
8 -0.42
9 -0.6

> <PUBCHEM_EFFECTIVE_ROTOR_COUNT>
4.4

> <PUBCHEM_PHARMACOPHORE_FEATURES>
13
1 10 donor
1 2 acceptor
1 3 acceptor
1 4 acceptor
1 5 acceptor
1 6 acceptor
1 7 cation
1 9 cation
1 9 donor
4 1 4 5 6 anion
6 13 14 19 20 21 23 rings
6 7 9 11 12 13 14 rings
6 8 10 11 12 16 18 rings

> <PUBCHEM_HEAVY_ATOM_COUNT>
26

> <PUBCHEM_ATOM_DEF_STEREO_COUNT>
0

> <PUBCHEM_ATOM_UDEF_STEREO_COUNT>
0

> <PUBCHEM_BOND_DEF_STEREO_COUNT>
0

> <PUBCHEM_BOND_UDEF_STEREO_COUNT>
0

> <PUBCHEM_ISOTOPIC_ATOM_COUNT>
0

> <PUBCHEM_COMPONENT_COUNT>
1

> <PUBCHEM_CACTVS_TAUTO_COUNT>
6

> <PUBCHEM_CONFORMER_ID>
0001E6D200000001

> <PUBCHEM_MMFF94_ENERGY>
71.2169

> <PUBCHEM_FEATURE_SELFOVERLAP>
66.078

> <PUBCHEM_SHAPE_FINGERPRINT>
10 15 18113620101384023089
10411042 1 17832982746824604674
10493431 412 18409167731766260143
10906281 52 18272096019024336596
11089746 13 17846208990367132616
12236239 1 18131347509972947815
12596602 18 18335425639033728689
12670543 26 11671787057175234283
12788726 201 17560806489555591737
13140716 1 18189333653019685156
13167372 99 18272089370504977200
13540713 4 17606668124466954815
13668630 136 11891330928785956528
13782708 43 12757141390100974104
13785724 45 17693377741701121478
14251764 18 18411980295510927701
14790565 3 18411699859452481701
14849402 71 18266461082046715425
15048467 5 18202843249289809057
15188451 53 13117994522315365597
15196674 1 18189887790322804614
15238133 3 17846492638966456736
15475509 35 16226599664235651322
15840311 113 18269845212192550429
18222031 100 9007061244778422700
21033648 29 17416946470578031554
21267235 1 18187079517492837878
21421861 104 18041545954737595130
21623969 137 18040436581558412729
21637258 2 13334736860305983547
21756936 100 18131629002651838623
21781055 127 18202007617165515472
22182313 1 17677597679635735663
22224240 67 18260547823466933531
22956985 138 13119656872159492552
23559900 14 18266448979978076140
2838139 119 17346593071786227025
3009799 131 12175621771907632343
312425 54 17313393275757824745
3178227 256 18113332004163536128
335352 9 18335975433513137918
350125 39 18261667160758726004
3680242 22 18188475918450198250
397830 11 16298958674614704149
4093350 32 17489307452337031190
4340502 62 17095521781668459570
5104073 3 18116420622177426418
5385378 56 18410568454020161882
5718773 13 8934739781315570372
7226269 152 17917996083576421185

> <PUBCHEM_SHAPE_MULTIPOLES>
489.65
18.14
2.65
1.08
15.77
0.88
0.14
-11.97
7.25
-1.25
0.22
1.21
-0.16
-1.39

> <PUBCHEM_SHAPE_SELFOVERLAP>
1035.936

> <PUBCHEM_SHAPE_VOLUME>
276.3

> <PUBCHEM_COORDINATE_TYPE>
2
5
10

$$$$
