REMARK  Name = 124626
REMARK  4 active torsions:
REMARK  status: ('A' for Active; 'I' for Inactive)
REMARK    1  A    between atoms: N_4  and  C_22
REMARK    2  A    between atoms: C_22  and  C_23
REMARK    3  A    between atoms: C_23  and  C_24
REMARK    4  A    between atoms: C_24  and  S_25
REMARK                            x       y       z     vdW  Elec       q    Type
REMARK                         _______ _______ _______ _____ _____    ______ ____
ROOT
ATOM      1  O   UNL     1      -1.061   1.488  -1.275  0.00  0.00    -0.265 OA
ATOM      2  O   UNL     1      -2.249  -2.904  -0.285  0.00  0.00    -0.246 OA
ATOM      3  N   UNL     1       2.252  -1.543   0.287  0.00  0.00    -0.270 N 
ATOM      4  N   UNL     1      -1.722  -0.703  -0.851  0.00  0.00    -0.248 N 
ATOM      5  N   UNL     1       1.529   0.994  -0.593  0.00  0.00    -0.306 N 
ATOM      6  N   UNL     1      -0.101  -2.197  -0.031  0.00  0.00    -0.294 N 
ATOM      7  C   UNL     1       0.910  -1.258  -0.086  0.00  0.00    +0.135 A 
ATOM      8  C   UNL     1       0.596  -0.013  -0.513  0.00  0.00    +0.136 A 
ATOM      9  C   UNL     1       3.248  -0.513   0.233  0.00  0.00    +0.066 C 
ATOM     10  C   UNL     1       2.865   0.776  -0.221  0.00  0.00    +0.062 C 
ATOM     11  C   UNL     1      -0.795   0.341  -0.918  0.00  0.00    +0.280 A 
ATOM     12  C   UNL     1      -1.423  -1.993  -0.386  0.00  0.00    +0.331 A 
ATOM     13  C   UNL     1       4.591  -0.700   0.606  0.00  0.00    +0.012 C 
ATOM     14  C   UNL     1       3.798   1.818  -0.298  0.00  0.00    +0.011 C 
ATOM     15  C   UNL     1       5.516   0.346   0.527  0.00  0.00    -0.024 C 
ATOM     16  C   UNL     1       5.121   1.602   0.076  0.00  0.00    -0.024 C 
ATOM     17  C   UNL     1       2.710  -2.857   0.742  0.00  0.00    +0.119 C 
ATOM     18  C   UNL     1       6.930   0.091   0.936  0.00  0.00    +0.031 C 
ATOM     19  C   UNL     1       6.095   2.730  -0.014  0.00  0.00    +0.031 C 
ATOM     20  H   UNL     1       1.256   1.882  -0.917  0.00  0.00    +0.152 HD
ATOM     21  H   UNL     1       0.141  -3.095   0.292  0.00  0.00    +0.172 HD
ENDROOT
BRANCH   4  22
ATOM     22  C   UNL     1      -3.092  -0.407  -1.254  0.00  0.00    +0.115 C 
BRANCH  22  23
ATOM     23  C   UNL     1      -3.953   0.073  -0.091  0.00  0.00    +0.051 C 
BRANCH  23  24
ATOM     24  C   UNL     1      -5.376   0.404  -0.518  0.00  0.00    +0.160 C 
BRANCH  24  25
ATOM     25  S   UNL     1      -6.337   0.982   0.846  0.00  0.00    +0.023 S 
ATOM     26  O   UNL     1      -7.665   1.411   0.003  0.00  0.00    -0.069 OA
ATOM     27  O   UNL     1      -5.718   2.180   1.383  0.00  0.00    -0.069 OA
ATOM     28  O   UNL     1      -6.668  -0.147   1.695  0.00  0.00    -0.069 OA
ENDBRANCH  24  25
ENDBRANCH  23  24
ENDBRANCH  22  23
ENDBRANCH   4  22
TORSDOF 4
