REMARK  Name = 124668
REMARK  6 active torsions:
REMARK  status: ('A' for Active; 'I' for Inactive)
REMARK    1  A    between atoms: C_4  and  C_12
REMARK    2  A    between atoms: C_7  and  C_11
REMARK    3  A    between atoms: C_8  and  S_16
REMARK    4  A    between atoms: C_12  and  O_14
REMARK    5  A    between atoms: S_16  and  C_17
REMARK    6  A    between atoms: C_17  and  C_19
REMARK                            x       y       z     vdW  Elec       q    Type
REMARK                         _______ _______ _______ _____ _____    ______ ____
ROOT
ATOM      1  O   UNL     1      -3.234   1.325  -1.543  0.00  0.00    -0.274 OA
ATOM      2  N   UNL     1      -2.453   0.652   0.579  0.00  0.00    -0.254 N 
ATOM      3  C   UNL     1      -2.683  -0.746   0.998  0.00  0.00    +0.096 C 
ATOM      4  C   UNL     1      -3.457  -0.919  -0.337  0.00  0.00    +0.123 C 
ATOM      5  C   UNL     1      -1.278  -1.296   1.257  0.00  0.00    +0.055 C 
ATOM      6  C   UNL     1      -3.107   0.561  -0.613  0.00  0.00    +0.233 C 
ATOM      7  C   UNL     1      -1.136   0.987   0.735  0.00  0.00    +0.136 C 
ATOM      8  C   UNL     1      -0.415  -0.065   1.142  0.00  0.00    +0.025 C 
ENDROOT
BRANCH   7  11
ATOM      9  O   UNL     1      -0.280   2.533  -0.809  0.00  0.00    -0.239 OA
ATOM     10  O   UNL     1      -0.570   3.176   1.367  0.00  0.00    -0.239 OA
ATOM     11  C   UNL     1      -0.610   2.369   0.397  0.00  0.00    +0.401 C 
ENDBRANCH   7  11
BRANCH   4  12
ATOM     12  C   UNL     1      -4.936  -1.211  -0.257  0.00  0.00    +0.121 C 
ATOM     13  C   UNL     1      -5.635  -0.890  -1.573  0.00  0.00    +0.032 C 
BRANCH  12  14
ATOM     14  O   UNL     1      -5.132  -2.592   0.049  0.00  0.00    -0.384 OA
ATOM     15  H   UNL     1      -4.689  -2.804   0.886  0.00  0.00    +0.210 HD
ENDBRANCH  12  14
ENDBRANCH   4  12
BRANCH   8  16
ATOM     16  S   UNL     1       1.274  -0.113   1.436  0.00  0.00    -0.114 S 
BRANCH  16  17
ATOM     17  C   UNL     1       1.871  -0.585  -0.205  0.00  0.00    +0.086 C 
BRANCH  17  19
ATOM     18  N   UNL     1       4.100   0.362  -0.563  0.00  0.00    -0.302 N 
ATOM     19  C   UNL     1       3.369  -0.708  -0.250  0.00  0.00    +0.106 C 
ATOM     20  C   UNL     1       3.966  -1.921   0.031  0.00  0.00    -0.006 C 
ATOM     21  C   UNL     1       5.438   0.313  -0.619  0.00  0.00    +0.062 C 
ATOM     22  C   UNL     1       3.452   1.641  -0.857  0.00  0.00    +0.112 C 
ATOM     23  C   UNL     1       5.355  -2.001  -0.019  0.00  0.00    -0.002 C 
ATOM     24  C   UNL     1       6.103  -0.874  -0.347  0.00  0.00    +0.016 C 
ENDBRANCH  17  19
ENDBRANCH  16  17
ENDBRANCH   8  16
TORSDOF 6
