REMARK  Name = 124643
REMARK  7 active torsions:
REMARK  status: ('A' for Active; 'I' for Inactive)
REMARK    1  A    between atoms: C_7  and  O_21
REMARK    2  A    between atoms: C_8  and  C_30
REMARK    3  A    between atoms: C_9  and  O_23
REMARK    4  A    between atoms: C_10  and  C_33
REMARK    5  A    between atoms: C_11  and  O_25
REMARK    6  A    between atoms: C_17  and  O_27
REMARK    7  A    between atoms: C_30  and  O_31
REMARK                            x       y       z     vdW  Elec       q    Type
REMARK                         _______ _______ _______ _____ _____    ______ ____
ROOT
ATOM      1  O   UNL     1       1.534   2.774  -0.183  0.00  0.00    -0.286 OA
ATOM      2  O   UNL     1       2.936  -2.372   0.108  0.00  0.00    -0.286 OA
ATOM      3  C   UNL     1      -1.556  -0.116   0.005  0.00  0.00    +0.046 A 
ATOM      4  C   UNL     1      -1.177  -1.476   0.082  0.00  0.00    +0.071 A 
ATOM      5  C   UNL     1       0.796   0.525  -0.046  0.00  0.00    +0.079 A 
ATOM      6  C   UNL     1       1.169  -0.815   0.030  0.00  0.00    +0.079 A 
ATOM      7  C   UNL     1      -0.560   0.874  -0.059  0.00  0.00    +0.137 A 
ATOM      8  C   UNL     1      -2.920   0.218  -0.005  0.00  0.00    +0.075 C 
ATOM      9  C   UNL     1       0.187  -1.812   0.094  0.00  0.00    +0.140 A 
ATOM     10  C   UNL     1      -3.897  -0.776   0.059  0.00  0.00    -0.013 C 
ATOM     11  C   UNL     1      -2.174  -2.463   0.147  0.00  0.00    +0.136 C 
ATOM     12  C   UNL     1       1.823   1.586  -0.114  0.00  0.00    +0.199 C 
ATOM     13  C   UNL     1       2.597  -1.197   0.045  0.00  0.00    +0.202 C 
ATOM     14  C   UNL     1       3.623  -0.137  -0.019  0.00  0.00    +0.076 C 
ATOM     15  C   UNL     1       3.250   1.206  -0.096  0.00  0.00    +0.045 C 
ATOM     16  C   UNL     1      -3.525  -2.114   0.135  0.00  0.00    +0.033 C 
ATOM     17  C   UNL     1       4.979  -0.485  -0.002  0.00  0.00    +0.137 C 
ATOM     18  C   UNL     1       4.232   2.202  -0.156  0.00  0.00    +0.003 C 
ATOM     19  C   UNL     1       5.955   0.510  -0.062  0.00  0.00    +0.037 C 
ATOM     20  C   UNL     1       5.582   1.851  -0.139  0.00  0.00    +0.003 C 
ENDROOT
BRANCH   7  21
ATOM     21  O   UNL     1      -0.902   2.196  -0.133  0.00  0.00    -0.505 OA
ATOM     22  H   UNL     1      -1.805   2.446  -0.142  0.00  0.00    +0.292 HD
ENDBRANCH   7  21
BRANCH   9  23
ATOM     23  O   UNL     1       0.559  -3.126   0.170  0.00  0.00    -0.505 OA
ATOM     24  H   UNL     1      -0.095  -3.796   0.212  0.00  0.00    +0.292 HD
ENDBRANCH   9  23
BRANCH  11  25
ATOM     25  O   UNL     1      -1.899  -3.799   0.223  0.00  0.00    -0.505 OA
ATOM     26  H   UNL     1      -1.010  -4.094   0.234  0.00  0.00    +0.292 HD
ENDBRANCH  11  25
BRANCH  17  27
ATOM     27  O   UNL     1       5.417  -1.774   0.070  0.00  0.00    -0.505 OA
ATOM     28  H   UNL     1       4.798  -2.477   0.112  0.00  0.00    +0.292 HD
ENDBRANCH  17  27
BRANCH   8  30
ATOM     29  O   UNL     1      -3.665   2.179  -1.138  0.00  0.00    -0.245 OA
ATOM     30  C   UNL     1      -3.422   1.591  -0.083  0.00  0.00    +0.341 C 
BRANCH  30  31
ATOM     31  O   UNL     1      -3.584   2.128   1.162  0.00  0.00    -0.441 OA
ATOM     32  C   UNL     1      -4.072   3.472   1.218  0.00  0.00    +0.256 C 
ENDBRANCH  30  31
ENDBRANCH   8  30
BRANCH  10  33
ATOM     33  C   UNL     1      -5.357  -0.448   0.050  0.00  0.00    +0.027 C 
ATOM     34  C   UNL     1      -5.928  -0.404  -1.364  0.00  0.00    +0.005 C 
ENDBRANCH  10  33
TORSDOF 7
