124746
  -OEChem-03292013323D

 45 48  0     0  0  0  0  0  0999 V2000
   -1.0110    1.4990    1.8990 O   0  0  0  0  0  0  0  0  0  0  0  0
    1.5142   -1.4319    1.8550 O   0  0  0  0  0  0  0  0  0  0  0  0
   -3.3590    0.9678    2.0115 O   0  0  0  0  0  0  0  0  0  0  0  0
    3.8643   -0.8997    1.8125 O   0  0  0  0  0  0  0  0  0  0  0  0
   -4.5813   -1.0754    0.3761 O   0  0  0  0  0  0  0  0  0  0  0  0
    4.9834    1.1053    0.0601 O   0  0  0  0  0  0  0  0  0  0  0  0
    0.3014   -3.0259   -0.9911 O   0  0  0  0  0  0  0  0  0  0  0  0
    0.0251    3.0278   -1.0509 O   0  0  0  0  0  0  0  0  0  0  0  0
   -0.0186   -1.5705   -2.7457 O   0  0  0  0  0  0  0  0  0  0  0  0
    0.2387    1.5332   -2.7884 O   0  0  0  0  0  0  0  0  0  0  0  0
   -0.5045   -0.1555    0.1771 C   0  0  0  0  0  0  0  0  0  0  0  0
    0.9026    0.1839    0.1304 C   0  0  0  0  0  0  0  0  0  0  0  0
   -1.3580    0.5052    1.0365 C   0  0  0  0  0  0  0  0  0  0  0  0
    1.8074   -0.4579    0.9509 C   0  0  0  0  0  0  0  0  0  0  0  0
   -1.0473   -1.1538   -0.6355 C   0  0  0  0  0  0  0  0  0  0  0  0
    1.3944    1.1633   -0.7360 C   0  0  0  0  0  0  0  0  0  0  0  0
   -2.6987    0.2018    1.1008 C   0  0  0  0  0  0  0  0  0  0  0  0
    3.1493   -0.1540    0.9266 C   0  0  0  0  0  0  0  0  0  0  0  0
   -3.2598   -0.7792    0.3094 C   0  0  0  0  0  0  0  0  0  0  0  0
   -2.4172   -1.4638   -0.5697 C   0  0  0  0  0  0  0  0  0  0  0  0
    2.7654    1.4738   -0.7607 C   0  0  0  0  0  0  0  0  0  0  0  0
    3.6605    0.8086    0.0806 C   0  0  0  0  0  0  0  0  0  0  0  0
   -2.2838    1.7876    2.5130 C   0  0  0  0  0  0  0  0  0  0  0  0
    2.8222   -1.7074    2.3968 C   0  0  0  0  0  0  0  0  0  0  0  0
   -0.2210   -1.9055   -1.5737 C   0  0  0  0  0  0  0  0  0  0  0  0
    0.5119    1.8942   -1.6388 C   0  0  0  0  0  0  0  0  0  0  0  0
   -5.4582   -0.3550   -0.4925 C   0  0  0  0  0  0  0  0  0  0  0  0
    1.1349   -3.8493   -1.8137 C   0  0  0  0  0  0  0  0  0  0  0  0
   -0.8574    3.8332   -1.8396 C   0  0  0  0  0  0  0  0  0  0  0  0
   -2.8291   -2.2438   -1.2070 H   0  0  0  0  0  0  0  0  0  0  0  0
    3.1378    2.2384   -1.4394 H   0  0  0  0  0  0  0  0  0  0  0  0
   -2.5304    2.8398    2.3304 H   0  0  0  0  0  0  0  0  0  0  0  0
   -2.1959    1.6288    3.5939 H   0  0  0  0  0  0  0  0  0  0  0  0
    3.0579   -2.7636    2.2233 H   0  0  0  0  0  0  0  0  0  0  0  0
    2.8001   -1.5242    3.4772 H   0  0  0  0  0  0  0  0  0  0  0  0
    5.4340    0.5399    0.7114 H   0  0  0  0  0  0  0  0  0  0  0  0
   -5.4131    0.7175   -0.2785 H   0  0  0  0  0  0  0  0  0  0  0  0
   -6.4786   -0.7059   -0.3162 H   0  0  0  0  0  0  0  0  0  0  0  0
   -5.1976   -0.5420   -1.5391 H   0  0  0  0  0  0  0  0  0  0  0  0
    0.5674   -4.2239   -2.6707 H   0  0  0  0  0  0  0  0  0  0  0  0
    1.4712   -4.6994   -1.2144 H   0  0  0  0  0  0  0  0  0  0  0  0
    2.0107   -3.2843   -2.1465 H   0  0  0  0  0  0  0  0  0  0  0  0
   -0.3436    4.1873   -2.7382 H   0  0  0  0  0  0  0  0  0  0  0  0
   -1.1565    4.6972   -1.2404 H   0  0  0  0  0  0  0  0  0  0  0  0
   -1.7518    3.2616   -2.1050 H   0  0  0  0  0  0  0  0  0  0  0  0
  1 13  1  0  0  0  0
  1 23  1  0  0  0  0
  2 14  1  0  0  0  0
  2 24  1  0  0  0  0
  3 17  1  0  0  0  0
  3 23  1  0  0  0  0
  4 18  1  0  0  0  0
  4 24  1  0  0  0  0
  5 19  1  0  0  0  0
  5 27  1  0  0  0  0
  6 22  1  0  0  0  0
  6 36  1  0  0  0  0
  7 25  1  0  0  0  0
  7 28  1  0  0  0  0
  8 26  1  0  0  0  0
  8 29  1  0  0  0  0
  9 25  2  0  0  0  0
 10 26  2  0  0  0  0
 11 12  1  0  0  0  0
 11 13  2  0  0  0  0
 11 15  1  0  0  0  0
 12 14  2  0  0  0  0
 12 16  1  0  0  0  0
 13 17  1  0  0  0  0
 14 18  1  0  0  0  0
 15 20  2  0  0  0  0
 15 25  1  0  0  0  0
 16 21  2  0  0  0  0
 16 26  1  0  0  0  0
 17 19  2  0  0  0  0
 18 22  2  0  0  0  0
 19 20  1  0  0  0  0
 20 30  1  0  0  0  0
 21 22  1  0  0  0  0
 21 31  1  0  0  0  0
 23 32  1  0  0  0  0
 23 33  1  0  0  0  0
 24 34  1  0  0  0  0
 24 35  1  0  0  0  0
 27 37  1  0  0  0  0
 27 38  1  0  0  0  0
 27 39  1  0  0  0  0
 28 40  1  0  0  0  0
 28 41  1  0  0  0  0
 28 42  1  0  0  0  0
 29 43  1  0  0  0  0
 29 44  1  0  0  0  0
 29 45  1  0  0  0  0
M  END
> <PUBCHEM_COMPOUND_CID>
124746

> <PUBCHEM_CONFORMER_RMSD>
0.8

> <PUBCHEM_CONFORMER_DIVERSEORDER>
1
5
10
11
4
6
7
12
3
9
2
8

> <PUBCHEM_MMFF94_PARTIAL_CHARGES>
30
1 -0.36
10 -0.57
13 0.08
14 0.08
15 0.09
16 0.09
17 0.08
18 0.08
19 0.08
2 -0.36
20 -0.15
21 -0.15
22 0.08
23 0.56
24 0.56
25 0.63
26 0.63
27 0.28
28 0.28
29 0.28
3 -0.36
30 0.15
31 0.15
36 0.45
4 -0.36
5 -0.36
6 -0.53
7 -0.43
8 -0.43
9 -0.57

> <PUBCHEM_EFFECTIVE_ROTOR_COUNT>
7.2

> <PUBCHEM_PHARMACOPHORE_FEATURES>
12
1 1 acceptor
1 10 acceptor
1 2 acceptor
1 3 acceptor
1 4 acceptor
1 5 acceptor
1 6 donor
1 9 acceptor
5 1 3 13 17 23 rings
5 2 4 14 18 24 rings
6 11 13 15 17 19 20 rings
6 12 14 16 18 21 22 rings

> <PUBCHEM_HEAVY_ATOM_COUNT>
29

> <PUBCHEM_ATOM_DEF_STEREO_COUNT>
0

> <PUBCHEM_ATOM_UDEF_STEREO_COUNT>
0

> <PUBCHEM_BOND_DEF_STEREO_COUNT>
0

> <PUBCHEM_BOND_UDEF_STEREO_COUNT>
0

> <PUBCHEM_ISOTOPIC_ATOM_COUNT>
0

> <PUBCHEM_COMPONENT_COUNT>
1

> <PUBCHEM_CACTVS_TAUTO_COUNT>
4

> <PUBCHEM_CONFORMER_ID>
0001E74A00000001

> <PUBCHEM_MMFF94_ENERGY>
105.0613

> <PUBCHEM_FEATURE_SELFOVERLAP>
61.215

> <PUBCHEM_SHAPE_FINGERPRINT>
11578080 2 17765169279778561252
11640471 11 18049740794670876653
12035758 1 17185596819400215560
12236239 1 18410574032533274250
12422481 6 18192708939301356737
12716301 132 17033616841746500049
12741549 16 16154254147995196284
13134695 92 18040711524011712013
13140716 1 17534879920269995776
13583140 156 17677903520711008659
13965767 371 18194987161205532969
14863182 85 17846225479395779767
15238133 3 16517962514908650873
16752209 62 17917711322643429659
16945 1 18340207371303991866
17349148 13 18342461456747342131
17980427 23 18413114965667661993
19319366 153 17110720618599257835
19765921 60 17183916198840215221
20600515 1 17273428376892049961
20691752 17 18192454994669406831
20715895 44 18193551169951658073
21330990 113 18055659255926378630
229495 10 17605531422670039175
23419403 2 17336182663507512998
23559900 14 17273995565587840704
3383291 50 15521758564068356003
35225 105 17703207581969059428
394222 165 17974297826216955945
484985 159 16450346861230363186
5265222 85 17273986916710227444
70251023 43 17605541168093252514
77492 1 18410576231556510368
81228 2 13899044722982280200

> <PUBCHEM_SHAPE_MULTIPOLES>
538.11
6.82
3.43
2.61
2.54
0.03
-0.01
-0.4
-2.92
-0.46
2.62
-0.17
0.16
-1.24

> <PUBCHEM_SHAPE_SELFOVERLAP>
1203.047

> <PUBCHEM_SHAPE_VOLUME>
288.3

> <PUBCHEM_COORDINATE_TYPE>
2
5
10

$$$$
