REMARK  Name = 124701
REMARK  12 active torsions:
REMARK  status: ('A' for Active; 'I' for Inactive)
REMARK    1  A    between atoms: C_1  and  C_2
REMARK    2  A    between atoms: C_1  and  C_13
REMARK    3  A    between atoms: C_2  and  C_3
REMARK    4  A    between atoms: C_3  and  C_4
REMARK    5  A    between atoms: C_4  and  N_5
REMARK    6  A    between atoms: C_4  and  C_10
REMARK    7  A    between atoms: C_10  and  O_11
REMARK    8  A    between atoms: C_13  and  N_14
REMARK    9  A    between atoms: N_14  and  C_19
REMARK   10  A    between atoms: N_18  and  C_21
REMARK   11  A    between atoms: C_21  and  C_22
REMARK   12  A    between atoms: C_22  and  O_23
REMARK                            x       y       z     vdW  Elec       q    Type
REMARK                         _______ _______ _______ _____ _____    ______ ____
ROOT
ATOM      1  C   UNK     1       0.667  -2.057   0.076  0.00  0.00    +0.020 C 
ENDROOT
BRANCH   1   2
ATOM      2  C   UNK     1       1.686  -1.023  -0.421  0.00  0.00    +0.000 C 
BRANCH   2   3
ATOM      3  C   UNK     1       3.022  -1.046   0.328  0.00  0.00    -0.011 C 
BRANCH   3   4
ATOM      4  C   UNK     1       4.030  -0.030  -0.227  0.00  0.00    +0.036 C 
BRANCH   4   5
ATOM      5  N   UNK     1       5.277  -0.121   0.536  0.00  0.00    +0.389 N 
ATOM      6  H   UNK     1       5.651  -1.067   0.466  0.00  0.00    -0.088 HD
ATOM      7  H   UNK     1       5.094   0.101   1.515  0.00  0.00    -0.088 HD
ATOM      8  H   UNK     1       5.955   0.541   0.159  0.00  0.00    -0.088 HD
ENDBRANCH   4   5
BRANCH   4  10
ATOM      9  O   UNK     1       3.655   2.096   0.905  0.00  0.00    -0.253 OA
ATOM     10  C   UNK     1       3.518   1.393  -0.089  0.00  0.00    +0.293 C 
BRANCH  10  11
ATOM     11  O   UNK     1       2.855   1.812  -1.198  0.00  0.00    -0.482 OA
ATOM     12  H   UNK     1       2.772   1.242  -1.937  0.00  0.00    +0.295 HD
ENDBRANCH  10  11
ENDBRANCH   4  10
ENDBRANCH   3   4
ENDBRANCH   2   3
ENDBRANCH   1   2
BRANCH   1  13
ATOM     13  C   UNK     1      -0.620  -2.135  -0.740  0.00  0.00    +0.073 C 
BRANCH  13  14
ATOM     14  N   UNK     1      -1.366  -0.910  -0.731  0.00  0.00    -0.355 NA
ATOM     15  H   UNK     1      -1.179  -0.245  -1.431  0.00  0.00    +0.128 HD
ATOM     16  H   UNK     1      -0.961  -0.069  -0.417  0.00  0.00    +0.128 HD
BRANCH  14  19
ATOM     17  O   UNK     1      -2.666  -1.361   1.142  0.00  0.00    -0.254 OA
ATOM     18  N   UNK     1      -2.912   0.642  -0.004  0.00  0.00    -0.288 N 
ATOM     19  C   UNK     1      -2.345  -0.610   0.221  0.00  0.00    +0.285 C 
ATOM     20  H   UNK     1      -2.591   1.174  -0.767  0.00  0.00    +0.151 HD
BRANCH  18  21
ATOM     21  C   UNK     1      -3.949   1.194   0.836  0.00  0.00    +0.123 C 
BRANCH  21  22
ATOM     22  C   UNK     1      -5.331   0.815   0.336  0.00  0.00    +0.158 C 
BRANCH  22  23
ATOM     23  O   UNK     1      -5.521   1.343  -0.971  0.00  0.00    -0.380 OA
ATOM     24  H   UNK     1      -6.405   1.101  -1.291  0.00  0.00    +0.211 HD
ENDBRANCH  22  23
ENDBRANCH  21  22
ENDBRANCH  18  21
ENDBRANCH  14  19
ENDBRANCH  13  14
ENDBRANCH   1  13
TORSDOF 12
