REMARK  Name = 124769
REMARK  13 active torsions:
REMARK  status: ('A' for Active; 'I' for Inactive)
REMARK    1  A    between atoms: N_1  and  CA_20
REMARK    2  A    between atoms: NE_2  and  CZ_4
REMARK    3  A    between atoms: NE_2  and  CD_8
REMARK    4  A    between atoms: CD_8  and  CG_9
REMARK    5  A    between atoms: CG_9  and  CB_10
REMARK    6  A    between atoms: CB_10  and  CA_11
REMARK    7  A    between atoms: CA_11  and  N_12
REMARK    8  A    between atoms: CA_11  and  C_17
REMARK    9  A    between atoms: C_17  and  O_18
REMARK   10  A    between atoms: CA_20  and  C_22
REMARK   11  A    between atoms: CA_20  and  C_25
REMARK   12  A    between atoms: C_22  and  O_23
REMARK   13  A    between atoms: C_25  and  N_28
REMARK                            x       y       z     vdW  Elec       q    Type
REMARK                         _______ _______ _______ _____ _____    ______ ____
ROOT
ATOM      1  N   UNL     1      -2.394  -1.045   0.227  0.00  0.00    -0.336 N 
ATOM      2  NH2 UNL     1      -1.543  -3.155   0.102  0.00  0.00    -0.370 N 
ATOM      3  CZ  UNL     1      -1.241  -1.812   0.193  0.00  0.00    +0.192 C 
ATOM      4  H   UNL     1      -3.258  -1.517   0.185  0.00  0.00    +0.164 HD
ATOM      5 HH21 UNL     1      -2.483  -3.448   0.071  0.00  0.00    +0.159 HD
ATOM      6 HH22 UNL     1      -0.819  -3.821   0.069  0.00  0.00    +0.159 HD
ENDROOT
BRANCH   3   7
ATOM      7  NE  UNL     1      -0.060  -1.277   0.243  0.00  0.00    -0.240 NA
BRANCH   7   8
ATOM      8  CD  UNL     1       1.085  -2.188   0.199  0.00  0.00    +0.129 C 
BRANCH   8   9
ATOM      9  CG  UNL     1       2.383  -1.397   0.324  0.00  0.00    +0.025 C 
BRANCH   9  10
ATOM     10  CB  UNL     1       2.573  -0.398  -0.828  0.00  0.00    -0.009 C 
BRANCH  10  11
ATOM     11  CA  UNL     1       3.891   0.381  -0.709  0.00  0.00    +0.036 C 
BRANCH  11  12
ATOM     12  N   UNL     1       5.016  -0.551  -0.659  0.00  0.00    +0.389 N 
ATOM     13  H1  UNL     1       5.016  -1.129  -1.499  0.00  0.00    -0.088 HD
ATOM     14  H2  UNL     1       4.927  -1.147   0.164  0.00  0.00    -0.088 HD
ATOM     15  H3  UNL     1       5.889  -0.027  -0.606  0.00  0.00    -0.088 HD
ENDBRANCH  11  12
BRANCH  11  17
ATOM     16  OXT UNL     1       4.805   1.048   1.450  0.00  0.00    -0.253 OA
ATOM     17  C   UNL     1       3.966   1.195   0.570  0.00  0.00    +0.293 C 
BRANCH  17  18
ATOM     18  O   UNL     1       2.997   2.147   0.628  0.00  0.00    -0.482 OA
ATOM     19  H   UNL     1       2.375   2.224  -0.068  0.00  0.00    +0.295 HD
ENDBRANCH  17  18
ENDBRANCH  11  17
ENDBRANCH  10  11
ENDBRANCH   9  10
ENDBRANCH   8   9
ENDBRANCH   7   8
ENDBRANCH   3   7
BRANCH   1  20
ATOM     20  CA  UNL     1      -2.421   0.395   0.319  0.00  0.00    +0.209 C 
BRANCH  20  22
ATOM     21  OXT UNL     1      -3.570  -0.035   2.424  0.00  0.00    -0.248 OA
ATOM     22  C   UNL     1      -3.104   0.764   1.622  0.00  0.00    +0.336 C 
BRANCH  22  23
ATOM     23  O   UNL     1      -3.123   2.108   1.828  0.00  0.00    -0.479 OA
ATOM     24  H   UNL     1      -2.755   2.685   1.188  0.00  0.00    +0.295 HD
ENDBRANCH  22  23
ENDBRANCH  20  22
BRANCH  20  25
ATOM     25  C   UNL     1      -3.159   0.985  -0.875  0.00  0.00    +0.227 C 
BRANCH  25  28
ATOM     26  O   UNL     1      -2.304  -0.053  -2.776  0.00  0.00    -0.131 OA
ATOM     27  O   UNL     1      -1.534   1.939  -2.237  0.00  0.00    -0.131 OA
ATOM     28  N   UNL     1      -2.262   0.951  -2.046  0.00  0.00    +0.037 N 
ENDBRANCH  25  28
ENDBRANCH  20  25
ENDBRANCH   1  20
TORSDOF 13
