REMARK  Name = 124715
REMARK  4 active torsions:
REMARK  status: ('A' for Active; 'I' for Inactive)
REMARK    1  A    between atoms: N_1  and  C1*_11
REMARK    2  A    between atoms: C3*_13  and  O3*_15
REMARK    3  A    between atoms: C4*_14  and  C5*_17
REMARK    4  A    between atoms: C5*_17  and  O5*_18
REMARK                            x       y       z     vdW  Elec       q    Type
REMARK                         _______ _______ _______ _____ _____    ______ ____
ROOT
ATOM      1  N   UNL     1      -0.123  -0.117   0.164  0.00  0.00    -0.252 N 
ATOM      2  N   UNL     1      -1.634   1.676  -0.401  0.00  0.00    -0.233 NA
ATOM      3  N   UNL     1      -3.979   1.046  -0.215  0.00  0.00    -0.234 NA
ATOM      4  C   UNL     1      -1.377   0.417  -0.008  0.00  0.00    +0.122 C 
ATOM      5  C   UNL     1      -0.245  -1.425   0.571  0.00  0.00    +0.064 C 
ATOM      6  C   UNL     1      -2.313  -0.566   0.294  0.00  0.00    +0.131 C 
ATOM      7  C   UNL     1      -1.587  -1.729   0.660  0.00  0.00    +0.004 C 
ATOM      8  C   UNL     1      -3.655  -0.208   0.177  0.00  0.00    +0.110 C 
ATOM      9  C   UNL     1      -2.962   1.899  -0.476  0.00  0.00    +0.252 C 
ATOM     10  N   UNL     1      -4.674  -1.135   0.460  0.00  0.00    -0.346 N 
ATOM     11  H   UNL     1      -5.618  -0.871   0.374  0.00  0.00    +0.143 HD
ATOM     12  H   UNL     1      -4.443  -2.049   0.745  0.00  0.00    +0.143 HD
ENDROOT
BRANCH   1  14
ATOM     13  O4* UNL     1       2.132   0.101   0.882  0.00  0.00    -0.335 OA
ATOM     14  C1* UNL     1       1.146   0.583  -0.047  0.00  0.00    +0.199 C 
ATOM     15  C2* UNL     1       1.710   0.424  -1.456  0.00  0.00    +0.083 C 
ATOM     16  C3* UNL     1       2.853  -0.551  -1.275  0.00  0.00    +0.144 C 
ATOM     17  C4* UNL     1       3.306  -0.306   0.155  0.00  0.00    +0.173 C 
BRANCH  16  18
ATOM     18  O3* UNL     1       2.366  -1.885  -1.384  0.00  0.00    -0.382 OA
ATOM     19  H3* UNL     1       2.075  -2.050  -2.294  0.00  0.00    +0.210 HD
ENDBRANCH  16  18
BRANCH  17  20
ATOM     20  C5* UNL     1       4.342   0.806   0.267  0.00  0.00    +0.169 C 
BRANCH  20  21
ATOM     21  O5* UNL     1       4.694   0.969   1.631  0.00  0.00    -0.379 OA
ATOM     22  H5* UNL     1       5.354   1.676   1.713  0.00  0.00    +0.211 HD
ENDBRANCH  20  21
ENDBRANCH  17  20
ENDBRANCH   1  14
TORSDOF 4
