124710
  -OEChem-03292013323D

 59 60  0     1  0  0  0  0  0999 V2000
   -0.1107    1.9986   -1.6720 O   0  0  0  0  0  0  0  0  0  0  0  0
    0.1576    0.5286    2.0310 O   0  0  0  0  0  0  0  0  0  0  0  0
   -5.2851    2.0174   -0.7777 O   0  0  0  0  0  0  0  0  0  0  0  0
    1.4344    1.9640    0.7405 N   0  0  0  0  0  0  0  0  0  0  0  0
   -1.8288    2.2068   -0.1152 N   0  0  0  0  0  0  0  0  0  0  0  0
    2.6714    0.1861    3.3212 N   0  0  0  0  0  0  0  0  0  0  0  0
   -2.2360   -2.4472    0.3552 N   0  0  0  0  0  0  0  0  0  0  0  0
   -3.1800   -4.6233    0.7342 N   0  0  0  0  0  0  0  0  0  0  0  0
   -1.0178   -4.3953    0.0502 N   0  0  0  0  0  0  0  0  0  0  0  0
    0.3776    2.9302    0.4709 C   0  0  1  0  0  0  0  0  0  0  0  0
    1.1036    4.1592   -0.0639 C   0  0  0  0  0  0  0  0  0  0  0  0
    2.3478    3.5751   -0.7284 C   0  0  0  0  0  0  0  0  0  0  0  0
    2.7062    2.4017    0.1707 C   0  0  0  0  0  0  0  0  0  0  0  0
   -0.5236    2.3228   -0.5616 C   0  0  0  0  0  0  0  0  0  0  0  0
    1.2479    0.8680    1.5684 C   0  0  0  0  0  0  0  0  0  0  0  0
    2.4892    0.0707    1.8802 C   0  0  2  0  0  0  0  0  0  0  0  0
   -2.8978    1.6730   -0.9279 C   0  0  1  0  0  0  0  0  0  0  0  0
    2.3266   -1.3903    1.4609 C   0  0  0  0  0  0  0  0  0  0  0  0
   -3.0659    0.1586   -0.7867 C   0  0  0  0  0  0  0  0  0  0  0  0
   -3.4035   -0.3141    0.6355 C   0  0  0  0  0  0  0  0  0  0  0  0
    2.5493   -1.6007   -0.0186 C   0  0  0  0  0  0  0  0  0  0  0  0
   -4.1510    2.4525   -0.5949 C   0  0  0  0  0  0  0  0  0  0  0  0
   -3.5111   -1.8335    0.7295 C   0  0  0  0  0  0  0  0  0  0  0  0
    1.4767   -1.5079   -0.9055 C   0  0  0  0  0  0  0  0  0  0  0  0
    3.8277   -1.8872   -0.4979 C   0  0  0  0  0  0  0  0  0  0  0  0
    1.6821   -1.7020   -2.2714 C   0  0  0  0  0  0  0  0  0  0  0  0
    4.0331   -2.0810   -1.8639 C   0  0  0  0  0  0  0  0  0  0  0  0
    2.9602   -1.9884   -2.7506 C   0  0  0  0  0  0  0  0  0  0  0  0
   -2.1798   -3.7423    0.3878 C   0  0  0  0  0  0  0  0  0  0  0  0
   -0.1605    3.1557    1.3976 H   0  0  0  0  0  0  0  0  0  0  0  0
    0.5050    4.7577   -0.7572 H   0  0  0  0  0  0  0  0  0  0  0  0
    1.4087    4.8029    0.7703 H   0  0  0  0  0  0  0  0  0  0  0  0
    3.1623    4.3010   -0.8079 H   0  0  0  0  0  0  0  0  0  0  0  0
    2.1158    3.2256   -1.7404 H   0  0  0  0  0  0  0  0  0  0  0  0
    3.1834    1.5941   -0.3913 H   0  0  0  0  0  0  0  0  0  0  0  0
    3.3591    2.7181    0.9914 H   0  0  0  0  0  0  0  0  0  0  0  0
    3.3943    0.4695    1.4216 H   0  0  0  0  0  0  0  0  0  0  0  0
   -2.0544    2.4834    0.8361 H   0  0  0  0  0  0  0  0  0  0  0  0
   -2.6632    1.9060   -1.9738 H   0  0  0  0  0  0  0  0  0  0  0  0
    3.0470   -2.0207    2.0010 H   0  0  0  0  0  0  0  0  0  0  0  0
    1.3392   -1.7839    1.7383 H   0  0  0  0  0  0  0  0  0  0  0  0
   -3.8550   -0.1834   -1.4684 H   0  0  0  0  0  0  0  0  0  0  0  0
   -2.1361   -0.3197   -1.1186 H   0  0  0  0  0  0  0  0  0  0  0  0
    3.4827   -0.3583    3.6116 H   0  0  0  0  0  0  0  0  0  0  0  0
    2.8784    1.1539    3.5664 H   0  0  0  0  0  0  0  0  0  0  0  0
   -4.3510    0.1262    0.9651 H   0  0  0  0  0  0  0  0  0  0  0  0
   -2.6290    0.0302    1.3309 H   0  0  0  0  0  0  0  0  0  0  0  0
   -4.0063    3.4996   -0.2756 H   0  0  0  0  0  0  0  0  0  0  0  0
   -4.3139   -2.1776    0.0662 H   0  0  0  0  0  0  0  0  0  0  0  0
   -3.7727   -2.0994    1.7608 H   0  0  0  0  0  0  0  0  0  0  0  0
    0.4763   -1.2831   -0.5459 H   0  0  0  0  0  0  0  0  0  0  0  0
    4.6721   -1.9592    0.1825 H   0  0  0  0  0  0  0  0  0  0  0  0
    0.8466   -1.6287   -2.9615 H   0  0  0  0  0  0  0  0  0  0  0  0
    5.0285   -2.3032   -2.2373 H   0  0  0  0  0  0  0  0  0  0  0  0
    3.1204   -2.1388   -3.8142 H   0  0  0  0  0  0  0  0  0  0  0  0
   -3.0207   -5.6250    0.7237 H   0  0  0  0  0  0  0  0  0  0  0  0
   -4.1038   -4.3113    1.0115 H   0  0  0  0  0  0  0  0  0  0  0  0
   -0.9534   -5.4071    0.0695 H   0  0  0  0  0  0  0  0  0  0  0  0
   -0.1890   -3.8809   -0.2269 H   0  0  0  0  0  0  0  0  0  0  0  0
  1 14  2  0  0  0  0
  2 15  2  0  0  0  0
  3 22  2  0  0  0  0
  4 10  1  0  0  0  0
  4 13  1  0  0  0  0
  4 15  1  0  0  0  0
  5 14  1  0  0  0  0
  5 17  1  0  0  0  0
  5 38  1  0  0  0  0
  6 16  1  0  0  0  0
  6 44  1  0  0  0  0
  6 45  1  0  0  0  0
  7 23  1  0  0  0  0
  7 29  2  0  0  0  0
  8 29  1  0  0  0  0
  8 56  1  0  0  0  0
  8 57  1  0  0  0  0
  9 29  1  0  0  0  0
  9 58  1  0  0  0  0
  9 59  1  0  0  0  0
 10 11  1  0  0  0  0
 10 14  1  0  0  0  0
 10 30  1  0  0  0  0
 11 12  1  0  0  0  0
 11 31  1  0  0  0  0
 11 32  1  0  0  0  0
 12 13  1  0  0  0  0
 12 33  1  0  0  0  0
 12 34  1  0  0  0  0
 13 35  1  0  0  0  0
 13 36  1  0  0  0  0
 15 16  1  0  0  0  0
 16 18  1  0  0  0  0
 16 37  1  0  0  0  0
 17 19  1  0  0  0  0
 17 22  1  0  0  0  0
 17 39  1  0  0  0  0
 18 21  1  0  0  0  0
 18 40  1  0  0  0  0
 18 41  1  0  0  0  0
 19 20  1  0  0  0  0
 19 42  1  0  0  0  0
 19 43  1  0  0  0  0
 20 23  1  0  0  0  0
 20 46  1  0  0  0  0
 20 47  1  0  0  0  0
 21 24  2  0  0  0  0
 21 25  1  0  0  0  0
 22 48  1  0  0  0  0
 23 49  1  0  0  0  0
 23 50  1  0  0  0  0
 24 26  1  0  0  0  0
 24 51  1  0  0  0  0
 25 27  2  0  0  0  0
 25 52  1  0  0  0  0
 26 28  2  0  0  0  0
 26 53  1  0  0  0  0
 27 28  1  0  0  0  0
 27 54  1  0  0  0  0
 28 55  1  0  0  0  0
M  END
> <PUBCHEM_COMPOUND_CID>
124710

> <PUBCHEM_CONFORMER_RMSD>
1.2

> <PUBCHEM_CONFORMER_DIVERSEORDER>
1
45
184
74
100
123
214
251
281
168
116
209
36
267
149
119
199
71
34
185
42
137
40
188
33
228
67
304
110
108
164
218
197
239
273
296
236
181
263
134
154
23
57
268
237
121
65
288
97
68
308
39
5
79
247
6
113
17
289
35
159
98
105
93
117
163
245
249
114
153
139
266
112
16
54
202
174
299
208
172
133
224
55
190
204
192
235
15
128
186
222
298
221
118
170
20
81
312
179
103
220
109
227
52
303
147
297
132
260
295
58
173
252
131
26
200
166
264
171
244
30
10
241
285
135
212
101
107
261
61
275
80
2
169
306
292
191
120
146
41
234
51
155
60
87
90
77
233
215
253
157
207
256
291
75
254
243
3
230
70
96
280
83
176
50
140
294
225
219
276
124
38
126
262
160
177
156
287
226
37
272
143
85
265
193
259
111
115
162
269
231
284
72
182
48
28
158
49
165
130
76
167
180
217
125
82
206
313
183
63
104
314
46
309
92
141
142
13
201
62
95
290
274
102
232
14
64
279
286
144
69
21
145
78
301
240
7
229
278
27
136
99
31
24
138
29
283
307
271
211
151
250
122
56
238
84
66
25
293
43
127
175
196
210
12
195
194
4
216
178
32
19
187
9
255
53
86
242
213
161
94
270
223
8
88
311
11
205
22
106
258
310
248
282
189
300
257
152
47
18
73
305
148
44
59
91
203
246
198
277
129
89
150
302

> <PUBCHEM_MMFF94_PARTIAL_CHARGES>
38
1 -0.57
10 0.36
13 0.3
14 0.57
15 0.57
16 0.33
17 0.36
18 0.14
2 -0.57
21 -0.14
22 0.45
23 0.25
24 -0.15
25 -0.15
26 -0.15
27 -0.15
28 -0.15
29 0.55
3 -0.57
38 0.37
4 -0.66
44 0.36
45 0.36
48 0.06
5 -0.73
51 0.15
52 0.15
53 0.15
54 0.15
55 0.15
56 0.4
57 0.4
58 0.4
59 0.4
6 -0.99
7 -0.7
8 -0.85
9 -0.85

> <PUBCHEM_EFFECTIVE_ROTOR_COUNT>
13

> <PUBCHEM_PHARMACOPHORE_FEATURES>
11
1 1 acceptor
1 2 acceptor
1 3 acceptor
1 5 donor
1 6 cation
1 6 donor
1 8 donor
1 9 donor
4 7 8 9 29 cation
5 4 10 11 12 13 rings
6 21 24 25 26 27 28 rings

> <PUBCHEM_HEAVY_ATOM_COUNT>
29

> <PUBCHEM_ATOM_DEF_STEREO_COUNT>
0

> <PUBCHEM_ATOM_UDEF_STEREO_COUNT>
3

> <PUBCHEM_BOND_DEF_STEREO_COUNT>
0

> <PUBCHEM_BOND_UDEF_STEREO_COUNT>
0

> <PUBCHEM_ISOTOPIC_ATOM_COUNT>
0

> <PUBCHEM_COMPONENT_COUNT>
1

> <PUBCHEM_CACTVS_TAUTO_COUNT>
8

> <PUBCHEM_CONFORMER_ID>
0001E72600000001

> <PUBCHEM_MMFF94_ENERGY>
65.8355

> <PUBCHEM_FEATURE_SELFOVERLAP>
55.878

> <PUBCHEM_SHAPE_FINGERPRINT>
10316853 100 18336544916201376351
11244481 83 18271818954968482966
11488393 25 18124336023549927666
121448 382 17478624412577719350
12422481 6 18127667492516639280
12788726 201 17905895768654007260
13402501 40 18057031428736000422
13947920 24 18124908723116496214
14251740 79 17263024467042046398
144659 178 17255962269908441714
15003188 3 18057598768357033725
17357779 13 17701823185239823342
17977149 70 17405445771565626532
20600515 1 18265309760470255376
20764821 26 18337100160266264683
20905425 154 18046906253757292809
23419403 2 17917990556101152210
23559900 14 18342171125258449837
35225 105 17971172756051077943
4280585 95 18338234843834512010
445580 8 17261026044365250071
5283178 26 18057625208255225319
57307002 85 17557704656228654974
6823239 73 18410859836705312593

> <PUBCHEM_SHAPE_MULTIPOLES>
549.31
7.49
6.07
2.24
5.39
1.96
0.48
1.99
-2.12
2.12
-0.26
-2.56
0.53
2.79

> <PUBCHEM_SHAPE_SELFOVERLAP>
1128.149

> <PUBCHEM_SHAPE_VOLUME>
313.1

> <PUBCHEM_COORDINATE_TYPE>
2
5
10

$$$$
