REMARK  Name = 124710
REMARK  12 active torsions:
REMARK  status: ('A' for Active; 'I' for Inactive)
REMARK    1  A    between atoms: CA_3  and  C_10
REMARK    2  A    between atoms: C_7  and  CA_26
REMARK    3  A    between atoms: N_9  and  CA_12
REMARK    4  A    between atoms: CA_12  and  C_14
REMARK    5  A    between atoms: CA_12  and  CB_15
REMARK    6  A    between atoms: CB_15  and  CG_16
REMARK    7  A    between atoms: CG_16  and  CD_17
REMARK    8  A    between atoms: CD_17  and  NE_18
REMARK    9  A    between atoms: NE_18  and  CZ_21
REMARK   10  A    between atoms: CA_26  and  N_27
REMARK   11  A    between atoms: CA_26  and  CB_31
REMARK   12  A    between atoms: CB_31  and  CG_32
REMARK                            x       y       z     vdW  Elec       q    Type
REMARK                         _______ _______ _______ _____ _____    ______ ____
ROOT
ATOM      1  O   PHE A   1       0.158   0.529   2.031  0.00  0.00    -0.277 OA
ATOM      2  N   PRO A   2       1.434   1.964   0.741  0.00  0.00    -0.275 N 
ATOM      3  CA  PRO A   2       0.378   2.930   0.471  0.00  0.00    +0.152 C 
ATOM      4  CB  PRO A   2       1.104   4.159  -0.064  0.00  0.00    +0.031 C 
ATOM      5  CG  PRO A   2       2.348   3.575  -0.728  0.00  0.00    +0.024 C 
ATOM      6  CD  PRO A   2       2.706   2.402   0.171  0.00  0.00    +0.094 C 
ATOM      7  C   PHE A   1       1.248   0.868   1.568  0.00  0.00    +0.206 C 
ENDROOT
BRANCH   3  10
ATOM      8  O   PRO A   2      -0.111   1.999  -1.672  0.00  0.00    -0.273 OA
ATOM      9  N   ARG A   3      -1.829   2.207  -0.115  0.00  0.00    -0.298 N 
ATOM     10  C   PRO A   2      -0.524   2.323  -0.562  0.00  0.00    +0.241 C 
ATOM     11  H   ARG A   3      -2.039   2.502   0.800  0.00  0.00    +0.150 HD
BRANCH   9  12
ATOM     12  CA  ARG A   3      -2.898   1.673  -0.928  0.00  0.00    +0.137 C 
BRANCH  12  14
ATOM     13  O   ARG A   3      -5.285   2.017  -0.778  0.00  0.00    -0.286 OA
ATOM     14  C   ARG A   3      -4.151   2.453  -0.595  0.00  0.00    +0.227 C 
ENDBRANCH  12  14
BRANCH  12  15
ATOM     15  CB  ARG A   3      -3.066   0.159  -0.787  0.00  0.00    +0.030 C 
BRANCH  15  16
ATOM     16  CG  ARG A   3      -3.404  -0.314   0.635  0.00  0.00    +0.029 C 
BRANCH  16  17
ATOM     17  CD  ARG A   3      -3.511  -1.833   0.730  0.00  0.00    +0.129 C 
BRANCH  17  18
ATOM     18  NE  ARG A   3      -2.236  -2.447   0.355  0.00  0.00    -0.240 NA
BRANCH  18  21
ATOM     19  NH1 ARG A   3      -3.180  -4.623   0.734  0.00  0.00    -0.370 N 
ATOM     20  NH2 ARG A   3      -1.018  -4.395   0.050  0.00  0.00    -0.370 N 
ATOM     21  CZ  ARG A   3      -2.180  -3.742   0.388  0.00  0.00    +0.189 C 
ATOM     22 HH11 ARG A   3      -4.066  -4.284   0.998  0.00  0.00    +0.159 HD
ATOM     23 HH12 ARG A   3      -3.009  -5.593   0.718  0.00  0.00    +0.159 HD
ATOM     24 HH21 ARG A   3      -0.223  -3.879  -0.218  0.00  0.00    +0.159 HD
ATOM     25 HH22 ARG A   3      -0.980  -5.379   0.077  0.00  0.00    +0.159 HD
ENDBRANCH  18  21
ENDBRANCH  17  18
ENDBRANCH  16  17
ENDBRANCH  15  16
ENDBRANCH  12  15
ENDBRANCH   9  12
ENDBRANCH   3  10
BRANCH   7  26
ATOM     26  CA  PHE A   1       2.489   0.071   1.880  0.00  0.00    +0.018 C 
BRANCH  26  27
ATOM     27  N   PHE A   1       2.671   0.186   3.321  0.00  0.00    +0.388 N 
ATOM     28  H1  PHE A   1       2.777   1.169   3.573  0.00  0.00    -0.089 HD
ATOM     29  H2  PHE A   1       3.507  -0.328   3.601  0.00  0.00    -0.089 HD
ATOM     30  H3  PHE A   1       1.858  -0.202   3.799  0.00  0.00    -0.089 HD
ENDBRANCH  26  27
BRANCH  26  31
ATOM     31  CB  PHE A   1       2.327  -1.390   1.461  0.00  0.00    +0.013 C 
BRANCH  31  32
ATOM     32  CG  PHE A   1       2.549  -1.601  -0.019  0.00  0.00    -0.024 C 
ATOM     33  CD1 PHE A   1       1.477  -1.508  -0.905  0.00  0.00    -0.004 C 
ATOM     34  CD2 PHE A   1       3.828  -1.887  -0.498  0.00  0.00    -0.004 C 
ATOM     35  CE1 PHE A   1       1.682  -1.702  -2.271  0.00  0.00    -0.000 C 
ATOM     36  CE2 PHE A   1       4.033  -2.081  -1.864  0.00  0.00    -0.000 C 
ATOM     37  CZ  PHE A   1       2.960  -1.988  -2.751  0.00  0.00    -0.000 C 
ENDBRANCH  31  32
ENDBRANCH  26  31
ENDBRANCH   7  26
TORSDOF 12
