REMARK  Name = 124713
REMARK  7 active torsions:
REMARK  status: ('A' for Active; 'I' for Inactive)
REMARK    1  A    between atoms: S_1  and  C_2
REMARK    2  A    between atoms: S_1  and  C_11
REMARK    3  A    between atoms: C_3  and  N_10
REMARK    4  A    between atoms: C_11  and  C_12
REMARK    5  A    between atoms: C_12  and  N_13
REMARK    6  A    between atoms: C_12  and  C_18
REMARK    7  A    between atoms: C_18  and  O_19
REMARK                            x       y       z     vdW  Elec       q    Type
REMARK                         _______ _______ _______ _____ _____    ______ ____
ROOT
ATOM      1  S   UNK     1       0.495   0.147   0.991  0.00  0.00    -0.114 S 
ENDROOT
BRANCH   1   2
ATOM      2  C   UNK     1      -1.167   0.523   0.449  0.00  0.00    +0.048 C 
ATOM      3  C   UNK     1      -2.050  -0.464   0.008  0.00  0.00    +0.148 C 
ATOM      4  C   UNK     1      -1.576   1.858   0.477  0.00  0.00    +0.008 C 
ATOM      5  C   UNK     1      -3.337  -0.118  -0.404  0.00  0.00    +0.025 C 
ATOM      6  C   UNK     1      -2.863   2.204   0.065  0.00  0.00    +0.001 C 
ATOM      7  C   UNK     1      -3.744   1.216  -0.375  0.00  0.00    +0.002 C 
BRANCH   3  10
ATOM      8  O   UNK     1      -2.516  -2.677  -0.444  0.00  0.00    -0.126 OA
ATOM      9  O   UNK     1      -0.526  -2.165   0.328  0.00  0.00    -0.126 OA
ATOM     10  N   UNK     1      -1.678  -1.839  -0.038  0.00  0.00    +0.058 N 
ENDBRANCH   3  10
ENDBRANCH   1   2
BRANCH   1  11
ATOM     11  C   UNK     1       1.483   1.127  -0.185  0.00  0.00    +0.051 C 
BRANCH  11  12
ATOM     12  C   UNK     1       2.984   0.978   0.066  0.00  0.00    +0.047 C 
BRANCH  12  13
ATOM     13  N   UNK     1       3.737   1.762  -0.916  0.00  0.00    +0.389 N 
ATOM     14  H   UNK     1       3.448   2.739  -0.864  0.00  0.00    -0.088 HD
ATOM     15  H   UNK     1       3.552   1.401  -1.852  0.00  0.00    -0.088 HD
ATOM     16  H   UNK     1       4.734   1.691  -0.715  0.00  0.00    -0.088 HD
ENDBRANCH  12  13
BRANCH  12  18
ATOM     17  O   UNK     1       3.286  -1.144  -1.054  0.00  0.00    -0.253 OA
ATOM     18  C   UNK     1       3.446  -0.463  -0.048  0.00  0.00    +0.294 C 
BRANCH  18  19
ATOM     19  O   UNK     1       4.025  -0.943   1.081  0.00  0.00    -0.482 OA
ATOM     20  H   UNK     1       4.128  -0.387   1.828  0.00  0.00    +0.295 HD
ENDBRANCH  18  19
ENDBRANCH  12  18
ENDBRANCH  11  12
ENDBRANCH   1  11
TORSDOF 7
