REMARK  Name = 124757
REMARK  6 active torsions:
REMARK  status: ('A' for Active; 'I' for Inactive)
REMARK    1  A    between atoms: C2*_2  and  O2*_17
REMARK    2  A    between atoms: C1*_3  and  N_6
REMARK    3  A    between atoms: C3*_4  and  O3*_19
REMARK    4  A    between atoms: C4*_5  and  C5*_21
REMARK    5  A    between atoms: C_13  and  O_15
REMARK    6  A    between atoms: C5*_21  and  O5*_22
REMARK                            x       y       z     vdW  Elec       q    Type
REMARK                         _______ _______ _______ _____ _____    ______ ____
ROOT
ATOM      1  O4* UNL     1       1.905   0.232   1.032  0.00  0.00    -0.333 OA
ATOM      2  C2* UNL     1       2.250  -1.151  -0.872  0.00  0.00    +0.187 C 
ATOM      3  C1* UNL     1       1.515  -1.028   0.460  0.00  0.00    +0.225 C 
ATOM      4  C3* UNL     1       3.555  -0.446  -0.562  0.00  0.00    +0.171 C 
ATOM      5  C4* UNL     1       3.148   0.648   0.428  0.00  0.00    +0.175 C 
ENDROOT
BRANCH   3   6
ATOM      6  N   UNL     1       0.062  -1.129   0.390  0.00  0.00    -0.247 N 
ATOM      7  N   UNL     1      -1.974  -2.052   0.431  0.00  0.00    -0.241 NA
ATOM      8  N   UNL     1      -0.545   1.180  -0.064  0.00  0.00    -0.228 NA
ATOM      9  N   UNL     1      -2.964   1.445  -0.260  0.00  0.00    -0.209 NA
ATOM     10  C   UNL     1      -0.827  -0.114   0.152  0.00  0.00    +0.154 C 
ATOM     11  C   UNL     1      -0.682  -2.273   0.550  0.00  0.00    +0.223 C 
ATOM     12  C   UNL     1      -2.079  -0.706   0.182  0.00  0.00    +0.162 C 
ATOM     13  C   UNL     1      -3.173   0.125  -0.035  0.00  0.00    +0.243 C 
ATOM     14  C   UNL     1      -1.682   1.883  -0.261  0.00  0.00    +0.255 C 
BRANCH  13  15
ATOM     15  O   UNL     1      -4.463  -0.341  -0.032  0.00  0.00    -0.455 OA
ATOM     16  C   UNL     1      -5.489   0.616  -0.267  0.00  0.00    +0.254 C 
ENDBRANCH  13  15
ENDBRANCH   3   6
BRANCH   2  17
ATOM     17  O2* UNL     1       1.567  -0.450  -1.903  0.00  0.00    -0.378 OA
ATOM     18  H2* UNL     1       0.732  -0.900  -2.102  0.00  0.00    +0.211 HD
ENDBRANCH   2  17
BRANCH   4  19
ATOM     19  O3* UNL     1       4.420  -1.373   0.091  0.00  0.00    -0.379 OA
ATOM     20  H3* UNL     1       4.680  -2.067  -0.535  0.00  0.00    +0.211 HD
ENDBRANCH   4  19
BRANCH   5  21
ATOM     21  C5* UNL     1       2.918   2.001  -0.230  0.00  0.00    +0.169 C 
BRANCH  21  22
ATOM     22  O5* UNL     1       2.538   2.932   0.768  0.00  0.00    -0.379 OA
ATOM     23  H5* UNL     1       2.388   3.799   0.360  0.00  0.00    +0.211 HD
ENDBRANCH  21  22
ENDBRANCH   5  21
TORSDOF 6
