REMARK  Name = 124791
REMARK  9 active torsions:
REMARK  status: ('A' for Active; 'I' for Inactive)
REMARK    1  A    between atoms: N_2  and  CA_5
REMARK    2  A    between atoms: C_3  and  C_17
REMARK    3  A    between atoms: CA_5  and  C_7
REMARK    4  A    between atoms: CA_5  and  CB_10
REMARK    5  A    between atoms: C_7  and  O_8
REMARK    6  A    between atoms: CB_10  and  CG_11
REMARK    7  A    between atoms: C_17  and  N_19
REMARK    8  A    between atoms: C_20  and  C_22
REMARK    9  A    between atoms: C_27  and  O_28
REMARK                            x       y       z     vdW  Elec       q    Type
REMARK                         _______ _______ _______ _____ _____    ______ ____
ROOT
ATOM      1  O   UNK A   0      -0.875   1.465  -1.316  0.00  0.00    -0.273 OA
ATOM      2  N   PHE A   1      -2.377   1.199   0.438  0.00  0.00    -0.295 N 
ATOM      3  C   UNK A   0      -1.147   1.519  -0.119  0.00  0.00    +0.243 C 
ATOM      4  H   PHE A   1      -2.483   1.279   1.413  0.00  0.00    +0.150 HD
ENDROOT
BRANCH   2   5
ATOM      5  CA  PHE A   1      -3.509   0.753  -0.342  0.00  0.00    +0.176 C 
BRANCH   5   7
ATOM      6  OXT PHE A   1      -5.693   1.626  -0.907  0.00  0.00    -0.248 OA
ATOM      7  C   PHE A   1      -4.657   1.749  -0.262  0.00  0.00    +0.332 C 
BRANCH   7   8
ATOM      8  O   PHE A   1      -4.452   2.786   0.585  0.00  0.00    -0.479 OA
ATOM      9  H   PHE A   1      -3.649   2.850   1.062  0.00  0.00    +0.295 HD
ENDBRANCH   7   8
ENDBRANCH   5   7
BRANCH   5  10
ATOM     10  CB  PHE A   1      -3.984  -0.632   0.114  0.00  0.00    +0.057 C 
BRANCH  10  11
ATOM     11  CG  PHE A   1      -2.905  -1.685   0.024  0.00  0.00    -0.020 C 
ATOM     12  CD1 PHE A   1      -2.764  -2.413  -1.147  0.00  0.00    -0.004 C 
ATOM     13  CD2 PHE A   1      -2.077  -1.903   1.113  0.00  0.00    -0.004 C 
ATOM     14  CE1 PHE A   1      -1.767  -3.385  -1.231  0.00  0.00    -0.000 C 
ATOM     15  CE2 PHE A   1      -1.080  -2.876   1.029  0.00  0.00    -0.000 C 
ATOM     16  CZ  PHE A   1      -0.926  -3.617  -0.143  0.00  0.00    -0.000 C 
ENDBRANCH  10  11
ENDBRANCH   5  10
ENDBRANCH   2   5
BRANCH   3  17
ATOM     17  C   UNK A   0      -0.172   2.007   0.931  0.00  0.00    +0.176 C 
BRANCH  17  19
ATOM     18  O   UNK A   0       1.315  -0.385   1.488  0.00  0.00    -0.270 OA
ATOM     19  N   UNK A   0       1.167   1.716   0.514  0.00  0.00    -0.293 N 
ATOM     20  C   UNK A   0       1.815   0.525   0.831  0.00  0.00    +0.246 C 
ATOM     21  H   UNK A   0       1.651   2.388  -0.019  0.00  0.00    +0.150 HD
BRANCH  20  22
ATOM     22  C   UNK A   0       3.212   0.387   0.346  0.00  0.00    +0.054 C 
ATOM     23  C   UNK A   0       4.080  -0.430   1.041  0.00  0.00    +0.008 C 
ATOM     24  C   UNK A   0       3.598   1.079  -0.783  0.00  0.00    +0.008 C 
ATOM     25  C   UNK A   0       5.393  -0.560   0.586  0.00  0.00    +0.037 C 
ATOM     26  C   UNK A   0       4.910   0.948  -1.238  0.00  0.00    +0.037 C 
ATOM     27  C   UNK A   0       5.807   0.129  -0.553  0.00  0.00    +0.134 C 
BRANCH  27  28
ATOM     28  O   UNK A   0       7.087   0.000  -0.998  0.00  0.00    -0.506 OA
ATOM     29  H   UNK A   0       7.690  -0.551  -0.538  0.00  0.00    +0.292 HD
ENDBRANCH  27  28
ENDBRANCH  20  22
ENDBRANCH  17  19
ENDBRANCH   3  17
TORSDOF 9
