124791
  -OEChem-03292013323D

 43 44  0     1  0  0  0  0  0999 V2000
   -4.4524    2.7860    0.5850 O   0  0  0  0  0  0  0  0  0  0  0  0
   -5.6930    1.6260   -0.9071 O   0  0  0  0  0  0  0  0  0  0  0  0
   -0.8750    1.4651   -1.3157 O   0  0  0  0  0  0  0  0  0  0  0  0
    1.3153   -0.3848    1.4881 O   0  0  0  0  0  0  0  0  0  0  0  0
    7.0871   -0.0002   -0.9984 O   0  0  0  0  0  0  0  0  0  0  0  0
   -2.3767    1.1989    0.4380 N   0  0  0  0  0  0  0  0  0  0  0  0
    1.1675    1.7160    0.5144 N   0  0  0  0  0  0  0  0  0  0  0  0
   -3.5089    0.7533   -0.3423 C   0  0  1  0  0  0  0  0  0  0  0  0
   -3.9842   -0.6321    0.1143 C   0  0  0  0  0  0  0  0  0  0  0  0
   -2.9055   -1.6845    0.0236 C   0  0  0  0  0  0  0  0  0  0  0  0
   -4.6567    1.7490   -0.2623 C   0  0  0  0  0  0  0  0  0  0  0  0
   -1.1471    1.5192   -0.1190 C   0  0  0  0  0  0  0  0  0  0  0  0
   -2.7637   -2.4128   -1.1470 C   0  0  0  0  0  0  0  0  0  0  0  0
   -2.0768   -1.9035    1.1125 C   0  0  0  0  0  0  0  0  0  0  0  0
   -0.1722    2.0069    0.9314 C   0  0  0  0  0  0  0  0  0  0  0  0
   -1.7674   -3.3855   -1.2307 C   0  0  0  0  0  0  0  0  0  0  0  0
   -1.0803   -2.8759    1.0288 C   0  0  0  0  0  0  0  0  0  0  0  0
   -0.9257   -3.6169   -0.1428 C   0  0  0  0  0  0  0  0  0  0  0  0
    1.8149    0.5246    0.8309 C   0  0  0  0  0  0  0  0  0  0  0  0
    3.2125    0.3866    0.3462 C   0  0  0  0  0  0  0  0  0  0  0  0
    4.0803   -0.4301    1.0411 C   0  0  0  0  0  0  0  0  0  0  0  0
    3.5980    1.0786   -0.7833 C   0  0  0  0  0  0  0  0  0  0  0  0
    5.3925   -0.5605    0.5862 C   0  0  0  0  0  0  0  0  0  0  0  0
    4.9101    0.9480   -1.2381 C   0  0  0  0  0  0  0  0  0  0  0  0
    5.8074    0.1285   -0.5534 C   0  0  0  0  0  0  0  0  0  0  0  0
   -3.2082    0.7162   -1.3964 H   0  0  0  0  0  0  0  0  0  0  0  0
   -4.3527   -0.5819    1.1486 H   0  0  0  0  0  0  0  0  0  0  0  0
   -4.8518   -0.9492   -0.4799 H   0  0  0  0  0  0  0  0  0  0  0  0
   -2.5178    1.3294    1.4357 H   0  0  0  0  0  0  0  0  0  0  0  0
   -3.4130   -2.2378   -2.0000 H   0  0  0  0  0  0  0  0  0  0  0  0
   -2.1890   -1.3343    2.0308 H   0  0  0  0  0  0  0  0  0  0  0  0
   -0.3668    1.5326    1.8985 H   0  0  0  0  0  0  0  0  0  0  0  0
   -0.2768    3.0911    1.0333 H   0  0  0  0  0  0  0  0  0  0  0  0
   -1.6463   -3.9619   -2.1432 H   0  0  0  0  0  0  0  0  0  0  0  0
   -0.4247   -3.0560    1.8758 H   0  0  0  0  0  0  0  0  0  0  0  0
    1.6569    2.4539    0.0200 H   0  0  0  0  0  0  0  0  0  0  0  0
   -0.1495   -4.3736   -0.2081 H   0  0  0  0  0  0  0  0  0  0  0  0
   -5.2182    3.3986    0.6063 H   0  0  0  0  0  0  0  0  0  0  0  0
    3.7746   -0.9694    1.9326 H   0  0  0  0  0  0  0  0  0  0  0  0
    2.9222    1.6975   -1.3639 H   0  0  0  0  0  0  0  0  0  0  0  0
    6.0872   -1.1998    1.1242 H   0  0  0  0  0  0  0  0  0  0  0  0
    5.2191    1.4837   -2.1319 H   0  0  0  0  0  0  0  0  0  0  0  0
    7.1997    0.5452   -1.7960 H   0  0  0  0  0  0  0  0  0  0  0  0
  1 11  1  0  0  0  0
  1 38  1  0  0  0  0
  2 11  2  0  0  0  0
  3 12  2  0  0  0  0
  4 19  2  0  0  0  0
  5 25  1  0  0  0  0
  5 43  1  0  0  0  0
  6  8  1  0  0  0  0
  6 12  1  0  0  0  0
  6 29  1  0  0  0  0
  7 15  1  0  0  0  0
  7 19  1  0  0  0  0
  7 36  1  0  0  0  0
  8  9  1  0  0  0  0
  8 11  1  0  0  0  0
  8 26  1  0  0  0  0
  9 10  1  0  0  0  0
  9 27  1  0  0  0  0
  9 28  1  0  0  0  0
 10 13  2  0  0  0  0
 10 14  1  0  0  0  0
 12 15  1  0  0  0  0
 13 16  1  0  0  0  0
 13 30  1  0  0  0  0
 14 17  2  0  0  0  0
 14 31  1  0  0  0  0
 15 32  1  0  0  0  0
 15 33  1  0  0  0  0
 16 18  2  0  0  0  0
 16 34  1  0  0  0  0
 17 18  1  0  0  0  0
 17 35  1  0  0  0  0
 18 37  1  0  0  0  0
 19 20  1  0  0  0  0
 20 21  2  0  0  0  0
 20 22  1  0  0  0  0
 21 23  1  0  0  0  0
 21 39  1  0  0  0  0
 22 24  2  0  0  0  0
 22 40  1  0  0  0  0
 23 25  2  0  0  0  0
 23 41  1  0  0  0  0
 24 25  1  0  0  0  0
 24 42  1  0  0  0  0
M  END
> <PUBCHEM_COMPOUND_CID>
124791

> <PUBCHEM_CONFORMER_RMSD>
1

> <PUBCHEM_CONFORMER_DIVERSEORDER>
1
28
13
39
42
43
12
2
30
32
17
6
40
29
22
35
15
16
20
4
14
41
36
26
37
9
10
23
38
24
34
11
5
27
33
3
21
8
18
25
31
7
19

> <PUBCHEM_MMFF94_PARTIAL_CHARGES>
38
1 -0.65
10 -0.14
11 0.66
12 0.57
13 -0.15
14 -0.15
15 0.36
16 -0.15
17 -0.15
18 -0.15
19 0.54
2 -0.57
20 0.09
21 -0.15
22 -0.15
23 -0.15
24 -0.15
25 0.08
29 0.37
3 -0.57
30 0.15
31 0.15
34 0.15
35 0.15
36 0.37
37 0.15
38 0.5
39 0.15
4 -0.57
40 0.15
41 0.15
42 0.15
43 0.45
5 -0.53
6 -0.73
7 -0.73
8 0.36
9 0.14

> <PUBCHEM_EFFECTIVE_ROTOR_COUNT>
9

> <PUBCHEM_PHARMACOPHORE_FEATURES>
10
1 1 acceptor
1 2 acceptor
1 3 acceptor
1 4 acceptor
1 5 donor
1 6 donor
1 7 donor
3 1 2 11 anion
6 10 13 14 16 17 18 rings
6 20 21 22 23 24 25 rings

> <PUBCHEM_HEAVY_ATOM_COUNT>
25

> <PUBCHEM_ATOM_DEF_STEREO_COUNT>
1

> <PUBCHEM_ATOM_UDEF_STEREO_COUNT>
0

> <PUBCHEM_BOND_DEF_STEREO_COUNT>
0

> <PUBCHEM_BOND_UDEF_STEREO_COUNT>
0

> <PUBCHEM_ISOTOPIC_ATOM_COUNT>
0

> <PUBCHEM_COMPONENT_COUNT>
1

> <PUBCHEM_CACTVS_TAUTO_COUNT>
10

> <PUBCHEM_CONFORMER_ID>
0001E77700000001

> <PUBCHEM_MMFF94_ENERGY>
60.784

> <PUBCHEM_FEATURE_SELFOVERLAP>
50.808

> <PUBCHEM_SHAPE_FINGERPRINT>
10369192 42 14418141707823657594
107951 10 17894915114043018107
11014199 57 17689152731022031010
11045977 3 18059850692962394408
11524674 6 17989202629459336775
12616971 3 17168135737818306048
12633257 1 17916601966792531027
12643181 29 18341612595174048262
12788726 201 18200594679255056128
13257819 101 16806431515300667109
13402501 40 18273219681496252806
13726171 33 17981641404197283724
13785724 45 17472709495287525891
14251740 79 18272096002071574114
14251757 5 18338240465540715634
14790565 3 18267304235914155537
14840074 17 17603307029095189901
15415430 112 18335420205077289345
16752209 62 18338502149482316715
19309040 13 16300959776833953628
20511986 3 18040986359090172064
23559900 14 18272362118414442168
23728640 28 18411138086763146147
249057 3 18334860523937391532
25122255 55 17916602959963997086
338550 245 18335137549639135114
3411729 13 18048037368625241409
4015057 19 16845282886589073937
44062 13 18271807989917547566
469060 322 12829779590781609785
508706 21 18201726201179442598
5265222 85 18338242660105616588
559249 180 18408321073342331914
574716 61 17314235647186920732
602551 16 18343298206507502202
6437827 68 18339362972761400734
9709674 26 18053655056281764337

> <PUBCHEM_SHAPE_MULTIPOLES>
475.18
13.04
3.64
1.27
16.34
2.6
0.04
-4.13
3.51
-5.61
0.28
0.43
0.26
-0.51

> <PUBCHEM_SHAPE_SELFOVERLAP>
1005.801

> <PUBCHEM_SHAPE_VOLUME>
263.3

> <PUBCHEM_COORDINATE_TYPE>
2
5
10

$$$$
