124765
  -OEChem-03292013323D

 41 41  0     1  0  0  0  0  0999 V2000
   -3.1092    2.4008   -0.6739 O   0  0  0  0  0  0  0  0  0  0  0  0
   -0.0352   -0.5875    1.6576 O   0  0  0  0  0  0  0  0  0  0  0  0
   -3.2664   -2.4121    1.3769 O   0  0  0  0  0  0  0  0  0  0  0  0
   -1.8307   -2.5917   -0.3844 O   0  0  0  0  0  0  0  0  0  0  0  0
    2.7930   -0.6767   -1.7425 O   0  0  0  0  0  0  0  0  0  0  0  0
   -1.3083    0.0850   -0.1551 N   0  0  0  0  0  0  0  0  0  0  0  0
    2.1409   -0.0604    0.4010 N   0  0  0  0  0  0  0  0  0  0  0  0
    5.1536   -1.6660   -0.7482 N   0  0  0  0  0  0  0  0  0  0  0  0
   -2.5848   -0.4158    0.3461 C   0  0  1  0  0  0  0  0  0  0  0  0
   -3.6310    0.0403   -0.6743 C   0  0  0  0  0  0  0  0  0  0  0  0
   -2.9554    1.1918   -1.4102 C   0  0  2  0  0  0  0  0  0  0  0  0
   -1.4855    0.8017   -1.4169 C   0  0  0  0  0  0  0  0  0  0  0  0
    1.0365    0.7819    0.0347 C   0  0  1  0  0  0  0  0  0  0  0  0
   -0.1434    0.0297    0.5962 C   0  0  0  0  0  0  0  0  0  0  0  0
    1.1448    2.1923    0.6233 C   0  0  0  0  0  0  0  0  0  0  0  0
   -2.4979   -1.9102    0.3795 C   0  0  0  0  0  0  0  0  0  0  0  0
    1.2963    2.1490    2.1479 C   0  0  0  0  0  0  0  0  0  0  0  0
    2.3354    2.9462    0.0204 C   0  0  0  0  0  0  0  0  0  0  0  0
    2.9391   -0.7291   -0.5233 C   0  0  0  0  0  0  0  0  0  0  0  0
    4.0080   -1.5691    0.1451 C   0  0  0  0  0  0  0  0  0  0  0  0
   -2.7441   -0.0049    1.3488 H   0  0  0  0  0  0  0  0  0  0  0  0
   -4.5572    0.3434   -0.1753 H   0  0  0  0  0  0  0  0  0  0  0  0
   -3.8714   -0.7626   -1.3820 H   0  0  0  0  0  0  0  0  0  0  0  0
   -3.3621    1.3470   -2.4135 H   0  0  0  0  0  0  0  0  0  0  0  0
   -0.8356    1.6747   -1.4959 H   0  0  0  0  0  0  0  0  0  0  0  0
   -1.2629    0.0941   -2.2225 H   0  0  0  0  0  0  0  0  0  0  0  0
    1.0006    0.8249   -1.0560 H   0  0  0  0  0  0  0  0  0  0  0  0
    0.2305    2.7524    0.3905 H   0  0  0  0  0  0  0  0  0  0  0  0
    2.3013   -0.2394    1.3883 H   0  0  0  0  0  0  0  0  0  0  0  0
   -2.6326    3.0986   -1.1551 H   0  0  0  0  0  0  0  0  0  0  0  0
    2.1991    1.6207    2.4694 H   0  0  0  0  0  0  0  0  0  0  0  0
    1.3704    3.1698    2.5417 H   0  0  0  0  0  0  0  0  0  0  0  0
    0.4293    1.6946    2.6353 H   0  0  0  0  0  0  0  0  0  0  0  0
    2.3687    3.9754    0.3938 H   0  0  0  0  0  0  0  0  0  0  0  0
    2.2521    2.9911   -1.0707 H   0  0  0  0  0  0  0  0  0  0  0  0
    3.2891    2.4691    0.2698 H   0  0  0  0  0  0  0  0  0  0  0  0
   -3.2240   -3.3914    1.4146 H   0  0  0  0  0  0  0  0  0  0  0  0
    3.5924   -2.5626    0.3395 H   0  0  0  0  0  0  0  0  0  0  0  0
    4.3163   -1.1231    1.0959 H   0  0  0  0  0  0  0  0  0  0  0  0
    5.5671   -0.7429   -0.8757 H   0  0  0  0  0  0  0  0  0  0  0  0
    5.8741   -2.2390   -0.3107 H   0  0  0  0  0  0  0  0  0  0  0  0
  1 11  1  0  0  0  0
  1 30  1  0  0  0  0
  2 14  2  0  0  0  0
  3 16  1  0  0  0  0
  3 37  1  0  0  0  0
  4 16  2  0  0  0  0
  5 19  2  0  0  0  0
  6  9  1  0  0  0  0
  6 12  1  0  0  0  0
  6 14  1  0  0  0  0
  7 13  1  0  0  0  0
  7 19  1  0  0  0  0
  7 29  1  0  0  0  0
  8 20  1  0  0  0  0
  8 40  1  0  0  0  0
  8 41  1  0  0  0  0
  9 10  1  0  0  0  0
  9 16  1  0  0  0  0
  9 21  1  0  0  0  0
 10 11  1  0  0  0  0
 10 22  1  0  0  0  0
 10 23  1  0  0  0  0
 11 12  1  0  0  0  0
 11 24  1  0  0  0  0
 12 25  1  0  0  0  0
 12 26  1  0  0  0  0
 13 14  1  0  0  0  0
 13 15  1  0  0  0  0
 13 27  1  0  0  0  0
 15 17  1  0  0  0  0
 15 18  1  0  0  0  0
 15 28  1  0  0  0  0
 17 31  1  0  0  0  0
 17 32  1  0  0  0  0
 17 33  1  0  0  0  0
 18 34  1  0  0  0  0
 18 35  1  0  0  0  0
 18 36  1  0  0  0  0
 19 20  1  0  0  0  0
 20 38  1  0  0  0  0
 20 39  1  0  0  0  0
M  END
> <PUBCHEM_COMPOUND_CID>
124765

> <PUBCHEM_CONFORMER_RMSD>
0.8

> <PUBCHEM_CONFORMER_DIVERSEORDER>
1
13
30
15
6
4
32
20
17
34
11
35
22
33
25
9
29
12
24
5
19
3
37
26
18
21
8
31
2
28
10
36
27
7
23
14
16

> <PUBCHEM_MMFF94_PARTIAL_CHARGES>
21
1 -0.68
11 0.28
12 0.3
13 0.36
14 0.57
16 0.66
19 0.57
2 -0.57
20 0.33
29 0.37
3 -0.65
30 0.4
37 0.5
4 -0.57
40 0.36
41 0.36
5 -0.57
6 -0.66
7 -0.73
8 -0.99
9 0.36

> <PUBCHEM_EFFECTIVE_ROTOR_COUNT>
8

> <PUBCHEM_PHARMACOPHORE_FEATURES>
12
1 1 acceptor
1 1 donor
1 2 acceptor
1 3 acceptor
1 4 acceptor
1 5 acceptor
1 7 donor
1 8 cation
1 8 donor
3 15 17 18 hydrophobe
3 3 4 16 anion
5 6 9 10 11 12 rings

> <PUBCHEM_HEAVY_ATOM_COUNT>
20

> <PUBCHEM_ATOM_DEF_STEREO_COUNT>
3

> <PUBCHEM_ATOM_UDEF_STEREO_COUNT>
0

> <PUBCHEM_BOND_DEF_STEREO_COUNT>
0

> <PUBCHEM_BOND_UDEF_STEREO_COUNT>
0

> <PUBCHEM_ISOTOPIC_ATOM_COUNT>
0

> <PUBCHEM_COMPONENT_COUNT>
1

> <PUBCHEM_CACTVS_TAUTO_COUNT>
2

> <PUBCHEM_CONFORMER_ID>
0001E75D00000001

> <PUBCHEM_MMFF94_ENERGY>
45.0651

> <PUBCHEM_FEATURE_SELFOVERLAP>
60.953

> <PUBCHEM_SHAPE_FINGERPRINT>
10922049 32 11026094425842595176
12553582 1 18129401318852777374
12623949 98 17910420577068028767
12633257 1 17987538029185314131
12707595 3 18201444687821754014
12714826 92 18335718134037092871
12788726 201 17697030345519312264
13134695 92 17774992501671967696
14115302 16 18188211992235053332
15219456 202 18267018534425368105
15295992 7 18202283602604471985
16945 1 18335697196224297825
17804303 29 18407762529993655823
1813 80 17060071319671695252
19049666 15 18412254064873483481
20600515 1 18270690749286953964
20871999 31 18260553303338937510
21069387 34 17131817777255950781
221490 88 18336551628744695034
22802520 49 18336263534996553861
23114952 82 18336267958892340980
23175994 123 18060421278823842092
23402539 116 18128251178271608078
23526113 38 18341882005044344632
23557571 272 17897156043009243713
23559900 14 18335411413374309861
2748010 2 18263632034664834941
3084891 72 17979345374567134741
45790113 53 18341617069939263235
458136 41 17765165255552317440
5283173 99 18262514785255046044
6049 1 18336826497855943729
621550 34 17907577282900001241
633830 44 18196344006684929469
74978 22 18408877430278354169
81228 2 17627522536200230704
9709674 26 18338785836213944101

> <PUBCHEM_SHAPE_MULTIPOLES>
367.3
7.23
3
1.52
3.58
0.68
0.26
-3.65
-1.97
0.55
0.53
-0.07
0.28
2.03

> <PUBCHEM_SHAPE_SELFOVERLAP>
741.674

> <PUBCHEM_SHAPE_VOLUME>
215.3

> <PUBCHEM_COORDINATE_TYPE>
2
5
10

$$$$
