REMARK  Name = 124786
REMARK  9 active torsions:
REMARK  status: ('A' for Active; 'I' for Inactive)
REMARK    1  A    between atoms: C_1  and  C_4
REMARK    2  A    between atoms: C_1  and  C_11
REMARK    3  A    between atoms: C_1  and  C_18
REMARK    4  A    between atoms: N_3  and  C_6
REMARK    5  A    between atoms: C_6  and  C_8
REMARK    6  A    between atoms: C_8  and  O_9
REMARK    7  A    between atoms: C_11  and  C_12
REMARK    8  A    between atoms: C_18  and  C_21
REMARK    9  A    between atoms: N_20  and  O_23
REMARK                            x       y       z     vdW  Elec       q    Type
REMARK                         _______ _______ _______ _____ _____    ______ ____
ROOT
ATOM      1  C   UNL     1      -0.636  -0.730   0.892  0.00  0.00    +0.090 C 
ENDROOT
BRANCH   1   4
ATOM      2  O   UNL     1      -0.929   0.627  -1.099  0.00  0.00    -0.275 OA
ATOM      3  N   UNL     1      -0.711   1.695   0.951  0.00  0.00    -0.295 N 
ATOM      4  C   UNL     1      -0.771   0.586   0.119  0.00  0.00    +0.223 C 
ATOM      5  H   UNL     1      -0.581   1.550   1.916  0.00  0.00    +0.150 HD
BRANCH   3   6
ATOM      6  C   UNL     1      -0.829   3.053   0.470  0.00  0.00    +0.200 C 
BRANCH   6   8
ATOM      7  O   UNL     1       0.618   4.806  -0.321  0.00  0.00    -0.248 OA
ATOM      8  C   UNL     1       0.498   3.662   0.099  0.00  0.00    +0.334 C 
BRANCH   8   9
ATOM      9  O   UNL     1       1.546   2.822   0.273  0.00  0.00    -0.479 OA
ATOM     10  H   UNL     1       1.403   1.955   0.598  0.00  0.00    +0.295 HD
ENDBRANCH   8   9
ENDBRANCH   6   8
ENDBRANCH   3   6
ENDBRANCH   1   4
BRANCH   1  11
ATOM     11  C   UNL     1       0.073  -1.789   0.020  0.00  0.00    +0.036 C 
BRANCH  11  12
ATOM     12  C   UNL     1       1.563  -1.583  -0.100  0.00  0.00    -0.022 C 
ATOM     13  C   UNL     1       2.061  -0.801  -1.131  0.00  0.00    -0.004 C 
ATOM     14  C   UNL     1       2.409  -2.178   0.823  0.00  0.00    -0.004 C 
ATOM     15  C   UNL     1       3.438  -0.610  -1.242  0.00  0.00    -0.000 C 
ATOM     16  C   UNL     1       3.786  -1.987   0.712  0.00  0.00    -0.000 C 
ATOM     17  C   UNL     1       4.301  -1.203  -0.320  0.00  0.00    -0.000 C 
ENDBRANCH  11  12
ENDBRANCH   1  11
BRANCH   1  18
ATOM     18  C   UNL     1      -2.033  -1.192   1.351  0.00  0.00    +0.097 C 
BRANCH  18  21
ATOM     19  O   UNL     1      -3.088  -2.635  -0.285  0.00  0.00    -0.273 OA
ATOM     20  N   UNL     1      -3.698  -0.411  -0.189  0.00  0.00    -0.197 N 
ATOM     21  C   UNL     1      -2.978  -1.513   0.204  0.00  0.00    +0.245 C 
ATOM     22  H   UNL     1      -3.576   0.470   0.232  0.00  0.00    +0.182 HD
BRANCH  20  23
ATOM     23  O   UNL     1      -4.617  -0.619  -1.226  0.00  0.00    -0.295 OA
ATOM     24  H   UNL     1      -5.071   0.215  -1.427  0.00  0.00    +0.241 HD
ENDBRANCH  20  23
ENDBRANCH  18  21
ENDBRANCH   1  18
TORSDOF 9
