REMARK  Name = 124789
REMARK  7 active torsions:
REMARK  status: ('A' for Active; 'I' for Inactive)
REMARK    1  A    between atoms: C_2  and  O_19
REMARK    2  A    between atoms: C_3  and  N_7
REMARK    3  A    between atoms: C_4  and  C_21
REMARK    4  A    between atoms: C_21  and  O_22
REMARK    5  A    between atoms: O_22  and  P_23
REMARK    6  A    between atoms: P_23  and  O_25
REMARK    7  A    between atoms: P_23  and  O_27
REMARK                            x       y       z     vdW  Elec       q    Type
REMARK                         _______ _______ _______ _____ _____    ______ ____
ROOT
ATOM      1  O   UNL     1      -0.730  -0.542   0.371  0.00  0.00    -0.335 OA
ATOM      2  C   UNL     1      -1.379  -2.286  -1.087  0.00  0.00    +0.144 C 
ATOM      3  C   UNL     1       0.312  -1.538   0.363  0.00  0.00    +0.202 C 
ATOM      4  C   UNL     1      -1.645  -0.840  -0.698  0.00  0.00    +0.174 C 
ATOM      5  C   UNL     1       0.115  -2.385  -0.885  0.00  0.00    +0.083 C 
ENDROOT
BRANCH   3   7
ATOM      6 BR   UNL     1       2.864  -3.010   1.998  0.00  0.00    +0.004 Br
ATOM      7  N   UNL     1       1.612  -0.883   0.442  0.00  0.00    -0.217 N 
ATOM      8  N   UNL     1       3.758  -0.525   0.955  0.00  0.00    -0.374 NA
ATOM      9  N   UNL     1       1.145   1.150  -0.806  0.00  0.00    -0.227 NA
ATOM     10  N   UNL     1       3.112   2.588  -0.935  0.00  0.00    -0.227 NA
ATOM     11  C   UNL     1       1.941   0.330  -0.103  0.00  0.00    +0.169 C 
ATOM     12  C   UNL     1       2.741  -1.353   1.067  0.00  0.00    +0.225 C 
ATOM     13  C   UNL     1       3.272   0.531   0.225  0.00  0.00    +0.196 C 
ATOM     14  C   UNL     1       3.858   1.712  -0.219  0.00  0.00    +0.155 C 
ATOM     15  C   UNL     1       1.821   2.257  -1.180  0.00  0.00    +0.253 C 
ATOM     16  N   UNL     1       5.203   2.000   0.069  0.00  0.00    -0.341 N 
ATOM     17  H   UNL     1       5.607   2.839  -0.251  0.00  0.00    +0.144 HD
ATOM     18  H   UNL     1       5.742   1.361   0.590  0.00  0.00    +0.144 HD
ENDBRANCH   3   7
BRANCH   2  19
ATOM     19  O   UNL     1      -1.737  -2.557  -2.426  0.00  0.00    -0.382 OA
ATOM     20  H   UNL     1      -2.699  -2.486  -2.524  0.00  0.00    +0.210 HD
ENDBRANCH   2  19
BRANCH   4  21
ATOM     21  C   UNL     1      -3.068  -0.593  -0.232  0.00  0.00    +0.186 C 
BRANCH  21  22
ATOM     22  O   UNL     1      -3.206   0.776   0.115  0.00  0.00    -0.271 OA
BRANCH  22  23
ATOM     23  P   UNL     1      -4.643   1.296   0.646  0.00  0.00    +0.473 P 
ATOM     24  O   UNL     1      -4.702   2.756   0.992  0.00  0.00    -0.227 OA
BRANCH  23  25
ATOM     25  O   UNL     1      -4.994   0.285   1.859  0.00  0.00    -0.303 OA
ATOM     26  H   UNL     1      -4.931  -0.631   1.544  0.00  0.00    +0.222 HD
ENDBRANCH  23  25
BRANCH  23  27
ATOM     27  O   UNL     1      -5.651   0.831  -0.529  0.00  0.00    -0.303 OA
ATOM     28  H   UNL     1      -5.548  -0.120  -0.686  0.00  0.00    +0.222 HD
ENDBRANCH  23  27
ENDBRANCH  22  23
ENDBRANCH  21  22
ENDBRANCH   4  21
TORSDOF 7
