REMARK  Name = 124740
REMARK  10 active torsions:
REMARK  status: ('A' for Active; 'I' for Inactive)
REMARK    1  A    between atoms: C_7  and  O_15
REMARK    2  A    between atoms: C_12  and  C_31
REMARK    3  A    between atoms: O_15  and  C_17
REMARK    4  A    between atoms: C_18  and  O_22
REMARK    5  A    between atoms: C_19  and  O_24
REMARK    6  A    between atoms: C_20  and  O_26
REMARK    7  A    between atoms: C_21  and  C_28
REMARK    8  A    between atoms: C_28  and  O_29
REMARK    9  A    between atoms: C_31  and  C_32
REMARK   10  A    between atoms: C_32  and  O_33
REMARK                            x       y       z     vdW  Elec       q    Type
REMARK                         _______ _______ _______ _____ _____    ______ ____
ROOT
ATOM      1  O   UNL     1      -4.253  -2.120   1.089  0.00  0.00    -0.291 OA
ATOM      2  C   UNL     1      -2.216  -3.150   0.201  0.00  0.00    +0.060 C 
ATOM      3  C   UNL     1      -0.959  -2.447  -0.386  0.00  0.00    +0.037 C 
ATOM      4  C   UNL     1      -1.274  -0.986  -0.290  0.00  0.00    +0.014 A 
ATOM      5  C   UNL     1      -2.521  -0.734   0.264  0.00  0.00    +0.029 A 
ATOM      6  C   UNL     1      -3.149  -2.005   0.587  0.00  0.00    +0.172 C 
ATOM      7  C   UNL     1      -0.471   0.072  -0.685  0.00  0.00    +0.133 A 
ATOM      8  C   UNL     1      -3.019   0.544   0.448  0.00  0.00    -0.023 A 
ATOM      9  C   UNL     1      -1.866  -3.964   1.448  0.00  0.00    +0.008 C 
ATOM     10  C   UNL     1      -2.899  -4.033  -0.846  0.00  0.00    +0.008 C 
ATOM     11  C   UNL     1      -0.946   1.376  -0.511  0.00  0.00    +0.008 A 
ATOM     12  C   UNL     1      -2.212   1.609   0.052  0.00  0.00    -0.025 A 
ATOM     13  C   UNL     1      -4.363   0.784   1.047  0.00  0.00    +0.031 C 
ATOM     14  C   UNL     1      -0.091   2.530  -0.932  0.00  0.00    +0.034 C 
ENDROOT
BRANCH   7  15
ATOM     15  O   UNL     1       0.754  -0.160  -1.229  0.00  0.00    -0.451 OA
BRANCH  15  17
ATOM     16  O   UNL     1       2.416   1.064  -0.142  0.00  0.00    -0.316 OA
ATOM     17  C   UNL     1       1.861  -0.235  -0.331  0.00  0.00    +0.318 C 
ATOM     18  C   UNL     1       2.898  -1.178  -0.941  0.00  0.00    +0.210 C 
ATOM     19  C   UNL     1       4.184  -1.199  -0.114  0.00  0.00    +0.173 C 
ATOM     20  C   UNL     1       4.661   0.218   0.203  0.00  0.00    +0.169 C 
ATOM     21  C   UNL     1       3.517   1.063   0.769  0.00  0.00    +0.177 C 
BRANCH  18  22
ATOM     22  O   UNL     1       2.340  -2.491  -0.982  0.00  0.00    -0.377 OA
ATOM     23  H   UNL     1       1.524  -2.479  -1.506  0.00  0.00    +0.211 HD
ENDBRANCH  18  22
BRANCH  19  24
ATOM     24  O   UNL     1       5.214  -1.857  -0.854  0.00  0.00    -0.379 OA
ATOM     25  H   UNL     1       4.933  -2.760  -1.067  0.00  0.00    +0.211 HD
ENDBRANCH  19  24
BRANCH  20  26
ATOM     26  O   UNL     1       5.718   0.157   1.158  0.00  0.00    -0.379 OA
ATOM     27  H   UNL     1       6.445  -0.378   0.802  0.00  0.00    +0.211 HD
ENDBRANCH  20  26
BRANCH  21  28
ATOM     28  C   UNL     1       3.938   2.513   0.984  0.00  0.00    +0.169 C 
BRANCH  28  29
ATOM     29  O   UNL     1       2.831   3.233   1.495  0.00  0.00    -0.379 OA
ATOM     30  H   UNL     1       3.085   4.158   1.637  0.00  0.00    +0.211 HD
ENDBRANCH  28  29
ENDBRANCH  21  28
ENDBRANCH  15  17
ENDBRANCH   7  15
BRANCH  12  31
ATOM     31  C   UNL     1      -2.697   3.015   0.227  0.00  0.00    +0.058 C 
BRANCH  31  32
ATOM     32  C   UNL     1      -3.469   3.531  -0.989  0.00  0.00    +0.142 C 
BRANCH  32  33
ATOM     33  O   UNL     1      -3.928   4.853  -0.737  0.00  0.00    -0.382 OA
ATOM     34  H   UNL     1      -4.417   5.178  -1.509  0.00  0.00    +0.210 HD
ENDBRANCH  32  33
ENDBRANCH  31  32
ENDBRANCH  12  31
TORSDOF 10
