REMARK  Name = 124765
REMARK  8 active torsions:
REMARK  status: ('A' for Active; 'I' for Inactive)
REMARK    1  A    between atoms: CA_1  and  C_8
REMARK    2  A    between atoms: CA_1  and  N_16
REMARK    3  A    between atoms: CA_1  and  CB_24
REMARK    4  A    between atoms: CA_4  and  C_12
REMARK    5  A    between atoms: CG_6  and  OD_9
REMARK    6  A    between atoms: C_12  and  O_13
REMARK    7  A    between atoms: C_17  and  CA_19
REMARK    8  A    between atoms: CA_19  and  N_20
REMARK                            x       y       z     vdW  Elec       q    Type
REMARK                         _______ _______ _______ _____ _____    ______ ____
ROOT
ATOM      1  CA  VAL A   2       1.036   0.782   0.035  0.00  0.00    +0.149 C 
ENDROOT
BRANCH   1   8
ATOM      2  O   VAL A   2      -0.035  -0.588   1.658  0.00  0.00    -0.273 OA
ATOM      3  N   HYP A   3      -1.308   0.085  -0.155  0.00  0.00    -0.268 N 
ATOM      4  CA  HYP A   3      -2.585  -0.416   0.346  0.00  0.00    +0.177 C 
ATOM      5  CB  HYP A   3      -3.631   0.040  -0.674  0.00  0.00    +0.062 C 
ATOM      6  CG  HYP A   3      -2.955   1.192  -1.410  0.00  0.00    +0.132 C 
ATOM      7  CD  HYP A   3      -1.486   0.802  -1.417  0.00  0.00    +0.123 C 
ATOM      8  C   VAL A   2      -0.143   0.030   0.596  0.00  0.00    +0.244 C 
BRANCH   6   9
ATOM      9  OD  HYP A   3      -3.109   2.401  -0.674  0.00  0.00    -0.383 OA
ATOM     10  HD  HYP A   3      -4.045   2.657  -0.665  0.00  0.00    +0.210 HD
ENDBRANCH   6   9
BRANCH   4  12
ATOM     11  OXT HYP A   3      -1.831  -2.592  -0.384  0.00  0.00    -0.248 OA
ATOM     12  C   HYP A   3      -2.498  -1.910   0.380  0.00  0.00    +0.332 C 
BRANCH  12  13
ATOM     13  O   HYP A   3      -3.266  -2.412   1.377  0.00  0.00    -0.479 OA
ATOM     14  H   HYP A   3      -3.755  -1.833   1.929  0.00  0.00    +0.295 HD
ENDBRANCH  12  13
ENDBRANCH   4  12
ENDBRANCH   1   8
BRANCH   1  16
ATOM     15  O   GLY A   1       2.793  -0.677  -1.742  0.00  0.00    -0.277 OA
ATOM     16  N   VAL A   2       2.141  -0.060   0.401  0.00  0.00    -0.300 N 
ATOM     17  C   GLY A   1       2.939  -0.729  -0.523  0.00  0.00    +0.201 C 
ATOM     18  H   VAL A   2       2.345  -0.171   1.358  0.00  0.00    +0.150 HD
BRANCH  17  19
ATOM     19  CA  GLY A   1       4.008  -1.569   0.145  0.00  0.00    +0.001 C 
BRANCH  19  20
ATOM     20  N   GLY A   1       5.154  -1.666  -0.748  0.00  0.00    +0.386 N 
ATOM     21  H1  GLY A   1       5.881  -2.230  -0.308  0.00  0.00    -0.089 HD
ATOM     22  H2  GLY A   1       5.516  -0.732  -0.939  0.00  0.00    -0.089 HD
ATOM     23  H3  GLY A   1       4.866  -2.104  -1.623  0.00  0.00    -0.089 HD
ENDBRANCH  19  20
ENDBRANCH  17  19
ENDBRANCH   1  16
BRANCH   1  24
ATOM     24  CB  VAL A   2       1.145   2.192   0.623  0.00  0.00    +0.027 C 
ATOM     25  CG1 VAL A   2       1.296   2.149   2.148  0.00  0.00    +0.002 C 
ATOM     26  CG2 VAL A   2       2.335   2.946   0.020  0.00  0.00    +0.002 C 
ENDBRANCH   1  24
TORSDOF 8
