124757
  -OEChem-03292013323D

 34 36  0     1  0  0  0  0  0999 V2000
    1.9055    0.2324    1.0319 O   0  0  0  0  0  0  0  0  0  0  0  0
    1.5674   -0.4495   -1.9028 O   0  0  0  0  0  0  0  0  0  0  0  0
    4.4202   -1.3727    0.0906 O   0  0  0  0  0  0  0  0  0  0  0  0
    2.5376    2.9321    0.7676 O   0  0  0  0  0  0  0  0  0  0  0  0
   -4.4634   -0.3409   -0.0316 O   0  0  0  0  0  0  0  0  0  0  0  0
    0.0616   -1.1293    0.3899 N   0  0  0  0  0  0  0  0  0  0  0  0
   -1.9741   -2.0517    0.4307 N   0  0  0  0  0  0  0  0  0  0  0  0
   -0.5455    1.1798   -0.0639 N   0  0  0  0  0  0  0  0  0  0  0  0
   -2.9636    1.4447   -0.2599 N   0  0  0  0  0  0  0  0  0  0  0  0
    2.2498   -1.1510   -0.8715 C   0  0  2  0  0  0  0  0  0  0  0  0
    1.5147   -1.0278    0.4598 C   0  0  1  0  0  0  0  0  0  0  0  0
    3.5547   -0.4458   -0.5616 C   0  0  1  0  0  0  0  0  0  0  0  0
    3.1480    0.6476    0.4284 C   0  0  1  0  0  0  0  0  0  0  0  0
    2.9178    2.0007   -0.2301 C   0  0  0  0  0  0  0  0  0  0  0  0
   -0.8265   -0.1140    0.1523 C   0  0  0  0  0  0  0  0  0  0  0  0
   -0.6817   -2.2733    0.5496 C   0  0  0  0  0  0  0  0  0  0  0  0
   -2.0789   -0.7062    0.1823 C   0  0  0  0  0  0  0  0  0  0  0  0
   -3.1733    0.1253   -0.0345 C   0  0  0  0  0  0  0  0  0  0  0  0
   -1.6817    1.8835   -0.2607 C   0  0  0  0  0  0  0  0  0  0  0  0
   -5.4886    0.6160   -0.2665 C   0  0  0  0  0  0  0  0  0  0  0  0
    2.3609   -2.1974   -1.1731 H   0  0  0  0  0  0  0  0  0  0  0  0
    1.8546   -1.8027    1.1587 H   0  0  0  0  0  0  0  0  0  0  0  0
    4.0708   -0.0561   -1.4444 H   0  0  0  0  0  0  0  0  0  0  0  0
    3.8724    0.7537    1.2441 H   0  0  0  0  0  0  0  0  0  0  0  0
    2.1124    1.9605   -0.9688 H   0  0  0  0  0  0  0  0  0  0  0  0
    3.8318    2.3585   -0.7142 H   0  0  0  0  0  0  0  0  0  0  0  0
    2.1112   -0.5116   -2.7065 H   0  0  0  0  0  0  0  0  0  0  0  0
    5.2352   -0.8952    0.3220 H   0  0  0  0  0  0  0  0  0  0  0  0
   -0.2243   -3.2330    0.7483 H   0  0  0  0  0  0  0  0  0  0  0  0
    2.4001    3.7868    0.3247 H   0  0  0  0  0  0  0  0  0  0  0  0
   -1.5509    2.9445   -0.4443 H   0  0  0  0  0  0  0  0  0  0  0  0
   -5.4920    1.3857    0.5125 H   0  0  0  0  0  0  0  0  0  0  0  0
   -6.4506    0.0960   -0.2327 H   0  0  0  0  0  0  0  0  0  0  0  0
   -5.3826    1.0679   -1.2584 H   0  0  0  0  0  0  0  0  0  0  0  0
  1 11  1  0  0  0  0
  1 13  1  0  0  0  0
  2 10  1  0  0  0  0
  2 27  1  0  0  0  0
  3 12  1  0  0  0  0
  3 28  1  0  0  0  0
  4 14  1  0  0  0  0
  4 30  1  0  0  0  0
  5 18  1  0  0  0  0
  5 20  1  0  0  0  0
  6 11  1  0  0  0  0
  6 15  1  0  0  0  0
  6 16  1  0  0  0  0
  7 16  2  0  0  0  0
  7 17  1  0  0  0  0
  8 15  1  0  0  0  0
  8 19  2  0  0  0  0
  9 18  2  0  0  0  0
  9 19  1  0  0  0  0
 10 11  1  0  0  0  0
 10 12  1  0  0  0  0
 10 21  1  0  0  0  0
 11 22  1  0  0  0  0
 12 13  1  0  0  0  0
 12 23  1  0  0  0  0
 13 14  1  0  0  0  0
 13 24  1  0  0  0  0
 14 25  1  0  0  0  0
 14 26  1  0  0  0  0
 15 17  2  0  0  0  0
 16 29  1  0  0  0  0
 17 18  1  0  0  0  0
 19 31  1  0  0  0  0
 20 32  1  0  0  0  0
 20 33  1  0  0  0  0
 20 34  1  0  0  0  0
M  END
> <PUBCHEM_COMPOUND_CID>
124757

> <PUBCHEM_CONFORMER_RMSD>
0.6

> <PUBCHEM_CONFORMER_DIVERSEORDER>
3
13
9
15
28
5
18
19
31
32
23
2
7
27
11
25
30
26
14
4
17
8
1
22
21
29
20
16
6
12
24
10

> <PUBCHEM_MMFF94_PARTIAL_CHARGES>
25
1 -0.56
10 0.28
11 0.54
12 0.28
13 0.28
14 0.28
15 0.11
16 0.04
17 0.23
18 0.39
19 0.47
2 -0.68
20 0.28
27 0.4
28 0.4
29 0.15
3 -0.68
30 0.4
31 0.15
4 -0.68
5 -0.36
6 0.05
7 -0.57
8 -0.57
9 -0.62

> <PUBCHEM_EFFECTIVE_ROTOR_COUNT>
4

> <PUBCHEM_PHARMACOPHORE_FEATURES>
12
1 1 acceptor
1 2 acceptor
1 2 donor
1 3 acceptor
1 3 donor
1 4 acceptor
1 4 donor
3 6 7 16 cation
3 8 9 19 cation
5 1 10 11 12 13 rings
5 6 7 15 16 17 rings
6 8 9 15 17 18 19 rings

> <PUBCHEM_HEAVY_ATOM_COUNT>
20

> <PUBCHEM_ATOM_DEF_STEREO_COUNT>
4

> <PUBCHEM_ATOM_UDEF_STEREO_COUNT>
0

> <PUBCHEM_BOND_DEF_STEREO_COUNT>
0

> <PUBCHEM_BOND_UDEF_STEREO_COUNT>
0

> <PUBCHEM_ISOTOPIC_ATOM_COUNT>
0

> <PUBCHEM_COMPONENT_COUNT>
1

> <PUBCHEM_CACTVS_TAUTO_COUNT>
1

> <PUBCHEM_CONFORMER_ID>
0001E75500000003

> <PUBCHEM_MMFF94_ENERGY>
50.4355

> <PUBCHEM_FEATURE_SELFOVERLAP>
61.035

> <PUBCHEM_SHAPE_FINGERPRINT>
10498660 4 18334013929889993053
10608611 8 18339079397218102072
10967382 1 18408884044390664617
11132069 177 18339355365862129585
12011746 2 18411424999104832100
12236239 1 17168147827665973226
12403259 226 18263076622078344404
12403259 415 18113893836708503453
12403260 363 18338510850626816907
12633257 1 18335407002769990192
12969540 114 18115570622464335111
13134695 92 17417806206844981842
13140716 1 18335418027481482195
14115302 16 18040445394567800510
14790565 3 18410862028035919633
15196674 1 18336827584672411219
15219456 202 18341898553642779322
15536298 74 18412544344422341929
16945 1 18408879611989878362
17802600 8 18335700507607055788
1813 80 13542464289164127643
18186145 218 18340768139720105185
19784866 240 15697731302472706846
200 152 17132112411923012587
20510252 161 18341050727214989945
21267235 1 18336554832431757667
21452121 103 18340760533317433960
21501502 16 18340769359517100042
21524375 3 18187930521458786371
23227448 37 18339919445581769397
23402539 116 18411973650822292855
23419403 2 16529442910175551407
23557571 272 18194694884422586302
23559900 14 18411980273909639834
2748010 2 18192722351945943947
3286 77 18335417924797723932
335352 9 18409165485081626526
351380 180 18411979148142820790
495365 180 17632285839256301608
4990 188 18131634448374957735
5104073 3 18336547209170464459
6333272 397 18335417971868368625
633830 44 18341889667735206741
69090 78 18343862216980488983
7364860 26 18192147101296351506
9709674 26 18339644554521105759
9981440 41 17246975317255939860

> <PUBCHEM_SHAPE_MULTIPOLES>
362.32
8.18
2.34
0.92
5.45
0.73
0.24
1.38
0.69
-0.9
-0.39
-0.55
-0.07
0.68

> <PUBCHEM_SHAPE_SELFOVERLAP>
784.658

> <PUBCHEM_SHAPE_VOLUME>
196

> <PUBCHEM_COORDINATE_TYPE>
2
5
10

$$$$
