REMARK  Name = 124852
REMARK  6 active torsions:
REMARK  status: ('A' for Active; 'I' for Inactive)
REMARK    1  A    between atoms: C_10  and  O_25
REMARK    2  A    between atoms: C_12  and  O_31
REMARK    3  A    between atoms: C_15  and  O_27
REMARK    4  A    between atoms: C_20  and  O_29
REMARK    5  A    between atoms: O_31  and  C_33
REMARK    6  A    between atoms: C_33  and  C_34
REMARK                            x       y       z     vdW  Elec       q    Type
REMARK                         _______ _______ _______ _____ _____    ______ ____
ROOT
ATOM      1  O   UNL     1      -2.345   1.048   2.203  0.00  0.00    -0.329 OA
ATOM      2  O   UNL     1       1.082   0.987  -1.229  0.00  0.00    -0.448 OA
ATOM      3  O   UNL     1      -4.587   2.023  -0.118  0.00  0.00    -0.291 OA
ATOM      4  O   UNL     1       0.974   2.024  -3.214  0.00  0.00    -0.250 OA
ATOM      5  C   UNL     1      -0.685   1.186   0.504  0.00  0.00    +0.074 C 
ATOM      6  C   UNL     1      -1.719   0.105   0.099  0.00  0.00    +0.067 C 
ATOM      7  C   UNL     1      -1.269  -1.415   0.291  0.00  0.00    +0.039 C 
ATOM      8  C   UNL     1      -1.022   2.556  -0.179  0.00  0.00    +0.024 C 
ATOM      9  C   UNL     1       0.763   0.853   0.188  0.00  0.00    +0.211 C 
ATOM     10  C   UNL     1      -2.897   0.647   0.940  0.00  0.00    +0.237 C 
ATOM     11  C   UNL     1       0.249  -1.607  -0.147  0.00  0.00    +0.064 C 
ATOM     12  C   UNL     1       1.159  -0.583   0.576  0.00  0.00    +0.212 C 
ATOM     13  C   UNL     1      -0.946   1.324   2.012  0.00  0.00    +0.149 C 
ATOM     14  C   UNL     1      -2.437   3.085   0.191  0.00  0.00    +0.063 C 
ATOM     15  C   UNL     1      -2.078  -2.334  -0.700  0.00  0.00    +0.142 C 
ATOM     16  C   UNL     1      -3.426   1.926   0.278  0.00  0.00    +0.201 C 
ATOM     17  C   UNL     1      -0.788   2.481  -1.685  0.00  0.00    +0.110 C 
ATOM     18  C   UNL     1      -1.488  -1.913   1.748  0.00  0.00    +0.003 C 
ATOM     19  C   UNL     1       0.669  -3.085  -0.105  0.00  0.00    -0.042 C 
ATOM     20  C   UNL     1      -1.684  -3.817  -0.615  0.00  0.00    +0.159 C 
ATOM     21  C   UNL     1       0.503   1.840  -2.093  0.00  0.00    +0.317 C 
ATOM     22  C   UNL     1      -2.952   4.208  -0.706  0.00  0.00    +0.008 C 
ATOM     23  C   UNL     1      -0.231  -4.057  -0.349  0.00  0.00    -0.003 C 
ATOM     24  C   UNL     1       2.098  -3.475   0.147  0.00  0.00    +0.026 C 
ENDROOT
BRANCH  10  25
ATOM     25  O   UNL     1      -3.995  -0.218   1.097  0.00  0.00    -0.358 OA
ATOM     26  H   UNL     1      -3.700  -1.043   1.515  0.00  0.00    +0.213 HD
ENDBRANCH  10  25
BRANCH  15  27
ATOM     27  O   UNL     1      -3.481  -2.254  -0.468  0.00  0.00    -0.382 OA
ATOM     28  H   UNL     1      -3.763  -1.327  -0.514  0.00  0.00    +0.210 HD
ENDBRANCH  15  27
BRANCH  20  29
ATOM     29  O   UNL     1      -2.047  -4.440  -1.849  0.00  0.00    -0.378 OA
ATOM     30  H   UNL     1      -2.989  -4.286  -2.024  0.00  0.00    +0.211 HD
ENDBRANCH  20  29
BRANCH  12  31
ATOM     31  O   UNL     1       2.526  -0.734   0.186  0.00  0.00    -0.445 OA
BRANCH  31  33
ATOM     32  O   UNL     1       3.301   0.650   1.862  0.00  0.00    -0.245 OA
ATOM     33  C   UNL     1       3.401   0.138   0.759  0.00  0.00    +0.341 C 
BRANCH  33  34
ATOM     34  C   UNL     1       4.495   0.370  -0.214  0.00  0.00    +0.073 C 
ATOM     35  C   UNL     1       5.761   0.698   0.101  0.00  0.00    -0.037 C 
ATOM     36  C   UNL     1       6.774   0.905  -0.997  0.00  0.00    +0.027 C 
ATOM     37  C   UNL     1       6.318   0.876   1.486  0.00  0.00    +0.027 C 
ENDBRANCH  33  34
ENDBRANCH  31  33
ENDBRANCH  12  31
TORSDOF 6
