124837
  -OEChem-03292013323D

 47 47  0     0  0  0  0  0  0999 V2000
    3.9848   -0.9602   -0.9859 O   0  0  0  0  0  0  0  0  0  0  0  0
   -4.8133   -0.7972   -0.9437 O   0  0  0  0  0  0  0  0  0  0  0  0
   -2.2727    2.7320    0.6698 O   0  0  0  0  0  0  0  0  0  0  0  0
    2.8852   -1.3110    1.0320 N   0  0  0  0  0  0  0  0  0  0  0  0
   -2.6179   -0.6453   -0.1873 N   0  0  0  0  0  0  0  0  0  0  0  0
    2.2225    1.5717   -0.1064 N   0  3  0  0  0  0  0  0  0  0  0  0
   -4.3684    0.0275    1.1521 N   0  0  0  0  0  0  0  0  0  0  0  0
   -1.1279    1.6357    2.3270 N   0  0  0  0  0  0  0  0  0  0  0  0
    0.5212   -2.6962   -0.2079 C   0  0  0  0  0  0  0  0  0  0  0  0
   -0.9250   -3.1943   -0.1474 C   0  0  0  0  0  0  0  0  0  0  0  0
    1.3393   -3.2304    0.9728 C   0  0  0  0  0  0  0  0  0  0  0  0
   -1.7944   -2.6844   -1.3027 C   0  0  0  0  0  0  0  0  0  0  0  0
    2.7845   -2.7422    0.9506 C   0  0  0  0  0  0  0  0  0  0  0  0
   -1.9672   -1.1693   -1.3563 C   0  0  0  0  0  0  0  0  0  0  0  0
    3.4824   -0.5293    0.0486 C   0  0  0  0  0  0  0  0  0  0  0  0
    3.4475    0.9349    0.4021 C   0  0  0  0  0  0  0  0  0  0  0  0
    1.1437    1.5913    0.6790 C   0  0  0  0  0  0  0  0  0  0  0  0
    2.2448    2.1021   -1.3310 C   0  0  0  0  0  0  0  0  0  0  0  0
   -0.0250    2.1861    0.2254 C   0  0  0  0  0  0  0  0  0  0  0  0
   -3.9981   -0.4996   -0.0723 C   0  0  0  0  0  0  0  0  0  0  0  0
    1.1046    2.7099   -1.8368 C   0  0  0  0  0  0  0  0  0  0  0  0
   -0.0402    2.7500   -1.0467 C   0  0  0  0  0  0  0  0  0  0  0  0
   -1.2105    2.2182    1.0649 C   0  0  0  0  0  0  0  0  0  0  0  0
    0.5342   -1.6021   -0.1874 H   0  0  0  0  0  0  0  0  0  0  0  0
    0.9824   -3.0112   -1.1513 H   0  0  0  0  0  0  0  0  0  0  0  0
   -1.3767   -2.9057    0.8093 H   0  0  0  0  0  0  0  0  0  0  0  0
   -0.9263   -4.2912   -0.1738 H   0  0  0  0  0  0  0  0  0  0  0  0
    0.8654   -2.9168    1.9115 H   0  0  0  0  0  0  0  0  0  0  0  0
    1.3334   -4.3268    0.9594 H   0  0  0  0  0  0  0  0  0  0  0  0
   -1.3604   -3.0229   -2.2514 H   0  0  0  0  0  0  0  0  0  0  0  0
   -2.7814   -3.1570   -1.2229 H   0  0  0  0  0  0  0  0  0  0  0  0
    3.2920   -3.1074    0.0514 H   0  0  0  0  0  0  0  0  0  0  0  0
    3.3181   -3.1467    1.8174 H   0  0  0  0  0  0  0  0  0  0  0  0
   -1.0067   -0.6570   -1.4615 H   0  0  0  0  0  0  0  0  0  0  0  0
   -2.5681   -0.9101   -2.2354 H   0  0  0  0  0  0  0  0  0  0  0  0
    2.5319   -0.8660    1.8738 H   0  0  0  0  0  0  0  0  0  0  0  0
    4.3167    1.4366   -0.0383 H   0  0  0  0  0  0  0  0  0  0  0  0
    3.5074    1.0932    1.4849 H   0  0  0  0  0  0  0  0  0  0  0  0
   -2.0404   -0.3928    0.6085 H   0  0  0  0  0  0  0  0  0  0  0  0
    1.2717    1.1258    1.6441 H   0  0  0  0  0  0  0  0  0  0  0  0
    3.1655    2.0339   -1.8975 H   0  0  0  0  0  0  0  0  0  0  0  0
    1.1055    3.1444   -2.8308 H   0  0  0  0  0  0  0  0  0  0  0  0
   -0.9332    3.2252   -1.4436 H   0  0  0  0  0  0  0  0  0  0  0  0
   -5.3431    0.1909    1.3806 H   0  0  0  0  0  0  0  0  0  0  0  0
   -3.6809    0.2671    1.8585 H   0  0  0  0  0  0  0  0  0  0  0  0
   -1.9431    1.6382    2.9320 H   0  0  0  0  0  0  0  0  0  0  0  0
   -0.3066    1.1921    2.7182 H   0  0  0  0  0  0  0  0  0  0  0  0
  1 15  2  0  0  0  0
  2 20  2  0  0  0  0
  3 23  2  0  0  0  0
  4 13  1  0  0  0  0
  4 15  1  0  0  0  0
  4 36  1  0  0  0  0
  5 14  1  0  0  0  0
  5 20  1  0  0  0  0
  5 39  1  0  0  0  0
  6 16  1  0  0  0  0
  6 17  1  0  0  0  0
  6 18  2  0  0  0  0
  7 20  1  0  0  0  0
  7 44  1  0  0  0  0
  7 45  1  0  0  0  0
  8 23  1  0  0  0  0
  8 46  1  0  0  0  0
  8 47  1  0  0  0  0
  9 10  1  0  0  0  0
  9 11  1  0  0  0  0
  9 24  1  0  0  0  0
  9 25  1  0  0  0  0
 10 12  1  0  0  0  0
 10 26  1  0  0  0  0
 10 27  1  0  0  0  0
 11 13  1  0  0  0  0
 11 28  1  0  0  0  0
 11 29  1  0  0  0  0
 12 14  1  0  0  0  0
 12 30  1  0  0  0  0
 12 31  1  0  0  0  0
 13 32  1  0  0  0  0
 13 33  1  0  0  0  0
 14 34  1  0  0  0  0
 14 35  1  0  0  0  0
 15 16  1  0  0  0  0
 16 37  1  0  0  0  0
 16 38  1  0  0  0  0
 17 19  2  0  0  0  0
 17 40  1  0  0  0  0
 18 21  1  0  0  0  0
 18 41  1  0  0  0  0
 19 22  1  0  0  0  0
 19 23  1  0  0  0  0
 21 22  2  0  0  0  0
 21 42  1  0  0  0  0
 22 43  1  0  0  0  0
M  CHG  1   6   1
M  END
> <PUBCHEM_COMPOUND_CID>
124837

> <PUBCHEM_CONFORMER_RMSD>
1.2

> <PUBCHEM_CONFORMER_DIVERSEORDER>
1
214
76
416
221
23
421
405
371
353
94
339
253
186
16
182
196
122
341
193
338
368
87
165
156
18
231
282
190
91
424
206
134
63
348
275
327
294
121
218
296
413
255
163
7
233
101
151
216
260
291
367
332
357
279
249
337
159
100
152
199
65
335
109
276
191
96
19
208
137
358
243
42
85
24
303
284
30
160
300
355
138
38
146
128
127
114
315
211
215
50
220
254
235
185
104
383
288
47
380
226
32
144
39
125
139
74
83
99
27
77
366
321
422
246
178
362
133
262
310
239
86
45
318
70
44
391
418
204
267
5
141
364
113
80
343
351
297
245
331
82
119
35
228
212
49
73
313
29
393
135
60
64
344
223
132
401
43
13
81
283
397
170
230
58
110
317
33
167
248
270
312
407
258
107
309
117
427
278
28
264
281
232
142
308
202
173
112
72
37
92
302
382
238
169
175
225
105
349
210
36
403
172
345
388
402
269
147
285
106
11
51
306
164
149
347
177
179
97
369
108
103
219
404
195
336
387
305
150
376
48
68
205
244
428
399
69
330
118
299
95
184
153
333
53
21
385
265
324
79
148
252
352
222
415
90
207
378
15
287
111
412
8
356
66
224
34
67
286
261
25
183
197
40
292
290
410
56
209
89
266
31
131
247
411
241
311
123
174
158
271
84
320
78
365
140
325
307
423
168
323
408
194
342
171
426
386
370
314
392
398
124
188
419
46
240
200
22
143
57
394
304
354
256
272
88
54
293
257
277
414
250
130
155
129
417
217
17
328
55
420
180
20
75
360
136
326
187
116
425
379
181
236
157
26
227
316
229
161
237
201
319
361
234
213
268
409
145
359
98
71
41
301
166
154
400
350
192
162
390
62
406
298
263
10
396
115
6
242
102
395
198
384
363
373
334
12
346
280
274
14
61
374
3
126
377
203
176
340
375
273
381
189
59
52
389
322
372
329
4
251
2
295
120
9
289
93
259

> <PUBCHEM_MMFF94_PARTIAL_CHARGES>
29
1 -0.57
13 0.3
14 0.3
15 0.57
16 0.55
17 0.21
18 0.21
19 0.09
2 -0.57
20 0.69
21 -0.15
22 -0.15
23 0.54
3 -0.57
36 0.37
39 0.37
4 -0.73
40 0.15
41 0.15
42 0.15
43 0.15
44 0.37
45 0.37
46 0.37
47 0.37
5 -0.73
6 -0.21
7 -0.8
8 -0.8

> <PUBCHEM_EFFECTIVE_ROTOR_COUNT>
12

> <PUBCHEM_PHARMACOPHORE_FEATURES>
9
1 1 acceptor
1 2 acceptor
1 3 acceptor
1 4 donor
1 5 donor
1 7 donor
1 8 donor
4 9 10 11 12 hydrophobe
6 6 17 18 19 21 22 rings

> <PUBCHEM_HEAVY_ATOM_COUNT>
23

> <PUBCHEM_ATOM_DEF_STEREO_COUNT>
0

> <PUBCHEM_ATOM_UDEF_STEREO_COUNT>
0

> <PUBCHEM_BOND_DEF_STEREO_COUNT>
0

> <PUBCHEM_BOND_UDEF_STEREO_COUNT>
0

> <PUBCHEM_ISOTOPIC_ATOM_COUNT>
0

> <PUBCHEM_COMPONENT_COUNT>
1

> <PUBCHEM_CACTVS_TAUTO_COUNT>
12

> <PUBCHEM_CONFORMER_ID>
0001E7A500000001

> <PUBCHEM_MMFF94_ENERGY>
37.3993

> <PUBCHEM_FEATURE_SELFOVERLAP>
45.722

> <PUBCHEM_SHAPE_FINGERPRINT>
104564 63 18341891827539494262
10708813 3 18339083674704874468
11513181 2 17774158977178975023
12156800 1 10795038327326786339
12422481 6 18052273799648434425
12788726 201 17988098775699213025
13122387 1 18410566267143167294
13140716 1 18266447892528677610
14251757 17 17534599565799448445
21315764 21 17971441174838373101
23536364 44 17399268689856430908
2818148 4 17836661720856432158
3052486 1 18194977248868932518
445580 8 18130514046126571667
463206 1 18341048635660563355
5282274 181 17622449337498062906

> <PUBCHEM_SHAPE_MULTIPOLES>
430.82
6.75
4.83
1.59
4.13
1.4
0.09
1.79
-0.17
-1.08
-0.13
0.27
-0.66
-1.98

> <PUBCHEM_SHAPE_SELFOVERLAP>
865.928

> <PUBCHEM_SHAPE_VOLUME>
251.3

> <PUBCHEM_COORDINATE_TYPE>
2
5
10

$$$$
