124852
  -OEChem-03292013323D

 66 70  0     1  0  0  0  0  0999 V2000
   -2.3445    1.0481    2.2027 O   0  0  0  0  0  0  0  0  0  0  0  0
    1.0816    0.9870   -1.2288 O   0  0  0  0  0  0  0  0  0  0  0  0
   -3.9950   -0.2183    1.0974 O   0  0  0  0  0  0  0  0  0  0  0  0
    2.5261   -0.7344    0.1860 O   0  0  0  0  0  0  0  0  0  0  0  0
   -3.4805   -2.2537   -0.4676 O   0  0  0  0  0  0  0  0  0  0  0  0
   -4.5869    2.0228   -0.1184 O   0  0  0  0  0  0  0  0  0  0  0  0
   -2.0470   -4.4399   -1.8490 O   0  0  0  0  0  0  0  0  0  0  0  0
    0.9736    2.0243   -3.2139 O   0  0  0  0  0  0  0  0  0  0  0  0
    3.3011    0.6497    1.8619 O   0  0  0  0  0  0  0  0  0  0  0  0
   -0.6847    1.1858    0.5041 C   0  0  2  0  0  0  0  0  0  0  0  0
   -1.7186    0.1052    0.0985 C   0  0  1  0  0  0  0  0  0  0  0  0
   -1.2687   -1.4146    0.2906 C   0  0  2  0  0  0  0  0  0  0  0  0
   -1.0218    2.5562   -0.1787 C   0  0  2  0  0  0  0  0  0  0  0  0
    0.7634    0.8530    0.1879 C   0  0  1  0  0  0  0  0  0  0  0  0
   -2.8970    0.6469    0.9397 C   0  0  2  0  0  0  0  0  0  0  0  0
    0.2488   -1.6070   -0.1473 C   0  0  1  0  0  0  0  0  0  0  0  0
    1.1592   -0.5825    0.5764 C   0  0  1  0  0  0  0  0  0  0  0  0
   -0.9458    1.3242    2.0121 C   0  0  0  0  0  0  0  0  0  0  0  0
   -2.4366    3.0852    0.1907 C   0  0  2  0  0  0  0  0  0  0  0  0
   -2.0777   -2.3339   -0.6996 C   0  0  1  0  0  0  0  0  0  0  0  0
   -3.4262    1.9257    0.2784 C   0  0  0  0  0  0  0  0  0  0  0  0
   -0.7885    2.4809   -1.6855 C   0  0  0  0  0  0  0  0  0  0  0  0
   -1.4884   -1.9132    1.7482 C   0  0  0  0  0  0  0  0  0  0  0  0
    0.6691   -3.0852   -0.1046 C   0  0  0  0  0  0  0  0  0  0  0  0
   -1.6839   -3.8169   -0.6150 C   0  0  2  0  0  0  0  0  0  0  0  0
    0.5035    1.8398   -2.0928 C   0  0  0  0  0  0  0  0  0  0  0  0
   -2.9519    4.2085   -0.7064 C   0  0  0  0  0  0  0  0  0  0  0  0
   -0.2308   -4.0567   -0.3490 C   0  0  0  0  0  0  0  0  0  0  0  0
    2.0980   -3.4752    0.1467 C   0  0  0  0  0  0  0  0  0  0  0  0
    3.4014    0.1380    0.7594 C   0  0  0  0  0  0  0  0  0  0  0  0
    4.4952    0.3705   -0.2137 C   0  0  0  0  0  0  0  0  0  0  0  0
    5.7615    0.6982    0.1007 C   0  0  0  0  0  0  0  0  0  0  0  0
    6.7740    0.9054   -0.9967 C   0  0  0  0  0  0  0  0  0  0  0  0
    6.3177    0.8761    1.4858 C   0  0  0  0  0  0  0  0  0  0  0  0
   -1.9640    0.1975   -0.9658 H   0  0  0  0  0  0  0  0  0  0  0  0
   -0.3060    3.2997    0.2054 H   0  0  0  0  0  0  0  0  0  0  0  0
    1.3984    1.5911    0.6886 H   0  0  0  0  0  0  0  0  0  0  0  0
    0.3191   -1.3645   -1.2197 H   0  0  0  0  0  0  0  0  0  0  0  0
    1.1008   -0.7419    1.6582 H   0  0  0  0  0  0  0  0  0  0  0  0
   -0.3708    0.6327    2.6298 H   0  0  0  0  0  0  0  0  0  0  0  0
   -0.7266    2.3270    2.3948 H   0  0  0  0  0  0  0  0  0  0  0  0
   -2.3886    3.5039    1.2051 H   0  0  0  0  0  0  0  0  0  0  0  0
   -1.9217   -1.9738   -1.7258 H   0  0  0  0  0  0  0  0  0  0  0  0
   -0.7674    3.4989   -2.0933 H   0  0  0  0  0  0  0  0  0  0  0  0
   -1.5962    1.9405   -2.1902 H   0  0  0  0  0  0  0  0  0  0  0  0
   -0.9251   -1.3372    2.4808 H   0  0  0  0  0  0  0  0  0  0  0  0
   -2.5406   -1.8852    2.0407 H   0  0  0  0  0  0  0  0  0  0  0  0
   -1.1726   -2.9498    1.8957 H   0  0  0  0  0  0  0  0  0  0  0  0
   -2.2718   -4.3139    0.1665 H   0  0  0  0  0  0  0  0  0  0  0  0
   -2.2219    5.0213   -0.7747 H   0  0  0  0  0  0  0  0  0  0  0  0
   -3.1798    3.8532   -1.7169 H   0  0  0  0  0  0  0  0  0  0  0  0
   -3.8788    4.6289   -0.3001 H   0  0  0  0  0  0  0  0  0  0  0  0
    0.0840   -5.0978   -0.3311 H   0  0  0  0  0  0  0  0  0  0  0  0
   -4.1982   -0.6035    0.2289 H   0  0  0  0  0  0  0  0  0  0  0  0
   -3.9206   -2.8164   -1.1275 H   0  0  0  0  0  0  0  0  0  0  0  0
    2.4302   -3.1186    1.1265 H   0  0  0  0  0  0  0  0  0  0  0  0
    2.7503   -3.0735   -0.6347 H   0  0  0  0  0  0  0  0  0  0  0  0
    2.2375   -4.5623    0.1453 H   0  0  0  0  0  0  0  0  0  0  0  0
   -1.8478   -5.3889   -1.7732 H   0  0  0  0  0  0  0  0  0  0  0  0
    4.2214    0.2366   -1.2581 H   0  0  0  0  0  0  0  0  0  0  0  0
    7.1934    1.9152   -0.9377 H   0  0  0  0  0  0  0  0  0  0  0  0
    6.3397    0.7854   -1.9949 H   0  0  0  0  0  0  0  0  0  0  0  0
    7.5910    0.1828   -0.9013 H   0  0  0  0  0  0  0  0  0  0  0  0
    5.6575    0.5055    2.2723 H   0  0  0  0  0  0  0  0  0  0  0  0
    6.5202    1.9347    1.6772 H   0  0  0  0  0  0  0  0  0  0  0  0
    7.2583    0.3234    1.5875 H   0  0  0  0  0  0  0  0  0  0  0  0
  1 15  1  0  0  0  0
  1 18  1  0  0  0  0
  2 14  1  0  0  0  0
  2 26  1  0  0  0  0
  3 15  1  0  0  0  0
  3 54  1  0  0  0  0
  4 17  1  0  0  0  0
  4 30  1  0  0  0  0
  5 20  1  0  0  0  0
  5 55  1  0  0  0  0
  6 21  2  0  0  0  0
  7 25  1  0  0  0  0
  7 59  1  0  0  0  0
  8 26  2  0  0  0  0
  9 30  2  0  0  0  0
 10 11  1  0  0  0  0
 10 13  1  0  0  0  0
 10 14  1  0  0  0  0
 10 18  1  0  0  0  0
 11 12  1  0  0  0  0
 11 15  1  0  0  0  0
 11 35  1  0  0  0  0
 12 16  1  0  0  0  0
 12 20  1  0  0  0  0
 12 23  1  0  0  0  0
 13 19  1  0  0  0  0
 13 22  1  0  0  0  0
 13 36  1  0  0  0  0
 14 17  1  0  0  0  0
 14 37  1  0  0  0  0
 15 21  1  0  0  0  0
 16 17  1  0  0  0  0
 16 24  1  0  0  0  0
 16 38  1  0  0  0  0
 17 39  1  0  0  0  0
 18 40  1  0  0  0  0
 18 41  1  0  0  0  0
 19 21  1  0  0  0  0
 19 27  1  0  0  0  0
 19 42  1  0  0  0  0
 20 25  1  0  0  0  0
 20 43  1  0  0  0  0
 22 26  1  0  0  0  0
 22 44  1  0  0  0  0
 22 45  1  0  0  0  0
 23 46  1  0  0  0  0
 23 47  1  0  0  0  0
 23 48  1  0  0  0  0
 24 28  2  0  0  0  0
 24 29  1  0  0  0  0
 25 28  1  0  0  0  0
 25 49  1  0  0  0  0
 27 50  1  0  0  0  0
 27 51  1  0  0  0  0
 27 52  1  0  0  0  0
 28 53  1  0  0  0  0
 29 56  1  0  0  0  0
 29 57  1  0  0  0  0
 29 58  1  0  0  0  0
 30 31  1  0  0  0  0
 31 32  2  0  0  0  0
 31 60  1  0  0  0  0
 32 33  1  0  0  0  0
 32 34  1  0  0  0  0
 33 61  1  0  0  0  0
 33 62  1  0  0  0  0
 33 63  1  0  0  0  0
 34 64  1  0  0  0  0
 34 65  1  0  0  0  0
 34 66  1  0  0  0  0
M  END
> <PUBCHEM_COMPOUND_CID>
124852

> <PUBCHEM_CONFORMER_RMSD>
0.8

> <PUBCHEM_CONFORMER_DIVERSEORDER>
1
5
4
3
2

> <PUBCHEM_MMFF94_PARTIAL_CHARGES>
33
1 -0.56
14 0.28
15 0.62
16 0.14
17 0.28
18 0.28
19 0.06
2 -0.43
20 0.28
21 0.45
22 0.06
24 -0.28
25 0.42
26 0.66
28 -0.29
29 0.14
3 -0.68
30 0.71
31 -0.14
32 -0.28
33 0.14
34 0.14
4 -0.43
5 -0.68
53 0.15
54 0.4
55 0.4
59 0.4
6 -0.57
60 0.15
7 -0.68
8 -0.57
9 -0.57

> <PUBCHEM_EFFECTIVE_ROTOR_COUNT>
4.6

> <PUBCHEM_PHARMACOPHORE_FEATURES>
15
1 1 acceptor
1 3 acceptor
1 3 donor
1 5 acceptor
1 5 donor
1 6 acceptor
1 7 acceptor
1 7 donor
1 8 acceptor
1 9 acceptor
3 32 33 34 hydrophobe
6 10 11 12 14 16 17 rings
6 12 16 20 24 25 28 rings
6 2 10 13 14 22 26 rings
8 1 10 11 13 15 18 19 21 rings

> <PUBCHEM_HEAVY_ATOM_COUNT>
34

> <PUBCHEM_ATOM_DEF_STEREO_COUNT>
11

> <PUBCHEM_ATOM_UDEF_STEREO_COUNT>
0

> <PUBCHEM_BOND_DEF_STEREO_COUNT>
0

> <PUBCHEM_BOND_UDEF_STEREO_COUNT>
0

> <PUBCHEM_ISOTOPIC_ATOM_COUNT>
0

> <PUBCHEM_COMPONENT_COUNT>
1

> <PUBCHEM_CACTVS_TAUTO_COUNT>
2

> <PUBCHEM_CONFORMER_ID>
0001E7B400000001

> <PUBCHEM_MMFF94_ENERGY>
132.3224

> <PUBCHEM_FEATURE_SELFOVERLAP>
76.359

> <PUBCHEM_SHAPE_FINGERPRINT>
10165383 225 18271534108669590752
10411042 1 17836080452561888630
10863032 1 17837764539756556385
10871710 139 18336827588762130834
10906281 52 17606140414894860981
10930396 42 17335857612462641682
1100329 8 18051130594965213387
11370993 70 18268702810150749865
11513181 2 18130504132899519887
11578080 2 18052549772155243201
12422481 6 17968940752448132256
12788726 201 18263069041582639994
13009979 54 18046630284950053534
131258 43 17476375258711295484
13140716 1 18118415165728353841
13911987 19 18341047406910215097
14068700 675 18052246581913100046
14142880 1 18333724719550607702
14840074 17 17968106351908580164
14910302 57 18342745118215828262
14955137 171 17975983377252829427
15131766 46 15431752980615480390
15219462 58 14760184441954647887
15230672 131 18337395912885847070
15324884 4 17393914776777465153
15484559 13 15438710385153350156
15840311 113 17547581379773841497
15849732 13 18261116304858041185
16087824 20 18411978075762077719
16945 1 18340756070919895977
17492 54 18264184990535287935
17980427 23 17676780789778374301
17980427 26 16911188494195106729
19930381 70 17692807086622882673
20511986 3 17676479558421593524
20600515 1 17772489012384349881
20775438 99 15753415355998306262
21033648 29 18270952454281892664
22149856 69 18051719676465217113
23559900 14 17691117137298327400
238 59 16962918244222805293
255183 313 18200891667922697715
3380486 77 17765164156141318935
3729539 64 17766019216043563694
469060 322 17968364749893965150
484989 97 17976243953836809639
5080951 261 17984387933394281262
5265222 85 18339374079689058036
57527306 92 17603861200652967949
581034 39 18337122211107975532
59755656 520 17988657246154167024
9925002 15 18193003844070810477

> <PUBCHEM_SHAPE_MULTIPOLES>
646.88
9.04
5.23
1.84
18.22
4.25
0.45
-5.57
-1.57
-4.88
2.37
0.14
-0.82
-0.55

> <PUBCHEM_SHAPE_SELFOVERLAP>
1407.629

> <PUBCHEM_SHAPE_VOLUME>
343.3

> <PUBCHEM_COORDINATE_TYPE>
2
5
10

$$$$
