REMARK  Name = 124899
REMARK  13 active torsions:
REMARK  status: ('A' for Active; 'I' for Inactive)
REMARK    1  A    between atoms: N_2  and  C_5
REMARK    2  A    between atoms: C_3  and  C_21
REMARK    3  A    between atoms: C_5  and  C_7
REMARK    4  A    between atoms: C_5  and  C_10
REMARK    5  A    between atoms: C_7  and  O_8
REMARK    6  A    between atoms: C_10  and  C_11
REMARK    7  A    between atoms: C_11  and  C_12
REMARK    8  A    between atoms: C_12  and  N_13
REMARK    9  A    between atoms: N_13  and  C_16
REMARK   10  A    between atoms: C_21  and  N_22
REMARK   11  A    between atoms: C_21  and  C_26
REMARK   12  A    between atoms: C_26  and  C_27
REMARK   13  A    between atoms: C_32  and  O_33
REMARK                            x       y       z     vdW  Elec       q    Type
REMARK                         _______ _______ _______ _____ _____    ______ ____
ROOT
ATOM      1  O   UNL     1      -2.952  -0.798  -1.616  0.00  0.00    -0.277 OA
ATOM      2  N   UNL     1      -2.171   0.384   0.221  0.00  0.00    -0.298 N 
ATOM      3  C   UNL     1      -2.697  -0.734  -0.414  0.00  0.00    +0.203 C 
ATOM      4  H   UNL     1      -1.999   0.344   1.189  0.00  0.00    +0.150 HD
ENDROOT
BRANCH   2   5
ATOM      5  C   UNL     1      -1.869   1.600  -0.490  0.00  0.00    +0.171 C 
BRANCH   5   7
ATOM      6  O   UNL     1      -2.445   2.792   1.531  0.00  0.00    -0.248 OA
ATOM      7  C   UNL     1      -2.117   2.845   0.351  0.00  0.00    +0.335 C 
BRANCH   7   8
ATOM      8  O   UNL     1      -1.932   3.991  -0.363  0.00  0.00    -0.443 OA
ATOM      9  C   UNL     1      -2.148   5.211   0.354  0.00  0.00    +0.256 C 
ENDBRANCH   7   8
ENDBRANCH   5   7
BRANCH   5  10
ATOM     10  C   UNL     1      -0.442   1.571  -1.052  0.00  0.00    +0.033 C 
BRANCH  10  11
ATOM     11  C   UNL     1       0.651   1.538   0.028  0.00  0.00    +0.029 C 
BRANCH  11  12
ATOM     12  C   UNL     1       2.053   1.469  -0.570  0.00  0.00    +0.129 C 
BRANCH  12  13
ATOM     13  N   UNL     1       3.051   1.475   0.501  0.00  0.00    -0.240 NA
BRANCH  13  16
ATOM     14  N   UNL     1       4.803   1.450  -1.142  0.00  0.00    -0.370 N 
ATOM     15  N   UNL     1       5.294   1.471   1.084  0.00  0.00    -0.370 N 
ATOM     16  C   UNL     1       4.296   1.465   0.139  0.00  0.00    +0.189 C 
ATOM     17  H   UNL     1       4.192   1.444  -1.914  0.00  0.00    +0.159 HD
ATOM     18  H   UNL     1       5.777   1.443  -1.285  0.00  0.00    +0.159 HD
ATOM     19  H   UNL     1       5.065   1.482   2.041  0.00  0.00    +0.159 HD
ATOM     20  H   UNL     1       6.238   1.463   0.803  0.00  0.00    +0.159 HD
ENDBRANCH  13  16
ENDBRANCH  12  13
ENDBRANCH  11  12
ENDBRANCH  10  11
ENDBRANCH   5  10
ENDBRANCH   2   5
BRANCH   3  21
ATOM     21  C   UNL     1      -2.907  -1.907   0.538  0.00  0.00    +0.017 C 
BRANCH  21  22
ATOM     22  N   UNL     1      -4.340  -2.201   0.536  0.00  0.00    +0.388 N 
ATOM     23  H   UNL     1      -4.528  -2.984   1.163  0.00  0.00    -0.089 HD
ATOM     24  H   UNL     1      -4.636  -2.444  -0.410  0.00  0.00    -0.089 HD
ATOM     25  H   UNL     1      -4.856  -1.380   0.853  0.00  0.00    -0.089 HD
ENDBRANCH  21  22
BRANCH  21  26
ATOM     26  C   UNL     1      -2.120  -3.138   0.066  0.00  0.00    +0.013 C 
BRANCH  26  27
ATOM     27  C   UNL     1      -0.626  -2.910   0.055  0.00  0.00    -0.024 C 
ATOM     28  C   UNL     1       0.131  -3.198   1.190  0.00  0.00    -0.001 C 
ATOM     29  C   UNL     1      -0.005  -2.412  -1.090  0.00  0.00    -0.001 C 
ATOM     30  C   UNL     1       1.510  -2.988   1.180  0.00  0.00    +0.036 C 
ATOM     31  C   UNL     1       1.374  -2.201  -1.100  0.00  0.00    +0.036 C 
ATOM     32  C   UNL     1       2.131  -2.489   0.035  0.00  0.00    +0.134 C 
BRANCH  32  33
ATOM     33  O   UNL     1       3.477  -2.284   0.026  0.00  0.00    -0.506 OA
ATOM     34  H   UNL     1       3.986  -2.477   0.788  0.00  0.00    +0.292 HD
ENDBRANCH  32  33
ENDBRANCH  26  27
ENDBRANCH  21  26
ENDBRANCH   3  21
TORSDOF 13
