124819
  -OEChem-03292013323D

 35 36  0     1  0  0  0  0  0999 V2000
    2.0731   -2.9158   -0.7512 O   0  0  0  0  0  0  0  0  0  0  0  0
    4.2040    0.7996    1.3797 O   0  0  0  0  0  0  0  0  0  0  0  0
    3.7541   -1.8346    1.0822 O   0  0  0  0  0  0  0  0  0  0  0  0
    2.5999    3.3257    0.7413 O   0  0  0  0  0  0  0  0  0  0  0  0
   -5.8518    0.0996    1.0910 O   0  5  0  0  0  0  0  0  0  0  0  0
   -5.6324    0.9486   -0.9216 O   0  0  0  0  0  0  0  0  0  0  0  0
    0.3104   -0.9446    0.1243 N   0  0  0  0  0  0  0  0  0  0  0  0
   -5.1511    0.3804    0.0885 N   0  3  0  0  0  0  0  0  0  0  0  0
    1.2075   -0.6663   -0.9806 C   0  0  2  0  0  0  0  0  0  0  0  0
    2.4468   -1.5643   -0.9248 C   0  0  1  0  0  0  0  0  0  0  0  0
    3.8188    0.3671    0.0857 C   0  0  2  0  0  0  0  0  0  0  0  0
    2.7319    1.2654   -0.4525 C   0  0  0  0  0  0  0  0  0  0  0  0
    1.5602    0.7931   -0.9189 C   0  0  0  0  0  0  0  0  0  0  0  0
    3.3637   -1.0858    0.1880 C   0  0  0  0  0  0  0  0  0  0  0  0
    3.0318    2.7388   -0.4706 C   0  0  0  0  0  0  0  0  0  0  0  0
   -1.0320   -0.6188    0.1156 C   0  0  0  0  0  0  0  0  0  0  0  0
   -1.8586   -0.9150    1.2183 C   0  0  0  0  0  0  0  0  0  0  0  0
   -1.6174    0.0198   -0.9963 C   0  0  0  0  0  0  0  0  0  0  0  0
   -3.2142   -0.5864    1.2094 C   0  0  0  0  0  0  0  0  0  0  0  0
   -2.9731    0.3484   -1.0053 C   0  0  0  0  0  0  0  0  0  0  0  0
   -3.7714    0.0452    0.0975 C   0  0  0  0  0  0  0  0  0  0  0  0
    0.7222   -0.8999   -1.9359 H   0  0  0  0  0  0  0  0  0  0  0  0
    3.0151   -1.4978   -1.8602 H   0  0  0  0  0  0  0  0  0  0  0  0
    4.6955    0.3998   -0.5695 H   0  0  0  0  0  0  0  0  0  0  0  0
    0.8310    1.5037   -1.2999 H   0  0  0  0  0  0  0  0  0  0  0  0
    0.7011   -1.2934    0.9929 H   0  0  0  0  0  0  0  0  0  0  0  0
    2.5244    3.2443   -1.2999 H   0  0  0  0  0  0  0  0  0  0  0  0
    4.1042    2.9221   -0.5930 H   0  0  0  0  0  0  0  0  0  0  0  0
    1.5214   -2.9784    0.0465 H   0  0  0  0  0  0  0  0  0  0  0  0
    3.4071    0.8430    1.9360 H   0  0  0  0  0  0  0  0  0  0  0  0
   -1.4405   -1.4077    2.0936 H   0  0  0  0  0  0  0  0  0  0  0  0
   -1.0546    0.2717   -1.8893 H   0  0  0  0  0  0  0  0  0  0  0  0
   -3.8056   -0.8377    2.0862 H   0  0  0  0  0  0  0  0  0  0  0  0
   -3.3741    0.8378   -1.8892 H   0  0  0  0  0  0  0  0  0  0  0  0
    1.6365    3.2087    0.8040 H   0  0  0  0  0  0  0  0  0  0  0  0
  1 10  1  0  0  0  0
  1 29  1  0  0  0  0
  2 11  1  0  0  0  0
  2 30  1  0  0  0  0
  3 14  2  0  0  0  0
  4 15  1  0  0  0  0
  4 35  1  0  0  0  0
  5  8  1  0  0  0  0
  6  8  2  0  0  0  0
  7  9  1  0  0  0  0
  7 16  1  0  0  0  0
  7 26  1  0  0  0  0
  8 21  1  0  0  0  0
  9 10  1  0  0  0  0
  9 13  1  0  0  0  0
  9 22  1  0  0  0  0
 10 14  1  0  0  0  0
 10 23  1  0  0  0  0
 11 12  1  0  0  0  0
 11 14  1  0  0  0  0
 11 24  1  0  0  0  0
 12 13  2  0  0  0  0
 12 15  1  0  0  0  0
 13 25  1  0  0  0  0
 15 27  1  0  0  0  0
 15 28  1  0  0  0  0
 16 17  2  0  0  0  0
 16 18  1  0  0  0  0
 17 19  1  0  0  0  0
 17 31  1  0  0  0  0
 18 20  2  0  0  0  0
 18 32  1  0  0  0  0
 19 21  2  0  0  0  0
 19 33  1  0  0  0  0
 20 21  1  0  0  0  0
 20 34  1  0  0  0  0
M  CHG  2   5  -1   8   1
M  END
> <PUBCHEM_COMPOUND_CID>
124819

> <PUBCHEM_CONFORMER_RMSD>
0.8

> <PUBCHEM_CONFORMER_DIVERSEORDER>
2
14
1
11
5
12
4
13
3
8
9
6
7
10

> <PUBCHEM_MMFF94_PARTIAL_CHARGES>
30
1 -0.68
10 0.34
11 0.48
12 -0.28
13 -0.29
14 0.45
15 0.42
16 0.1
17 -0.15
18 -0.15
19 -0.15
2 -0.68
20 -0.15
21 0.13
25 0.15
26 0.4
29 0.4
3 -0.57
30 0.4
31 0.15
32 0.15
33 0.15
34 0.15
35 0.4
4 -0.68
5 -0.52
6 -0.52
7 -0.87
8 0.91
9 0.51

> <PUBCHEM_EFFECTIVE_ROTOR_COUNT>
4.6

> <PUBCHEM_PHARMACOPHORE_FEATURES>
14
1 1 acceptor
1 1 donor
1 2 acceptor
1 2 donor
1 3 acceptor
1 4 acceptor
1 4 donor
1 5 acceptor
1 5 anion
1 6 acceptor
1 7 cation
1 7 donor
6 16 17 18 19 20 21 rings
6 9 10 11 12 13 14 rings

> <PUBCHEM_HEAVY_ATOM_COUNT>
21

> <PUBCHEM_ATOM_DEF_STEREO_COUNT>
3

> <PUBCHEM_ATOM_UDEF_STEREO_COUNT>
0

> <PUBCHEM_BOND_DEF_STEREO_COUNT>
0

> <PUBCHEM_BOND_UDEF_STEREO_COUNT>
0

> <PUBCHEM_ISOTOPIC_ATOM_COUNT>
0

> <PUBCHEM_COMPONENT_COUNT>
1

> <PUBCHEM_CACTVS_TAUTO_COUNT>
31

> <PUBCHEM_CONFORMER_ID>
0001E79300000002

> <PUBCHEM_MMFF94_ENERGY>
51.1869

> <PUBCHEM_FEATURE_SELFOVERLAP>
71.149

> <PUBCHEM_SHAPE_FINGERPRINT>
10366900 7 18261405428796927382
10498660 4 14333136230344548091
11405975 8 18261115179634768675
11640471 11 17632578300843478476
12166972 35 17846781776038131872
12236239 1 17203609263731472935
12403259 327 17530957016872957786
12403259 415 17676485034525384797
12633257 1 18041549338976151680
13134695 92 18337665326860323182
13533116 47 18260269629375686923
13583140 156 18335990877624742451
13675066 3 17822016419442506487
14251764 38 18339362968287449113
14251764 75 18052545665982099672
14866123 147 16749296277688895946
1813 80 17342962355748163750
192875 21 18201722825345125344
20157964 124 18413106152541846509
20645477 56 18187368744547992247
20645477 70 18409735040621149383
21033648 29 17458890600967370973
21065201 7 16660084399808098299
23559900 14 17603596213480427646
2838139 119 15122078855120808200
3060560 45 18202010923768185102
3472631 163 15984528018667601224
351380 180 18334292054982129829
4409770 3 14963400188088729863
474 4 18272370909969156400
495365 180 18412544344464241176
5104073 3 18261120690351889139
5374978 207 17967537878236617917
8272917 22 18342462534383142102
960060 61 9727637206548187825
9971528 1 18201441316314722142

> <PUBCHEM_SHAPE_MULTIPOLES>
386.99
10.73
2.38
1.24
13.37
0.93
-0.13
2.54
-1.98
-3.85
-0.04
0.13
-0.09
0.77

> <PUBCHEM_SHAPE_SELFOVERLAP>
821.453

> <PUBCHEM_SHAPE_VOLUME>
214.2

> <PUBCHEM_COORDINATE_TYPE>
2
5
10

$$$$
