REMARK  Name = 12486301
REMARK  6 active torsions:
REMARK  status: ('A' for Active; 'I' for Inactive)
REMARK    1  A    between atoms: N_1  and  C_13
REMARK    2  A    between atoms: C_13  and  C_14
REMARK    3  A    between atoms: C_14  and  C_15
REMARK    4  A    between atoms: C_15  and  O_16
REMARK    5  A    between atoms: C_15  and  C_18
REMARK    6  A    between atoms: C_18  and  O_19
REMARK                            x       y       z     vdW  Elec       q    Type
REMARK                         _______ _______ _______ _____ _____    ______ ____
ROOT
ATOM      1  N   UNL     1      -0.191  -0.767   0.509  0.00  0.00    -0.272 N 
ATOM      2  N   UNL     1      -2.015  -1.900  -0.037  0.00  0.00    -0.242 NA
ATOM      3  N   UNL     1      -1.028   1.505   0.361  0.00  0.00    -0.228 NA
ATOM      4  N   UNL     1      -3.380   1.528  -0.288  0.00  0.00    -0.229 NA
ATOM      5  C   UNL     1      -1.144   0.171   0.281  0.00  0.00    +0.151 C 
ATOM      6  C   UNL     1      -2.275  -0.553  -0.059  0.00  0.00    +0.140 C 
ATOM      7  C   UNL     1      -0.748  -1.993   0.310  0.00  0.00    +0.221 C 
ATOM      8  C   UNL     1      -3.425   0.175  -0.349  0.00  0.00    +0.143 C 
ATOM      9  C   UNL     1      -2.202   2.100   0.059  0.00  0.00    +0.253 C 
ATOM     10  N   UNL     1      -4.618  -0.478  -0.702  0.00  0.00    -0.342 N 
ATOM     11  H   UNL     1      -5.426   0.048  -0.905  0.00  0.00    +0.144 HD
ATOM     12  H   UNL     1      -4.647  -1.461  -0.745  0.00  0.00    +0.144 HD
ENDROOT
BRANCH   1  13
ATOM     13  C   UNL     1       1.191  -0.518   0.901  0.00  0.00    +0.097 C 
BRANCH  13  14
ATOM     14  C   UNL     1       2.152  -0.361  -0.284  0.00  0.00    +0.053 C 
BRANCH  14  15
ATOM     15  C   UNL     1       3.618  -0.168   0.121  0.00  0.00    +0.141 C 
BRANCH  15  16
ATOM     16  O   UNL     1       3.717   0.985   0.956  0.00  0.00    -0.382 OA
ATOM     17  H   UNL     1       3.158   0.865   1.740  0.00  0.00    +0.210 HD
ENDBRANCH  15  16
BRANCH  15  18
ATOM     18  C   UNL     1       4.503   0.037  -1.105  0.00  0.00    +0.166 C 
BRANCH  18  19
ATOM     19  O   UNL     1       5.846   0.236  -0.675  0.00  0.00    -0.379 OA
ATOM     20  H   UNL     1       6.416   0.368  -1.448  0.00  0.00    +0.211 HD
ENDBRANCH  18  19
ENDBRANCH  15  18
ENDBRANCH  14  15
ENDBRANCH  13  14
ENDBRANCH   1  13
TORSDOF 6
