REMARK  Name = 124888
REMARK  9 active torsions:
REMARK  status: ('A' for Active; 'I' for Inactive)
REMARK    1  A    between atoms: N_2  and  C_18
REMARK    2  A    between atoms: C_3  and  C_5
REMARK    3  A    between atoms: C_6  and  C_11
REMARK    4  A    between atoms: C_18  and  C_19
REMARK    5  A    between atoms: C_18  and  C_26
REMARK    6  A    between atoms: C_19  and  S_20
REMARK    7  A    between atoms: S_20  and  C_22
REMARK    8  A    between atoms: C_22  and  S_23
REMARK    9  A    between atoms: C_26  and  O_27
REMARK                            x       y       z     vdW  Elec       q    Type
REMARK                         _______ _______ _______ _____ _____    ______ ____
ROOT
ATOM      1  O   UNK A   0       0.087  -2.020  -1.923  0.00  0.00    -0.270 OA
ATOM      2  N   UNK A   1       1.267  -1.436  -0.010  0.00  0.00    -0.299 N 
ATOM      3  C   UNK A   0       0.149  -1.473  -0.827  0.00  0.00    +0.246 C 
ATOM      4  H   UNK A   1       1.210  -0.968   0.854  0.00  0.00    +0.150 HD
ENDROOT
BRANCH   3   5
ATOM      5  C   UNK A   0      -1.005  -0.754  -0.221  0.00  0.00    +0.058 C 
ATOM      6  C   UNK A   0      -2.164  -0.691  -0.878  0.00  0.00    +0.011 C 
BRANCH   6  11
ATOM      7  O   UNK A   0      -2.659   2.045  -1.383  0.00  0.00    -0.267 OA
ATOM      8  O   UNK A   0      -6.541   2.087   1.071  0.00  0.00    -0.247 OA
ATOM      9  N   UNK A   0      -5.348   0.134   0.892  0.00  0.00    -0.310 N 
ATOM     10  N   UNK A   0      -4.598   2.071  -0.162  0.00  0.00    -0.275 N 
ATOM     11  C   UNK A   0      -3.325  -0.010  -0.350  0.00  0.00    +0.068 A 
ATOM     12  C   UNK A   0      -4.270  -0.588   0.421  0.00  0.00    +0.042 A 
ATOM     13  C   UNK A   0      -3.479   1.449  -0.687  0.00  0.00    +0.262 A 
ATOM     14  C   UNK A   0      -4.296  -2.030   0.860  0.00  0.00    +0.050 C 
ATOM     15  C   UNK A   0      -5.567   1.473   0.633  0.00  0.00    +0.327 A 
ATOM     16  H   UNK A   0      -6.007  -0.338   1.451  0.00  0.00    +0.170 HD
ATOM     17  H   UNK A   0      -4.719   3.025  -0.372  0.00  0.00    +0.173 HD
ENDBRANCH   6  11
ENDBRANCH   3   5
BRANCH   2  18
ATOM     18  C   UNK A   1       2.514  -2.062  -0.385  0.00  0.00    +0.114 C 
BRANCH  18  19
ATOM     19  C   UNK A   1       3.702  -1.309   0.216  0.00  0.00    +0.115 C 
BRANCH  19  20
ATOM     20  S   UNK A   1       3.703   0.446  -0.282  0.00  0.00    +0.057 S 
ATOM     21  O   UNK A   1       2.584   1.107   0.459  0.00  0.00    -0.255 OA
BRANCH  20  22
ATOM     22  C   UNK A   1       5.256   0.857   0.564  0.00  0.00    +0.183 C 
BRANCH  22  23
ATOM     23  S   UNK A   1       5.714   2.599   0.329  0.00  0.00    +0.056 S 
ATOM     24  O   UNK A   1       6.099   2.779  -1.110  0.00  0.00    -0.255 OA
ATOM     25  C   UNK A   1       7.245   2.512   1.290  0.00  0.00    +0.107 C 
ENDBRANCH  22  23
ENDBRANCH  20  22
ENDBRANCH  19  20
ENDBRANCH  18  19
BRANCH  18  26
ATOM     26  C   UNK A   1       2.505  -3.534   0.034  0.00  0.00    +0.158 C 
BRANCH  26  27
ATOM     27  O   UNK A   1       2.427  -3.651   1.449  0.00  0.00    -0.380 OA
ATOM     28  H   UNK A   1       2.422  -4.589   1.697  0.00  0.00    +0.211 HD
ENDBRANCH  26  27
ENDBRANCH  18  26
ENDBRANCH   2  18
TORSDOF 9
