124849
  -OEChem-03292013323D

 66 70  0     1  0  0  0  0  0999 V2000
   -2.3417    1.1408    2.1755 O   0  0  0  0  0  0  0  0  0  0  0  0
    1.0917    0.9448   -1.2510 O   0  0  0  0  0  0  0  0  0  0  0  0
   -4.0086   -0.0993    1.0716 O   0  0  0  0  0  0  0  0  0  0  0  0
    2.4728   -0.8088    0.1897 O   0  0  0  0  0  0  0  0  0  0  0  0
   -3.5841   -2.1412   -0.4260 O   0  0  0  0  0  0  0  0  0  0  0  0
   -3.9877    1.7636   -1.0460 O   0  0  0  0  0  0  0  0  0  0  0  0
   -2.2373   -4.4352   -1.7274 O   0  0  0  0  0  0  0  0  0  0  0  0
    1.1044    2.0588   -3.2009 O   0  0  0  0  0  0  0  0  0  0  0  0
    3.2984    0.5760    1.8407 O   0  0  0  0  0  0  0  0  0  0  0  0
   -0.6736    1.2209    0.4733 C   0  0  1  0  0  0  0  0  0  0  0  0
   -1.7409    0.1697    0.0838 C   0  0  1  0  0  0  0  0  0  0  0  0
   -1.3426   -1.3591    0.3168 C   0  0  2  0  0  0  0  0  0  0  0  0
   -2.9162    0.7853    0.8974 C   0  0  2  0  0  0  0  0  0  0  0  0
    0.7645    0.8369    0.1680 C   0  0  1  0  0  0  0  0  0  0  0  0
   -0.9522    2.5866   -0.2312 C   0  0  2  0  0  0  0  0  0  0  0  0
    0.1669   -1.6110   -0.1219 C   0  0  1  0  0  0  0  0  0  0  0  0
    1.1130   -0.6039    0.5798 C   0  0  1  0  0  0  0  0  0  0  0  0
   -0.9403    1.4020    1.9783 C   0  0  0  0  0  0  0  0  0  0  0  0
   -2.1842   -2.2746   -0.6509 C   0  0  1  0  0  0  0  0  0  0  0  0
   -3.4393    2.0873    0.2321 C   0  0  1  0  0  0  0  0  0  0  0  0
   -2.3457    3.1151    0.0628 C   0  0  0  0  0  0  0  0  0  0  0  0
   -1.5703   -1.8155    1.7866 C   0  0  0  0  0  0  0  0  0  0  0  0
   -0.7143    2.5035   -1.7328 C   0  0  0  0  0  0  0  0  0  0  0  0
    0.5378   -3.1015   -0.0502 C   0  0  0  0  0  0  0  0  0  0  0  0
   -1.8415   -3.7674   -0.5279 C   0  0  2  0  0  0  0  0  0  0  0  0
    0.5820    1.8506   -2.1079 C   0  0  0  0  0  0  0  0  0  0  0  0
   -0.3951   -4.0483   -0.2658 C   0  0  0  0  0  0  0  0  0  0  0  0
   -2.5744    4.4221    0.2685 C   0  0  0  0  0  0  0  0  0  0  0  0
    1.9555   -3.5334    0.1974 C   0  0  0  0  0  0  0  0  0  0  0  0
    3.3788    0.0430    0.7468 C   0  0  0  0  0  0  0  0  0  0  0  0
    4.4776    0.2218   -0.2319 C   0  0  0  0  0  0  0  0  0  0  0  0
    5.7551    0.5114    0.0747 C   0  0  0  0  0  0  0  0  0  0  0  0
    6.7715    0.6657   -1.0278 C   0  0  0  0  0  0  0  0  0  0  0  0
    6.3201    0.6934    1.4556 C   0  0  0  0  0  0  0  0  0  0  0  0
   -1.9640    0.2346   -0.9868 H   0  0  0  0  0  0  0  0  0  0  0  0
    1.4213    1.5604    0.6620 H   0  0  0  0  0  0  0  0  0  0  0  0
   -0.2224    3.3083    0.1685 H   0  0  0  0  0  0  0  0  0  0  0  0
    0.2420   -1.3913   -1.1989 H   0  0  0  0  0  0  0  0  0  0  0  0
    1.0529   -0.7405    1.6646 H   0  0  0  0  0  0  0  0  0  0  0  0
   -0.3722    0.7211    2.6143 H   0  0  0  0  0  0  0  0  0  0  0  0
   -0.7174    2.4133    2.3364 H   0  0  0  0  0  0  0  0  0  0  0  0
   -2.0198   -1.9526   -1.6876 H   0  0  0  0  0  0  0  0  0  0  0  0
   -4.2538    2.5056    0.8372 H   0  0  0  0  0  0  0  0  0  0  0  0
   -0.9487   -1.2673    2.4940 H   0  0  0  0  0  0  0  0  0  0  0  0
   -2.6064   -1.7043    2.1113 H   0  0  0  0  0  0  0  0  0  0  0  0
   -1.3246   -2.8686    1.9487 H   0  0  0  0  0  0  0  0  0  0  0  0
   -0.6994    3.5204   -2.1458 H   0  0  0  0  0  0  0  0  0  0  0  0
   -1.5127    1.9593   -2.2484 H   0  0  0  0  0  0  0  0  0  0  0  0
   -2.4313   -4.2209    0.2781 H   0  0  0  0  0  0  0  0  0  0  0  0
   -4.7958    0.4207    1.3037 H   0  0  0  0  0  0  0  0  0  0  0  0
   -0.1137   -5.0984   -0.2254 H   0  0  0  0  0  0  0  0  0  0  0  0
   -3.5642    4.7890    0.5183 H   0  0  0  0  0  0  0  0  0  0  0  0
   -1.7772    5.1531    0.1859 H   0  0  0  0  0  0  0  0  0  0  0  0
   -3.7898   -2.4790    0.4612 H   0  0  0  0  0  0  0  0  0  0  0  0
   -4.6632    1.0778   -0.9091 H   0  0  0  0  0  0  0  0  0  0  0  0
    2.6141   -3.1671   -0.5959 H   0  0  0  0  0  0  0  0  0  0  0  0
    2.0599   -4.6243    0.2145 H   0  0  0  0  0  0  0  0  0  0  0  0
    2.3069   -3.1705    1.1682 H   0  0  0  0  0  0  0  0  0  0  0  0
   -2.0667   -5.3856   -1.6102 H   0  0  0  0  0  0  0  0  0  0  0  0
    4.1970    0.0799   -1.2735 H   0  0  0  0  0  0  0  0  0  0  0  0
    6.3311    0.5439   -2.0231 H   0  0  0  0  0  0  0  0  0  0  0  0
    7.5638   -0.0827   -0.9217 H   0  0  0  0  0  0  0  0  0  0  0  0
    7.2251    1.6615   -0.9865 H   0  0  0  0  0  0  0  0  0  0  0  0
    7.2417    0.1109    1.5650 H   0  0  0  0  0  0  0  0  0  0  0  0
    5.6496    0.3585    2.2493 H   0  0  0  0  0  0  0  0  0  0  0  0
    6.5588    1.7475    1.6288 H   0  0  0  0  0  0  0  0  0  0  0  0
  1 13  1  0  0  0  0
  1 18  1  0  0  0  0
  2 14  1  0  0  0  0
  2 26  1  0  0  0  0
  3 13  1  0  0  0  0
  3 50  1  0  0  0  0
  4 17  1  0  0  0  0
  4 30  1  0  0  0  0
  5 19  1  0  0  0  0
  5 54  1  0  0  0  0
  6 20  1  0  0  0  0
  6 55  1  0  0  0  0
  7 25  1  0  0  0  0
  7 59  1  0  0  0  0
  8 26  2  0  0  0  0
  9 30  2  0  0  0  0
 10 11  1  0  0  0  0
 10 14  1  0  0  0  0
 10 15  1  0  0  0  0
 10 18  1  0  0  0  0
 11 12  1  0  0  0  0
 11 13  1  0  0  0  0
 11 35  1  0  0  0  0
 12 16  1  0  0  0  0
 12 19  1  0  0  0  0
 12 22  1  0  0  0  0
 13 20  1  0  0  0  0
 14 17  1  0  0  0  0
 14 36  1  0  0  0  0
 15 21  1  0  0  0  0
 15 23  1  0  0  0  0
 15 37  1  0  0  0  0
 16 17  1  0  0  0  0
 16 24  1  0  0  0  0
 16 38  1  0  0  0  0
 17 39  1  0  0  0  0
 18 40  1  0  0  0  0
 18 41  1  0  0  0  0
 19 25  1  0  0  0  0
 19 42  1  0  0  0  0
 20 21  1  0  0  0  0
 20 43  1  0  0  0  0
 21 28  2  0  0  0  0
 22 44  1  0  0  0  0
 22 45  1  0  0  0  0
 22 46  1  0  0  0  0
 23 26  1  0  0  0  0
 23 47  1  0  0  0  0
 23 48  1  0  0  0  0
 24 27  2  0  0  0  0
 24 29  1  0  0  0  0
 25 27  1  0  0  0  0
 25 49  1  0  0  0  0
 27 51  1  0  0  0  0
 28 52  1  0  0  0  0
 28 53  1  0  0  0  0
 29 56  1  0  0  0  0
 29 57  1  0  0  0  0
 29 58  1  0  0  0  0
 30 31  1  0  0  0  0
 31 32  2  0  0  0  0
 31 60  1  0  0  0  0
 32 33  1  0  0  0  0
 32 34  1  0  0  0  0
 33 61  1  0  0  0  0
 33 62  1  0  0  0  0
 33 63  1  0  0  0  0
 34 64  1  0  0  0  0
 34 65  1  0  0  0  0
 34 66  1  0  0  0  0
M  END
> <PUBCHEM_COMPOUND_CID>
124849

> <PUBCHEM_CONFORMER_RMSD>
0.8

> <PUBCHEM_CONFORMER_DIVERSEORDER>
1
4
2
3

> <PUBCHEM_MMFF94_PARTIAL_CHARGES>
38
1 -0.56
13 0.56
14 0.28
15 0.14
16 0.14
17 0.28
18 0.28
19 0.28
2 -0.43
20 0.42
21 -0.28
23 0.06
24 -0.28
25 0.42
26 0.66
27 -0.29
28 -0.3
29 0.14
3 -0.68
30 0.71
31 -0.14
32 -0.28
33 0.14
34 0.14
4 -0.43
5 -0.68
50 0.4
51 0.15
52 0.15
53 0.15
54 0.4
55 0.4
59 0.4
6 -0.68
60 0.15
7 -0.68
8 -0.57
9 -0.57

> <PUBCHEM_EFFECTIVE_ROTOR_COUNT>
4.6

> <PUBCHEM_PHARMACOPHORE_FEATURES>
16
1 1 acceptor
1 3 acceptor
1 3 donor
1 5 acceptor
1 5 donor
1 6 acceptor
1 6 donor
1 7 acceptor
1 7 donor
1 8 acceptor
1 9 acceptor
3 32 33 34 hydrophobe
6 10 11 12 14 16 17 rings
6 12 16 19 24 25 27 rings
6 2 10 14 15 23 26 rings
8 1 10 11 13 15 18 20 21 rings

> <PUBCHEM_HEAVY_ATOM_COUNT>
34

> <PUBCHEM_ATOM_DEF_STEREO_COUNT>
11

> <PUBCHEM_ATOM_UDEF_STEREO_COUNT>
0

> <PUBCHEM_BOND_DEF_STEREO_COUNT>
0

> <PUBCHEM_BOND_UDEF_STEREO_COUNT>
0

> <PUBCHEM_ISOTOPIC_ATOM_COUNT>
0

> <PUBCHEM_COMPONENT_COUNT>
1

> <PUBCHEM_CACTVS_TAUTO_COUNT>
1

> <PUBCHEM_CONFORMER_ID>
0001E7B100000001

> <PUBCHEM_MMFF94_ENERGY>
137.0177

> <PUBCHEM_FEATURE_SELFOVERLAP>
81.432

> <PUBCHEM_SHAPE_FINGERPRINT>
10165383 225 18271816674557406160
10411042 1 17907575088156648482
10863032 1 17767952148430950489
10871710 139 18336265725461835170
10906281 52 17605853420869389925
10930396 42 17335576133196277466
1100329 8 18122907805016656659
11115154 58 17979055400441489823
11370993 70 18196644103695141304
11513181 2 18129940066254575615
11578080 2 17981057314166918297
12422481 6 17896882046050533032
12788726 201 18335691784597368258
13009979 54 18046350996169647326
131258 43 17548433943665550900
13140716 1 18191318271365363705
14068700 675 18195801001847168558
14142880 1 18333444331184707726
14790565 3 18124599674185519552
14840074 17 17968107442824979092
14910302 57 18342182155367014022
14955137 171 18048042066486305875
15131766 46 15576432218130031078
15219462 58 14760184433422787463
15230672 131 18265621979941936510
15324884 4 17321575694867472577
16087824 20 18412260641649828055
16945 1 18341040823030623449
17492 54 18116969175321356687
17980427 23 17676782984496087052
19930381 70 17548126736648511761
20600515 1 17914629481861085665
20775438 99 15969025179421028110
21033648 29 18271237223551208440
21796203 349 17757591733850910577
22149856 69 17979663164738085225
23419403 2 16986571308022063747
23559900 14 17691680087388937818
238 59 16818237902891149037
255183 313 18201174229531422059
469060 322 17968365840762917278
484989 97 18047738585062723191
5080951 261 18055882568904716550
57527452 28 18273491287149359285
59755656 520 17916882218035670544
6287921 2 17759812437811572549
9925002 15 18193003835470300373
9981440 41 18338234843254238194

> <PUBCHEM_SHAPE_MULTIPOLES>
646.88
8.89
5.26
1.83
18.95
3.88
0.51
-4.3
-1.29
-5.15
1.78
0.16
-0.91
-0.8

> <PUBCHEM_SHAPE_SELFOVERLAP>
1407.572

> <PUBCHEM_SHAPE_VOLUME>
343.6

> <PUBCHEM_COORDINATE_TYPE>
2
5
10

$$$$
