REMARK  Name = 124811
REMARK  7 active torsions:
REMARK  status: ('A' for Active; 'I' for Inactive)
REMARK    1  A    between atoms: C_3  and  O_16
REMARK    2  A    between atoms: C_4  and  C_18
REMARK    3  A    between atoms: C_6  and  N_9
REMARK    4  A    between atoms: C_18  and  O_20
REMARK    5  A    between atoms: O_20  and  P_21
REMARK    6  A    between atoms: P_21  and  O_23
REMARK    7  A    between atoms: P_21  and  O_25
REMARK                            x       y       z     vdW  Elec       q    Type
REMARK                         _______ _______ _______ _____ _____    ______ ____
ROOT
ATOM      1 CL   UNL     1       1.476  -3.427   0.323  0.00  0.00    -0.108 Cl
ATOM      2  O   UNL     1      -0.425  -0.021   0.383  0.00  0.00    -0.334 OA
ATOM      3  C   UNL     1      -0.822  -2.182  -0.467  0.00  0.00    +0.159 C 
ATOM      4  C   UNL     1      -1.289  -0.737  -0.515  0.00  0.00    +0.169 C 
ATOM      5  C   UNL     1       0.676  -1.996  -0.356  0.00  0.00    +0.156 C 
ATOM      6  C   UNL     1       0.782  -0.784   0.558  0.00  0.00    +0.217 C 
ENDROOT
BRANCH   6   9
ATOM      7  O   UNL     1       3.293  -0.951   1.841  0.00  0.00    -0.252 OA
ATOM      8  O   UNL     1       5.039   2.451  -0.732  0.00  0.00    -0.270 OA
ATOM      9  N   UNL     1       1.910   0.045   0.243  0.00  0.00    -0.218 N 
ATOM     10  N   UNL     1       4.160   0.744   0.559  0.00  0.00    -0.236 N 
ATOM     11  C   UNL     1       3.126  -0.118   0.948  0.00  0.00    +0.315 C 
ATOM     12  C   UNL     1       1.807   1.008  -0.755  0.00  0.00    +0.076 C 
ATOM     13  C   UNL     1       2.801   1.822  -1.114  0.00  0.00    +0.074 C 
ATOM     14  C   UNL     1       4.104   1.717  -0.426  0.00  0.00    +0.254 C 
ATOM     15  H   UNL     1       5.016   0.649   1.036  0.00  0.00    +0.159 HD
ENDBRANCH   6   9
BRANCH   3  16
ATOM     16  O   UNL     1      -1.193  -2.873  -1.642  0.00  0.00    -0.380 OA
ATOM     17  H   UNL     1      -2.158  -2.969  -1.670  0.00  0.00    +0.210 HD
ENDBRANCH   3  16
BRANCH   4  18
ATOM     18  C   UNL     1      -2.735  -0.554  -0.090  0.00  0.00    +0.200 C 
BRANCH  18  19
ATOM     19  O   UNL     1      -3.063   0.824  -0.161  0.00  0.00    -0.278 OA
BRANCH  19  20
ATOM     20  P   UNL     1      -4.561   1.282   0.245  0.00  0.00    +0.473 P 
ATOM     21  O   UNL     1      -4.824   2.756   0.142  0.00  0.00    -0.228 OA
BRANCH  20  22
ATOM     22  O   UNL     1      -4.772   0.642   1.716  0.00  0.00    -0.303 OA
ATOM     23  H   UNL     1      -4.581  -0.308   1.686  0.00  0.00    +0.222 HD
ENDBRANCH  20  22
BRANCH  20  24
ATOM     24  O   UNL     1      -5.489   0.355  -0.700  0.00  0.00    -0.303 OA
ATOM     25  H   UNL     1      -5.254  -0.577  -0.571  0.00  0.00    +0.222 HD
ENDBRANCH  20  24
ENDBRANCH  19  20
ENDBRANCH  18  19
ENDBRANCH   4  18
TORSDOF 7
