REMARK  Name = 124851
REMARK  5 active torsions:
REMARK  status: ('A' for Active; 'I' for Inactive)
REMARK    1  A    between atoms: C_2  and  C_3
REMARK    2  A    between atoms: C_2  and  O_16
REMARK    3  A    between atoms: C_4  and  N_11
REMARK    4  A    between atoms: O_16  and  N_19
REMARK    5  A    between atoms: C_20  and  S_24
REMARK                            x       y       z     vdW  Elec       q    Type
REMARK                         _______ _______ _______ _____ _____    ______ ____
ROOT
ATOM      1  O   UNL     1       1.461   1.293  -1.227  0.00  0.00    -0.243 OA
ATOM      2  C   UNL     1       0.612   0.761  -0.527  0.00  0.00    +0.364 C 
ENDROOT
BRANCH   2   3
ATOM      3  C   UNL     1      -0.805   1.203  -0.490  0.00  0.00    +0.079 C 
ATOM      4  C   UNL     1      -3.118   0.688  -0.189  0.00  0.00    +0.061 C 
ATOM      5  C   UNL     1      -1.787   0.272  -0.224  0.00  0.00    +0.022 C 
ATOM      6  C   UNL     1      -1.094   2.532  -0.723  0.00  0.00    +0.007 C 
ATOM      7  C   UNL     1      -3.437   2.026  -0.421  0.00  0.00    +0.015 C 
ATOM      8  C   UNL     1      -2.425   2.948  -0.689  0.00  0.00    +0.002 C 
BRANCH   4  11
ATOM      9  O   UNL     1      -5.792   1.067   1.187  0.00  0.00    -0.269 OA
ATOM     10  O   UNL     1      -3.281  -2.272  -0.817  0.00  0.00    -0.269 OA
ATOM     11  N   UNL     1      -4.158  -0.258   0.085  0.00  0.00    -0.201 N 
ATOM     12  C   UNL     1      -5.354   0.033   0.709  0.00  0.00    +0.259 C 
ATOM     13  C   UNL     1      -4.117  -1.601  -0.234  0.00  0.00    +0.259 C 
ATOM     14  C   UNL     1      -6.115  -1.223   0.778  0.00  0.00    +0.063 C 
ATOM     15  C   UNL     1      -5.382  -2.188   0.232  0.00  0.00    +0.063 C 
ENDBRANCH   4  11
ENDBRANCH   2   3
BRANCH   2  16
ATOM     16  O   UNL     1       0.831  -0.296   0.317  0.00  0.00    -0.332 OA
BRANCH  16  19
ATOM     17  O   UNL     1       2.908   0.586   2.061  0.00  0.00    -0.270 OA
ATOM     18  O   UNL     1       1.910  -2.335  -1.363  0.00  0.00    -0.271 OA
ATOM     19  N   UNL     1       2.140  -0.738   0.312  0.00  0.00    -0.060 N 
ATOM     20  C   UNL     1       4.387  -0.835   0.763  0.00  0.00    +0.224 C 
ATOM     21  C   UNL     1       4.039  -1.877  -0.304  0.00  0.00    +0.122 C 
ATOM     22  C   UNL     1       3.067  -0.230   1.166  0.00  0.00    +0.286 C 
ATOM     23  C   UNL     1       2.563  -1.702  -0.547  0.00  0.00    +0.266 C 
BRANCH  20  24
ATOM     24  S   UNL     1       5.458   0.422   0.144  0.00  0.00    +0.030 S 
ATOM     25  O   UNL     1       6.801  -0.493   0.003  0.00  0.00    -0.069 OA
ATOM     26  O   UNL     1       5.675   1.412   1.184  0.00  0.00    -0.069 OA
ATOM     27  O   UNL     1       5.014   0.804  -1.185  0.00  0.00    -0.069 OA
ENDBRANCH  20  24
ENDBRANCH  16  19
ENDBRANCH   2  16
TORSDOF 5
