REMARK  Name = 124804
REMARK  8 active torsions:
REMARK  status: ('A' for Active; 'I' for Inactive)
REMARK    1  A    between atoms: C_4  and  C_13
REMARK    2  A    between atoms: C_8  and  N_12
REMARK    3  A    between atoms: C_13  and  C_14
REMARK    4  A    between atoms: C_14  and  C_15
REMARK    5  A    between atoms: C_15  and  C_16
REMARK    6  A    between atoms: C_16  and  C_17
REMARK    7  A    between atoms: C_17  and  O_18
REMARK    8  A    between atoms: O_18  and  P_19
REMARK                            x       y       z     vdW  Elec       q    Type
REMARK                         _______ _______ _______ _____ _____    ______ ____
ROOT
ATOM      1  O   UNL     1       3.276   2.719   0.034  0.00  0.00    -0.241 OA
ATOM      2  N   UNL     1       2.153   2.080  -0.465  0.00  0.00    -0.049 NA
ATOM      3  N   UNL     1       4.278   1.821   0.359  0.00  0.00    -0.047 NA
ATOM      4  C   UNL     1       1.671  -0.321  -0.857  0.00  0.00    +0.000 C 
ATOM      5  C   UNL     1       2.442   0.773  -0.459  0.00  0.00    +0.141 A 
ATOM      6  C   UNL     1       2.279  -1.572  -0.720  0.00  0.00    -0.001 C 
ATOM      7  C   UNL     1       3.793   0.608   0.065  0.00  0.00    +0.165 A 
ATOM      8  C   UNL     1       4.399  -0.654   0.201  0.00  0.00    +0.165 C 
ATOM      9  C   UNL     1       3.594  -1.732  -0.210  0.00  0.00    +0.026 C 
ENDROOT
BRANCH   8  12
ATOM     10  O   UNL     1       6.198  -1.962   0.809  0.00  0.00    -0.126 OA
ATOM     11  O   UNL     1       6.358   0.214   1.053  0.00  0.00    -0.126 OA
ATOM     12  N   UNL     1       5.708  -0.807   0.710  0.00  0.00    +0.059 N 
ENDBRANCH   8  12
BRANCH   4  13
ATOM     13  C   UNL     1       0.271  -0.215  -1.405  0.00  0.00    +0.028 C 
BRANCH  13  14
ATOM     14  C   UNL     1      -0.778  -0.285  -0.294  0.00  0.00    +0.005 C 
BRANCH  14  15
ATOM     15  C   UNL     1      -2.193  -0.141  -0.857  0.00  0.00    +0.003 C 
BRANCH  15  16
ATOM     16  C   UNL     1      -3.244  -0.244   0.246  0.00  0.00    +0.033 C 
BRANCH  16  17
ATOM     17  C   UNL     1      -4.652  -0.060  -0.302  0.00  0.00    +0.152 C 
BRANCH  17  18
ATOM     18  O   UNL     1      -5.580  -0.181   0.768  0.00  0.00    -0.291 OA
BRANCH  18  19
ATOM     19  P   UNL     1      -7.163  -0.028   0.471  0.00  0.00    +0.379 P 
ATOM     20  F   UNL     1      -7.273   1.405  -0.168  0.00  0.00    -0.155 F 
ATOM     21  O   UNL     1      -8.000  -0.096   1.717  0.00  0.00    -0.253 OA
ATOM     22  C   UNL     1      -7.536  -1.321  -0.696  0.00  0.00    +0.133 C 
ENDBRANCH  18  19
ENDBRANCH  17  18
ENDBRANCH  16  17
ENDBRANCH  15  16
ENDBRANCH  14  15
ENDBRANCH  13  14
ENDBRANCH   4  13
TORSDOF 8
