REMARK  Name = 124861
REMARK  4 active torsions:
REMARK  status: ('A' for Active; 'I' for Inactive)
REMARK    1  A    between atoms: N_3  and  C_19
REMARK    2  A    between atoms: C_14  and  N_17
REMARK    3  A    between atoms: C_19  and  C_21
REMARK    4  A    between atoms: C_21  and  O_22
REMARK                            x       y       z     vdW  Elec       q    Type
REMARK                         _______ _______ _______ _____ _____    ______ ____
ROOT
ATOM      1  O   UNL     1       0.977  -2.295  -0.883  0.00  0.00    -0.269 OA
ATOM      2  O   UNL     1       3.002   1.815   0.006  0.00  0.00    -0.269 OA
ATOM      3  N   UNL     1       2.044  -0.253  -0.509  0.00  0.00    -0.212 N 
ATOM      4  C   UNL     1      -0.479   0.923  -0.184  0.00  0.00    +0.009 C 
ATOM      5  C   UNL     1      -0.400  -0.444  -0.487  0.00  0.00    +0.056 C 
ATOM      6  C   UNL     1       0.667   1.715  -0.021  0.00  0.00    +0.054 C 
ATOM      7  C   UNL     1      -1.755   1.521  -0.035  0.00  0.00    +0.002 C 
ATOM      8  C   UNL     1       0.921  -1.089  -0.648  0.00  0.00    +0.255 C 
ATOM      9  C   UNL     1       2.010   1.112  -0.172  0.00  0.00    +0.255 C 
ATOM     10  C   UNL     1      -1.562  -1.211  -0.641  0.00  0.00    +0.024 C 
ATOM     11  C   UNL     1       0.557   3.078   0.284  0.00  0.00    +0.005 C 
ATOM     12  C   UNL     1      -2.909   0.739  -0.193  0.00  0.00    +0.020 C 
ATOM     13  C   UNL     1      -1.848   2.887   0.270  0.00  0.00    +0.000 C 
ATOM     14  C   UNL     1      -2.812  -0.617  -0.494  0.00  0.00    +0.091 C 
ATOM     15  C   UNL     1      -0.700   3.659   0.429  0.00  0.00    +0.000 C 
ENDROOT
BRANCH  14  17
ATOM     16  S   UNL     1      -4.872  -2.546   1.704  0.00  0.00    +0.021 S 
ATOM     17  N   UNL     1      -3.972  -1.383  -0.649  0.00  0.00    -0.196 NA
ATOM     18  C   UNL     1      -4.346  -1.873   0.358  0.00  0.00    +0.041 C 
ENDBRANCH  14  17
BRANCH   3  19
ATOM     19  C   UNL     1       3.355  -0.852  -0.734  0.00  0.00    +0.210 C 
BRANCH  19  21
ATOM     20  O   UNL     1       3.623  -0.942   1.660  0.00  0.00    -0.248 OA
ATOM     21  C   UNL     1       3.869  -1.417   0.559  0.00  0.00    +0.335 C 
BRANCH  21  22
ATOM     22  O   UNL     1       4.628  -2.528   0.380  0.00  0.00    -0.479 OA
ATOM     23  H   UNL     1       4.787  -2.852  -0.485  0.00  0.00    +0.295 HD
ENDBRANCH  21  22
ENDBRANCH  19  21
ENDBRANCH   3  19
TORSDOF 4
