REMARK  Name = 124856
REMARK  8 active torsions:
REMARK  status: ('A' for Active; 'I' for Inactive)
REMARK    1  A    between atoms: C_1  and  C_16
REMARK    2  A    between atoms: C_4  and  O_9
REMARK    3  A    between atoms: C_5  and  O_7
REMARK    4  A    between atoms: O_9  and  P_10
REMARK    5  A    between atoms: P_10  and  O_12
REMARK    6  A    between atoms: P_10  and  O_14
REMARK    7  A    between atoms: C_16  and  C_17
REMARK    8  A    between atoms: C_17  and  N_18
REMARK                            x       y       z     vdW  Elec       q    Type
REMARK                         _______ _______ _______ _____ _____    ______ ____
ROOT
ATOM      1  C   UNL     1       1.950  -0.037  -0.423  0.00  0.00    -0.021 C 
ATOM      2  C   UNL     1       1.479   1.260  -0.218  0.00  0.00    +0.035 C 
ATOM      3  C   UNL     1       1.056  -1.107  -0.460  0.00  0.00    -0.001 C 
ATOM      4  C   UNL     1      -0.781   0.417  -0.086  0.00  0.00    +0.182 C 
ATOM      5  C   UNL     1       0.113   1.487  -0.050  0.00  0.00    +0.168 C 
ATOM      6  C   UNL     1      -0.310  -0.880  -0.291  0.00  0.00    +0.040 C 
ENDROOT
BRANCH   5   7
ATOM      7  O   UNL     1      -0.335   2.757   0.149  0.00  0.00    -0.503 OA
ATOM      8  H   UNL     1       0.272   3.470   0.172  0.00  0.00    +0.292 HD
ENDBRANCH   5   7
BRANCH   4   9
ATOM      9  O   UNL     1      -2.118   0.626   0.076  0.00  0.00    -0.400 OA
BRANCH   9  10
ATOM     10  P   UNL     1      -3.252  -0.527   0.053  0.00  0.00    +0.528 P 
ATOM     11  O   UNL     1      -3.341  -1.313  -1.223  0.00  0.00    -0.216 OA
BRANCH  10  12
ATOM     12  O   UNL     1      -2.964  -1.392   1.389  0.00  0.00    -0.293 OA
ATOM     13  H   UNL     1      -2.925  -0.798   2.156  0.00  0.00    +0.223 HD
ENDBRANCH  10  12
BRANCH  10  14
ATOM     14  O   UNL     1      -4.598   0.288   0.431  0.00  0.00    -0.293 OA
ATOM     15  H   UNL     1      -4.462   0.767   1.264  0.00  0.00    +0.223 HD
ENDBRANCH  10  14
ENDBRANCH   9  10
ENDBRANCH   4   9
BRANCH   1  16
ATOM     16  C   UNL     1       3.411  -0.280  -0.603  0.00  0.00    +0.003 C 
BRANCH  16  17
ATOM     17  C   UNL     1       4.129  -0.544   0.727  0.00  0.00    -0.081 C 
BRANCH  17  18
ATOM     18  N   UNL     1       5.559  -0.753   0.527  0.00  0.00    +0.381 N 
ATOM     19  H   UNL     1       6.006  -0.926   1.428  0.00  0.00    -0.089 HD
ATOM     20  H   UNL     1       5.968   0.077   0.099  0.00  0.00    -0.089 HD
ATOM     21  H   UNL     1       5.703  -1.557  -0.084  0.00  0.00    -0.089 HD
ENDBRANCH  17  18
ENDBRANCH  16  17
ENDBRANCH   1  16
TORSDOF 8
