REMARK  Name = 124849
REMARK  7 active torsions:
REMARK  status: ('A' for Active; 'I' for Inactive)
REMARK    1  A    between atoms: C_7  and  O_24
REMARK    2  A    between atoms: C_11  and  O_32
REMARK    3  A    between atoms: C_13  and  O_26
REMARK    4  A    between atoms: C_14  and  O_28
REMARK    5  A    between atoms: C_19  and  O_30
REMARK    6  A    between atoms: O_32  and  C_34
REMARK    7  A    between atoms: C_34  and  C_35
REMARK                            x       y       z     vdW  Elec       q    Type
REMARK                         _______ _______ _______ _____ _____    ______ ____
ROOT
ATOM      1  O   UNL     1      -2.342   1.141   2.175  0.00  0.00    -0.332 OA
ATOM      2  O   UNL     1       1.092   0.945  -1.251  0.00  0.00    -0.448 OA
ATOM      3  O   UNL     1       1.104   2.059  -3.201  0.00  0.00    -0.250 OA
ATOM      4  C   UNL     1      -0.674   1.221   0.473  0.00  0.00    +0.077 C 
ATOM      5  C   UNL     1      -1.741   0.170   0.084  0.00  0.00    +0.063 C 
ATOM      6  C   UNL     1      -1.343  -1.359   0.317  0.00  0.00    +0.039 C 
ATOM      7  C   UNL     1      -2.916   0.785   0.897  0.00  0.00    +0.213 C 
ATOM      8  C   UNL     1       0.764   0.837   0.168  0.00  0.00    +0.211 C 
ATOM      9  C   UNL     1      -0.952   2.587  -0.231  0.00  0.00    +0.038 C 
ATOM     10  C   UNL     1       0.167  -1.611  -0.122  0.00  0.00    +0.064 C 
ATOM     11  C   UNL     1       1.113  -0.604   0.580  0.00  0.00    +0.212 C 
ATOM     12  C   UNL     1      -0.940   1.402   1.978  0.00  0.00    +0.149 C 
ATOM     13  C   UNL     1      -2.184  -2.275  -0.651  0.00  0.00    +0.142 C 
ATOM     14  C   UNL     1      -3.439   2.087   0.232  0.00  0.00    +0.180 C 
ATOM     15  C   UNL     1      -2.346   3.115   0.063  0.00  0.00    -0.013 C 
ATOM     16  C   UNL     1      -1.570  -1.815   1.787  0.00  0.00    +0.003 C 
ATOM     17  C   UNL     1      -0.714   2.503  -1.733  0.00  0.00    +0.114 C 
ATOM     18  C   UNL     1       0.538  -3.102  -0.050  0.00  0.00    -0.042 C 
ATOM     19  C   UNL     1      -1.841  -3.767  -0.528  0.00  0.00    +0.159 C 
ATOM     20  C   UNL     1       0.582   1.851  -2.108  0.00  0.00    +0.317 C 
ATOM     21  C   UNL     1      -0.395  -4.048  -0.266  0.00  0.00    -0.003 C 
ATOM     22  C   UNL     1      -2.574   4.422   0.269  0.00  0.00    -0.007 C 
ATOM     23  C   UNL     1       1.956  -3.533   0.197  0.00  0.00    +0.026 C 
ENDROOT
BRANCH   7  24
ATOM     24  O   UNL     1      -4.009  -0.099   1.072  0.00  0.00    -0.362 OA
ATOM     25  H   UNL     1      -3.698  -0.919   1.487  0.00  0.00    +0.213 HD
ENDBRANCH   7  24
BRANCH  13  26
ATOM     26  O   UNL     1      -3.584  -2.141  -0.426  0.00  0.00    -0.382 OA
ATOM     27  H   UNL     1      -3.835  -1.207  -0.497  0.00  0.00    +0.210 HD
ENDBRANCH  13  26
BRANCH  14  28
ATOM     28  O   UNL     1      -3.988   1.764  -1.046  0.00  0.00    -0.376 OA
ATOM     29  H   UNL     1      -4.690   1.103  -0.939  0.00  0.00    +0.211 HD
ENDBRANCH  14  28
BRANCH  19  30
ATOM     30  O   UNL     1      -2.237  -4.435  -1.727  0.00  0.00    -0.378 OA
ATOM     31  H   UNL     1      -3.175  -4.257  -1.903  0.00  0.00    +0.211 HD
ENDBRANCH  19  30
BRANCH  11  32
ATOM     32  O   UNL     1       2.473  -0.809   0.190  0.00  0.00    -0.445 OA
BRANCH  32  34
ATOM     33  O   UNL     1       3.298   0.576   1.841  0.00  0.00    -0.245 OA
ATOM     34  C   UNL     1       3.379   0.043   0.747  0.00  0.00    +0.341 C 
BRANCH  34  35
ATOM     35  C   UNL     1       4.478   0.222  -0.232  0.00  0.00    +0.073 C 
ATOM     36  C   UNL     1       5.755   0.511   0.075  0.00  0.00    -0.037 C 
ATOM     37  C   UNL     1       6.771   0.666  -1.028  0.00  0.00    +0.027 C 
ATOM     38  C   UNL     1       6.320   0.693   1.456  0.00  0.00    +0.027 C 
ENDBRANCH  34  35
ENDBRANCH  32  34
ENDBRANCH  11  32
TORSDOF 7
