REMARK  Name = 124839
REMARK  6 active torsions:
REMARK  status: ('A' for Active; 'I' for Inactive)
REMARK    1  A    between atoms: C_4  and  C_14
REMARK    2  A    between atoms: C_7  and  S_18
REMARK    3  A    between atoms: C_8  and  C_11
REMARK    4  A    between atoms: C_11  and  O_12
REMARK    5  A    between atoms: C_14  and  O_16
REMARK    6  A    between atoms: S_18  and  C_21
REMARK                            x       y       z     vdW  Elec       q    Type
REMARK                         _______ _______ _______ _____ _____    ______ ____
ROOT
ATOM      1  O   UNL     1       2.366   1.531   1.910  0.00  0.00    -0.274 OA
ATOM      2  N   UNL     1       2.211   1.040  -0.394  0.00  0.00    -0.254 N 
ATOM      3  C   UNL     1       2.670  -0.288  -0.856  0.00  0.00    +0.095 C 
ATOM      4  C   UNL     1       3.084  -0.553   0.617  0.00  0.00    +0.123 C 
ATOM      5  C   UNL     1       1.425  -0.916  -1.515  0.00  0.00    +0.049 C 
ATOM      6  C   UNL     1       2.546   0.864   0.916  0.00  0.00    +0.233 C 
ATOM      7  C   UNL     1       0.445   0.241  -1.521  0.00  0.00    +0.024 C 
ATOM      8  C   UNL     1       0.952   1.291  -0.860  0.00  0.00    +0.132 C 
ATOM      9  C   UNL     1       1.786  -1.428  -2.908  0.00  0.00    +0.007 C 
ENDROOT
BRANCH   8  11
ATOM     10  O   UNL     1      -0.900   2.667  -0.336  0.00  0.00    -0.244 OA
ATOM     11  C   UNL     1       0.306   2.559  -0.530  0.00  0.00    +0.352 C 
BRANCH  11  12
ATOM     12  O   UNL     1       1.222   3.544  -0.472  0.00  0.00    -0.476 OA
ATOM     13  H   UNL     1       2.124   3.355  -0.638  0.00  0.00    +0.295 HD
ENDBRANCH  11  12
ENDBRANCH   8  11
BRANCH   4  14
ATOM     14  C   UNL     1       2.380  -1.661   1.362  0.00  0.00    +0.121 C 
ATOM     15  C   UNL     1       2.977  -3.032   1.061  0.00  0.00    +0.032 C 
BRANCH  14  16
ATOM     16  O   UNL     1       2.465  -1.425   2.768  0.00  0.00    -0.384 OA
ATOM     17  H   UNL     1       2.088  -0.556   2.973  0.00  0.00    +0.210 HD
ENDBRANCH  14  16
ENDBRANCH   4  14
BRANCH   7  18
ATOM     18  S   UNL     1      -1.129   0.085  -2.199  0.00  0.00    -0.116 S 
BRANCH  18  21
ATOM     19  N   UNL     1      -3.160  -0.527   0.422  0.00  0.00    -0.296 N 
ATOM     20  N   UNL     1      -4.765   0.563   1.732  0.00  0.00    -0.289 NA
ATOM     21  C   UNL     1      -1.734  -1.367  -1.268  0.00  0.00    +0.073 C 
ATOM     22  C   UNL     1      -3.183  -1.685  -1.627  0.00  0.00    +0.034 C 
ATOM     23  C   UNL     1      -1.819  -1.072   0.232  0.00  0.00    +0.103 C 
ATOM     24  C   UNL     1      -4.002  -0.741  -0.747  0.00  0.00    +0.093 C 
ATOM     25  C   UNL     1      -3.573   0.087   1.547  0.00  0.00    +0.100 C 
ATOM     26  C   UNL     1      -2.570   0.224   2.664  0.00  0.00    +0.068 C 
ATOM     27  H   UNL     1      -5.441   0.488   1.021  0.00  0.00    +0.188 HD
ENDBRANCH  18  21
ENDBRANCH   7  18
TORSDOF 6
