REMARK  Name = 124836
REMARK  10 active torsions:
REMARK  status: ('A' for Active; 'I' for Inactive)
REMARK    1  A    between atoms: CA_1  and  C_4
REMARK    2  A    between atoms: CA_1  and  N_14
REMARK    3  A    between atoms: CA_1  and  C_25
REMARK    4  A    between atoms: N_3  and  CA_6
REMARK    5  A    between atoms: CA_6  and  C_8
REMARK    6  A    between atoms: CA_6  and  C_10
REMARK    7  A    between atoms: C_10  and  O_11
REMARK    8  A    between atoms: C_15  and  CA_17
REMARK    9  A    between atoms: CA_17  and  N_18
REMARK   10  A    between atoms: CA_17  and  C_23
REMARK                            x       y       z     vdW  Elec       q    Type
REMARK                         _______ _______ _______ _____ _____    ______ ____
ROOT
ATOM      1  CA  UNL     1      -0.413  -0.147  -0.686  0.00  0.00    +0.165 C 
ENDROOT
BRANCH   1   4
ATOM      2  O   UNL     1       0.680  -0.165   1.476  0.00  0.00    -0.273 OA
ATOM      3  N   UNL     1       1.987  -0.354  -0.431  0.00  0.00    -0.294 N 
ATOM      4  C   UNL     1       0.788  -0.212   0.252  0.00  0.00    +0.242 C 
ATOM      5  H   UNL     1       1.974  -0.382  -1.415  0.00  0.00    +0.150 HD
BRANCH   3   6
ATOM      6  CA  UNL     1       3.254  -0.464   0.253  0.00  0.00    +0.188 C 
BRANCH   6   8
ATOM      7 CL   UNL     1       3.733  -2.903  -0.877  0.00  0.00    -0.111 Cl
ATOM      8  C   UNL     1       4.284  -1.240  -0.557  0.00  0.00    +0.126 C 
ENDBRANCH   6   8
BRANCH   6  10
ATOM      9  OXT UNL     1       3.585   1.893  -0.269  0.00  0.00    -0.248 OA
ATOM     10  C   UNL     1       3.746   0.949   0.495  0.00  0.00    +0.333 C 
BRANCH  10  11
ATOM     11  O   UNL     1       4.358   1.074   1.701  0.00  0.00    -0.479 OA
ATOM     12  H   UNL     1       4.461   0.325   2.254  0.00  0.00    +0.295 HD
ENDBRANCH  10  11
ENDBRANCH   6  10
ENDBRANCH   3   6
ENDBRANCH   1   4
BRANCH   1  14
ATOM     13  O   UNL     1      -2.995  -1.250  -1.261  0.00  0.00    -0.277 OA
ATOM     14  N   UNL     1      -1.576  -0.099   0.169  0.00  0.00    -0.299 N 
ATOM     15  C   UNL     1      -2.788  -0.665  -0.199  0.00  0.00    +0.203 C 
ATOM     16  H   UNL     1      -1.506   0.350   1.042  0.00  0.00    +0.150 HD
BRANCH  15  17
ATOM     17  CA  UNL     1      -3.872  -0.459   0.856  0.00  0.00    +0.029 C 
BRANCH  17  18
ATOM     18  N   UNL     1      -4.262  -1.800   1.293  0.00  0.00    +0.388 N 
ATOM     19  H1  UNL     1      -3.444  -2.291   1.656  0.00  0.00    -0.089 HD
ATOM     20  H2  UNL     1      -4.645  -2.318   0.502  0.00  0.00    -0.089 HD
ATOM     21  H3  UNL     1      -4.968  -1.727   2.026  0.00  0.00    -0.089 HD
ENDBRANCH  17  18
BRANCH  17  23
ATOM     22 CL   UNL     1      -4.639   1.895  -0.298  0.00  0.00    -0.115 Cl
ATOM     23  C   UNL     1      -5.093   0.281   0.310  0.00  0.00    +0.082 C 
ENDBRANCH  17  23
ENDBRANCH  15  17
ENDBRANCH   1  14
BRANCH   1  25
ATOM     24 CL   UNL     1      -0.390   2.584  -0.632  0.00  0.00    -0.111 Cl
ATOM     25  C   UNL     1      -0.387   1.082  -1.594  0.00  0.00    +0.124 C 
ENDBRANCH   1  25
TORSDOF 10
