REMARK  Name = 124837
REMARK  10 active torsions:
REMARK  status: ('A' for Active; 'I' for Inactive)
REMARK    1  A    between atoms: N_2  and  C_5
REMARK    2  A    between atoms: C_3  and  C_18
REMARK    3  A    between atoms: C_5  and  C_6
REMARK    4  A    between atoms: C_6  and  C_7
REMARK    5  A    between atoms: C_7  and  C_8
REMARK    6  A    between atoms: C_8  and  C_9
REMARK    7  A    between atoms: C_9  and  C_10
REMARK    8  A    between atoms: C_10  and  N_12
REMARK    9  A    between atoms: C_18  and  N_19
REMARK   10  A    between atoms: C_22  and  C_27
REMARK                            x       y       z     vdW  Elec       q    Type
REMARK                         _______ _______ _______ _____ _____    ______ ____
ROOT
ATOM      1  O   UNL     1       3.985  -0.960  -0.986  0.00  0.00    -0.273 OA
ATOM      2  N   UNL     1       2.885  -1.311   1.032  0.00  0.00    -0.303 N 
ATOM      3  C   UNL     1       3.482  -0.529   0.049  0.00  0.00    +0.243 C 
ATOM      4  H   UNL     1       2.512  -0.861   1.824  0.00  0.00    +0.149 HD
ENDROOT
BRANCH   2   5
ATOM      5  C   UNL     1       2.784  -2.742   0.951  0.00  0.00    +0.089 C 
BRANCH   5   6
ATOM      6  C   UNL     1       1.339  -3.230   0.973  0.00  0.00    +0.021 C 
BRANCH   6   7
ATOM      7  C   UNL     1       0.521  -2.696  -0.208  0.00  0.00    +0.002 C 
BRANCH   7   8
ATOM      8  C   UNL     1      -0.925  -3.194  -0.147  0.00  0.00    +0.002 C 
BRANCH   8   9
ATOM      9  C   UNL     1      -1.794  -2.684  -1.303  0.00  0.00    +0.021 C 
BRANCH   9  10
ATOM     10  C   UNL     1      -1.967  -1.169  -1.356  0.00  0.00    +0.091 C 
BRANCH  10  12
ATOM     11  O   UNL     1      -4.813  -0.797  -0.944  0.00  0.00    -0.253 OA
ATOM     12  N   UNL     1      -2.618  -0.645  -0.187  0.00  0.00    -0.289 N 
ATOM     13  N   UNL     1      -4.368   0.028   1.152  0.00  0.00    -0.313 N 
ATOM     14  C   UNL     1      -3.998  -0.500  -0.072  0.00  0.00    +0.298 C 
ATOM     15  H   UNL     1      -2.057  -0.374   0.575  0.00  0.00    +0.151 HD
ATOM     16  H   UNL     1      -5.320   0.179   1.356  0.00  0.00    +0.146 HD
ATOM     17  H   UNL     1      -3.681   0.251   1.820  0.00  0.00    +0.146 HD
ENDBRANCH  10  12
ENDBRANCH   9  10
ENDBRANCH   8   9
ENDBRANCH   7   8
ENDBRANCH   6   7
ENDBRANCH   5   6
ENDBRANCH   2   5
BRANCH   3  18
ATOM     18  C   UNL     1       3.447   0.935   0.402  0.00  0.00    +0.177 C 
BRANCH  18  19
ATOM     19  N   UNL     1       2.223   1.572  -0.106  0.00  0.00    -0.295 N 
ATOM     20  C   UNL     1       1.144   1.591   0.679  0.00  0.00    +0.123 C 
ATOM     21  C   UNL     1       2.245   2.102  -1.331  0.00  0.00    +0.062 C 
ATOM     22  C   UNL     1      -0.025   2.186   0.225  0.00  0.00    +0.051 C 
ATOM     23  C   UNL     1       1.105   2.710  -1.837  0.00  0.00    +0.016 C 
ATOM     24  C   UNL     1      -0.040   2.750  -1.047  0.00  0.00    +0.003 C 
BRANCH  22  27
ATOM     25  O   UNL     1      -2.273   2.732   0.670  0.00  0.00    -0.271 OA
ATOM     26  N   UNL     1      -1.128   1.636   2.327  0.00  0.00    -0.326 N 
ATOM     27  C   UNL     1      -1.210   2.218   1.065  0.00  0.00    +0.240 C 
ATOM     28  H   UNL     1      -1.912   1.639   2.923  0.00  0.00    +0.145 HD
ATOM     29  H   UNL     1      -0.286   1.221   2.623  0.00  0.00    +0.145 HD
ENDBRANCH  22  27
ENDBRANCH  18  19
ENDBRANCH   3  18
TORSDOF 10
