REMARK  Name = 124812
REMARK  5 active torsions:
REMARK  status: ('A' for Active; 'I' for Inactive)
REMARK    1  A    between atoms: S_1  and  C_4
REMARK    2  A    between atoms: S_1  and  N_13
REMARK    3  A    between atoms: C_9  and  N_10
REMARK    4  A    between atoms: N_13  and  C_18
REMARK    5  A    between atoms: C_21  and  O_23
REMARK                            x       y       z     vdW  Elec       q    Type
REMARK                         _______ _______ _______ _____ _____    ______ ____
ROOT
ATOM      1  S   UNL     1      -0.855  -1.509  -0.228  0.00  0.00    +0.074 S 
ATOM      2  O   UNL     1      -0.223  -1.298  -1.516  0.00  0.00    -0.150 OA
ATOM      3  O   UNL     1      -1.303  -2.834   0.159  0.00  0.00    -0.150 OA
ENDROOT
BRANCH   1   4
ATOM      4  C   UNL     1      -2.257  -0.433  -0.146  0.00  0.00    +0.125 C 
ATOM      5  C   UNL     1      -2.272   0.714  -0.919  0.00  0.00    +0.021 C 
ATOM      6  C   UNL     1      -3.311  -0.760   0.689  0.00  0.00    +0.021 C 
ATOM      7  C   UNL     1      -3.377   1.563  -0.855  0.00  0.00    +0.015 C 
ATOM      8  C   UNL     1      -4.416   0.089   0.753  0.00  0.00    +0.015 C 
ATOM      9  C   UNL     1      -4.449   1.250  -0.019  0.00  0.00    +0.042 C 
BRANCH   9  10
ATOM     10  N   UNL     1      -5.567   2.108   0.045  0.00  0.00    -0.357 N 
ATOM     11  H   UNL     1      -5.591   2.927  -0.500  0.00  0.00    +0.142 HD
ATOM     12  H   UNL     1      -6.324   1.887   0.634  0.00  0.00    +0.142 HD
ENDBRANCH   9  10
ENDBRANCH   1   4
BRANCH   1  13
ATOM     13  N   UNL     1       0.116  -0.857   0.997  0.00  0.00    -0.209 N 
ATOM     14  H   UNL     1      -0.197  -0.809   1.929  0.00  0.00    +0.174 HD
BRANCH  13  18
ATOM     15  O   UNL     1       2.150  -2.477  -0.202  0.00  0.00    -0.268 OA
ATOM     16  N   UNL     1       3.566  -0.644  -0.284  0.00  0.00    -0.235 N 
ATOM     17  N   UNL     1       2.882   1.486   0.523  0.00  0.00    -0.195 NA
ATOM     18  C   UNL     1       1.386  -0.388   0.626  0.00  0.00    +0.138 C 
ATOM     19  C   UNL     1       2.378  -1.292   0.011  0.00  0.00    +0.269 C 
ATOM     20  C   UNL     1       1.679   0.899   0.840  0.00  0.00    +0.124 C 
ATOM     21  C   UNL     1       3.756   0.696  -0.016  0.00  0.00    +0.291 C 
ATOM     22  H   UNL     1       4.298  -1.156  -0.698  0.00  0.00    +0.160 HD
BRANCH  21  23
ATOM     23  O   UNL     1       4.979   1.150  -0.374  0.00  0.00    -0.445 OA
ATOM     24  C   UNL     1       5.136   2.535  -0.082  0.00  0.00    +0.256 C 
ENDBRANCH  21  23
ENDBRANCH  13  18
ENDBRANCH   1  13
TORSDOF 5
