REMARK  Name = 124819
REMARK  7 active torsions:
REMARK  status: ('A' for Active; 'I' for Inactive)
REMARK    1  A    between atoms: C_2  and  N_12
REMARK    2  A    between atoms: C_3  and  O_8
REMARK    3  A    between atoms: C_4  and  O_10
REMARK    4  A    between atoms: C_5  and  C_23
REMARK    5  A    between atoms: N_12  and  C_14
REMARK    6  A    between atoms: C_19  and  N_22
REMARK    7  A    between atoms: C_23  and  O_24
REMARK                            x       y       z     vdW  Elec       q    Type
REMARK                         _______ _______ _______ _____ _____    ______ ____
ROOT
ATOM      1  O   UNL     1       3.754  -1.835   1.082  0.00  0.00    -0.291 OA
ATOM      2  C   UNL     1       1.208  -0.666  -0.981  0.00  0.00    +0.126 C 
ATOM      3  C   UNL     1       2.447  -1.564  -0.925  0.00  0.00    +0.193 C 
ATOM      4  C   UNL     1       3.819   0.367   0.086  0.00  0.00    +0.191 C 
ATOM      5  C   UNL     1       2.732   1.265  -0.453  0.00  0.00    +0.016 C 
ATOM      6  C   UNL     1       1.560   0.793  -0.919  0.00  0.00    -0.007 C 
ATOM      7  C   UNL     1       3.364  -1.086   0.188  0.00  0.00    +0.210 C 
ENDROOT
BRANCH   3   8
ATOM      8  O   UNL     1       2.073  -2.916  -0.751  0.00  0.00    -0.376 OA
ATOM      9  H   UNL     1       1.490  -3.186  -1.478  0.00  0.00    +0.211 HD
ENDBRANCH   3   8
BRANCH   4  10
ATOM     10  O   UNL     1       4.204   0.800   1.380  0.00  0.00    -0.373 OA
ATOM     11  H   UNL     1       4.498   1.723   1.338  0.00  0.00    +0.211 HD
ENDBRANCH   4  10
BRANCH   2  12
ATOM     12  N   UNL     1       0.310  -0.945   0.124  0.00  0.00    -0.328 N 
ATOM     13  H   UNL     1       0.677  -1.389   0.922  0.00  0.00    +0.147 HD
BRANCH  12  14
ATOM     14  C   UNL     1      -1.032  -0.619   0.116  0.00  0.00    +0.045 C 
ATOM     15  C   UNL     1      -1.859  -0.915   1.218  0.00  0.00    +0.016 C 
ATOM     16  C   UNL     1      -1.617   0.020  -0.996  0.00  0.00    +0.016 C 
ATOM     17  C   UNL     1      -3.214  -0.586   1.209  0.00  0.00    +0.025 C 
ATOM     18  C   UNL     1      -2.973   0.348  -1.005  0.00  0.00    +0.025 C 
ATOM     19  C   UNL     1      -3.771   0.045   0.098  0.00  0.00    +0.143 C 
BRANCH  19  22
ATOM     20  O   UNL     1      -5.852   0.100   1.091  0.00  0.00    -0.126 OA
ATOM     21  O   UNL     1      -5.632   0.949  -0.922  0.00  0.00    -0.126 OA
ATOM     22  N   UNL     1      -5.151   0.380   0.088  0.00  0.00    +0.058 N 
ENDBRANCH  19  22
ENDBRANCH  12  14
ENDBRANCH   2  12
BRANCH   5  23
ATOM     23  C   UNL     1       3.032   2.739  -0.471  0.00  0.00    +0.162 C 
BRANCH  23  24
ATOM     24  O   UNL     1       2.600   3.326   0.741  0.00  0.00    -0.377 OA
ATOM     25  H   UNL     1       2.794   4.276   0.728  0.00  0.00    +0.211 HD
ENDBRANCH  23  24
ENDBRANCH   5  23
TORSDOF 7
