124839
  -OEChem-03292013323D

 47 49  0     1  0  0  0  0  0999 V2000
   -1.1285    0.0846   -2.1989 S   0  0  0  0  0  0  0  0  0  0  0  0
    2.3659    1.5313    1.9100 O   0  0  0  0  0  0  0  0  0  0  0  0
    2.4646   -1.4255    2.7679 O   0  0  0  0  0  0  0  0  0  0  0  0
    1.2215    3.5440   -0.4724 O   0  0  0  0  0  0  0  0  0  0  0  0
   -0.8999    2.6672   -0.3362 O   0  0  0  0  0  0  0  0  0  0  0  0
    2.2110    1.0404   -0.3938 N   0  0  0  0  0  0  0  0  0  0  0  0
   -3.1596   -0.5275    0.4222 N   0  0  0  0  0  0  0  0  0  0  0  0
   -4.7646    0.5632    1.7325 N   0  0  0  0  0  0  0  0  0  0  0  0
    2.6695   -0.2878   -0.8560 C   0  0  1  0  0  0  0  0  0  0  0  0
    3.0845   -0.5528    0.6173 C   0  0  1  0  0  0  0  0  0  0  0  0
    1.4251   -0.9165   -1.5147 C   0  0  1  0  0  0  0  0  0  0  0  0
    2.5463    0.8637    0.9163 C   0  0  0  0  0  0  0  0  0  0  0  0
    0.4445    0.2415   -1.5207 C   0  0  0  0  0  0  0  0  0  0  0  0
    0.9521    1.2908   -0.8598 C   0  0  0  0  0  0  0  0  0  0  0  0
    2.3799   -1.6610    1.3620 C   0  0  1  0  0  0  0  0  0  0  0  0
    1.7860   -1.4281   -2.9076 C   0  0  0  0  0  0  0  0  0  0  0  0
   -1.7341   -1.3669   -1.2680 C   0  0  2  0  0  0  0  0  0  0  0  0
   -3.1832   -1.6854   -1.6268 C   0  0  0  0  0  0  0  0  0  0  0  0
    2.9768   -3.0320    1.0606 C   0  0  0  0  0  0  0  0  0  0  0  0
   -1.8190   -1.0717    0.2324 C   0  0  0  0  0  0  0  0  0  0  0  0
    0.3059    2.5586   -0.5301 C   0  0  0  0  0  0  0  0  0  0  0  0
   -4.0016   -0.7405   -0.7472 C   0  0  0  0  0  0  0  0  0  0  0  0
   -3.5728    0.0867    1.5474 C   0  0  0  0  0  0  0  0  0  0  0  0
   -2.5703    0.2235    2.6638 C   0  0  0  0  0  0  0  0  0  0  0  0
    3.5325   -0.1818   -1.5276 H   0  0  0  0  0  0  0  0  0  0  0  0
    4.1746   -0.5888    0.7539 H   0  0  0  0  0  0  0  0  0  0  0  0
    1.0414   -1.7543   -0.9301 H   0  0  0  0  0  0  0  0  0  0  0  0
    1.3089   -1.6860    1.1402 H   0  0  0  0  0  0  0  0  0  0  0  0
    2.1331   -0.6174   -3.5585 H   0  0  0  0  0  0  0  0  0  0  0  0
    2.5908   -2.1689   -2.8461 H   0  0  0  0  0  0  0  0  0  0  0  0
    0.9285   -1.9071   -3.3914 H   0  0  0  0  0  0  0  0  0  0  0  0
   -1.0905   -2.2242   -1.4846 H   0  0  0  0  0  0  0  0  0  0  0  0
   -3.4045   -2.7213   -1.3381 H   0  0  0  0  0  0  0  0  0  0  0  0
   -3.4224   -1.5854   -2.6902 H   0  0  0  0  0  0  0  0  0  0  0  0
   -1.7433   -2.0136    0.7898 H   0  0  0  0  0  0  0  0  0  0  0  0
   -1.0326   -0.4075    0.5986 H   0  0  0  0  0  0  0  0  0  0  0  0
    4.0298   -3.0714    1.3607 H   0  0  0  0  0  0  0  0  0  0  0  0
    2.4557   -3.8102    1.6279 H   0  0  0  0  0  0  0  0  0  0  0  0
    2.9152   -3.2695   -0.0055 H   0  0  0  0  0  0  0  0  0  0  0  0
   -4.1839    0.2122   -1.2564 H   0  0  0  0  0  0  0  0  0  0  0  0
   -4.9647   -1.1907   -0.4849 H   0  0  0  0  0  0  0  0  0  0  0  0
    1.9414   -0.6309    2.9680 H   0  0  0  0  0  0  0  0  0  0  0  0
    0.8187    4.4103   -0.2498 H   0  0  0  0  0  0  0  0  0  0  0  0
   -3.0361    0.6204    3.5706 H   0  0  0  0  0  0  0  0  0  0  0  0
   -2.1372   -0.7503    2.9099 H   0  0  0  0  0  0  0  0  0  0  0  0
   -1.7755    0.9123    2.3622 H   0  0  0  0  0  0  0  0  0  0  0  0
   -4.8569    0.9887    2.6599 H   0  0  0  0  0  0  0  0  0  0  0  0
  1 13  1  0  0  0  0
  1 17  1  0  0  0  0
  2 12  2  0  0  0  0
  3 15  1  0  0  0  0
  3 42  1  0  0  0  0
  4 21  1  0  0  0  0
  4 43  1  0  0  0  0
  5 21  2  0  0  0  0
  6  9  1  0  0  0  0
  6 12  1  0  0  0  0
  6 14  1  0  0  0  0
  7 20  1  0  0  0  0
  7 22  1  0  0  0  0
  7 23  1  0  0  0  0
  8 23  2  0  0  0  0
  8 47  1  0  0  0  0
  9 10  1  0  0  0  0
  9 11  1  0  0  0  0
  9 25  1  0  0  0  0
 10 12  1  0  0  0  0
 10 15  1  0  0  0  0
 10 26  1  0  0  0  0
 11 13  1  0  0  0  0
 11 16  1  0  0  0  0
 11 27  1  0  0  0  0
 13 14  2  0  0  0  0
 14 21  1  0  0  0  0
 15 19  1  0  0  0  0
 15 28  1  0  0  0  0
 16 29  1  0  0  0  0
 16 30  1  0  0  0  0
 16 31  1  0  0  0  0
 17 18  1  0  0  0  0
 17 20  1  0  0  0  0
 17 32  1  0  0  0  0
 18 22  1  0  0  0  0
 18 33  1  0  0  0  0
 18 34  1  0  0  0  0
 19 37  1  0  0  0  0
 19 38  1  0  0  0  0
 19 39  1  0  0  0  0
 20 35  1  0  0  0  0
 20 36  1  0  0  0  0
 22 40  1  0  0  0  0
 22 41  1  0  0  0  0
 23 24  1  0  0  0  0
 24 44  1  0  0  0  0
 24 45  1  0  0  0  0
 24 46  1  0  0  0  0
M  END
> <PUBCHEM_COMPOUND_CID>
124839

> <PUBCHEM_CONFORMER_RMSD>
0.8

> <PUBCHEM_CONFORMER_DIVERSEORDER>
1
22
5
9
11
7
13
23
24
19
15
26
25
18
10
17
6
16
12
14
21
3
4
20
2
8

> <PUBCHEM_MMFF94_PARTIAL_CHARGES>
24
1 -0.33
10 0.05
11 0.14
12 0.58
13 -0.04
14 0.12
15 0.28
17 0.23
2 -0.57
20 0.37
21 0.71
22 0.37
23 0.44
24 0.06
3 -0.68
4 -0.65
42 0.4
43 0.5
47 0.4
5 -0.57
6 -0.39
7 -0.79
8 -0.85
9 0.22

> <PUBCHEM_EFFECTIVE_ROTOR_COUNT>
6.4

> <PUBCHEM_PHARMACOPHORE_FEATURES>
10
1 2 acceptor
1 3 acceptor
1 3 donor
1 4 acceptor
1 5 acceptor
1 8 donor
3 4 5 21 anion
3 7 8 23 cation
5 7 17 18 20 22 rings
7 6 9 10 11 12 13 14 rings

> <PUBCHEM_HEAVY_ATOM_COUNT>
24

> <PUBCHEM_ATOM_DEF_STEREO_COUNT>
4

> <PUBCHEM_ATOM_UDEF_STEREO_COUNT>
1

> <PUBCHEM_BOND_DEF_STEREO_COUNT>
0

> <PUBCHEM_BOND_UDEF_STEREO_COUNT>
0

> <PUBCHEM_ISOTOPIC_ATOM_COUNT>
0

> <PUBCHEM_COMPONENT_COUNT>
1

> <PUBCHEM_CACTVS_TAUTO_COUNT>
1

> <PUBCHEM_CONFORMER_ID>
0001E7A700000001

> <PUBCHEM_MMFF94_ENERGY>
80.1312

> <PUBCHEM_FEATURE_SELFOVERLAP>
50.797

> <PUBCHEM_SHAPE_FINGERPRINT>
10064457 181 17172394287390102154
10382601 240 18341056310651212988
11086676 242 18411138004899895310
11578080 2 17985232323258345913
11640471 11 17986677188821124469
12156800 1 15374643963831396099
12403259 327 17825420524795992011
12506688 2 17385728010248290099
12553582 1 18334012778833573890
12633257 1 18188762989083473537
12716301 132 17837784321979763596
13533116 47 17896050987280549611
13583140 156 18115880757836919891
13965767 371 18131633382822291185
14178342 30 17917995022492756551
14251757 17 15647046028419654427
14787075 74 16107543892112889031
15664445 248 12180712588560841791
16945 1 18046319067556654380
17349148 13 17845924221825674919
17859628 37 16630526219569642096
18981168 100 14692271972308839846
20715895 44 17916875600219431073
22749437 52 17560808736250566165
23419403 2 13381639956178096140
23557571 272 16343431704103051079
35225 105 17618489996226837472
3797600 57 17333368403255986447
394222 165 17764010759595144109
484985 159 17467886611479345266
568465 68 17460009959570014152
8509985 295 18188504475767149681

> <PUBCHEM_SHAPE_MULTIPOLES>
459.34
6.68
2.84
2.77
5.74
0.58
-0.32
-1.67
3.7
0.7
0.03
-2.39
-1.25
-0.3

> <PUBCHEM_SHAPE_SELFOVERLAP>
958.755

> <PUBCHEM_SHAPE_VOLUME>
265.5

> <PUBCHEM_COORDINATE_TYPE>
2
5
10

$$$$
