REMARK  Name = 124815
REMARK  5 active torsions:
REMARK  status: ('A' for Active; 'I' for Inactive)
REMARK    1  A    between atoms: C_6  and  O_12
REMARK    2  A    between atoms: C_7  and  O_14
REMARK    3  A    between atoms: C_8  and  O_16
REMARK    4  A    between atoms: C_10  and  C_19
REMARK    5  A    between atoms: C_19  and  O_20
REMARK                            x       y       z     vdW  Elec       q    Type
REMARK                         _______ _______ _______ _____ _____    ______ ____
ROOT
ATOM      1  O   UNL     1       1.262   1.184  -0.278  0.00  0.00    -0.326 OA
ATOM      2  O   UNL     1      -0.841  -0.568   0.608  0.00  0.00    -0.323 OA
ATOM      3  O   UNL     1      -1.525   1.675   0.177  0.00  0.00    -0.323 OA
ATOM      4  C   UNL     1      -0.223  -0.696  -0.679  0.00  0.00    +0.177 C 
ATOM      5  C   UNL     1       0.245   0.680  -1.154  0.00  0.00    +0.177 C 
ATOM      6  C   UNL     1       0.966  -1.649  -0.564  0.00  0.00    +0.172 C 
ATOM      7  C   UNL     1       2.090  -1.036   0.269  0.00  0.00    +0.196 C 
ATOM      8  C   UNL     1       2.429   0.366  -0.238  0.00  0.00    +0.266 C 
ATOM      9  C   UNL     1      -0.915   1.666  -1.115  0.00  0.00    +0.177 C 
ATOM     10  C   UNL     1      -1.900   0.381   0.632  0.00  0.00    +0.280 C 
ATOM     11  C   UNL     1      -2.311   0.536   2.095  0.00  0.00    +0.074 C 
ENDROOT
BRANCH   6  12
ATOM     12  O   UNL     1       0.557  -2.877   0.032  0.00  0.00    -0.379 OA
ATOM     13  H   UNL     1      -0.157  -3.270  -0.494  0.00  0.00    +0.211 HD
ENDBRANCH   6  12
BRANCH   7  14
ATOM     14  O   UNL     1       3.256  -1.853   0.159  0.00  0.00    -0.378 OA
ATOM     15  H   UNL     1       3.055  -2.747   0.477  0.00  0.00    +0.211 HD
ENDBRANCH   7  14
BRANCH   8  16
ATOM     16  O   UNL     1       3.386   0.936   0.655  0.00  0.00    -0.326 OA
ATOM     17  C   UNL     1       3.753   2.245   0.250  0.00  0.00    +0.177 C 
ENDBRANCH   8  16
BRANCH  10  19
ATOM     18  O   UNL     1      -3.939   0.619  -0.611  0.00  0.00    -0.245 OA
ATOM     19  C   UNL     1      -3.116  -0.128  -0.104  0.00  0.00    +0.366 C 
BRANCH  19  20
ATOM     20  O   UNL     1      -3.173  -1.481  -0.133  0.00  0.00    -0.477 OA
ATOM     21  H   UNL     1      -2.501  -1.987   0.280  0.00  0.00    +0.295 HD
ENDBRANCH  19  20
ENDBRANCH  10  19
TORSDOF 5
