REMARK  Name = 124877
REMARK  4 active torsions:
REMARK  status: ('A' for Active; 'I' for Inactive)
REMARK    1  A    between atoms: N_2  and  C1*_17
REMARK    2  A    between atoms: C3*_19  and  O3*_21
REMARK    3  A    between atoms: C4*_20  and  C5*_23
REMARK    4  A    between atoms: C5*_23  and  O5*_24
REMARK                            x       y       z     vdW  Elec       q    Type
REMARK                         _______ _______ _______ _____ _____    ______ ____
ROOT
ATOM      1  O   UNL     1      -4.031  -2.164  -0.495  0.00  0.00    -0.208 OA
ATOM      2  N   UNL     1       0.119  -0.411   0.119  0.00  0.00    -0.255 N 
ATOM      3  N   UNL     1      -1.143  -2.213  -0.431  0.00  0.00    -0.304 N 
ATOM      4  N   UNL     1      -1.914   1.150   0.462  0.00  0.00    -0.235 N 
ATOM      5  N   UNL     1      -4.016   0.107  -0.111  0.00  0.00    -0.301 NA
ATOM      6  N   UNL     1      -3.949   2.375   0.348  0.00  0.00    -0.320 N 
ATOM      7  C   UNL     1      -1.242  -0.037   0.162  0.00  0.00    +0.135 C 
ATOM      8  C   UNL     1       0.248  -1.836  -0.250  0.00  0.00    +0.188 C 
ATOM      9  C   UNL     1      -1.949  -1.132  -0.187  0.00  0.00    +0.170 C 
ATOM     10  C   UNL     1      -3.417  -1.126  -0.272  0.00  0.00    +0.223 C 
ATOM     11  C   UNL     1      -3.306   1.164   0.228  0.00  0.00    +0.252 C 
ATOM     12  C   UNL     1      -1.199   2.317   0.976  0.00  0.00    +0.122 C 
ATOM     13  H   UNL     1      -1.459  -3.109  -0.689  0.00  0.00    +0.149 HD
ATOM     14  H   UNL     1      -3.440   3.179   0.600  0.00  0.00    +0.146 HD
ATOM     15  H   UNL     1      -4.917   2.437   0.182  0.00  0.00    +0.146 HD
ENDROOT
BRANCH   2  17
ATOM     16  O4* UNL     1       2.383  -0.480   0.719  0.00  0.00    -0.335 OA
ATOM     17  C1* UNL     1       1.294   0.379   0.344  0.00  0.00    +0.197 C 
ATOM     18  C2* UNL     1       1.737   1.148  -0.887  0.00  0.00    +0.083 C 
ATOM     19  C3* UNL     1       3.232   1.216  -0.687  0.00  0.00    +0.144 C 
ATOM     20  C4* UNL     1       3.518  -0.159  -0.103  0.00  0.00    +0.173 C 
BRANCH  19  21
ATOM     21  O3* UNL     1       3.907   1.433  -1.908  0.00  0.00    -0.382 OA
ATOM     22  H3* UNL     1       3.695   2.319  -2.241  0.00  0.00    +0.210 HD
ENDBRANCH  19  21
BRANCH  20  23
ATOM     23  C5* UNL     1       4.783  -0.208   0.735  0.00  0.00    +0.169 C 
BRANCH  23  24
ATOM     24  O5* UNL     1       4.945  -1.523   1.235  0.00  0.00    -0.379 OA
ATOM     25  H5* UNL     1       5.751  -1.568   1.773  0.00  0.00    +0.211 HD
ENDBRANCH  23  24
ENDBRANCH  20  23
ENDBRANCH   2  17
TORSDOF 4
