REMARK  Name = 124855
REMARK  7 active torsions:
REMARK  status: ('A' for Active; 'I' for Inactive)
REMARK    1  A    between atoms: C_5  and  O_18
REMARK    2  A    between atoms: C_8  and  C_16
REMARK    3  A    between atoms: O_18  and  C_19
REMARK    4  A    between atoms: C_19  and  C_20
REMARK    5  A    between atoms: C_20  and  C_21
REMARK    6  A    between atoms: C_21  and  C_23
REMARK    7  A    between atoms: C_23  and  O_24
REMARK                            x       y       z     vdW  Elec       q    Type
REMARK                         _______ _______ _______ _____ _____    ______ ____
ROOT
ATOM      1  O   UNL     1      -0.477   0.519  -0.549  0.00  0.00    -0.417 OA
ATOM      2  O   UNL     1      -1.908   2.291  -0.608  0.00  0.00    -0.244 OA
ATOM      3  C   UNL     1      -0.242  -0.846  -0.302  0.00  0.00    +0.182 C 
ATOM      4  C   UNL     1      -1.283  -1.678   0.085  0.00  0.00    +0.039 C 
ATOM      5  C   UNL     1       1.059  -1.320  -0.457  0.00  0.00    +0.173 C 
ATOM      6  C   UNL     1      -2.616  -1.115   0.222  0.00  0.00    +0.020 C 
ATOM      7  C   UNL     1      -1.015  -3.028   0.325  0.00  0.00    +0.003 C 
ATOM      8  C   UNL     1      -2.858   0.186  -0.011  0.00  0.00    +0.141 C 
ATOM      9  C   UNL     1       1.320  -2.667  -0.215  0.00  0.00    +0.040 C 
ATOM     10  C   UNL     1       0.285  -3.520   0.175  0.00  0.00    +0.003 C 
ATOM     11  C   UNL     1      -1.739   1.091  -0.411  0.00  0.00    +0.355 C 
ENDROOT
BRANCH   8  16
ATOM     12  N   UNL     1      -4.665   1.779  -0.568  0.00  0.00    -0.109 NA
ATOM     13  N   UNL     1      -5.043   0.206   1.016  0.00  0.00    -0.086 NA
ATOM     14  N   UNL     1      -5.890   1.832  -0.028  0.00  0.00    -0.140 N 
ATOM     15  N   UNL     1      -6.159   0.918   0.915  0.00  0.00    -0.022 NA
ATOM     16  C   UNL     1      -4.178   0.749   0.119  0.00  0.00    +0.080 C 
ATOM     17  H   UNL     1      -6.555   2.502  -0.307  0.00  0.00    +0.197 HD
ENDBRANCH   8  16
BRANCH   5  18
ATOM     18  O   UNL     1       2.069  -0.493  -0.837  0.00  0.00    -0.472 OA
BRANCH  18  19
ATOM     19  C   UNL     1       3.380  -0.807  -0.366  0.00  0.00    +0.206 C 
BRANCH  19  20
ATOM     20  C   UNL     1       4.199   0.468  -0.218  0.00  0.00    +0.059 C 
BRANCH  20  21
ATOM     21  C   UNL     1       5.611   0.193   0.303  0.00  0.00    +0.113 C 
BRANCH  21  23
ATOM     22  O   UNL     1       6.048   2.579   0.102  0.00  0.00    -0.250 OA
ATOM     23  C   UNL     1       6.429   1.459   0.410  0.00  0.00    +0.314 C 
BRANCH  23  24
ATOM     24  O   UNL     1       7.673   1.206   0.896  0.00  0.00    -0.480 OA
ATOM     25  H   UNL     1       7.920   0.330   1.118  0.00  0.00    +0.295 HD
ENDBRANCH  23  24
ENDBRANCH  21  23
ENDBRANCH  20  21
ENDBRANCH  19  20
ENDBRANCH  18  19
ENDBRANCH   5  18
TORSDOF 7
