REMARK  Name = 124922
REMARK  6 active torsions:
REMARK  status: ('A' for Active; 'I' for Inactive)
REMARK    1  A    between atoms: C_6  and  O_21
REMARK    2  A    between atoms: C_6  and  C_25
REMARK    3  A    between atoms: C_9  and  O_23
REMARK    4  A    between atoms: C_25  and  O_26
REMARK    5  A    between atoms: C_25  and  C_29
REMARK    6  A    between atoms: C_29  and  O_30
REMARK                            x       y       z     vdW  Elec       q    Type
REMARK                         _______ _______ _______ _____ _____    ______ ____
ROOT
ATOM      1  O   UNL     1       6.267  -0.079  -1.906  0.00  0.00    -0.287 OA
ATOM      2  C   UNL     1      -1.631  -0.208   0.401  0.00  0.00    +0.028 C 
ATOM      3  C   UNL     1      -0.764   1.007   0.004  0.00  0.00    +0.003 C 
ATOM      4  C   UNL     1       0.651   0.971   0.600  0.00  0.00    +0.003 C 
ATOM      5  C   UNL     1       1.382  -0.317   0.081  0.00  0.00    +0.034 C 
ATOM      6  C   UNL     1      -2.967   0.186  -0.302  0.00  0.00    +0.123 C 
ATOM      7  C   UNL     1      -0.934  -1.472  -0.145  0.00  0.00    +0.032 C 
ATOM      8  C   UNL     1      -1.666   2.202   0.306  0.00  0.00    +0.003 C 
ATOM      9  C   UNL     1       0.534  -1.607   0.320  0.00  0.00    +0.111 C 
ATOM     10  C   UNL     1      -3.093   1.703  -0.008  0.00  0.00    +0.030 C 
ATOM     11  C   UNL     1       2.889  -0.379   0.556  0.00  0.00    +0.036 C 
ATOM     12  C   UNL     1       1.427   2.244   0.217  0.00  0.00    +0.004 C 
ATOM     13  C   UNL     1      -1.852  -0.330   1.933  0.00  0.00    +0.002 C 
ATOM     14  C   UNL     1       2.880   2.196   0.676  0.00  0.00    +0.022 C 
ATOM     15  C   UNL     1       3.548   0.947   0.161  0.00  0.00    -0.038 C 
ATOM     16  C   UNL     1       3.061  -0.565   2.080  0.00  0.00    +0.009 C 
ATOM     17  C   UNL     1       3.593  -1.559  -0.099  0.00  0.00    -0.020 C 
ATOM     18  C   UNL     1       4.628   1.037  -0.630  0.00  0.00    +0.034 C 
ATOM     19  C   UNL     1       4.668  -1.476  -0.889  0.00  0.00    +0.038 C 
ATOM     20  C   UNL     1       5.270  -0.167  -1.197  0.00  0.00    +0.195 C 
ENDROOT
BRANCH   6  21
ATOM     21  O   UNL     1      -2.887  -0.011  -1.720  0.00  0.00    -0.384 OA
ATOM     22  H   UNL     1      -2.116   0.464  -2.069  0.00  0.00    +0.210 HD
ENDBRANCH   6  21
BRANCH   9  23
ATOM     23  O   UNL     1       0.568  -2.001   1.684  0.00  0.00    -0.384 OA
ATOM     24  H   UNL     1       1.490  -2.086   1.974  0.00  0.00    +0.210 HD
ENDBRANCH   9  23
BRANCH   6  25
ATOM     25  C   UNL     1      -4.201  -0.594   0.144  0.00  0.00    +0.234 C 
BRANCH  25  26
ATOM     26  O   UNL     1      -3.995  -1.956  -0.191  0.00  0.00    -0.373 OA
ATOM     27  H   UNL     1      -3.201  -2.283   0.260  0.00  0.00    +0.211 HD
ENDBRANCH  25  26
BRANCH  25  29
ATOM     28  O   UNL     1      -5.824  -0.505  -1.658  0.00  0.00    -0.248 OA
ATOM     29  C   UNL     1      -5.440  -0.101  -0.568  0.00  0.00    +0.343 C 
BRANCH  29  30
ATOM     30  O   UNL     1      -6.112   0.834   0.152  0.00  0.00    -0.478 OA
ATOM     31  H   UNL     1      -5.780   1.112   0.983  0.00  0.00    +0.295 HD
ENDBRANCH  29  30
ENDBRANCH  25  29
ENDBRANCH   6  25
TORSDOF 6
