124926
  -OEChem-03292013323D

 30 33  0     1  0  0  0  0  0999 V2000
   -2.1564    0.1240    1.4264 O   0  0  0  0  0  0  0  0  0  0  0  0
   -2.8820   -0.3366   -2.0305 O   0  0  0  0  0  0  0  0  0  0  0  0
   -2.7954    2.5890   -0.2705 O   0  0  0  0  0  0  0  0  0  0  0  0
   -1.4425   -2.7063    1.1403 O   0  0  0  0  0  0  0  0  0  0  0  0
   -0.0897    0.2431    0.3849 N   0  0  0  0  0  0  0  0  0  0  0  0
    1.0002   -1.5699   -0.3014 N   0  0  0  0  0  0  0  0  0  0  0  0
    1.7454    1.8326    0.5194 N   0  0  0  0  0  0  0  0  0  0  0  0
    3.8534    0.7813   -0.1166 N   0  0  0  0  0  0  0  0  0  0  0  0
    3.9986   -1.5140   -0.7753 N   0  0  0  0  0  0  0  0  0  0  0  0
   -2.6399   -0.7597    0.3834 C   0  0  1  0  0  0  0  0  0  0  0  0
   -1.2655    1.0220    0.7275 C   0  0  1  0  0  0  0  0  0  0  0  0
   -2.9979    0.2239   -0.7363 C   0  0  1  0  0  0  0  0  0  0  0  0
   -2.0461    1.4040   -0.5264 C   0  0  1  0  0  0  0  0  0  0  0  0
   -1.5066   -1.7660    0.0687 C   0  0  1  0  0  0  0  0  0  0  0  0
   -0.1798   -1.0826    0.0255 C   0  0  0  0  0  0  0  0  0  0  0  0
    1.2086    0.6265    0.2788 C   0  0  0  0  0  0  0  0  0  0  0  0
    1.8728   -0.5161   -0.1481 C   0  0  0  0  0  0  0  0  0  0  0  0
    3.2461   -0.4077   -0.3443 C   0  0  0  0  0  0  0  0  0  0  0  0
    3.0767    1.8124    0.2945 C   0  0  0  0  0  0  0  0  0  0  0  0
   -3.5262   -1.2856    0.7544 H   0  0  0  0  0  0  0  0  0  0  0  0
   -0.9869    1.8537    1.3803 H   0  0  0  0  0  0  0  0  0  0  0  0
   -4.0358    0.5562   -0.6117 H   0  0  0  0  0  0  0  0  0  0  0  0
   -1.3987    1.6030   -1.3874 H   0  0  0  0  0  0  0  0  0  0  0  0
   -1.7076   -2.3190   -0.8536 H   0  0  0  0  0  0  0  0  0  0  0  0
   -3.4792   -1.1029   -2.0704 H   0  0  0  0  0  0  0  0  0  0  0  0
   -3.3195    2.7780   -1.0677 H   0  0  0  0  0  0  0  0  0  0  0  0
   -0.7896   -3.3857    0.8983 H   0  0  0  0  0  0  0  0  0  0  0  0
    3.5963    2.7491    0.4657 H   0  0  0  0  0  0  0  0  0  0  0  0
    3.5480   -2.4026   -0.9471 H   0  0  0  0  0  0  0  0  0  0  0  0
    4.9949   -1.4103   -0.9117 H   0  0  0  0  0  0  0  0  0  0  0  0
  1 10  1  0  0  0  0
  1 11  1  0  0  0  0
  2 12  1  0  0  0  0
  2 25  1  0  0  0  0
  3 13  1  0  0  0  0
  3 26  1  0  0  0  0
  4 14  1  0  0  0  0
  4 27  1  0  0  0  0
  5 11  1  0  0  0  0
  5 15  1  0  0  0  0
  5 16  1  0  0  0  0
  6 15  2  0  0  0  0
  6 17  1  0  0  0  0
  7 16  2  0  0  0  0
  7 19  1  0  0  0  0
  8 18  1  0  0  0  0
  8 19  2  0  0  0  0
  9 18  1  0  0  0  0
  9 29  1  0  0  0  0
  9 30  1  0  0  0  0
 10 12  1  0  0  0  0
 10 14  1  0  0  0  0
 10 20  1  0  0  0  0
 11 13  1  0  0  0  0
 11 21  1  0  0  0  0
 12 13  1  0  0  0  0
 12 22  1  0  0  0  0
 13 23  1  0  0  0  0
 14 15  1  0  0  0  0
 14 24  1  0  0  0  0
 16 17  1  0  0  0  0
 17 18  2  0  0  0  0
 19 28  1  0  0  0  0
M  END
> <PUBCHEM_COMPOUND_CID>
124926

> <PUBCHEM_CONFORMER_RMSD>
0.6

> <PUBCHEM_CONFORMER_DIVERSEORDER>
5
7
1
4
3
6
2

> <PUBCHEM_MMFF94_PARTIAL_CHARGES>
25
1 -0.56
10 0.28
11 0.54
12 0.28
13 0.28
14 0.46
15 0.01
16 0.11
17 0.23
18 0.41
19 0.47
2 -0.68
25 0.4
26 0.4
27 0.4
28 0.15
29 0.4
3 -0.68
30 0.4
4 -0.68
5 0.05
6 -0.57
7 -0.57
8 -0.62
9 -0.9

> <PUBCHEM_EFFECTIVE_ROTOR_COUNT>
0.8

> <PUBCHEM_PHARMACOPHORE_FEATURES>
15
1 1 acceptor
1 2 acceptor
1 2 donor
1 3 acceptor
1 3 donor
1 4 acceptor
1 4 donor
1 9 cation
1 9 donor
3 5 6 15 cation
3 5 7 16 cation
3 7 8 19 cation
5 5 6 15 16 17 rings
6 7 8 16 17 18 19 rings
8 1 5 10 11 12 13 14 15 rings

> <PUBCHEM_HEAVY_ATOM_COUNT>
19

> <PUBCHEM_ATOM_DEF_STEREO_COUNT>
0

> <PUBCHEM_ATOM_UDEF_STEREO_COUNT>
5

> <PUBCHEM_BOND_DEF_STEREO_COUNT>
0

> <PUBCHEM_BOND_UDEF_STEREO_COUNT>
0

> <PUBCHEM_ISOTOPIC_ATOM_COUNT>
0

> <PUBCHEM_COMPONENT_COUNT>
1

> <PUBCHEM_CACTVS_TAUTO_COUNT>
3

> <PUBCHEM_CONFORMER_ID>
0001E7FE00000005

> <PUBCHEM_MMFF94_ENERGY>
52.5486

> <PUBCHEM_FEATURE_SELFOVERLAP>
76.748

> <PUBCHEM_SHAPE_FINGERPRINT>
10062212 137 18129090130817559238
10608611 8 18411699919766523144
10967382 1 18340772632271526288
11578080 2 13625235640694263503
12138202 97 17968642921798212375
12173636 292 18334295336331986429
12423570 1 14887352385218059273
12730499 353 17972598784853472781
12892183 10 10737849708662993133
13024252 1 13479131315761151763
13464514 151 17905045846255498029
13583140 156 16950555618943061112
14223421 5 18194404613663745674
14250199 8 18272650190138743388
15219456 202 18411703231022498730
16945 1 18409444795310339442
17357779 13 17761478584754570463
17844478 74 18262249922662820531
18186145 218 18334571300564826396
19049666 15 18409733967248356578
200 152 17632570569812681237
20510252 161 18410577314099369545
22802520 49 18340490074699338834
2334 1 18269560597177553738
23402539 116 18335690685433548991
23419403 2 16528879960575415031
23557571 272 18042968868195120103
23559900 14 18341618050146569502
25 1 18120936096988702941
2748010 2 18052255399269565626
74978 22 18408039606939660146
81228 2 17897172535731321899
8809292 202 18408895048329303962
9709674 26 18341333374664823310

> <PUBCHEM_SHAPE_MULTIPOLES>
342.63
6.09
2.3
1.05
3.95
0.01
-0.18
0.73
-1.35
-0.41
0.27
-0.81
-0.15
0.76

> <PUBCHEM_SHAPE_SELFOVERLAP>
774.686

> <PUBCHEM_SHAPE_VOLUME>
175.4

> <PUBCHEM_COORDINATE_TYPE>
2
5
10

$$$$
