REMARK  Name = 124942
REMARK  7 active torsions:
REMARK  status: ('A' for Active; 'I' for Inactive)
REMARK    1  A    between atoms: N_1  and  S_10
REMARK    2  A    between atoms: C_2  and  C_22
REMARK    3  A    between atoms: S_10  and  C_13
REMARK    4  A    between atoms: C_22  and  CA_23
REMARK    5  A    between atoms: CA_23  and  N_24
REMARK    6  A    between atoms: CA_23  and  C_29
REMARK    7  A    between atoms: C_29  and  O_30
REMARK                            x       y       z     vdW  Elec       q    Type
REMARK                         _______ _______ _______ _____ _____    ______ ____
ROOT
ATOM      1  N   UNL     1      -0.070   0.793  -1.116  0.00  0.00    -0.168 N 
ATOM      2  C   UNL     1      -2.262   0.503  -0.919  0.00  0.00    -0.006 C 
ATOM      3  C   UNL     1      -0.416   1.337   0.100  0.00  0.00    +0.073 C 
ATOM      4  C   UNL     1      -1.794   1.167   0.249  0.00  0.00    +0.013 C 
ATOM      5  C   UNL     1      -1.179   0.287  -1.740  0.00  0.00    +0.085 C 
ATOM      6  C   UNL     1       0.378   1.960   1.070  0.00  0.00    +0.017 C 
ATOM      7  C   UNL     1      -2.413   1.642   1.423  0.00  0.00    +0.001 C 
ATOM      8  C   UNL     1      -0.258   2.422   2.226  0.00  0.00    +0.001 C 
ATOM      9  C   UNL     1      -1.632   2.267   2.402  0.00  0.00    +0.000 C 
ENDROOT
BRANCH   1  10
ATOM     10  S   UNL     1       1.465   0.745  -1.762  0.00  0.00    +0.080 S 
ATOM     11  O   UNL     1       1.927   2.132  -1.771  0.00  0.00    -0.149 OA
ATOM     12  O   UNL     1       1.422  -0.037  -3.001  0.00  0.00    -0.149 OA
BRANCH  10  13
ATOM     13  C   UNL     1       2.478  -0.175  -0.633  0.00  0.00    +0.118 C 
ATOM     14  C   UNL     1       2.148  -1.489  -0.344  0.00  0.00    -0.004 C 
ATOM     15  C   UNL     1       3.582   0.435  -0.061  0.00  0.00    -0.004 C 
ATOM     16  C   UNL     1       2.945  -2.213   0.543  0.00  0.00    -0.007 C 
ATOM     17  C   UNL     1       4.379  -0.289   0.826  0.00  0.00    -0.007 C 
ATOM     18  C   UNL     1       4.061  -1.613   1.128  0.00  0.00    -0.022 C 
ATOM     19  C   UNL     1       0.962  -2.165  -0.951  0.00  0.00    +0.032 C 
ATOM     20  C   UNL     1       3.955   1.851  -0.362  0.00  0.00    +0.032 C 
ATOM     21  C   UNL     1       4.912  -2.387   2.077  0.00  0.00    +0.031 C 
ENDBRANCH  10  13
ENDBRANCH   1  10
BRANCH   2  22
ATOM     22  C   UNL     1      -3.656   0.111  -1.208  0.00  0.00    +0.017 C 
BRANCH  22  23
ATOM     23  CA  UNL     1      -4.036  -1.303  -0.712  0.00  0.00    +0.040 C 
BRANCH  23  24
ATOM     24  N   UNL     1      -5.428  -1.607  -1.054  0.00  0.00    +0.389 N 
ATOM     25  H1  UNL     1      -5.548  -1.557  -2.066  0.00  0.00    -0.088 HD
ATOM     26  H2  UNL     1      -6.044  -0.930  -0.605  0.00  0.00    -0.088 HD
ATOM     27  H3  UNL     1      -5.661  -2.546  -0.731  0.00  0.00    -0.088 HD
ENDBRANCH  23  24
BRANCH  23  29
ATOM     28  OXT UNL     1      -4.816  -1.098   1.590  0.00  0.00    -0.253 OA
ATOM     29  C   UNL     1      -3.928  -1.396   0.801  0.00  0.00    +0.293 C 
BRANCH  29  30
ATOM     30  O   UNL     1      -2.724  -1.881   1.201  0.00  0.00    -0.482 OA
ATOM     31  H   UNL     1      -2.071  -2.097   0.565  0.00  0.00    +0.295 HD
ENDBRANCH  29  30
ENDBRANCH  23  29
ENDBRANCH  22  23
ENDBRANCH   2  22
TORSDOF 7
