124900
  -OEChem-03292013323D

 56 56  0     1  0  0  0  0  0999 V2000
   -3.4788    3.2414   -0.5069 O   0  0  0  0  0  0  0  0  0  0  0  0
   -2.8697   -1.6423   -1.6578 O   0  0  0  0  0  0  0  0  0  0  0  0
   -3.6828    1.9703    1.3984 O   0  0  0  0  0  0  0  0  0  0  0  0
    3.6067   -0.9913    0.3061 O   0  0  0  0  0  0  0  0  0  0  0  0
   -2.5963   -0.2467    0.1745 N   0  0  0  0  0  0  0  0  0  0  0  0
   -3.8523   -3.3803    0.4726 N   0  0  0  0  0  0  0  0  0  0  0  0
    1.9929    2.4458    0.6486 N   0  0  0  0  0  0  0  0  0  0  0  0
    4.0903    3.1604    1.3285 N   0  0  0  0  0  0  0  0  0  0  0  0
    3.7451    2.9517   -0.9148 N   0  0  0  0  0  0  0  0  0  0  0  0
   -2.6578    0.9917   -0.5590 C   0  0  2  0  0  0  0  0  0  0  0  0
   -1.2681    1.4077   -1.0567 C   0  0  0  0  0  0  0  0  0  0  0  0
   -2.5868   -2.6475    0.5287 C   0  0  1  0  0  0  0  0  0  0  0  0
   -0.2771    1.7386    0.0699 C   0  0  0  0  0  0  0  0  0  0  0  0
   -1.4286   -3.5732    0.1289 C   0  0  0  0  0  0  0  0  0  0  0  0
   -2.7096   -1.4825   -0.4487 C   0  0  0  0  0  0  0  0  0  0  0  0
    1.1036    2.1076   -0.4638 C   0  0  0  0  0  0  0  0  0  0  0  0
   -0.0849   -2.8843    0.1756 C   0  0  0  0  0  0  0  0  0  0  0  0
   -3.3280    2.1068    0.2321 C   0  0  0  0  0  0  0  0  0  0  0  0
    0.4047   -2.2319   -0.9558 C   0  0  0  0  0  0  0  0  0  0  0  0
    0.6661   -2.9008    1.3510 C   0  0  0  0  0  0  0  0  0  0  0  0
    1.6454   -1.5959   -0.9120 C   0  0  0  0  0  0  0  0  0  0  0  0
    1.9068   -2.2648    1.3949 C   0  0  0  0  0  0  0  0  0  0  0  0
    2.3963   -1.6125    0.2633 C   0  0  0  0  0  0  0  0  0  0  0  0
   -4.1045    4.3408    0.1627 C   0  0  0  0  0  0  0  0  0  0  0  0
    3.1940    2.8252    0.3410 C   0  0  0  0  0  0  0  0  0  0  0  0
    4.3471   -0.9274   -0.9119 C   0  0  0  0  0  0  0  0  0  0  0  0
    5.8260   -0.9066   -0.5893 C   0  0  0  0  0  0  0  0  0  0  0  0
   -3.2996    0.8186   -1.4326 H   0  0  0  0  0  0  0  0  0  0  0  0
   -0.8490    0.6042   -1.6753 H   0  0  0  0  0  0  0  0  0  0  0  0
   -1.3597    2.2841   -1.7107 H   0  0  0  0  0  0  0  0  0  0  0  0
   -2.4340   -2.2828    1.5510 H   0  0  0  0  0  0  0  0  0  0  0  0
   -0.1786    0.8821    0.7479 H   0  0  0  0  0  0  0  0  0  0  0  0
   -0.6607    2.5703    0.6732 H   0  0  0  0  0  0  0  0  0  0  0  0
   -2.4477   -0.2003    1.1782 H   0  0  0  0  0  0  0  0  0  0  0  0
   -1.5835   -3.9758   -0.8819 H   0  0  0  0  0  0  0  0  0  0  0  0
   -1.4021   -4.4493    0.7912 H   0  0  0  0  0  0  0  0  0  0  0  0
    1.5119    1.2717   -1.0399 H   0  0  0  0  0  0  0  0  0  0  0  0
    0.9994    2.9688   -1.1357 H   0  0  0  0  0  0  0  0  0  0  0  0
   -4.6051   -2.7881    0.8221 H   0  0  0  0  0  0  0  0  0  0  0  0
   -3.8099   -4.1834    1.0989 H   0  0  0  0  0  0  0  0  0  0  0  0
   -0.1654   -2.2135   -1.8804 H   0  0  0  0  0  0  0  0  0  0  0  0
    0.2941   -3.4037    2.2396 H   0  0  0  0  0  0  0  0  0  0  0  0
    1.9790   -1.0816   -1.8083 H   0  0  0  0  0  0  0  0  0  0  0  0
    2.4870   -2.2800    2.3133 H   0  0  0  0  0  0  0  0  0  0  0  0
   -4.1628    5.1772   -0.5389 H   0  0  0  0  0  0  0  0  0  0  0  0
   -3.5064    4.6478    1.0260 H   0  0  0  0  0  0  0  0  0  0  0  0
   -5.1187    4.0693    0.4708 H   0  0  0  0  0  0  0  0  0  0  0  0
    4.0719   -0.0170   -1.4548 H   0  0  0  0  0  0  0  0  0  0  0  0
    4.1626   -1.8027   -1.5472 H   0  0  0  0  0  0  0  0  0  0  0  0
    5.0346    3.4575    1.1089 H   0  0  0  0  0  0  0  0  0  0  0  0
    3.8307    3.1168    2.3079 H   0  0  0  0  0  0  0  0  0  0  0  0
    3.2241    2.7399   -1.7582 H   0  0  0  0  0  0  0  0  0  0  0  0
    4.7051    3.2558   -1.0357 H   0  0  0  0  0  0  0  0  0  0  0  0
    6.0688   -0.0486    0.0463 H   0  0  0  0  0  0  0  0  0  0  0  0
    6.1128   -1.8055   -0.0336 H   0  0  0  0  0  0  0  0  0  0  0  0
    6.4253   -0.8493   -1.5023 H   0  0  0  0  0  0  0  0  0  0  0  0
  1 18  1  0  0  0  0
  1 24  1  0  0  0  0
  2 15  2  0  0  0  0
  3 18  2  0  0  0  0
  4 23  1  0  0  0  0
  4 26  1  0  0  0  0
  5 10  1  0  0  0  0
  5 15  1  0  0  0  0
  5 34  1  0  0  0  0
  6 12  1  0  0  0  0
  6 39  1  0  0  0  0
  6 40  1  0  0  0  0
  7 16  1  0  0  0  0
  7 25  2  0  0  0  0
  8 25  1  0  0  0  0
  8 50  1  0  0  0  0
  8 51  1  0  0  0  0
  9 25  1  0  0  0  0
  9 52  1  0  0  0  0
  9 53  1  0  0  0  0
 10 11  1  0  0  0  0
 10 18  1  0  0  0  0
 10 28  1  0  0  0  0
 11 13  1  0  0  0  0
 11 29  1  0  0  0  0
 11 30  1  0  0  0  0
 12 14  1  0  0  0  0
 12 15  1  0  0  0  0
 12 31  1  0  0  0  0
 13 16  1  0  0  0  0
 13 32  1  0  0  0  0
 13 33  1  0  0  0  0
 14 17  1  0  0  0  0
 14 35  1  0  0  0  0
 14 36  1  0  0  0  0
 16 37  1  0  0  0  0
 16 38  1  0  0  0  0
 17 19  2  0  0  0  0
 17 20  1  0  0  0  0
 19 21  1  0  0  0  0
 19 41  1  0  0  0  0
 20 22  2  0  0  0  0
 20 42  1  0  0  0  0
 21 23  2  0  0  0  0
 21 43  1  0  0  0  0
 22 23  1  0  0  0  0
 22 44  1  0  0  0  0
 24 45  1  0  0  0  0
 24 46  1  0  0  0  0
 24 47  1  0  0  0  0
 26 27  1  0  0  0  0
 26 48  1  0  0  0  0
 26 49  1  0  0  0  0
 27 54  1  0  0  0  0
 27 55  1  0  0  0  0
 27 56  1  0  0  0  0
M  END
> <PUBCHEM_COMPOUND_CID>
124900

> <PUBCHEM_CONFORMER_RMSD>
1.2

> <PUBCHEM_CONFORMER_DIVERSEORDER>
1
44
52
23
43
12
11
36
70
61
73
8
4
40
82
59
77
60
27
65
99
25
105
41
71
91
19
104
35
39
38
103
55
78
37
86
75
13
15
7
9
32
46
51
69
107
29
20
89
72
87
21
93
66
33
62
64
42
6
5
81
83
67
50
102
53
22
49
106
92
31
74
18
58
14
26
2
28
85
79
30
96
98
47
56
90
24
76
54
88
17
84
10
100
3
97
48
95
34
68
45
63
16
94
80
101
57

> <PUBCHEM_MMFF94_PARTIAL_CHARGES>
35
1 -0.43
10 0.36
12 0.33
14 0.14
15 0.57
16 0.25
17 -0.14
18 0.66
19 -0.15
2 -0.57
20 -0.15
21 -0.15
22 -0.15
23 0.08
24 0.28
25 0.55
26 0.28
3 -0.57
34 0.37
39 0.36
4 -0.36
40 0.36
41 0.15
42 0.15
43 0.15
44 0.15
5 -0.73
50 0.4
51 0.4
52 0.4
53 0.4
6 -0.99
7 -0.7
8 -0.85
9 -0.85

> <PUBCHEM_EFFECTIVE_ROTOR_COUNT>
13

> <PUBCHEM_PHARMACOPHORE_FEATURES>
10
1 2 acceptor
1 3 acceptor
1 4 acceptor
1 5 donor
1 6 cation
1 6 donor
1 8 donor
1 9 donor
4 7 8 9 25 cation
6 17 19 20 21 22 23 rings

> <PUBCHEM_HEAVY_ATOM_COUNT>
27

> <PUBCHEM_ATOM_DEF_STEREO_COUNT>
2

> <PUBCHEM_ATOM_UDEF_STEREO_COUNT>
0

> <PUBCHEM_BOND_DEF_STEREO_COUNT>
0

> <PUBCHEM_BOND_UDEF_STEREO_COUNT>
0

> <PUBCHEM_ISOTOPIC_ATOM_COUNT>
0

> <PUBCHEM_COMPONENT_COUNT>
1

> <PUBCHEM_CACTVS_TAUTO_COUNT>
4

> <PUBCHEM_CONFORMER_ID>
0001E7E400000001

> <PUBCHEM_MMFF94_ENERGY>
61.4908

> <PUBCHEM_FEATURE_SELFOVERLAP>
50.803

> <PUBCHEM_SHAPE_FINGERPRINT>
10493431 412 18266465291477661989
10864689 126 18123754145892112060
1100329 8 18338798910337148384
11513181 2 18130506439797695502
12553582 1 18050837828344940492
12788726 201 17758683630259570300
13140716 1 18411418405850237688
14117953 113 17689991241871009878
14178342 30 18337107981212203037
14251764 38 18339356487381564632
14790565 3 17978798908825283228
15968369 153 18129370661270405205
20642791 35 18336823186716285499
20905425 154 18196379336252079222
23558518 356 18335143149643038212
338550 245 18262523705664847004
350125 39 18410018732280610185
44154327 71 17905886981251146171
508706 21 18410007780140353240
57527585 103 17027129057396908986
7808743 9 18336831866291055891

> <PUBCHEM_SHAPE_MULTIPOLES>
507.27
8.95
6.15
1.2
4.53
1.84
0.06
5.49
-0.34
-3.01
1.2
0.24
-0.19
0.13

> <PUBCHEM_SHAPE_SELFOVERLAP>
1018.914

> <PUBCHEM_SHAPE_VOLUME>
296.2

> <PUBCHEM_COORDINATE_TYPE>
2
5
10

$$$$
