REMARK  Name = 124923
REMARK  5 active torsions:
REMARK  status: ('A' for Active; 'I' for Inactive)
REMARK    1  A    between atoms: N_2  and  C1*_16
REMARK    2  A    between atoms: C2*_17  and  O2*_20
REMARK    3  A    between atoms: C3*_18  and  O3*_22
REMARK    4  A    between atoms: C4*_19  and  C5*_24
REMARK    5  A    between atoms: C5*_24  and  O5*_25
REMARK                            x       y       z     vdW  Elec       q    Type
REMARK                         _______ _______ _______ _____ _____    ______ ____
ROOT
ATOM      1  O   UNL     1      -3.591  -2.337   0.457  0.00  0.00    -0.268 OA
ATOM      2  N   UNL     1       0.533  -0.494  -0.107  0.00  0.00    -0.207 NA
ATOM      3  N   UNL     1      -1.388   0.986  -0.335  0.00  0.00    -0.290 N 
ATOM      4  N   UNL     1      -0.557  -2.408   0.340  0.00  0.00    -0.249 NA
ATOM      5  N   UNL     1      -3.482  -0.114  -0.015  0.00  0.00    -0.203 N 
ATOM      6  N   UNL     1      -3.569   2.077  -0.470  0.00  0.00    -0.214 NA
ATOM      7  C   UNL     1      -0.792  -0.206  -0.111  0.00  0.00    +0.182 C 
ATOM      8  C   UNL     1       0.625  -1.841   0.171  0.00  0.00    +0.204 C 
ATOM      9  C   UNL     1      -1.439  -1.385   0.163  0.00  0.00    +0.143 C 
ATOM     10  C   UNL     1      -2.880  -1.371   0.222  0.00  0.00    +0.275 C 
ATOM     11  C   UNL     1      -2.757   1.055  -0.291  0.00  0.00    +0.196 C 
ATOM     12  C   UNL     1      -4.809   0.222  -0.027  0.00  0.00    +0.096 C 
ATOM     13  C   UNL     1      -4.835   1.568  -0.308  0.00  0.00    +0.118 C 
ATOM     14  H   UNL     1      -0.851   1.788  -0.527  0.00  0.00    +0.151 HD
ENDROOT
BRANCH   2  16
ATOM     15  O4* UNL     1       2.724  -0.293  -0.997  0.00  0.00    -0.336 OA
ATOM     16  C1* UNL     1       1.652   0.415  -0.345  0.00  0.00    +0.209 C 
ATOM     17  C2* UNL     1       2.246   1.012   0.921  0.00  0.00    +0.183 C 
ATOM     18  C3* UNL     1       3.657   1.334   0.468  0.00  0.00    +0.171 C 
ATOM     19  C4* UNL     1       3.983   0.157  -0.445  0.00  0.00    +0.175 C 
BRANCH  17  20
ATOM     20  O2* UNL     1       1.530   2.151   1.353  0.00  0.00    -0.378 OA
ATOM     21  H2* UNL     1       0.639   1.887   1.629  0.00  0.00    +0.211 HD
ENDBRANCH  17  20
BRANCH  18  22
ATOM     22  O3* UNL     1       3.646   2.531  -0.310  0.00  0.00    -0.379 OA
ATOM     23  H3* UNL     1       3.439   3.287   0.262  0.00  0.00    +0.211 HD
ENDBRANCH  18  22
BRANCH  19  24
ATOM     24  C5* UNL     1       4.626  -1.008   0.295  0.00  0.00    +0.169 C 
BRANCH  24  25
ATOM     25  O5* UNL     1       4.878  -2.050  -0.631  0.00  0.00    -0.379 OA
ATOM     26  H5* UNL     1       5.289  -2.799  -0.171  0.00  0.00    +0.211 HD
ENDBRANCH  24  25
ENDBRANCH  19  24
ENDBRANCH   2  16
TORSDOF 5
