REMARK  Name = 124929
REMARK  7 active torsions:
REMARK  status: ('A' for Active; 'I' for Inactive)
REMARK    1  A    between atoms: C_2  and  O_8
REMARK    2  A    between atoms: C_3  and  O_10
REMARK    3  A    between atoms: C_4  and  O_12
REMARK    4  A    between atoms: C_5  and  C_14
REMARK    5  A    between atoms: C_14  and  O_15
REMARK    6  A    between atoms: O_15  and  C_17
REMARK    7  A    between atoms: C_17  and  C_18
REMARK                            x       y       z     vdW  Elec       q    Type
REMARK                         _______ _______ _______ _____ _____    ______ ____
ROOT
ATOM      1  O   UNL     1      -0.383  -1.695  -0.796  0.00  0.00    -0.289 OA
ATOM      2  C   UNL     1      -3.482  -0.309   0.377  0.00  0.00    +0.176 C 
ATOM      3  C   UNL     1      -2.382  -1.354   0.508  0.00  0.00    +0.202 C 
ATOM      4  C   UNL     1      -2.996   1.034   0.926  0.00  0.00    +0.162 C 
ATOM      5  C   UNL     1      -0.762   0.553  -0.144  0.00  0.00    +0.057 C 
ATOM      6  C   UNL     1      -1.118  -0.901  -0.210  0.00  0.00    +0.201 C 
ATOM      7  C   UNL     1      -1.639   1.411   0.403  0.00  0.00    +0.007 C 
ENDROOT
BRANCH   2   8
ATOM      8  O   UNL     1      -3.843  -0.159  -1.000  0.00  0.00    -0.379 OA
ATOM      9  H   UNL     1      -4.151  -1.011  -1.348  0.00  0.00    +0.211 HD
ENDBRANCH   2   8
BRANCH   3  10
ATOM     10  O   UNL     1      -2.803  -2.592  -0.034  0.00  0.00    -0.375 OA
ATOM     11  H   UNL     1      -3.608  -2.887   0.420  0.00  0.00    +0.211 HD
ENDBRANCH   3  10
BRANCH   4  12
ATOM     12  O   UNL     1      -3.926   2.060   0.594  0.00  0.00    -0.377 OA
ATOM     13  H   UNL     1      -4.804   1.822   0.930  0.00  0.00    +0.211 HD
ENDBRANCH   4  12
BRANCH   5  14
ATOM     14  C   UNL     1       0.569   0.967  -0.685  0.00  0.00    +0.238 C 
BRANCH  14  15
ATOM     15  O   UNL     1       1.603   0.288   0.007  0.00  0.00    -0.440 OA
BRANCH  15  17
ATOM     16  O   UNL     1       3.205   1.353  -1.272  0.00  0.00    -0.245 OA
ATOM     17  C   UNL     1       2.879   0.576  -0.390  0.00  0.00    +0.341 C 
BRANCH  17  18
ATOM     18  C   UNL     1       3.809  -0.222   0.438  0.00  0.00    +0.077 C 
ATOM     19  C   UNL     1       5.131  -0.120   0.244  0.00  0.00    -0.019 C 
ATOM     20  C   UNL     1       6.138  -0.889   1.035  0.00  0.00    +0.031 C 
ENDBRANCH  17  18
ENDBRANCH  15  17
ENDBRANCH  14  15
ENDBRANCH   5  14
TORSDOF 7
