REMARK  Name = 124930
REMARK  8 active torsions:
REMARK  status: ('A' for Active; 'I' for Inactive)
REMARK    1  A    between atoms: C_1  and  C_2
REMARK    2  A    between atoms: C_1  and  O_12
REMARK    3  A    between atoms: C_1  and  CA_14
REMARK    4  A    between atoms: C_5  and  O_8
REMARK    5  A    between atoms: C_7  and  O_10
REMARK    6  A    between atoms: CA_14  and  N_15
REMARK    7  A    between atoms: CA_14  and  C_20
REMARK    8  A    between atoms: C_20  and  O_21
REMARK                            x       y       z     vdW  Elec       q    Type
REMARK                         _______ _______ _______ _____ _____    ______ ____
ROOT
ATOM      1  C   UNL     1       1.052  -0.217   1.413  0.00  0.00    +0.124 C 
ENDROOT
BRANCH   1   2
ATOM      2  C   UNL     1      -0.311  -0.273   0.748  0.00  0.00    +0.006 C 
ATOM      3  C   UNL     1      -1.153   0.818   0.850  0.00  0.00    +0.038 C 
ATOM      4  C   UNL     1      -0.675  -1.414   0.057  0.00  0.00    +0.001 C 
ATOM      5  C   UNL     1      -2.406   0.767   0.238  0.00  0.00    +0.167 C 
ATOM      6  C   UNL     1      -1.927  -1.465  -0.554  0.00  0.00    +0.040 C 
ATOM      7  C   UNL     1      -2.793  -0.375  -0.464  0.00  0.00    +0.167 C 
BRANCH   5   8
ATOM      8  O   UNL     1      -3.242   1.838   0.333  0.00  0.00    -0.503 OA
ATOM      9  H   UNL     1      -2.974   2.601   0.807  0.00  0.00    +0.292 HD
ENDBRANCH   5   8
BRANCH   7  10
ATOM     10  O   UNL     1      -4.013  -0.436  -1.066  0.00  0.00    -0.503 OA
ATOM     11  H   UNL     1      -4.600   0.292  -1.010  0.00  0.00    +0.292 HD
ENDBRANCH   7  10
ENDBRANCH   1   2
BRANCH   1  12
ATOM     12  O   UNL     1       1.446  -1.492   1.925  0.00  0.00    -0.382 OA
ATOM     13  H   UNL     1       2.319  -1.417   2.341  0.00  0.00    +0.211 HD
ENDBRANCH   1  12
BRANCH   1  14
ATOM     14  CA  UNL     1       2.148   0.345   0.489  0.00  0.00    +0.071 C 
BRANCH  14  15
ATOM     15  N   UNL     1       1.826   1.724   0.106  0.00  0.00    +0.393 N 
ATOM     16  C   UNL     1       2.878   2.281  -0.728  0.00  0.00    -0.105 C 
ATOM     17  H1  UNL     1       1.729   2.292   0.947  0.00  0.00    -0.084 HD
ATOM     18  H2  UNL     1       0.953   1.724  -0.422  0.00  0.00    -0.084 HD
ENDBRANCH  14  15
BRANCH  14  20
ATOM     19  OXT UNL     1       1.630  -0.255  -1.819  0.00  0.00    -0.253 OA
ATOM     20  C   UNL     1       2.286  -0.446  -0.803  0.00  0.00    +0.296 C 
BRANCH  20  21
ATOM     21  O   UNL     1       3.251  -1.399  -0.723  0.00  0.00    -0.482 OA
ATOM     22  H   UNL     1       3.732  -1.514   0.073  0.00  0.00    +0.295 HD
ENDBRANCH  20  21
ENDBRANCH  14  20
ENDBRANCH   1  14
TORSDOF 8
