124922
  -OEChem-03292013323D

 55 58  0     1  0  0  0  0  0999 V2000
   -2.8868   -0.0107   -1.7201 O   0  0  0  0  0  0  0  0  0  0  0  0
    0.5677   -2.0012    1.6841 O   0  0  0  0  0  0  0  0  0  0  0  0
   -3.9948   -1.9560   -0.1913 O   0  0  0  0  0  0  0  0  0  0  0  0
   -6.1120    0.8336    0.1525 O   0  0  0  0  0  0  0  0  0  0  0  0
   -5.8239   -0.5047   -1.6580 O   0  0  0  0  0  0  0  0  0  0  0  0
    6.2670   -0.0792   -1.9062 O   0  0  0  0  0  0  0  0  0  0  0  0
   -1.6311   -0.2084    0.4006 C   0  0  1  0  0  0  0  0  0  0  0  0
   -0.7643    1.0071    0.0044 C   0  0  2  0  0  0  0  0  0  0  0  0
    0.6509    0.9714    0.5998 C   0  0  1  0  0  0  0  0  0  0  0  0
    1.3823   -0.3170    0.0809 C   0  0  2  0  0  0  0  0  0  0  0  0
   -2.9674    0.1859   -0.3023 C   0  0  1  0  0  0  0  0  0  0  0  0
   -0.9336   -1.4716   -0.1449 C   0  0  0  0  0  0  0  0  0  0  0  0
   -1.6657    2.2021    0.3062 C   0  0  0  0  0  0  0  0  0  0  0  0
    0.5343   -1.6070    0.3199 C   0  0  2  0  0  0  0  0  0  0  0  0
   -3.0926    1.7029   -0.0082 C   0  0  0  0  0  0  0  0  0  0  0  0
    2.8887   -0.3791    0.5556 C   0  0  1  0  0  0  0  0  0  0  0  0
    1.4274    2.2443    0.2169 C   0  0  0  0  0  0  0  0  0  0  0  0
   -1.8516   -0.3300    1.9328 C   0  0  0  0  0  0  0  0  0  0  0  0
   -4.2010   -0.5941    0.1438 C   0  0  1  0  0  0  0  0  0  0  0  0
    2.8796    2.1961    0.6756 C   0  0  0  0  0  0  0  0  0  0  0  0
    3.5477    0.9472    0.1607 C   0  0  0  0  0  0  0  0  0  0  0  0
    3.0607   -0.5654    2.0802 C   0  0  0  0  0  0  0  0  0  0  0  0
    3.5927   -1.5592   -0.0986 C   0  0  0  0  0  0  0  0  0  0  0  0
    4.6284    1.0370   -0.6305 C   0  0  0  0  0  0  0  0  0  0  0  0
   -5.4404   -0.1014   -0.5677 C   0  0  0  0  0  0  0  0  0  0  0  0
    4.6677   -1.4763   -0.8887 C   0  0  0  0  0  0  0  0  0  0  0  0
    5.2700   -0.1666   -1.1974 C   0  0  0  0  0  0  0  0  0  0  0  0
   -0.6343    0.9995   -1.0906 H   0  0  0  0  0  0  0  0  0  0  0  0
    0.5904    0.9443    1.6923 H   0  0  0  0  0  0  0  0  0  0  0  0
    1.4175   -0.2119   -1.0174 H   0  0  0  0  0  0  0  0  0  0  0  0
   -0.9123   -1.4548   -1.2405 H   0  0  0  0  0  0  0  0  0  0  0  0
   -1.4924   -2.3662    0.1519 H   0  0  0  0  0  0  0  0  0  0  0  0
   -1.4091    3.0721   -0.3071 H   0  0  0  0  0  0  0  0  0  0  0  0
   -1.5911    2.5047    1.3569 H   0  0  0  0  0  0  0  0  0  0  0  0
    0.9759   -2.4315   -0.2510 H   0  0  0  0  0  0  0  0  0  0  0  0
   -3.7295    1.9082    0.8594 H   0  0  0  0  0  0  0  0  0  0  0  0
   -3.5005    2.2467   -0.8677 H   0  0  0  0  0  0  0  0  0  0  0  0
    0.9480    3.1242    0.6619 H   0  0  0  0  0  0  0  0  0  0  0  0
    1.3959    2.3854   -0.8718 H   0  0  0  0  0  0  0  0  0  0  0  0
   -2.3503   -1.2745    2.1782 H   0  0  0  0  0  0  0  0  0  0  0  0
   -0.9228   -0.3052    2.5055 H   0  0  0  0  0  0  0  0  0  0  0  0
   -2.4731    0.4769    2.3341 H   0  0  0  0  0  0  0  0  0  0  0  0
   -4.3805   -0.5435    1.2217 H   0  0  0  0  0  0  0  0  0  0  0  0
    2.9318    2.2231    1.7700 H   0  0  0  0  0  0  0  0  0  0  0  0
    3.3925    3.0994    0.3233 H   0  0  0  0  0  0  0  0  0  0  0  0
    2.8441   -1.5896    2.4026 H   0  0  0  0  0  0  0  0  0  0  0  0
    4.0953   -0.3632    2.3882 H   0  0  0  0  0  0  0  0  0  0  0  0
    2.4180    0.1027    2.6612 H   0  0  0  0  0  0  0  0  0  0  0  0
   -2.7779   -0.9561   -1.9070 H   0  0  0  0  0  0  0  0  0  0  0  0
    3.2097   -2.5549    0.1140 H   0  0  0  0  0  0  0  0  0  0  0  0
    0.0693   -2.8320    1.7656 H   0  0  0  0  0  0  0  0  0  0  0  0
    5.0632    1.9943   -0.8980 H   0  0  0  0  0  0  0  0  0  0  0  0
    5.1275   -2.3625   -1.3102 H   0  0  0  0  0  0  0  0  0  0  0  0
   -4.0870   -2.0635   -1.1523 H   0  0  0  0  0  0  0  0  0  0  0  0
   -6.9202    1.1409   -0.3108 H   0  0  0  0  0  0  0  0  0  0  0  0
  1 11  1  0  0  0  0
  1 49  1  0  0  0  0
  2 14  1  0  0  0  0
  2 51  1  0  0  0  0
  3 19  1  0  0  0  0
  3 54  1  0  0  0  0
  4 25  1  0  0  0  0
  4 55  1  0  0  0  0
  5 25  2  0  0  0  0
  6 27  2  0  0  0  0
  7  8  1  0  0  0  0
  7 11  1  0  0  0  0
  7 12  1  0  0  0  0
  7 18  1  0  0  0  0
  8  9  1  0  0  0  0
  8 13  1  0  0  0  0
  8 28  1  0  0  0  0
  9 10  1  0  0  0  0
  9 17  1  0  0  0  0
  9 29  1  0  0  0  0
 10 14  1  0  0  0  0
 10 16  1  0  0  0  0
 10 30  1  0  0  0  0
 11 15  1  0  0  0  0
 11 19  1  0  0  0  0
 12 14  1  0  0  0  0
 12 31  1  0  0  0  0
 12 32  1  0  0  0  0
 13 15  1  0  0  0  0
 13 33  1  0  0  0  0
 13 34  1  0  0  0  0
 14 35  1  0  0  0  0
 15 36  1  0  0  0  0
 15 37  1  0  0  0  0
 16 21  1  0  0  0  0
 16 22  1  0  0  0  0
 16 23  1  0  0  0  0
 17 20  1  0  0  0  0
 17 38  1  0  0  0  0
 17 39  1  0  0  0  0
 18 40  1  0  0  0  0
 18 41  1  0  0  0  0
 18 42  1  0  0  0  0
 19 25  1  0  0  0  0
 19 43  1  0  0  0  0
 20 21  1  0  0  0  0
 20 44  1  0  0  0  0
 20 45  1  0  0  0  0
 21 24  2  0  0  0  0
 22 46  1  0  0  0  0
 22 47  1  0  0  0  0
 22 48  1  0  0  0  0
 23 26  2  0  0  0  0
 23 50  1  0  0  0  0
 24 27  1  0  0  0  0
 24 52  1  0  0  0  0
 26 27  1  0  0  0  0
 26 53  1  0  0  0  0
M  END
> <PUBCHEM_COMPOUND_CID>
124922

> <PUBCHEM_CONFORMER_RMSD>
0.8

> <PUBCHEM_CONFORMER_DIVERSEORDER>
1
2

> <PUBCHEM_MMFF94_PARTIAL_CHARGES>
24
1 -0.68
11 0.28
14 0.28
16 0.28
19 0.34
2 -0.68
20 0.14
21 -0.28
23 -0.29
24 -0.14
25 0.66
26 -0.14
27 0.54
3 -0.68
4 -0.65
49 0.4
5 -0.57
50 0.15
51 0.4
52 0.15
53 0.15
54 0.4
55 0.5
6 -0.57

> <PUBCHEM_EFFECTIVE_ROTOR_COUNT>
3.4

> <PUBCHEM_PHARMACOPHORE_FEATURES>
14
1 1 acceptor
1 1 donor
1 2 acceptor
1 2 donor
1 3 acceptor
1 3 donor
1 4 acceptor
1 5 acceptor
1 6 acceptor
3 4 5 25 anion
5 7 8 11 13 15 rings
6 16 21 23 24 26 27 rings
6 7 8 9 10 12 14 rings
6 9 10 16 17 20 21 rings

> <PUBCHEM_HEAVY_ATOM_COUNT>
27

> <PUBCHEM_ATOM_DEF_STEREO_COUNT>
7

> <PUBCHEM_ATOM_UDEF_STEREO_COUNT>
1

> <PUBCHEM_BOND_DEF_STEREO_COUNT>
0

> <PUBCHEM_BOND_UDEF_STEREO_COUNT>
0

> <PUBCHEM_ISOTOPIC_ATOM_COUNT>
0

> <PUBCHEM_COMPONENT_COUNT>
1

> <PUBCHEM_CACTVS_TAUTO_COUNT>
3

> <PUBCHEM_CONFORMER_ID>
0001E7FA00000001

> <PUBCHEM_MMFF94_ENERGY>
94.049

> <PUBCHEM_FEATURE_SELFOVERLAP>
71.225

> <PUBCHEM_SHAPE_FINGERPRINT>
10 15 10087632698202773110
10366900 7 18187367618580914688
10498660 4 17967252014009039580
10670039 82 18187087205104925468
10693767 8 18272922800229641807
11961588 58 17531535373122067100
12011746 2 18334580148360992924
12166972 35 17489590077647383577
12236239 1 17418095438142504961
12403259 415 18187639206833326581
12596602 18 13406791121259736893
12788726 201 18334857169351649169
13140716 1 18265317585731883203
13224815 77 18333446538771550200
13533116 47 17418093260594229104
13583140 156 14707220940879591400
13782708 43 14907601468339301567
14528608 73 18335135401653917975
14739800 52 14201669901486645860
14931854 50 18336274457583470590
15183329 4 18343865489987992717
15196674 1 18411980234790834016
15788980 27 13758353349695713962
16752209 62 18410572847391514360
16945 1 18413102870875712978
17349148 13 17203333320572204725
17492 54 18114758083392403324
1813 80 13901913323302214450
18186145 218 18261384559577346088
18222031 100 18131063835746037168
18608769 82 17968953005663072923
19784866 240 17060065834592159116
19862831 5 18409451380012207728
200 152 17917710214853064409
20775438 99 17555140877757284991
20871999 31 18409739434920916324
21267235 1 18342181098709944311
21637258 2 16271923800684121516
21756936 100 11964834467511281422
221357 26 18341895177672137428
2215653 11 18342172276198200725
22393880 68 18335976506426741069
23522609 53 18056509246591859433
23559900 14 18341329002193047616
23569914 152 17405968675518281063
25147074 1 18191586345912333160
2838139 119 15357696418055398542
2871803 45 18408598162846255369
296302 2 14634871963617656360
3004659 81 18411980269213804452
335352 9 18413671297408497253
350125 39 18339083696681345033
3886686 26 11666217902227079572
4058900 60 17677331602644242779
4340502 62 15357697487628680208
46194498 28 18060425724785303324
465052 167 17703794751095305276
5104073 3 18341891874710340953
542803 24 17894630344535785765
59755656 215 18411703166555889007
633830 44 18338506543017322687
960060 61 18334016099064794492
9709674 26 18339080522446753706

> <PUBCHEM_SHAPE_MULTIPOLES>
520.43
12.43
2.11
1.44
3.69
0.51
-0.2
-1.3
6.18
-0.49
-0.28
-0.65
-0.38
-0.01

> <PUBCHEM_SHAPE_SELFOVERLAP>
1127.971

> <PUBCHEM_SHAPE_VOLUME>
280.1

> <PUBCHEM_COORDINATE_TYPE>
2
5
10

$$$$
