REMARK  Name = 124900
REMARK  14 active torsions:
REMARK  status: ('A' for Active; 'I' for Inactive)
REMARK    1  A    between atoms: N_2  and  C_5
REMARK    2  A    between atoms: C_3  and  C_21
REMARK    3  A    between atoms: C_5  and  C_7
REMARK    4  A    between atoms: C_5  and  C_10
REMARK    5  A    between atoms: C_7  and  O_8
REMARK    6  A    between atoms: C_10  and  C_11
REMARK    7  A    between atoms: C_11  and  C_12
REMARK    8  A    between atoms: C_12  and  N_13
REMARK    9  A    between atoms: N_13  and  C_16
REMARK   10  A    between atoms: C_21  and  N_22
REMARK   11  A    between atoms: C_21  and  C_26
REMARK   12  A    between atoms: C_26  and  C_27
REMARK   13  A    between atoms: C_32  and  O_33
REMARK   14  A    between atoms: O_33  and  C_34
REMARK                            x       y       z     vdW  Elec       q    Type
REMARK                         _______ _______ _______ _____ _____    ______ ____
ROOT
ATOM      1  O   UNL     1      -2.870  -1.642  -1.658  0.00  0.00    -0.277 OA
ATOM      2  N   UNL     1      -2.596  -0.247   0.174  0.00  0.00    -0.298 N 
ATOM      3  C   UNL     1      -2.710  -1.482  -0.449  0.00  0.00    +0.203 C 
ATOM      4  H   UNL     1      -2.470  -0.216   1.150  0.00  0.00    +0.150 HD
ENDROOT
BRANCH   2   5
ATOM      5  C   UNL     1      -2.658   0.992  -0.559  0.00  0.00    +0.171 C 
BRANCH   5   7
ATOM      6  O   UNL     1      -3.683   1.970   1.398  0.00  0.00    -0.248 OA
ATOM      7  C   UNL     1      -3.328   2.107   0.232  0.00  0.00    +0.335 C 
BRANCH   7   8
ATOM      8  O   UNL     1      -3.479   3.241  -0.507  0.00  0.00    -0.443 OA
ATOM      9  C   UNL     1      -4.104   4.341   0.163  0.00  0.00    +0.256 C 
ENDBRANCH   7   8
ENDBRANCH   5   7
BRANCH   5  10
ATOM     10  C   UNL     1      -1.268   1.408  -1.057  0.00  0.00    +0.033 C 
BRANCH  10  11
ATOM     11  C   UNL     1      -0.277   1.739   0.070  0.00  0.00    +0.029 C 
BRANCH  11  12
ATOM     12  C   UNL     1       1.104   2.108  -0.464  0.00  0.00    +0.129 C 
BRANCH  12  13
ATOM     13  N   UNL     1       1.993   2.446   0.649  0.00  0.00    -0.240 NA
BRANCH  13  16
ATOM     14  N   UNL     1       4.090   3.160   1.329  0.00  0.00    -0.370 N 
ATOM     15  N   UNL     1       3.745   2.952  -0.915  0.00  0.00    -0.370 N 
ATOM     16  C   UNL     1       3.194   2.825   0.341  0.00  0.00    +0.189 C 
ATOM     17  H   UNL     1       3.821   3.113   2.274  0.00  0.00    +0.159 HD
ATOM     18  H   UNL     1       5.001   3.448   1.090  0.00  0.00    +0.159 HD
ATOM     19  H   UNL     1       3.207   2.742  -1.712  0.00  0.00    +0.159 HD
ATOM     20  H   UNL     1       4.677   3.252  -1.015  0.00  0.00    +0.159 HD
ENDBRANCH  13  16
ENDBRANCH  12  13
ENDBRANCH  11  12
ENDBRANCH  10  11
ENDBRANCH   5  10
ENDBRANCH   2   5
BRANCH   3  21
ATOM     21  C   UNL     1      -2.587  -2.647   0.529  0.00  0.00    +0.017 C 
BRANCH  21  22
ATOM     22  N   UNL     1      -3.852  -3.380   0.473  0.00  0.00    +0.388 N 
ATOM     23  H   UNL     1      -3.815  -4.172   1.114  0.00  0.00    -0.089 HD
ATOM     24  H   UNL     1      -4.007  -3.719  -0.477  0.00  0.00    -0.089 HD
ATOM     25  H   UNL     1      -4.616  -2.760   0.742  0.00  0.00    -0.089 HD
ENDBRANCH  21  22
BRANCH  21  26
ATOM     26  C   UNL     1      -1.429  -3.573   0.129  0.00  0.00    +0.013 C 
BRANCH  26  27
ATOM     27  C   UNL     1      -0.085  -2.884   0.176  0.00  0.00    -0.024 C 
ATOM     28  C   UNL     1       0.405  -2.232  -0.956  0.00  0.00    -0.001 C 
ATOM     29  C   UNL     1       0.666  -2.901   1.351  0.00  0.00    -0.001 C 
ATOM     30  C   UNL     1       1.645  -1.596  -0.912  0.00  0.00    +0.037 C 
ATOM     31  C   UNL     1       1.907  -2.265   1.395  0.00  0.00    +0.037 C 
ATOM     32  C   UNL     1       2.396  -1.613   0.263  0.00  0.00    +0.139 C 
BRANCH  32  33
ATOM     33  O   UNL     1       3.607  -0.991   0.306  0.00  0.00    -0.475 OA
BRANCH  33  34
ATOM     34  C   UNL     1       4.347  -0.927  -0.912  0.00  0.00    +0.206 C 
ATOM     35  C   UNL     1       5.826  -0.907  -0.589  0.00  0.00    +0.051 C 
ENDBRANCH  33  34
ENDBRANCH  32  33
ENDBRANCH  26  27
ENDBRANCH  21  26
ENDBRANCH   3  21
TORSDOF 14
