REMARK  Name = 124952
REMARK  9 active torsions:
REMARK  status: ('A' for Active; 'I' for Inactive)
REMARK    1  A    between atoms: C_1  and  C_4
REMARK    2  A    between atoms: C_1  and  N_18
REMARK    3  A    between atoms: C_1  and  C_30
REMARK    4  A    between atoms: N_3  and  C_6
REMARK    5  A    between atoms: C_11  and  C_14
REMARK    6  A    between atoms: N_18  and  S_20
REMARK    7  A    between atoms: S_20  and  C_23
REMARK    8  A    between atoms: C_30  and  C_31
REMARK    9  A    between atoms: C_31  and  C_32
REMARK                            x       y       z     vdW  Elec       q    Type
REMARK                         _______ _______ _______ _____ _____    ______ ____
ROOT
ATOM      1  C   UNL     1       0.698  -0.390   1.061  0.00  0.00    +0.152 C 
ENDROOT
BRANCH   1   4
ATOM      2  O   UNL     1      -1.254   0.014   2.403  0.00  0.00    -0.273 OA
ATOM      3  N   UNL     1      -1.521  -0.409   0.111  0.00  0.00    -0.283 N 
ATOM      4  C   UNL     1      -0.802  -0.237   1.288  0.00  0.00    +0.242 C 
ATOM      5  H   UNL     1      -0.994  -0.601  -0.698  0.00  0.00    +0.155 HD
BRANCH   3   6
ATOM      6  C   UNL     1      -2.925  -0.339  -0.056  0.00  0.00    +0.050 C 
ATOM      7  C   UNL     1      -3.489  -0.558  -1.313  0.00  0.00    +0.015 C 
ATOM      8  C   UNL     1      -3.744  -0.049   1.035  0.00  0.00    +0.015 C 
ATOM      9  C   UNL     1      -4.872  -0.488  -1.478  0.00  0.00    +0.004 C 
ATOM     10  C   UNL     1      -5.127   0.021   0.870  0.00  0.00    +0.004 C 
ATOM     11  C   UNL     1      -5.691  -0.198  -0.387  0.00  0.00    +0.031 C 
BRANCH  11  14
ATOM     12  N   UNL     1      -7.727  -0.341  -1.802  0.00  0.00    -0.343 N 
ATOM     13  N   UNL     1      -7.907   0.153   0.475  0.00  0.00    -0.285 NA
ATOM     14  C   UNL     1      -7.133  -0.126  -0.559  0.00  0.00    +0.117 C 
ATOM     15  H   UNL     1      -8.705  -0.287  -1.896  0.00  0.00    +0.144 HD
ATOM     16  H   UNL     1      -7.168  -0.546  -2.586  0.00  0.00    +0.144 HD
ATOM     17  H   UNL     1      -8.883   0.203   0.360  0.00  0.00    +0.188 HD
ENDBRANCH  11  14
ENDBRANCH   3   6
ENDBRANCH   1   4
BRANCH   1  18
ATOM     18  N   UNL     1       0.926  -1.851   1.203  0.00  0.00    -0.172 NA
ATOM     19  H   UNL     1       1.570  -1.975   1.985  0.00  0.00    +0.149 HD
BRANCH  18  20
ATOM     20  S   UNL     1       1.559  -2.735  -0.100  0.00  0.00    +0.061 S 
ATOM     21  O   UNL     1       0.741  -2.515  -1.277  0.00  0.00    -0.153 OA
ATOM     22  O   UNL     1       1.845  -4.084   0.349  0.00  0.00    -0.153 OA
BRANCH  20  23
ATOM     23  C   UNL     1       3.116  -1.939  -0.360  0.00  0.00    +0.122 C 
ATOM     24  C   UNL     1       3.209  -0.859  -1.238  0.00  0.00    +0.020 C 
ATOM     25  C   UNL     1       4.252  -2.392   0.311  0.00  0.00    +0.020 C 
ATOM     26  C   UNL     1       5.573  -0.684  -0.773  0.00  0.00    -0.022 C 
ATOM     27  C   UNL     1       4.437  -0.231  -1.444  0.00  0.00    -0.003 C 
ATOM     28  C   UNL     1       5.480  -1.764   0.104  0.00  0.00    -0.003 C 
ATOM     29  C   UNL     1       6.887  -0.013  -0.993  0.00  0.00    +0.031 C 
ENDBRANCH  20  23
ENDBRANCH  18  20
ENDBRANCH   1  18
BRANCH   1  30
ATOM     30  C   UNL     1       1.526   0.349   2.120  0.00  0.00    +0.031 C 
BRANCH  30  31
ATOM     31  C   UNL     1       1.249   1.861   2.175  0.00  0.00    +0.028 C 
BRANCH  31  32
ATOM     32  C   UNL     1       1.526   2.608   0.896  0.00  0.00    -0.022 C 
ATOM     33  C   UNL     1       0.518   2.760  -0.056  0.00  0.00    -0.004 C 
ATOM     34  C   UNL     1       2.791   3.150   0.664  0.00  0.00    -0.004 C 
ATOM     35  C   UNL     1       0.774   3.452  -1.239  0.00  0.00    -0.000 C 
ATOM     36  C   UNL     1       3.047   3.842  -0.519  0.00  0.00    -0.000 C 
ATOM     37  C   UNL     1       2.039   3.993  -1.471  0.00  0.00    -0.000 C 
ENDBRANCH  31  32
ENDBRANCH  30  31
ENDBRANCH   1  30
TORSDOF 9
