REMARK  Name = 124926
REMARK  3 active torsions:
REMARK  status: ('A' for Active; 'I' for Inactive)
REMARK    1  A    between atoms: C_8  and  O_19
REMARK    2  A    between atoms: C_9  and  O_21
REMARK    3  A    between atoms: C_10  and  O_23
REMARK                            x       y       z     vdW  Elec       q    Type
REMARK                         _______ _______ _______ _____ _____    ______ ____
ROOT
ATOM      1  O   UNL     1      -2.156   0.124   1.426  0.00  0.00    -0.332 OA
ATOM      2  N   UNL     1      -0.090   0.243   0.385  0.00  0.00    -0.222 N 
ATOM      3  N   UNL     1       1.000  -1.570  -0.301  0.00  0.00    -0.383 NA
ATOM      4  N   UNL     1       1.745   1.833   0.519  0.00  0.00    -0.227 NA
ATOM      5  N   UNL     1       3.853   0.781  -0.117  0.00  0.00    -0.227 NA
ATOM      6  C   UNL     1      -2.640  -0.760   0.383  0.00  0.00    +0.181 C 
ATOM      7  C   UNL     1      -1.266   1.022   0.728  0.00  0.00    +0.229 C 
ATOM      8  C   UNL     1      -2.998   0.224  -0.736  0.00  0.00    +0.171 C 
ATOM      9  C   UNL     1      -2.046   1.404  -0.526  0.00  0.00    +0.187 C 
ATOM     10  C   UNL     1      -1.507  -1.766   0.069  0.00  0.00    +0.207 C 
ATOM     11  C   UNL     1      -0.180  -1.083   0.025  0.00  0.00    +0.196 C 
ATOM     12  C   UNL     1       1.209   0.626   0.279  0.00  0.00    +0.169 C 
ATOM     13  C   UNL     1       1.873  -0.516  -0.148  0.00  0.00    +0.195 C 
ATOM     14  C   UNL     1       3.246  -0.408  -0.344  0.00  0.00    +0.155 C 
ATOM     15  C   UNL     1       3.077   1.812   0.294  0.00  0.00    +0.253 C 
ATOM     16  N   UNL     1       3.999  -1.514  -0.775  0.00  0.00    -0.341 N 
ATOM     17  H   UNL     1       4.970  -1.426  -0.911  0.00  0.00    +0.144 HD
ATOM     18  H   UNL     1       3.554  -2.377  -0.942  0.00  0.00    +0.144 HD
ENDROOT
BRANCH   8  19
ATOM     19  O   UNL     1      -2.882  -0.337  -2.030  0.00  0.00    -0.379 OA
ATOM     20  H   UNL     1      -3.501  -1.078  -2.118  0.00  0.00    +0.211 HD
ENDBRANCH   8  19
BRANCH   9  21
ATOM     21  O   UNL     1      -2.795   2.589  -0.271  0.00  0.00    -0.378 OA
ATOM     22  H   UNL     1      -2.188   3.333  -0.138  0.00  0.00    +0.211 HD
ENDBRANCH   9  21
BRANCH  10  23
ATOM     23  O   UNL     1      -1.442  -2.706   1.140  0.00  0.00    -0.374 OA
ATOM     24  H   UNL     1      -2.288  -3.178   1.208  0.00  0.00    +0.211 HD
ENDBRANCH  10  23
TORSDOF 3
