124942
  -OEChem-03292013323D

 49 51  0     1  0  0  0  0  0999 V2000
    1.4647    0.7452   -1.7625 S   0  0  0  0  0  0  0  0  0  0  0  0
    1.9275    2.1325   -1.7714 O   0  0  0  0  0  0  0  0  0  0  0  0
    1.4220   -0.0369   -3.0005 O   0  0  0  0  0  0  0  0  0  0  0  0
   -2.7236   -1.8812    1.2011 O   0  0  0  0  0  0  0  0  0  0  0  0
   -4.8155   -1.0979    1.5902 O   0  0  0  0  0  0  0  0  0  0  0  0
   -0.0702    0.7929   -1.1163 N   0  0  0  0  0  0  0  0  0  0  0  0
   -5.4282   -1.6071   -1.0544 N   0  0  0  0  0  0  0  0  0  0  0  0
   -2.2620    0.5035   -0.9193 C   0  0  0  0  0  0  0  0  0  0  0  0
   -0.4160    1.3369    0.1002 C   0  0  0  0  0  0  0  0  0  0  0  0
   -1.7942    1.1673    0.2492 C   0  0  0  0  0  0  0  0  0  0  0  0
   -1.1790    0.2869   -1.7398 C   0  0  0  0  0  0  0  0  0  0  0  0
   -3.6562    0.1112   -1.2085 C   0  0  0  0  0  0  0  0  0  0  0  0
    2.4775   -0.1750   -0.6332 C   0  0  0  0  0  0  0  0  0  0  0  0
   -4.0362   -1.3032   -0.7122 C   0  0  1  0  0  0  0  0  0  0  0  0
    2.1480   -1.4888   -0.3436 C   0  0  0  0  0  0  0  0  0  0  0  0
    3.5816    0.4352   -0.0611 C   0  0  0  0  0  0  0  0  0  0  0  0
    0.3775    1.9596    1.0702 C   0  0  0  0  0  0  0  0  0  0  0  0
   -2.4128    1.6417    1.4229 C   0  0  0  0  0  0  0  0  0  0  0  0
    2.9451   -2.2128    0.5431 C   0  0  0  0  0  0  0  0  0  0  0  0
    4.3787   -0.2889    0.8256 C   0  0  0  0  0  0  0  0  0  0  0  0
    4.0605   -1.6128    1.1276 C   0  0  0  0  0  0  0  0  0  0  0  0
   -0.2581    2.4221    2.2260 C   0  0  0  0  0  0  0  0  0  0  0  0
   -1.6316    2.2667    2.4018 C   0  0  0  0  0  0  0  0  0  0  0  0
    0.9621   -2.1652   -0.9510 C   0  0  0  0  0  0  0  0  0  0  0  0
    3.9546    1.8505   -0.3620 C   0  0  0  0  0  0  0  0  0  0  0  0
   -3.9278   -1.3957    0.8007 C   0  0  0  0  0  0  0  0  0  0  0  0
    4.9116   -2.3867    2.0770 C   0  0  0  0  0  0  0  0  0  0  0  0
   -1.1223   -0.1846   -2.7118 H   0  0  0  0  0  0  0  0  0  0  0  0
   -3.8241    0.1651   -2.2931 H   0  0  0  0  0  0  0  0  0  0  0  0
   -4.3373    0.8514   -0.7664 H   0  0  0  0  0  0  0  0  0  0  0  0
   -3.3894   -2.0634   -1.1658 H   0  0  0  0  0  0  0  0  0  0  0  0
    1.4415    2.0914    0.9633 H   0  0  0  0  0  0  0  0  0  0  0  0
   -3.4827    1.5356    1.5760 H   0  0  0  0  0  0  0  0  0  0  0  0
    2.7000   -3.2442    0.7859 H   0  0  0  0  0  0  0  0  0  0  0  0
    5.2481    0.1731    1.2876 H   0  0  0  0  0  0  0  0  0  0  0  0
    0.3295    2.9101    2.9996 H   0  0  0  0  0  0  0  0  0  0  0  0
   -2.1036    2.6356    3.3085 H   0  0  0  0  0  0  0  0  0  0  0  0
    0.0341   -1.8121   -0.4979 H   0  0  0  0  0  0  0  0  0  0  0  0
    0.9293   -2.0974   -2.0384 H   0  0  0  0  0  0  0  0  0  0  0  0
    0.9951   -3.2430   -0.7452 H   0  0  0  0  0  0  0  0  0  0  0  0
    3.2518    2.5858    0.0314 H   0  0  0  0  0  0  0  0  0  0  0  0
    4.1808    1.9936   -1.4237 H   0  0  0  0  0  0  0  0  0  0  0  0
    4.9013    2.0958    0.1395 H   0  0  0  0  0  0  0  0  0  0  0  0
   -5.6394   -2.5715   -0.7999 H   0  0  0  0  0  0  0  0  0  0  0  0
   -5.5508   -1.5475   -2.0646 H   0  0  0  0  0  0  0  0  0  0  0  0
    5.9539   -2.0526    2.0360 H   0  0  0  0  0  0  0  0  0  0  0  0
    4.5429   -2.2610    3.0998 H   0  0  0  0  0  0  0  0  0  0  0  0
    4.9082   -3.4542    1.8313 H   0  0  0  0  0  0  0  0  0  0  0  0
   -2.6618   -1.9450    2.1780 H   0  0  0  0  0  0  0  0  0  0  0  0
  1  2  2  0  0  0  0
  1  3  2  0  0  0  0
  1  6  1  0  0  0  0
  1 13  1  0  0  0  0
  4 26  1  0  0  0  0
  4 49  1  0  0  0  0
  5 26  2  0  0  0  0
  6  9  1  0  0  0  0
  6 11  1  0  0  0  0
  7 14  1  0  0  0  0
  7 44  1  0  0  0  0
  7 45  1  0  0  0  0
  8 10  1  0  0  0  0
  8 11  2  0  0  0  0
  8 12  1  0  0  0  0
  9 10  1  0  0  0  0
  9 17  2  0  0  0  0
 10 18  2  0  0  0  0
 11 28  1  0  0  0  0
 12 14  1  0  0  0  0
 12 29  1  0  0  0  0
 12 30  1  0  0  0  0
 13 15  2  0  0  0  0
 13 16  1  0  0  0  0
 14 26  1  0  0  0  0
 14 31  1  0  0  0  0
 15 19  1  0  0  0  0
 15 24  1  0  0  0  0
 16 20  2  0  0  0  0
 16 25  1  0  0  0  0
 17 22  1  0  0  0  0
 17 32  1  0  0  0  0
 18 23  1  0  0  0  0
 18 33  1  0  0  0  0
 19 21  2  0  0  0  0
 19 34  1  0  0  0  0
 20 21  1  0  0  0  0
 20 35  1  0  0  0  0
 21 27  1  0  0  0  0
 22 23  2  0  0  0  0
 22 36  1  0  0  0  0
 23 37  1  0  0  0  0
 24 38  1  0  0  0  0
 24 39  1  0  0  0  0
 24 40  1  0  0  0  0
 25 41  1  0  0  0  0
 25 42  1  0  0  0  0
 25 43  1  0  0  0  0
 27 46  1  0  0  0  0
 27 47  1  0  0  0  0
 27 48  1  0  0  0  0
M  END
> <PUBCHEM_COMPOUND_CID>
124942

> <PUBCHEM_CONFORMER_RMSD>
0.8

> <PUBCHEM_CONFORMER_DIVERSEORDER>
1
13
49
23
47
28
42
24
52
58
51
27
18
33
54
29
32
53
44
11
50
12
46
37
20
30
17
31
57
48
14
7
15
26
25
43
56
10
21
41
35
34
3
8
39
9
36
38
45
5
6
40
16
55
4
22
19
2

> <PUBCHEM_MMFF94_PARTIAL_CHARGES>
36
1 1.29
11 -0.3
12 0.18
13 -0.01
14 0.33
15 -0.14
16 -0.14
17 -0.15
18 -0.15
19 -0.15
2 -0.65
20 -0.15
21 -0.14
22 -0.15
23 -0.15
24 0.14
25 0.14
26 0.66
27 0.14
28 0.15
3 -0.65
32 0.15
33 0.15
34 0.15
35 0.15
36 0.15
37 0.15
4 -0.65
44 0.36
45 0.36
49 0.5
5 -0.57
6 0.32
7 -0.99
8 -0.18
9 -0.15

> <PUBCHEM_EFFECTIVE_ROTOR_COUNT>
5

> <PUBCHEM_PHARMACOPHORE_FEATURES>
10
1 2 acceptor
1 3 acceptor
1 4 acceptor
1 5 acceptor
1 7 cation
1 7 donor
3 4 5 26 anion
5 6 8 9 10 11 rings
6 13 15 16 19 20 21 rings
6 9 10 17 18 22 23 rings

> <PUBCHEM_HEAVY_ATOM_COUNT>
27

> <PUBCHEM_ATOM_DEF_STEREO_COUNT>
1

> <PUBCHEM_ATOM_UDEF_STEREO_COUNT>
0

> <PUBCHEM_BOND_DEF_STEREO_COUNT>
0

> <PUBCHEM_BOND_UDEF_STEREO_COUNT>
0

> <PUBCHEM_ISOTOPIC_ATOM_COUNT>
0

> <PUBCHEM_COMPONENT_COUNT>
1

> <PUBCHEM_CACTVS_TAUTO_COUNT>
1

> <PUBCHEM_CONFORMER_ID>
0001E80E00000001

> <PUBCHEM_MMFF94_ENERGY>
67.8087

> <PUBCHEM_FEATURE_SELFOVERLAP>
50.912

> <PUBCHEM_SHAPE_FINGERPRINT>
10369192 42 13684859901637566362
11007060 377 17755617011395381540
11578080 2 18338216211703062237
11595378 159 17489598839528028851
12293681 25 15865220015852923024
12553582 1 17489864981577222005
12596599 1 18192154793793405002
12633257 1 18191589636426974506
12788726 201 18059868280520934865
12824470 246 18408045104344818241
12892183 10 17630590246851361326
13140716 1 17129603244937017397
13224815 77 18059863835044933060
13544653 18 18409162216727617015
14081887 123 17703516484728196419
14178342 30 18056483841964888746
14251757 17 17385713708339783051
14341114 328 17988926690631991050
14787075 74 18128254691154111524
15295992 7 15551092619199644601
15475509 35 18121226639132356859
17349148 13 18409170995456199170
17974551 9 16982083853029682610
18981168 100 14763788482019005416
20626108 58 18187351138901987567
21069387 34 17022626351248679724
21304303 282 17695049017198606385
21344244 78 16271087185075841251
21421861 104 18200894931897135393
21864079 5 12391513040221441579
23557571 272 17489035863577995781
23559900 14 17967522484910253540
35225 105 17053624758111631955
3797600 57 18131353029412182816
392239 28 17987497347423554354
463206 1 16806441405756119338
469060 322 16557879300389752373
484985 159 17107605178920552346
57527585 103 17388567941747180155
633830 44 11887667377791362460
6442390 28 14764344980989571206
7097593 13 17553485786798558426
9981440 41 16196468561224247248

> <PUBCHEM_SHAPE_MULTIPOLES>
526.06
9.33
2.88
2.37
1.46
0.56
0.22
-6.14
-3.37
0.06
-1.45
-0.46
0.33
-1.89

> <PUBCHEM_SHAPE_SELFOVERLAP>
1131.851

> <PUBCHEM_SHAPE_VOLUME>
292.5

> <PUBCHEM_COORDINATE_TYPE>
2
5
10

$$$$
