124947
  -OEChem-03292013323D

 28 31  0     0  0  0  0  0  0999 V2000
    0.6034   -2.4469    0.0005 O   0  0  0  0  0  0  0  0  0  0  0  0
   -0.6034    2.4468    0.0005 O   0  0  0  0  0  0  0  0  0  0  0  0
   -1.4231   -3.5178    0.0001 O   0  0  0  0  0  0  0  0  0  0  0  0
    1.4232    3.5179    0.0001 O   0  0  0  0  0  0  0  0  0  0  0  0
    5.5856    0.8154   -0.0003 O   0  5  0  0  0  0  0  0  0  0  0  0
   -5.5857   -0.8153   -0.0002 O   0  5  0  0  0  0  0  0  0  0  0  0
    5.4727   -1.3770   -0.0005 O   0  0  0  0  0  0  0  0  0  0  0  0
   -5.4728    1.3770   -0.0004 O   0  0  0  0  0  0  0  0  0  0  0  0
    4.9222   -0.2495   -0.0006 N   0  3  0  0  0  0  0  0  0  0  0  0
   -4.9222    0.2496   -0.0006 N   0  3  0  0  0  0  0  0  0  0  0  0
    0.7165   -0.0225    0.0007 C   0  0  0  0  0  0  0  0  0  0  0  0
   -0.7165    0.0225    0.0007 C   0  0  0  0  0  0  0  0  0  0  0  0
   -1.4740   -1.1474    0.0002 C   0  0  0  0  0  0  0  0  0  0  0  0
    1.4741    1.1474    0.0003 C   0  0  0  0  0  0  0  0  0  0  0  0
    1.3618   -1.2538    0.0006 C   0  0  0  0  0  0  0  0  0  0  0  0
   -1.3618    1.2538    0.0004 C   0  0  0  0  0  0  0  0  0  0  0  0
   -2.8717   -1.0723   -0.0004 C   0  0  0  0  0  0  0  0  0  0  0  0
    2.8717    1.0722   -0.0004 C   0  0  0  0  0  0  0  0  0  0  0  0
    2.7496   -1.3496   -0.0002 C   0  0  0  0  0  0  0  0  0  0  0  0
   -2.7496    1.3496   -0.0004 C   0  0  0  0  0  0  0  0  0  0  0  0
   -0.7953   -2.4671    0.0005 C   0  0  0  0  0  0  0  0  0  0  0  0
    0.7953    2.4672    0.0006 C   0  0  0  0  0  0  0  0  0  0  0  0
    3.5039   -0.1765   -0.0006 C   0  0  0  0  0  0  0  0  0  0  0  0
   -3.5039    0.1764   -0.0007 C   0  0  0  0  0  0  0  0  0  0  0  0
   -3.4518   -1.9920   -0.0006 H   0  0  0  0  0  0  0  0  0  0  0  0
    3.4518    1.9919   -0.0006 H   0  0  0  0  0  0  0  0  0  0  0  0
    3.2089   -2.3341   -0.0004 H   0  0  0  0  0  0  0  0  0  0  0  0
   -3.2089    2.3341   -0.0006 H   0  0  0  0  0  0  0  0  0  0  0  0
  1 15  1  0  0  0  0
  1 21  1  0  0  0  0
  2 16  1  0  0  0  0
  2 22  1  0  0  0  0
  3 21  2  0  0  0  0
  4 22  2  0  0  0  0
  5  9  1  0  0  0  0
  6 10  1  0  0  0  0
  7  9  2  0  0  0  0
  8 10  2  0  0  0  0
  9 23  1  0  0  0  0
 10 24  1  0  0  0  0
 11 12  1  0  0  0  0
 11 14  2  0  0  0  0
 11 15  1  0  0  0  0
 12 13  2  0  0  0  0
 12 16  1  0  0  0  0
 13 17  1  0  0  0  0
 13 21  1  0  0  0  0
 14 18  1  0  0  0  0
 14 22  1  0  0  0  0
 15 19  2  0  0  0  0
 16 20  2  0  0  0  0
 17 24  2  0  0  0  0
 17 25  1  0  0  0  0
 18 23  2  0  0  0  0
 18 26  1  0  0  0  0
 19 23  1  0  0  0  0
 19 27  1  0  0  0  0
 20 24  1  0  0  0  0
 20 28  1  0  0  0  0
M  CHG  4   5  -1   6  -1   9   1  10   1
M  END
> <PUBCHEM_COMPOUND_CID>
124947

> <PUBCHEM_CONFORMER_RMSD>
0.6

> <PUBCHEM_CONFORMER_DIVERSEORDER>
1

> <PUBCHEM_MMFF94_PARTIAL_CHARGES>
26
1 -0.23
10 0.91
13 0.09
14 0.09
15 0.08
16 0.08
17 -0.15
18 -0.15
19 -0.15
2 -0.23
20 -0.15
21 0.63
22 0.63
23 0.13
24 0.13
25 0.15
26 0.15
27 0.15
28 0.15
3 -0.57
4 -0.57
5 -0.52
6 -0.52
7 -0.52
8 -0.52
9 0.91

> <PUBCHEM_EFFECTIVE_ROTOR_COUNT>
2

> <PUBCHEM_PHARMACOPHORE_FEATURES>
12
1 3 acceptor
1 4 acceptor
1 5 acceptor
1 5 anion
1 6 acceptor
1 6 anion
1 7 acceptor
1 8 acceptor
6 1 11 12 13 15 21 rings
6 11 14 15 18 19 23 rings
6 12 13 16 17 20 24 rings
6 2 11 12 14 16 22 rings

> <PUBCHEM_HEAVY_ATOM_COUNT>
24

> <PUBCHEM_ATOM_DEF_STEREO_COUNT>
0

> <PUBCHEM_ATOM_UDEF_STEREO_COUNT>
0

> <PUBCHEM_BOND_DEF_STEREO_COUNT>
0

> <PUBCHEM_BOND_UDEF_STEREO_COUNT>
0

> <PUBCHEM_ISOTOPIC_ATOM_COUNT>
0

> <PUBCHEM_COMPONENT_COUNT>
1

> <PUBCHEM_CACTVS_TAUTO_COUNT>
1

> <PUBCHEM_CONFORMER_ID>
0001E81300000001

> <PUBCHEM_MMFF94_ENERGY>
96.5056

> <PUBCHEM_FEATURE_SELFOVERLAP>
61.193

> <PUBCHEM_SHAPE_FINGERPRINT>
10411042 1 17690280409504399855
10693767 8 18058151857292878319
10906281 52 18269575912698810276
10967382 1 18410855447253893863
1100329 8 18338517546459725969
11578080 2 16914522531198943442
11680986 33 18194680599260990313
12011746 2 18410575071778177262
12035758 1 18410856589704567848
12553582 1 18337938039697567778
12788726 201 17988097637406441632
12838862 33 18338497690873824432
13140716 1 18194682789683527977
13402501 40 18410855447243259956
13862211 1 18410570669500320458
14115302 16 18188218679562384764
14178342 30 17762605592409339641
14790565 3 18410581647389697984
15042514 8 18336550537865680691
15099037 51 18410012147679040103
15196674 1 18410856602589462532
1601671 61 18409729521814741273
16728300 4 17389919194160915370
16945 1 18338517559344627718
19591789 44 18266741285838940426
200 152 18131067130365845769
20028762 73 18201998884933234487
20510252 161 18199186192148942088
20642791 178 17971198273185136460
21029758 11 18342455941392311536
21267235 1 18410864247657740098
21279426 13 18266459806392910327
21421861 104 17682963189511274723
21709351 56 18411691094093819157
221490 88 18119815960732786362
2334 1 17762338419456868354
23366157 5 17826225487393086684
23402539 116 18343576339414191823
23558518 356 17756424120699539778
23559900 14 18270678788003631216
2748010 2 18266740173268058231
3004659 81 18260270720861888814
3178227 256 18335997419313283913
335352 9 18410856572524691903
34934 24 18409726283731341914
350125 39 18265621072764183891
3680242 22 18335138635764331298
484989 97 18192146221587762983
5104073 3 18338516451243066304
59755656 215 18339084774823690254
6138700 20 18338518525971193422
7832392 63 18339356482738495962
9709674 26 18195245748406543487

> <PUBCHEM_SHAPE_MULTIPOLES>
436.99
9.72
3.12
0.58
0
0
0
0
0
0
0
0
0
0

> <PUBCHEM_SHAPE_SELFOVERLAP>
1003.076

> <PUBCHEM_SHAPE_VOLUME>
224.4

> <PUBCHEM_COORDINATE_TYPE>
2
5
10

$$$$
