REMARK  Name = 124912
REMARK  9 active torsions:
REMARK  status: ('A' for Active; 'I' for Inactive)
REMARK    1  A    between atoms: C_1  and  O_2
REMARK    2  A    between atoms: C_1  and  C_5
REMARK    3  A    between atoms: C_1  and  C_14
REMARK    4  A    between atoms: C_5  and  O_6
REMARK    5  A    between atoms: O_6  and  N_9
REMARK    6  A    between atoms: C_14  and  O_15
REMARK    7  A    between atoms: C_14  and  C_18
REMARK    8  A    between atoms: C_18  and  O_19
REMARK    9  A    between atoms: O_19  and  N_22
REMARK                            x       y       z     vdW  Elec       q    Type
REMARK                         _______ _______ _______ _____ _____    ______ ____
ROOT
ATOM      1  C   UNL     1      -0.307   0.711  -0.607  0.00  0.00    +0.250 C 
ENDROOT
BRANCH   1   2
ATOM      2  O   UNL     1       0.128   1.431  -1.752  0.00  0.00    -0.372 OA
ATOM      3  H   UNL     1       1.097   1.478  -1.756  0.00  0.00    +0.211 HD
ENDBRANCH   1   2
BRANCH   1   5
ATOM      4  O   UNL     1      -2.522   1.095  -1.530  0.00  0.00    -0.245 OA
ATOM      5  C   UNL     1      -1.824   0.652  -0.627  0.00  0.00    +0.370 C 
BRANCH   5   6
ATOM      6  O   UNL     1      -2.273   0.013   0.494  0.00  0.00    -0.333 OA
BRANCH   6   9
ATOM      7  O   UNL     1      -3.886  -2.113  -0.566  0.00  0.00    -0.267 OA
ATOM      8  O   UNL     1      -4.065   1.847   1.786  0.00  0.00    -0.267 OA
ATOM      9  N   UNL     1      -3.682  -0.071   0.528  0.00  0.00    -0.054 N 
ATOM     10  C   UNL     1      -5.813  -0.851   0.180  0.00  0.00    +0.066 C 
ATOM     11  C   UNL     1      -5.872   0.463   0.961  0.00  0.00    +0.066 C 
ATOM     12  C   UNL     1      -4.346  -1.125  -0.014  0.00  0.00    +0.287 C 
ATOM     13  C   UNL     1      -4.435   0.861   1.167  0.00  0.00    +0.287 C 
ENDBRANCH   6   9
ENDBRANCH   5   6
ENDBRANCH   1   5
BRANCH   1  14
ATOM     14  C   UNL     1       0.309  -0.689  -0.623  0.00  0.00    +0.250 C 
BRANCH  14  15
ATOM     15  O   UNL     1      -0.120  -1.380  -1.788  0.00  0.00    -0.372 OA
ATOM     16  H   UNL     1      -1.089  -1.427  -1.797  0.00  0.00    +0.211 HD
ENDBRANCH  14  15
BRANCH  14  18
ATOM     17  O   UNL     1       2.528  -1.050  -1.546  0.00  0.00    -0.245 OA
ATOM     18  C   UNL     1       1.826  -0.630  -0.634  0.00  0.00    +0.370 C 
BRANCH  18  19
ATOM     19  O   UNL     1       2.269  -0.019   0.504  0.00  0.00    -0.333 OA
BRANCH  19  22
ATOM     20  O   UNL     1       3.889   2.125  -0.511  0.00  0.00    -0.267 OA
ATOM     21  O   UNL     1       4.059  -1.893   1.742  0.00  0.00    -0.267 OA
ATOM     22  N   UNL     1       3.679   0.058   0.534  0.00  0.00    -0.054 N 
ATOM     23  C   UNL     1       5.812   0.836   0.196  0.00  0.00    +0.066 C 
ATOM     24  C   UNL     1       5.869  -0.498   0.944  0.00  0.00    +0.066 C 
ATOM     25  C   UNL     1       4.346   1.122   0.015  0.00  0.00    +0.287 C 
ATOM     26  C   UNL     1       4.431  -0.894   1.146  0.00  0.00    +0.287 C 
ENDBRANCH  19  22
ENDBRANCH  18  19
ENDBRANCH  14  18
ENDBRANCH   1  14
TORSDOF 9
