REMARK  Name = 124986
REMARK  4 active torsions:
REMARK  status: ('A' for Active; 'I' for Inactive)
REMARK    1  A    between atoms: C_9  and  O_23
REMARK    2  A    between atoms: C_11  and  O_25
REMARK    3  A    between atoms: C_19  and  O_27
REMARK    4  A    between atoms: C_21  and  O_29
REMARK                            x       y       z     vdW  Elec       q    Type
REMARK                         _______ _______ _______ _____ _____    ______ ____
ROOT
ATOM      1  O   UNL     1      -5.135  -0.731   0.653  0.00  0.00    -0.296 OA
ATOM      2  O   UNL     1      -3.450  -1.831  -0.635  0.00  0.00    -0.452 OA
ATOM      3  O   UNL     1       1.140   2.449  -0.277  0.00  0.00    -0.286 OA
ATOM      4  O   UNL     1       1.516  -2.877   0.007  0.00  0.00    -0.287 OA
ATOM      5  C   UNL     1      -3.774   0.581  -0.829  0.00  0.00    +0.104 C 
ATOM      6  C   UNL     1      -4.444  -0.780  -0.610  0.00  0.00    +0.294 C 
ATOM      7  C   UNL     1      -4.418   1.470   0.211  0.00  0.00    +0.072 C 
ATOM      8  C   UNL     1      -2.357   0.201  -0.600  0.00  0.00    +0.052 C 
ATOM      9  C   UNL     1      -4.823   0.502   1.310  0.00  0.00    +0.235 C 
ATOM     10  C   UNL     1      -2.251  -1.177  -0.525  0.00  0.00    +0.140 C 
ATOM     11  C   UNL     1      -1.234   1.005  -0.505  0.00  0.00    +0.136 C 
ATOM     12  C   UNL     1       0.013   0.389  -0.323  0.00  0.00    +0.076 C 
ATOM     13  C   UNL     1      -1.035  -1.811  -0.354  0.00  0.00    +0.040 C 
ATOM     14  C   UNL     1       0.112  -1.012  -0.249  0.00  0.00    +0.048 C 
ATOM     15  C   UNL     1       1.223   1.228  -0.215  0.00  0.00    +0.202 C 
ATOM     16  C   UNL     1       1.427  -1.657  -0.061  0.00  0.00    +0.196 C 
ATOM     17  C   UNL     1       2.536   0.578  -0.029  0.00  0.00    +0.076 C 
ATOM     18  C   UNL     1       2.634  -0.813   0.046  0.00  0.00    +0.048 C 
ATOM     19  C   UNL     1       3.689   1.365   0.074  0.00  0.00    +0.140 C 
ATOM     20  C   UNL     1       3.885  -1.416   0.223  0.00  0.00    +0.040 C 
ATOM     21  C   UNL     1       5.032  -0.628   0.324  0.00  0.00    +0.137 C 
ATOM     22  C   UNL     1       4.934   0.760   0.249  0.00  0.00    +0.073 C 
ENDROOT
BRANCH   9  23
ATOM     23  O   UNL     1      -3.747   0.343   2.228  0.00  0.00    -0.360 OA
ATOM     24  H   UNL     1      -4.008  -0.275   2.928  0.00  0.00    +0.213 HD
ENDBRANCH   9  23
BRANCH  11  25
ATOM     25  O   UNL     1      -1.388   2.351  -0.616  0.00  0.00    -0.506 OA
ATOM     26  H   UNL     1      -2.243   2.717  -0.737  0.00  0.00    +0.292 HD
ENDBRANCH  11  25
BRANCH  19  27
ATOM     27  O   UNL     1       3.667   2.727   0.008  0.00  0.00    -0.505 OA
ATOM     28  H   UNL     1       2.854   3.177  -0.109  0.00  0.00    +0.292 HD
ENDBRANCH  19  27
BRANCH  21  29
ATOM     29  O   UNL     1       6.248  -1.215   0.495  0.00  0.00    -0.505 OA
ATOM     30  H   UNL     1       6.314  -2.149   0.545  0.00  0.00    +0.292 HD
ENDBRANCH  21  29
TORSDOF 4
