124923
  -OEChem-03292013323D

 35 38  0     1  0  0  0  0  0999 V2000
    2.7236   -0.2935   -0.9967 O   0  0  0  0  0  0  0  0  0  0  0  0
    1.5302    2.1510    1.3530 O   0  0  0  0  0  0  0  0  0  0  0  0
    3.6456    2.5308   -0.3102 O   0  0  0  0  0  0  0  0  0  0  0  0
    4.8785   -2.0500   -0.6309 O   0  0  0  0  0  0  0  0  0  0  0  0
   -3.5914   -2.3370    0.4565 O   0  0  0  0  0  0  0  0  0  0  0  0
    0.5333   -0.4945   -0.1066 N   0  0  0  0  0  0  0  0  0  0  0  0
   -1.3883    0.9856   -0.3353 N   0  0  0  0  0  0  0  0  0  0  0  0
   -0.5571   -2.4079    0.3404 N   0  0  0  0  0  0  0  0  0  0  0  0
   -3.4819   -0.1144   -0.0146 N   0  0  0  0  0  0  0  0  0  0  0  0
   -3.5688    2.0771   -0.4696 N   0  0  0  0  0  0  0  0  0  0  0  0
    1.6516    0.4150   -0.3455 C   0  0  1  0  0  0  0  0  0  0  0  0
    2.2463    1.0122    0.9207 C   0  0  1  0  0  0  0  0  0  0  0  0
    3.6570    1.3343    0.4684 C   0  0  1  0  0  0  0  0  0  0  0  0
    3.9826    0.1565   -0.4447 C   0  0  1  0  0  0  0  0  0  0  0  0
    4.6258   -1.0080    0.2953 C   0  0  0  0  0  0  0  0  0  0  0  0
   -0.7921   -0.2056   -0.1114 C   0  0  0  0  0  0  0  0  0  0  0  0
    0.6252   -1.8408    0.1714 C   0  0  0  0  0  0  0  0  0  0  0  0
   -1.4387   -1.3854    0.1634 C   0  0  0  0  0  0  0  0  0  0  0  0
   -2.8804   -1.3706    0.2223 C   0  0  0  0  0  0  0  0  0  0  0  0
   -2.7575    1.0553   -0.2909 C   0  0  0  0  0  0  0  0  0  0  0  0
   -4.8088    0.2216   -0.0273 C   0  0  0  0  0  0  0  0  0  0  0  0
   -4.8346    1.5684   -0.3077 C   0  0  0  0  0  0  0  0  0  0  0  0
    1.2952    1.1864   -1.0386 H   0  0  0  0  0  0  0  0  0  0  0  0
    2.2633    0.2752    1.7326 H   0  0  0  0  0  0  0  0  0  0  0  0
    4.3661    1.4758    1.2889 H   0  0  0  0  0  0  0  0  0  0  0  0
    4.6095    0.4531   -1.2932 H   0  0  0  0  0  0  0  0  0  0  0  0
    3.9740   -1.4095    1.0775 H   0  0  0  0  0  0  0  0  0  0  0  0
    5.5765   -0.7108    0.7476 H   0  0  0  0  0  0  0  0  0  0  0  0
    1.5751   -2.3529    0.2434 H   0  0  0  0  0  0  0  0  0  0  0  0
    2.0166    2.5330    2.1032 H   0  0  0  0  0  0  0  0  0  0  0  0
    3.3341    3.2484    0.2675 H   0  0  0  0  0  0  0  0  0  0  0  0
   -0.8464    1.8226   -0.5289 H   0  0  0  0  0  0  0  0  0  0  0  0
    4.0273   -2.3025   -1.0275 H   0  0  0  0  0  0  0  0  0  0  0  0
   -5.5942   -0.4979    0.1576 H   0  0  0  0  0  0  0  0  0  0  0  0
   -5.7057    2.2004   -0.4020 H   0  0  0  0  0  0  0  0  0  0  0  0
  1 11  1  0  0  0  0
  1 14  1  0  0  0  0
  2 12  1  0  0  0  0
  2 30  1  0  0  0  0
  3 13  1  0  0  0  0
  3 31  1  0  0  0  0
  4 15  1  0  0  0  0
  4 33  1  0  0  0  0
  5 19  2  0  0  0  0
  6 11  1  0  0  0  0
  6 16  1  0  0  0  0
  6 17  1  0  0  0  0
  7 16  1  0  0  0  0
  7 20  1  0  0  0  0
  7 32  1  0  0  0  0
  8 17  2  0  0  0  0
  8 18  1  0  0  0  0
  9 19  1  0  0  0  0
  9 20  1  0  0  0  0
  9 21  1  0  0  0  0
 10 20  2  0  0  0  0
 10 22  1  0  0  0  0
 11 12  1  0  0  0  0
 11 23  1  0  0  0  0
 12 13  1  0  0  0  0
 12 24  1  0  0  0  0
 13 14  1  0  0  0  0
 13 25  1  0  0  0  0
 14 15  1  0  0  0  0
 14 26  1  0  0  0  0
 15 27  1  0  0  0  0
 15 28  1  0  0  0  0
 16 18  2  0  0  0  0
 17 29  1  0  0  0  0
 18 19  1  0  0  0  0
 21 22  2  0  0  0  0
 21 34  1  0  0  0  0
 22 35  1  0  0  0  0
M  END
> <PUBCHEM_COMPOUND_CID>
124923

> <PUBCHEM_CONFORMER_RMSD>
0.6

> <PUBCHEM_CONFORMER_DIVERSEORDER>
1
8
16
12
25
10
24
18
21
2
27
4
5
20
11
22
15
7
6
26
13
9
23
3
17
14
19

> <PUBCHEM_MMFF94_PARTIAL_CHARGES>
29
1 -0.56
10 -0.57
11 0.54
12 0.28
13 0.28
14 0.28
15 0.28
16 -0.07
17 0.04
18 0.14
19 0.67
2 -0.68
20 0.27
21 -0.3
22 0.08
29 0.15
3 -0.68
30 0.4
31 0.4
32 0.4
33 0.4
34 0.15
35 0.15
4 -0.68
5 -0.57
6 0.05
7 -0.57
8 -0.57
9 0.29

> <PUBCHEM_EFFECTIVE_ROTOR_COUNT>
3

> <PUBCHEM_PHARMACOPHORE_FEATURES>
14
1 1 acceptor
1 2 acceptor
1 2 donor
1 3 acceptor
1 3 donor
1 4 acceptor
1 4 donor
1 5 acceptor
1 7 donor
3 6 8 17 cation
5 1 11 12 13 14 rings
5 6 8 16 17 18 rings
5 9 10 20 21 22 rings
6 7 9 16 18 19 20 rings

> <PUBCHEM_HEAVY_ATOM_COUNT>
22

> <PUBCHEM_ATOM_DEF_STEREO_COUNT>
3

> <PUBCHEM_ATOM_UDEF_STEREO_COUNT>
1

> <PUBCHEM_BOND_DEF_STEREO_COUNT>
0

> <PUBCHEM_BOND_UDEF_STEREO_COUNT>
0

> <PUBCHEM_ISOTOPIC_ATOM_COUNT>
0

> <PUBCHEM_COMPONENT_COUNT>
1

> <PUBCHEM_CACTVS_TAUTO_COUNT>
3

> <PUBCHEM_CONFORMER_ID>
0001E7FB00000001

> <PUBCHEM_MMFF94_ENERGY>
46.5806

> <PUBCHEM_FEATURE_SELFOVERLAP>
71.303

> <PUBCHEM_SHAPE_FINGERPRINT>
10411042 1 17399520516278965787
10498660 4 18334852844525147629
10608611 8 18340767155898326824
10646746 165 18409448102535306028
1100329 8 16899619312472284512
11405975 8 18411702079865749058
12236239 1 17095243626659153460
12403259 226 18268989950516137515
12403259 415 18341898531877831560
12788726 201 16665730593632869562
128620 24 10735876179458590122
13134695 92 17274815849065971432
14866123 147 17047121022664724834
15042514 8 18189906494805814667
15099037 51 18341050727088148822
15196674 1 18409730694129615095
15295992 7 18273212027801033009
17349148 13 16415487038650609886
17804303 29 18409169917635588310
18186145 218 18201731664313837226
192875 21 17560802108852401816
19591789 44 18410292536071664579
200 152 17203325602700557551
20510252 161 18339646771072176065
20645477 70 17703796903222190662
20832881 197 18337111142956706698
21065198 57 18410575106312034230
21267235 1 18335991895632276491
21279426 13 18123751954873014566
21503847 285 16950288412079758108
21524375 3 18409729526173129055
221357 26 18273210868307822069
23402539 116 18343012281322096540
23559900 14 18413671305813503396
3004659 81 18188497857555167798
335352 9 18337953381104445710
350125 39 18262518061713452757
351380 180 18343298154297923245
3545911 37 18334014956803836727
4214541 1 18408886234823933548
495365 180 17489013955619686656
5104073 3 18409167739897084106
59755656 215 18263925432154534399
6138700 20 18194685861329754998
633830 44 18408877455995378206
7364860 26 18195524796790353751
7399639 24 17337298027859442434
77779 3 18408886269368333668
7808743 9 18118966029887157036
9709674 26 18337676437645805682
9996256 80 18412546522651399003

> <PUBCHEM_SHAPE_MULTIPOLES>
398.5
10.25
2.55
0.81
0.14
0.19
-0.08
-1.53
0.92
0.07
-0.24
0.41
-0.16
0.96

> <PUBCHEM_SHAPE_SELFOVERLAP>
887.821

> <PUBCHEM_SHAPE_VOLUME>
211.6

> <PUBCHEM_COORDINATE_TYPE>
2
5
10

$$$$
