REMARK  Name = 124925
REMARK  4 active torsions:
REMARK  status: ('A' for Active; 'I' for Inactive)
REMARK    1  A    between atoms: N_2  and  C1*_13
REMARK    2  A    between atoms: C3*_15  and  O3*_17
REMARK    3  A    between atoms: C4*_16  and  C5*_19
REMARK    4  A    between atoms: C5*_19  and  O5*_20
REMARK                            x       y       z     vdW  Elec       q    Type
REMARK                         _______ _______ _______ _____ _____    ______ ____
ROOT
ATOM      1  O   UNL     1      -1.012  -3.227  -0.721  0.00  0.00    -0.252 OA
ATOM      2  N   UNL     1      -0.320  -0.994  -0.281  0.00  0.00    -0.207 N 
ATOM      3  N   UNL     1      -2.538  -1.467  -0.303  0.00  0.00    -0.278 N 
ATOM      4  N   UNL     1      -0.538   1.417   0.229  0.00  0.00    -0.231 NA
ATOM      5  N   UNL     1      -2.857   2.138   0.459  0.00  0.00    -0.232 NA
ATOM      6  C   UNL     1      -1.023   0.194  -0.009  0.00  0.00    +0.139 C 
ATOM      7  C   UNL     1      -1.251  -2.054  -0.470  0.00  0.00    +0.311 C 
ATOM      8  C   UNL     1      -2.369  -0.115  -0.027  0.00  0.00    +0.182 C 
ATOM      9  C   UNL     1      -3.273   0.878   0.211  0.00  0.00    +0.125 C 
ATOM     10  C   UNL     1      -1.509   2.333   0.453  0.00  0.00    +0.253 C 
ATOM     11  H   UNL     1      -3.399  -1.938  -0.371  0.00  0.00    +0.152 HD
ATOM     12  N   UNL     1      -4.651   0.582   0.197  0.00  0.00    -0.345 N 
ATOM     13  H   UNL     1      -5.309   1.294   0.367  0.00  0.00    +0.143 HD
ATOM     14  H   UNL     1      -4.956  -0.336   0.016  0.00  0.00    +0.143 HD
ENDROOT
BRANCH   2  16
ATOM     15  O4* UNL     1       1.665   0.102  -0.872  0.00  0.00    -0.335 OA
ATOM     16  C1* UNL     1       1.106  -1.117  -0.355  0.00  0.00    +0.203 C 
ATOM     17  C2* UNL     1       1.752  -1.363   0.996  0.00  0.00    +0.083 C 
ATOM     18  C3* UNL     1       3.101  -0.708   0.818  0.00  0.00    +0.144 C 
ATOM     19  C4* UNL     1       2.730   0.518  -0.002  0.00  0.00    +0.173 C 
BRANCH  18  20
ATOM     20  O3* UNL     1       3.679  -0.370   2.061  0.00  0.00    -0.382 OA
ATOM     21  H3* UNL     1       3.897  -1.181   2.547  0.00  0.00    +0.210 HD
ENDBRANCH  18  20
BRANCH  19  22
ATOM     22  C5* UNL     1       3.881   1.062  -0.829  0.00  0.00    +0.169 C 
BRANCH  22  23
ATOM     23  O5* UNL     1       3.425   2.189  -1.556  0.00  0.00    -0.379 OA
ATOM     24  H5* UNL     1       4.152   2.546  -2.089  0.00  0.00    +0.211 HD
ENDBRANCH  22  23
ENDBRANCH  19  22
ENDBRANCH   2  16
TORSDOF 4
