REMARK  Name = 124947
REMARK  2 active torsions:
REMARK  status: ('A' for Active; 'I' for Inactive)
REMARK    1  A    between atoms: C_17  and  N_21
REMARK    2  A    between atoms: C_18  and  N_24
REMARK                            x       y       z     vdW  Elec       q    Type
REMARK                         _______ _______ _______ _____ _____    ______ ____
ROOT
ATOM      1  O   UNL     1       0.603  -2.447   0.001  0.00  0.00    -0.421 OA
ATOM      2  O   UNL     1      -0.603   2.447   0.001  0.00  0.00    -0.421 OA
ATOM      3  O   UNL     1      -1.423  -3.518   0.000  0.00  0.00    -0.244 OA
ATOM      4  O   UNL     1       1.423   3.518   0.000  0.00  0.00    -0.244 OA
ATOM      5  C   UNL     1       0.717  -0.022   0.001  0.00  0.00    +0.044 A 
ATOM      6  C   UNL     1      -0.717   0.022   0.001  0.00  0.00    +0.044 A 
ATOM      7  C   UNL     1      -1.474  -1.147   0.000  0.00  0.00    +0.081 A 
ATOM      8  C   UNL     1       1.474   1.147   0.000  0.00  0.00    +0.081 A 
ATOM      9  C   UNL     1       1.362  -1.254   0.001  0.00  0.00    +0.151 A 
ATOM     10  C   UNL     1      -1.362   1.254   0.000  0.00  0.00    +0.151 A 
ATOM     11  C   UNL     1      -2.872  -1.072   0.000  0.00  0.00    +0.031 C 
ATOM     12  C   UNL     1       2.872   1.072   0.000  0.00  0.00    +0.031 C 
ATOM     13  C   UNL     1       2.750  -1.350   0.000  0.00  0.00    +0.062 C 
ATOM     14  C   UNL     1      -2.750   1.350   0.000  0.00  0.00    +0.062 C 
ATOM     15  C   UNL     1      -0.795  -2.467   0.001  0.00  0.00    +0.346 A 
ATOM     16  C   UNL     1       0.795   2.467   0.001  0.00  0.00    +0.346 A 
ATOM     17  C   UNL     1       3.504  -0.176  -0.001  0.00  0.00    +0.146 C 
ATOM     18  C   UNL     1      -3.504   0.176  -0.001  0.00  0.00    +0.146 C 
ENDROOT
BRANCH  17  21
ATOM     19  O   UNL     1       5.586   0.815   0.000  0.00  0.00    -0.126 OA
ATOM     20  O   UNL     1       5.473  -1.377  -0.001  0.00  0.00    -0.126 OA
ATOM     21  N   UNL     1       4.922  -0.249  -0.001  0.00  0.00    +0.058 N 
ENDBRANCH  17  21
BRANCH  18  24
ATOM     22  O   UNL     1      -5.586  -0.815   0.000  0.00  0.00    -0.126 OA
ATOM     23  O   UNL     1      -5.473   1.377   0.000  0.00  0.00    -0.126 OA
ATOM     24  N   UNL     1      -4.922   0.250  -0.001  0.00  0.00    +0.058 N 
ENDBRANCH  18  24
TORSDOF 2
