REMARK  Name = 125014
REMARK  7 active torsions:
REMARK  status: ('A' for Active; 'I' for Inactive)
REMARK    1  A    between atoms: N_1  and  C1*_9
REMARK    2  A    between atoms: C_3  and  S_23
REMARK    3  A    between atoms: C_5  and  C_20
REMARK    4  A    between atoms: C2*_7  and  O2*_11
REMARK    5  A    between atoms: C3*_8  and  O3*_13
REMARK    6  A    between atoms: C4*_10  and  C5*_15
REMARK    7  A    between atoms: C5*_15  and  O5*_16
REMARK                            x       y       z     vdW  Elec       q    Type
REMARK                         _______ _______ _______ _____ _____    ______ ____
ROOT
ATOM      1  N   UNL     1      -0.476   0.010  -0.227  0.00  0.00    -0.215 NA
ATOM      2  N   UNL     1      -1.916  -1.442   0.651  0.00  0.00    -0.250 NA
ATOM      3  C   UNL     1      -1.721   0.544  -0.423  0.00  0.00    +0.151 C 
ATOM      4  C   UNL     1      -0.647  -1.184   0.423  0.00  0.00    +0.203 C 
ATOM      5  C   UNL     1      -2.591  -0.369   0.126  0.00  0.00    +0.133 C 
ENDROOT
BRANCH   1   9
ATOM      6  O4* UNL     1       1.719  -0.502  -0.971  0.00  0.00    -0.336 OA
ATOM      7  C2* UNL     1       1.489   1.393   0.484  0.00  0.00    +0.183 C 
ATOM      8  C3* UNL     1       2.558   0.450   1.005  0.00  0.00    +0.171 C 
ATOM      9  C1* UNL     1       0.819   0.570  -0.618  0.00  0.00    +0.208 C 
ATOM     10  C4* UNL     1       2.946  -0.321  -0.245  0.00  0.00    +0.175 C 
BRANCH   7  11
ATOM     11  O2* UNL     1       2.068   2.563  -0.090  0.00  0.00    -0.378 OA
ATOM     12  H2* UNL     1       2.494   3.088   0.606  0.00  0.00    +0.211 HD
ENDBRANCH   7  11
BRANCH   8  13
ATOM     13  O3* UNL     1       3.660   1.115   1.583  0.00  0.00    -0.379 OA
ATOM     14  H3* UNL     1       3.371   1.594   2.376  0.00  0.00    +0.211 HD
ENDBRANCH   8  13
BRANCH  10  15
ATOM     15  C5* UNL     1       3.574  -1.671   0.048  0.00  0.00    +0.169 C 
BRANCH  15  16
ATOM     16  O5* UNL     1       3.884  -2.304  -1.181  0.00  0.00    -0.379 OA
ATOM     17  H5* UNL     1       4.286  -3.169  -1.008  0.00  0.00    +0.211 HD
ENDBRANCH  15  16
ENDBRANCH  10  15
ENDBRANCH   1   9
BRANCH   5  20
ATOM     18  O   UNL     1      -4.665   0.680  -0.310  0.00  0.00    -0.269 OA
ATOM     19  N   UNL     1      -4.719  -1.319   0.784  0.00  0.00    -0.324 N 
ATOM     20  C   UNL     1      -4.019  -0.274   0.177  0.00  0.00    +0.258 C 
ATOM     21  H   UNL     1      -5.701  -1.288   0.837  0.00  0.00    +0.145 HD
ATOM     22  H   UNL     1      -4.229  -2.087   1.159  0.00  0.00    +0.145 HD
ENDBRANCH   5  20
BRANCH   3  23
ATOM     23  S   UNL     1      -1.963   2.061  -1.215  0.00  0.00    -0.147 S 
ATOM     24  H   UNL     1      -0.759   2.580  -1.578  0.00  0.00    +0.104 HD
ENDBRANCH   3  23
TORSDOF 7
