REMARK  Name = 125009
REMARK  6 active torsions:
REMARK  status: ('A' for Active; 'I' for Inactive)
REMARK    1  A    between atoms: C_7  and  C_17
REMARK    2  A    between atoms: C_17  and  N_18
REMARK    3  A    between atoms: N_18  and  C_20
REMARK    4  A    between atoms: N_18  and  C_23
REMARK    5  A    between atoms: C_20  and  C_22
REMARK    6  A    between atoms: C_23  and  C_25
REMARK                            x       y       z     vdW  Elec       q    Type
REMARK                         _______ _______ _______ _____ _____    ______ ____
ROOT
ATOM      1  N   UNL     1       0.242   0.436   0.392  0.00  0.00    -0.396 NA
ATOM      2  N   UNL     1       1.630   0.932  -1.950  0.00  0.00    -0.200 NA
ATOM      3  N   UNL     1       3.611   0.308  -0.926  0.00  0.00    -0.271 NA
ATOM      4  N   UNL     1       3.645  -0.396   1.366  0.00  0.00    -0.310 NA
ATOM      5  N   UNL     1       1.631  -0.456   2.600  0.00  0.00    -0.329 N 
ATOM      6  N   UNL     1       5.620  -0.324   0.110  0.00  0.00    -0.283 N 
ATOM      7  C   UNL     1      -0.388   0.872  -0.710  0.00  0.00    +0.092 C 
ATOM      8  C   UNL     1       0.298   1.116  -1.867  0.00  0.00    +0.189 C 
ATOM      9  C   UNL     1       1.574   0.253   0.308  0.00  0.00    +0.248 C 
ATOM     10  C   UNL     1       2.287   0.499  -0.868  0.00  0.00    +0.131 C 
ATOM     11  C   UNL     1       2.315  -0.193   1.385  0.00  0.00    +0.231 C 
ATOM     12  C   UNL     1       4.224  -0.129   0.190  0.00  0.00    +0.207 C 
ATOM     13  H   UNL     1       2.130  -0.774   3.387  0.00  0.00    +0.145 HD
ATOM     14  H   UNL     1       0.658  -0.320   2.656  0.00  0.00    +0.145 HD
ATOM     15  H   UNL     1       6.095  -0.141  -0.733  0.00  0.00    +0.156 HD
ATOM     16  H   UNL     1       6.118  -0.642   0.897  0.00  0.00    +0.156 HD
ENDROOT
BRANCH   7  17
ATOM     17  C   UNL     1      -1.859   1.080  -0.633  0.00  0.00    -0.019 C 
BRANCH  17  18
ATOM     18  N   UNL     1      -2.549  -0.027   0.035  0.00  0.00    +0.393 N 
ATOM     19  H   UNL     1      -2.171  -0.126   0.978  0.00  0.00    -0.079 HD
BRANCH  18  20
ATOM     20  C   UNL     1      -2.320  -1.278  -0.686  0.00  0.00    -0.059 C 
BRANCH  20  22
ATOM     21 CL   UNL     1      -2.772  -3.946  -0.863  0.00  0.00    -0.116 Cl
ATOM     22  C   UNL     1      -3.061  -2.416  -0.001  0.00  0.00    +0.072 C 
ENDBRANCH  20  22
ENDBRANCH  18  20
BRANCH  18  23
ATOM     23  C   UNL     1      -3.979   0.253   0.137  0.00  0.00    -0.059 C 
BRANCH  23  25
ATOM     24 CL   UNL     1      -5.945   1.877   1.063  0.00  0.00    -0.116 Cl
ATOM     25  C   UNL     1      -4.203   1.539   0.917  0.00  0.00    +0.072 C 
ENDBRANCH  23  25
ENDBRANCH  18  23
ENDBRANCH  17  18
ENDBRANCH   7  17
TORSDOF 6
