125011
  -OEChem-03292013323D

 49 52  0     1  0  0  0  0  0999 V2000
    1.8762    4.7745    0.4740 Cl  0  0  0  0  0  0  0  0  0  0  0  0
    3.6344   -1.8420   -0.5652 P   0  0  1  0  0  0  0  0  0  0  0  0
   -0.0789   -0.6293    0.3704 O   0  0  0  0  0  0  0  0  0  0  0  0
   -1.6819   -3.7129   -0.2548 O   0  0  0  0  0  0  0  0  0  0  0  0
   -2.8467   -1.6726   -0.1942 O   0  0  0  0  0  0  0  0  0  0  0  0
    2.0464   -2.1574   -0.5825 O   0  0  0  0  0  0  0  0  0  0  0  0
   -3.2331   -3.2909    1.4711 O   0  0  0  0  0  0  0  0  0  0  0  0
   -1.6171    1.6199   -2.7000 O   0  0  0  0  0  0  0  0  0  0  0  0
    3.8448   -0.7555    0.6113 O   0  0  0  0  0  0  0  0  0  0  0  0
    4.2900   -3.1824    0.0651 O   0  0  0  0  0  0  0  0  0  0  0  0
    4.2200   -1.4568   -1.8941 O   0  0  0  0  0  0  0  0  0  0  0  0
   -3.8833    4.1559    0.4111 O   0  0  0  0  0  0  0  0  0  0  0  0
   -1.6714    0.8620   -0.4902 N   0  0  0  0  0  0  0  0  0  0  0  0
   -2.7445    2.8818   -1.1491 N   0  0  0  0  0  0  0  0  0  0  0  0
   -0.8162   -2.6572   -0.6449 C   0  0  1  0  0  0  0  0  0  0  0  0
   -1.7228   -1.5384   -1.0674 C   0  0  2  0  0  0  0  0  0  0  0  0
   -0.0595   -2.0587    0.5406 C   0  0  1  0  0  0  0  0  0  0  0  0
   -0.8944   -0.3088   -0.7670 C   0  0  2  0  0  0  0  0  0  0  0  0
   -2.9152   -3.0733    0.1027 C   0  0  2  0  0  0  0  0  0  0  0  0
    1.3828   -2.5316    0.6131 C   0  0  0  0  0  0  0  0  0  0  0  0
   -1.9805    1.7712   -1.5317 C   0  0  0  0  0  0  0  0  0  0  0  0
   -2.1244    1.1089    0.8023 C   0  0  0  0  0  0  0  0  0  0  0  0
   -2.8518    2.1721    1.1517 C   0  0  0  0  0  0  0  0  0  0  0  0
   -4.4740   -2.6920    1.8214 C   0  0  0  0  0  0  0  0  0  0  0  0
   -3.2156    3.1672    0.1230 C   0  0  0  0  0  0  0  0  0  0  0  0
    3.3844    0.5336    0.5798 C   0  0  0  0  0  0  0  0  0  0  0  0
    2.6767    0.9859   -0.5287 C   0  0  0  0  0  0  0  0  0  0  0  0
    3.6303    1.3797    1.6559 C   0  0  0  0  0  0  0  0  0  0  0  0
    2.2095    2.2999   -0.5615 C   0  0  0  0  0  0  0  0  0  0  0  0
    3.1631    2.6935    1.6231 C   0  0  0  0  0  0  0  0  0  0  0  0
    2.4527    3.1537    0.5144 C   0  0  0  0  0  0  0  0  0  0  0  0
   -0.1580   -2.9872   -1.4543 H   0  0  0  0  0  0  0  0  0  0  0  0
   -2.0783   -1.5981   -2.1006 H   0  0  0  0  0  0  0  0  0  0  0  0
   -0.5514   -2.2873    1.4932 H   0  0  0  0  0  0  0  0  0  0  0  0
   -0.2086   -0.1155   -1.6006 H   0  0  0  0  0  0  0  0  0  0  0  0
   -3.6974   -3.5214   -0.5218 H   0  0  0  0  0  0  0  0  0  0  0  0
    1.8775   -2.0717    1.4739 H   0  0  0  0  0  0  0  0  0  0  0  0
    1.4351   -3.6195    0.7198 H   0  0  0  0  0  0  0  0  0  0  0  0
   -1.8745    0.3744    1.5605 H   0  0  0  0  0  0  0  0  0  0  0  0
   -2.9768    3.5464   -1.8819 H   0  0  0  0  0  0  0  0  0  0  0  0
   -3.1909    2.3261    2.1686 H   0  0  0  0  0  0  0  0  0  0  0  0
   -4.7074   -2.9723    2.8524 H   0  0  0  0  0  0  0  0  0  0  0  0
   -4.4089   -1.6010    1.7723 H   0  0  0  0  0  0  0  0  0  0  0  0
   -5.2783   -3.0548    1.1740 H   0  0  0  0  0  0  0  0  0  0  0  0
    4.4291   -3.9597   -0.5167 H   0  0  0  0  0  0  0  0  0  0  0  0
    2.4592    0.3582   -1.3850 H   0  0  0  0  0  0  0  0  0  0  0  0
    4.1832    1.0252    2.5212 H   0  0  0  0  0  0  0  0  0  0  0  0
    1.6543    2.6440   -1.4304 H   0  0  0  0  0  0  0  0  0  0  0  0
    3.3599    3.3474    2.4688 H   0  0  0  0  0  0  0  0  0  0  0  0
  1 31  1  0  0  0  0
  2  6  1  0  0  0  0
  2  9  1  0  0  0  0
  2 10  1  0  0  0  0
  2 11  2  0  0  0  0
  3 17  1  0  0  0  0
  3 18  1  0  0  0  0
  4 15  1  0  0  0  0
  4 19  1  0  0  0  0
  5 16  1  0  0  0  0
  5 19  1  0  0  0  0
  6 20  1  0  0  0  0
  7 19  1  0  0  0  0
  7 24  1  0  0  0  0
  8 21  2  0  0  0  0
  9 26  1  0  0  0  0
 10 45  1  0  0  0  0
 12 25  2  0  0  0  0
 13 18  1  0  0  0  0
 13 21  1  0  0  0  0
 13 22  1  0  0  0  0
 14 21  1  0  0  0  0
 14 25  1  0  0  0  0
 14 40  1  0  0  0  0
 15 16  1  0  0  0  0
 15 17  1  0  0  0  0
 15 32  1  0  0  0  0
 16 18  1  0  0  0  0
 16 33  1  0  0  0  0
 17 20  1  0  0  0  0
 17 34  1  0  0  0  0
 18 35  1  0  0  0  0
 19 36  1  0  0  0  0
 20 37  1  0  0  0  0
 20 38  1  0  0  0  0
 22 23  2  0  0  0  0
 22 39  1  0  0  0  0
 23 25  1  0  0  0  0
 23 41  1  0  0  0  0
 24 42  1  0  0  0  0
 24 43  1  0  0  0  0
 24 44  1  0  0  0  0
 26 27  2  0  0  0  0
 26 28  1  0  0  0  0
 27 29  1  0  0  0  0
 27 46  1  0  0  0  0
 28 30  2  0  0  0  0
 28 47  1  0  0  0  0
 29 31  2  0  0  0  0
 29 48  1  0  0  0  0
 30 31  1  0  0  0  0
 30 49  1  0  0  0  0
M  END
> <PUBCHEM_COMPOUND_CID>
125011

> <PUBCHEM_CONFORMER_RMSD>
1.2

> <PUBCHEM_CONFORMER_DIVERSEORDER>
3
143
474
94
284
22
10
339
288
441
183
205
60
511
113
2
135
21
545
530
625
429
307
606
487
92
491
137
18
674
533
219
136
165
100
32
643
308
198
224
597
207
283
348
627
199
48
546
174
431
351
610
43
40
243
1
230
508
103
102
253
471
673
51
249
158
160
33
421
30
522
131
630
391
336
170
589
669
173
489
529
335
117
108
127
496
299
427
688
557
265
55
340
58
681
409
468
101
161
166
285
683
66
80
76
140
242
124
24
258
561
289
156
313
293
459
632
11
9
125
636
95
23
695
19
611
355
189
26
238
428
235
8
490
328
13
74
81
666
72
424
274
257
138
383
302
675
374
303
186
480
657
352
407
15
442
604
45
46
306
126
107
4
59
237
27
5
296
52
528
320
524
475
132
91
146
331
584
317
276
436
90
502
366
116
56
14
539
222
398
67
552
110
209
635
588
434
353
256
98
29
469
494
201
37
298
255
220
86
77
16
592
452
699
168
6
649
216
7
169
693
120
510
356
323
410

> <PUBCHEM_MMFF94_PARTIAL_CHARGES>
39
1 -0.18
10 -0.77
11 -0.7
12 -0.57
13 -0.47
14 -0.49
15 0.28
16 0.28
17 0.28
18 0.58
19 0.84
2 1.51
20 0.28
21 0.69
22 -0.04
23 -0.14
24 0.28
25 0.62
26 0.08
27 -0.15
28 -0.15
29 -0.15
3 -0.56
30 -0.15
31 0.18
39 0.15
4 -0.56
40 0.37
41 0.15
45 0.5
46 0.15
47 0.15
48 0.15
49 0.15
5 -0.56
6 -0.55
7 -0.56
8 -0.57
9 -0.35

> <PUBCHEM_EFFECTIVE_ROTOR_COUNT>
8.2

> <PUBCHEM_PHARMACOPHORE_FEATURES>
13
1 10 acceptor
1 11 acceptor
1 12 acceptor
1 14 donor
1 3 acceptor
1 4 acceptor
1 5 acceptor
1 7 acceptor
1 8 acceptor
5 3 15 16 17 18 rings
5 4 5 15 16 19 rings
6 13 14 21 22 23 25 rings
6 26 27 28 29 30 31 rings

> <PUBCHEM_HEAVY_ATOM_COUNT>
31

> <PUBCHEM_ATOM_DEF_STEREO_COUNT>
3

> <PUBCHEM_ATOM_UDEF_STEREO_COUNT>
2

> <PUBCHEM_BOND_DEF_STEREO_COUNT>
0

> <PUBCHEM_BOND_UDEF_STEREO_COUNT>
0

> <PUBCHEM_ISOTOPIC_ATOM_COUNT>
0

> <PUBCHEM_COMPONENT_COUNT>
1

> <PUBCHEM_CACTVS_TAUTO_COUNT>
3

> <PUBCHEM_CONFORMER_ID>
0001E85300000003

> <PUBCHEM_MMFF94_ENERGY>
63.3444

> <PUBCHEM_FEATURE_SELFOVERLAP>
66.699

> <PUBCHEM_SHAPE_FINGERPRINT>
10165383 225 17974584497718901604
10721379 63 16750928107690011141
1100329 8 18195806267629768082
12156800 1 12045388034349715684
12422481 6 18264511592965402297
12553582 1 17832423476807823236
12788726 201 18046913954665757749
13140716 1 18337666396265378050
13692114 37 18337954490208502985
14178342 30 18340192098944126088
14223421 5 18338793537042949910
14790565 3 17836092169759783564
14840074 17 17177989818171039060
15840311 113 17984729915749491635
19930381 70 17835516403011423906
20715895 44 17900222529520700085
20739085 24 17758125078146243315
23558518 356 18410566301518366083
350125 39 18411425011446336554
35225 105 18195556837146187897
484985 159 14935958860793584712
508706 21 18335696109592063494
5252454 2 18116436942773634558
6287921 2 18195534915922570710
7399639 24 18054499477206813010
9777508 108 18337115566688177331
9981440 41 17125590216574611616

> <PUBCHEM_SHAPE_MULTIPOLES>
575.03
8.12
6.39
1.62
1.18
3.45
-0.31
-1.59
2.7
-1.32
0.3
-0.38
0.3
2.2

> <PUBCHEM_SHAPE_SELFOVERLAP>
1212.319

> <PUBCHEM_SHAPE_VOLUME>
325.8

> <PUBCHEM_COORDINATE_TYPE>
2
5
10

$$$$
