125009
  -OEChem-03292013323D

 35 36  0     0  0  0  0  0  0999 V2000
   -2.7721   -3.9464   -0.8628 Cl  0  0  0  0  0  0  0  0  0  0  0  0
   -5.9446    1.8774    1.0626 Cl  0  0  0  0  0  0  0  0  0  0  0  0
   -2.5487   -0.0274    0.0352 N   0  0  0  0  0  0  0  0  0  0  0  0
    0.2420    0.4364    0.3920 N   0  0  0  0  0  0  0  0  0  0  0  0
    1.6301    0.9319   -1.9500 N   0  0  0  0  0  0  0  0  0  0  0  0
    3.6108    0.3080   -0.9257 N   0  0  0  0  0  0  0  0  0  0  0  0
    3.6450   -0.3961    1.3663 N   0  0  0  0  0  0  0  0  0  0  0  0
    1.6311   -0.4555    2.6001 N   0  0  0  0  0  0  0  0  0  0  0  0
    5.6197   -0.3237    0.1101 N   0  0  0  0  0  0  0  0  0  0  0  0
   -1.8592    1.0796   -0.6329 C   0  0  0  0  0  0  0  0  0  0  0  0
   -2.3204   -1.2777   -0.6861 C   0  0  0  0  0  0  0  0  0  0  0  0
   -3.9795    0.2528    0.1372 C   0  0  0  0  0  0  0  0  0  0  0  0
   -0.3884    0.8715   -0.7099 C   0  0  0  0  0  0  0  0  0  0  0  0
   -3.0608   -2.4160   -0.0013 C   0  0  0  0  0  0  0  0  0  0  0  0
   -4.2034    1.5391    0.9170 C   0  0  0  0  0  0  0  0  0  0  0  0
    0.2983    1.1162   -1.8673 C   0  0  0  0  0  0  0  0  0  0  0  0
    1.5737    0.2526    0.3076 C   0  0  0  0  0  0  0  0  0  0  0  0
    2.2871    0.4986   -0.8675 C   0  0  0  0  0  0  0  0  0  0  0  0
    2.3154   -0.1926    1.3850 C   0  0  0  0  0  0  0  0  0  0  0  0
    4.2239   -0.1287    0.1903 C   0  0  0  0  0  0  0  0  0  0  0  0
   -1.9522    2.0167   -0.0766 H   0  0  0  0  0  0  0  0  0  0  0  0
   -2.2801    1.2505   -1.6329 H   0  0  0  0  0  0  0  0  0  0  0  0
   -1.2565   -1.5404   -0.7023 H   0  0  0  0  0  0  0  0  0  0  0  0
   -2.6510   -1.1951   -1.7305 H   0  0  0  0  0  0  0  0  0  0  0  0
   -4.5016   -0.5198    0.7085 H   0  0  0  0  0  0  0  0  0  0  0  0
   -4.4483    0.3172   -0.8535 H   0  0  0  0  0  0  0  0  0  0  0  0
   -2.7337   -2.5497    1.0346 H   0  0  0  0  0  0  0  0  0  0  0  0
   -4.1461   -2.3103   -0.0241 H   0  0  0  0  0  0  0  0  0  0  0  0
   -3.7893    1.4796    1.9287 H   0  0  0  0  0  0  0  0  0  0  0  0
   -3.8084    2.4270    0.4225 H   0  0  0  0  0  0  0  0  0  0  0  0
   -0.1808    1.4683   -2.7728 H   0  0  0  0  0  0  0  0  0  0  0  0
    2.1863   -0.7901    3.3778 H   0  0  0  0  0  0  0  0  0  0  0  0
    0.6561   -0.7247    2.5519 H   0  0  0  0  0  0  0  0  0  0  0  0
    6.1234   -0.6512    0.9228 H   0  0  0  0  0  0  0  0  0  0  0  0
    6.0989   -0.1345   -0.7593 H   0  0  0  0  0  0  0  0  0  0  0  0
  1 14  1  0  0  0  0
  2 15  1  0  0  0  0
  3 10  1  0  0  0  0
  3 11  1  0  0  0  0
  3 12  1  0  0  0  0
  4 13  1  0  0  0  0
  4 17  2  0  0  0  0
  5 16  1  0  0  0  0
  5 18  2  0  0  0  0
  6 18  1  0  0  0  0
  6 20  2  0  0  0  0
  7 19  2  0  0  0  0
  7 20  1  0  0  0  0
  8 19  1  0  0  0  0
  8 32  1  0  0  0  0
  8 33  1  0  0  0  0
  9 20  1  0  0  0  0
  9 34  1  0  0  0  0
  9 35  1  0  0  0  0
 10 13  1  0  0  0  0
 10 21  1  0  0  0  0
 10 22  1  0  0  0  0
 11 14  1  0  0  0  0
 11 23  1  0  0  0  0
 11 24  1  0  0  0  0
 12 15  1  0  0  0  0
 12 25  1  0  0  0  0
 12 26  1  0  0  0  0
 13 16  2  0  0  0  0
 14 27  1  0  0  0  0
 14 28  1  0  0  0  0
 15 29  1  0  0  0  0
 15 30  1  0  0  0  0
 16 31  1  0  0  0  0
 17 18  1  0  0  0  0
 17 19  1  0  0  0  0
M  END
> <PUBCHEM_COMPOUND_CID>
125009

> <PUBCHEM_CONFORMER_RMSD>
0.8

> <PUBCHEM_CONFORMER_DIVERSEORDER>
1
26
17
19
7
13
24
27
16
8
23
9
20
2
18
11
21
5
6
25
14
15
4
22
3
10
12

> <PUBCHEM_MMFF94_PARTIAL_CHARGES>
25
1 -0.29
10 0.41
11 0.27
12 0.27
13 0.17
14 0.29
15 0.29
16 0.16
17 0.31
18 0.62
19 0.41
2 -0.29
20 0.72
3 -0.81
31 0.15
32 0.4
33 0.4
34 0.4
35 0.4
4 -0.62
5 -0.62
6 -0.62
7 -0.62
8 -0.9
9 -0.9

> <PUBCHEM_EFFECTIVE_ROTOR_COUNT>
6

> <PUBCHEM_PHARMACOPHORE_FEATURES>
7
1 3 cation
1 4 acceptor
1 8 donor
1 9 donor
4 6 7 9 20 cation
6 4 5 13 16 17 18 rings
6 6 7 17 18 19 20 rings

> <PUBCHEM_HEAVY_ATOM_COUNT>
20

> <PUBCHEM_ATOM_DEF_STEREO_COUNT>
0

> <PUBCHEM_ATOM_UDEF_STEREO_COUNT>
0

> <PUBCHEM_BOND_DEF_STEREO_COUNT>
0

> <PUBCHEM_BOND_UDEF_STEREO_COUNT>
0

> <PUBCHEM_ISOTOPIC_ATOM_COUNT>
0

> <PUBCHEM_COMPONENT_COUNT>
1

> <PUBCHEM_CACTVS_TAUTO_COUNT>
12

> <PUBCHEM_CONFORMER_ID>
0001E85100000001

> <PUBCHEM_MMFF94_ENERGY>
64.4088

> <PUBCHEM_FEATURE_SELFOVERLAP>
35.564

> <PUBCHEM_SHAPE_FINGERPRINT>
10366900 7 17704060785680404005
11552529 35 18200301251252452263
11796584 16 18130794434672099278
12236239 1 18114189631169455973
12403259 327 17916852552411850339
12500047 106 18202002118773802871
12507557 5 14764340561383865675
12553582 1 17168133551073154280
12596602 18 18261123980123446521
12616971 3 17603585240355515708
12633257 1 18343016679627518545
13583140 156 17132110281624664646
14178342 30 18342179994370943967
14576447 43 17531798169128102818
14787075 74 17897722296294195476
15375358 24 16845294917013917813
15375462 189 17675922084060506857
15537594 2 17676768699603249674
15842332 3 18043263537812570149
16752209 62 18341049731252081935
19141452 34 18409450271435969855
200 152 16877935027949456636
20554085 129 18059009459693883217
20600515 1 18272941522213624141
20681677 155 18411700980343623795
21267235 1 16805612408817804376
212916 134 18201438026717835585
21634736 98 17605834952673092334
22112679 90 18188209904928433221
231179 274 15769773533360070252
23402539 116 17385434424086199326
23503958 8 18341610481290873007
23559900 14 17988379091160906580
23598288 3 17677878059828327725
23598291 2 17968663846931418727
25147074 1 18115599286801651509
4072396 5 15410325526072264076
5385378 56 18054523405044794553
59755656 520 18201433637282130831
602551 16 18271807959857771839

> <PUBCHEM_SHAPE_MULTIPOLES>
380.46
10.42
2.52
1.71
0.89
3.76
0.26
-2.49
3.26
5.42
-0.36
-1.24
-0.36
-1.45

> <PUBCHEM_SHAPE_SELFOVERLAP>
779.322

> <PUBCHEM_SHAPE_VOLUME>
220.7

> <PUBCHEM_COORDINATE_TYPE>
2
5
10

$$$$
