REMARK  Name = 125081
REMARK  9 active torsions:
REMARK  status: ('A' for Active; 'I' for Inactive)
REMARK    1  A    between atoms: C_1  and  O_2
REMARK    2  A    between atoms: C_1  and  C_4
REMARK    3  A    between atoms: C_1  and  CA_15
REMARK    4  A    between atoms: C_4  and  O_5
REMARK    5  A    between atoms: C_4  and  C_7
REMARK    6  A    between atoms: C_7  and  C_10
REMARK    7  A    between atoms: C_7  and  O_13
REMARK    8  A    between atoms: CA_15  and  N_17
REMARK    9  A    between atoms: CA_15  and  C_22
REMARK                            x       y       z     vdW  Elec       q    Type
REMARK                         _______ _______ _______ _____ _____    ______ ____
ROOT
ATOM      1  C   UNL     1       0.111   1.047  -0.209  0.00  0.00    +0.166 C 
ENDROOT
BRANCH   1   2
ATOM      2  O   UNL     1       0.148   1.381  -1.605  0.00  0.00    -0.380 OA
ATOM      3  H   UNL     1      -0.735   1.658  -1.895  0.00  0.00    +0.211 HD
ENDBRANCH   1   2
BRANCH   1   4
ATOM      4  C   UNL     1      -0.998  -0.011  -0.013  0.00  0.00    +0.175 C 
BRANCH   4   5
ATOM      5  O   UNL     1      -0.963  -0.454   1.350  0.00  0.00    -0.379 OA
ATOM      6  H   UNL     1      -0.060  -0.725   1.579  0.00  0.00    +0.211 HD
ENDBRANCH   4   5
BRANCH   4   7
ATOM      7  C   UNL     1      -2.436   0.413  -0.351  0.00  0.00    +0.216 C 
BRANCH   7  10
ATOM      8  O   UNL     1      -4.389  -0.515   0.747  0.00  0.00    -0.273 OA
ATOM      9  N   UNL     1      -3.300  -1.809  -0.806  0.00  0.00    -0.327 N 
ATOM     10  C   UNL     1      -3.474  -0.664  -0.059  0.00  0.00    +0.249 C 
ATOM     11  H   UNL     1      -3.917  -2.568  -0.695  0.00  0.00    +0.145 HD
ATOM     12  H   UNL     1      -2.559  -1.868  -1.451  0.00  0.00    +0.145 HD
ENDBRANCH   7  10
BRANCH   7  13
ATOM     13  O   UNL     1      -2.772   1.580   0.381  0.00  0.00    -0.374 OA
ATOM     14  H   UNL     1      -2.117   2.273   0.203  0.00  0.00    +0.211 HD
ENDBRANCH   7  13
ENDBRANCH   4   7
ENDBRANCH   1   4
BRANCH   1  15
ATOM     15  CA  UNL     1       1.520   0.616   0.209  0.00  0.00    +0.166 C 
BRANCH  15  17
ATOM     16  O   UNL     1       3.451  -1.316   1.195  0.00  0.00    -0.275 OA
ATOM     17  N   UNL     1       1.952  -0.597  -0.437  0.00  0.00    -0.297 N 
ATOM     18  C   UNL     1       2.885  -1.463   0.114  0.00  0.00    +0.223 C 
ATOM     19  C   UNL     1       3.137  -2.665  -0.756  0.00  0.00    +0.095 C 
ATOM     20  H   UNL     1       1.566  -0.822  -1.314  0.00  0.00    +0.150 HD
ENDBRANCH  15  17
BRANCH  15  22
ATOM     21  O   UNL     1       2.566   2.791   0.365  0.00  0.00    -0.286 OA
ATOM     22  C   UNL     1       2.562   1.665  -0.125  0.00  0.00    +0.229 C 
ENDBRANCH  15  22
ENDBRANCH   1  15
TORSDOF 9
