125014
  -OEChem-03292013323D

 31 32  0     1  0  0  0  0  0999 V2000
   -1.9629    2.0607   -1.2152 S   0  0  0  0  0  0  0  0  0  0  0  0
    1.7192   -0.5018   -0.9714 O   0  0  0  0  0  0  0  0  0  0  0  0
    2.0681    2.5633   -0.0901 O   0  0  0  0  0  0  0  0  0  0  0  0
    3.6605    1.1153    1.5832 O   0  0  0  0  0  0  0  0  0  0  0  0
    3.8837   -2.3037   -1.1813 O   0  0  0  0  0  0  0  0  0  0  0  0
   -4.6645    0.6798   -0.3098 O   0  0  0  0  0  0  0  0  0  0  0  0
   -0.4758    0.0098   -0.2267 N   0  0  0  0  0  0  0  0  0  0  0  0
   -1.9157   -1.4421    0.6510 N   0  0  0  0  0  0  0  0  0  0  0  0
   -4.7189   -1.3192    0.7840 N   0  0  0  0  0  0  0  0  0  0  0  0
    1.4890    1.3926    0.4838 C   0  0  2  0  0  0  0  0  0  0  0  0
    2.5577    0.4503    1.0052 C   0  0  1  0  0  0  0  0  0  0  0  0
    0.8188    0.5699   -0.6179 C   0  0  1  0  0  0  0  0  0  0  0  0
    2.9455   -0.3208   -0.2446 C   0  0  1  0  0  0  0  0  0  0  0  0
    3.5737   -1.6715    0.0483 C   0  0  0  0  0  0  0  0  0  0  0  0
   -1.7212    0.5442   -0.4233 C   0  0  0  0  0  0  0  0  0  0  0  0
   -0.6471   -1.1842    0.4226 C   0  0  0  0  0  0  0  0  0  0  0  0
   -2.5907   -0.3687    0.1256 C   0  0  0  0  0  0  0  0  0  0  0  0
   -4.0195   -0.2738    0.1766 C   0  0  0  0  0  0  0  0  0  0  0  0
    0.8101    1.7249    1.2757 H   0  0  0  0  0  0  0  0  0  0  0  0
    2.1134   -0.2203    1.7509 H   0  0  0  0  0  0  0  0  0  0  0  0
    0.6721    1.1421   -1.5386 H   0  0  0  0  0  0  0  0  0  0  0  0
    3.6214    0.2635   -0.8823 H   0  0  0  0  0  0  0  0  0  0  0  0
    2.8870   -2.3255    0.5953 H   0  0  0  0  0  0  0  0  0  0  0  0
    4.4972   -1.5677    0.6247 H   0  0  0  0  0  0  0  0  0  0  0  0
    1.3411    3.1100   -0.4334 H   0  0  0  0  0  0  0  0  0  0  0  0
    4.3076    0.4402    1.8481 H   0  0  0  0  0  0  0  0  0  0  0  0
    0.1784   -1.8213    0.7093 H   0  0  0  0  0  0  0  0  0  0  0  0
    3.0560   -2.3885   -1.6848 H   0  0  0  0  0  0  0  0  0  0  0  0
   -0.7842    2.6426   -0.9581 H   0  0  0  0  0  0  0  0  0  0  0  0
   -4.2454   -2.1219    1.1865 H   0  0  0  0  0  0  0  0  0  0  0  0
   -5.7318   -1.3057    0.8401 H   0  0  0  0  0  0  0  0  0  0  0  0
  1 15  1  0  0  0  0
  1 29  1  0  0  0  0
  2 12  1  0  0  0  0
  2 13  1  0  0  0  0
  3 10  1  0  0  0  0
  3 25  1  0  0  0  0
  4 11  1  0  0  0  0
  4 26  1  0  0  0  0
  5 14  1  0  0  0  0
  5 28  1  0  0  0  0
  6 18  2  0  0  0  0
  7 12  1  0  0  0  0
  7 15  1  0  0  0  0
  7 16  1  0  0  0  0
  8 16  2  0  0  0  0
  8 17  1  0  0  0  0
  9 18  1  0  0  0  0
  9 30  1  0  0  0  0
  9 31  1  0  0  0  0
 10 11  1  0  0  0  0
 10 12  1  0  0  0  0
 10 19  1  0  0  0  0
 11 13  1  0  0  0  0
 11 20  1  0  0  0  0
 12 21  1  0  0  0  0
 13 14  1  0  0  0  0
 13 22  1  0  0  0  0
 14 23  1  0  0  0  0
 14 24  1  0  0  0  0
 15 17  2  0  0  0  0
 16 27  1  0  0  0  0
 17 18  1  0  0  0  0
M  END
> <PUBCHEM_COMPOUND_CID>
125014

> <PUBCHEM_CONFORMER_RMSD>
0.6

> <PUBCHEM_CONFORMER_DIVERSEORDER>
1
33
15
26
29
4
36
30
35
8
19
11
16
7
34
2
28
3
10
9
31
32
20
23
17
5
12
25
27
18
6
24
13
22
14
21

> <PUBCHEM_MMFF94_PARTIAL_CHARGES>
25
1 -0.24
10 0.28
11 0.28
12 0.54
13 0.28
14 0.28
15 -0.1
16 0.04
17 0.14
18 0.72
2 -0.56
25 0.4
26 0.4
27 0.15
28 0.4
29 0.18
3 -0.68
30 0.37
31 0.37
4 -0.68
5 -0.68
6 -0.57
7 0.05
8 -0.57
9 -0.8

> <PUBCHEM_EFFECTIVE_ROTOR_COUNT>
4

> <PUBCHEM_PHARMACOPHORE_FEATURES>
12
1 2 acceptor
1 3 acceptor
1 3 donor
1 4 acceptor
1 4 donor
1 5 acceptor
1 5 donor
1 6 acceptor
1 9 donor
3 7 8 16 cation
5 2 10 11 12 13 rings
5 7 8 15 16 17 rings

> <PUBCHEM_HEAVY_ATOM_COUNT>
18

> <PUBCHEM_ATOM_DEF_STEREO_COUNT>
4

> <PUBCHEM_ATOM_UDEF_STEREO_COUNT>
0

> <PUBCHEM_BOND_DEF_STEREO_COUNT>
0

> <PUBCHEM_BOND_UDEF_STEREO_COUNT>
0

> <PUBCHEM_ISOTOPIC_ATOM_COUNT>
0

> <PUBCHEM_COMPONENT_COUNT>
1

> <PUBCHEM_CACTVS_TAUTO_COUNT>
5

> <PUBCHEM_CONFORMER_ID>
0001E85600000001

> <PUBCHEM_MMFF94_ENERGY>
38.8352

> <PUBCHEM_FEATURE_SELFOVERLAP>
60.913

> <PUBCHEM_SHAPE_FINGERPRINT>
10922523 26 18411411795926951436
11132069 177 18335698360645608241
11543360 7 12829494783153038627
12032990 46 18187653530912898019
12186901 62 17458625545676577767
12251169 10 18337102483664087520
12403259 226 18408319965182656333
12507560 14 17988926643297823023
12507560 40 18341322323713970608
13134695 92 17632003174721498744
13296908 3 18337384951099801956
13571099 22 18342460330906624434
13581323 91 18040427810976822281
13583140 156 17130695253504768867
13675066 3 18410291432618055723
14252887 29 18410574011206130928
14866123 147 17333377800707779114
15219456 202 18341886381452397724
15536298 74 18411980264939955763
15653759 3 18336262362280578028
16752209 62 17676201330312804567
16945 1 18187917387279463845
17804303 29 18261397715194042671
18186145 218 18410572860350093561
19049666 15 18266449923915995232
19422 9 14201389448189482501
200 152 17703501121872765031
20510252 161 18335414651964585585
20645477 70 18273492355868696086
20871999 31 18115600231636343278
23402539 116 18264191647687065391
23557571 272 18114177523778117636
23559900 14 18408325484146962636
2748010 2 18339066091504553100
31174 14 18341330092919509848
3286 77 18202004313317422821
474 4 15983394473581854560
5104073 3 18412547596107932499
59755656 215 18116149970618787919
6049 1 18409162186583887268
633830 44 18259699013058564431
69090 78 18271517676293527359
7364860 26 18337959003702283380
77492 1 15554436405752804420
9709674 26 18335985375703233227

> <PUBCHEM_SHAPE_MULTIPOLES>
329.99
8.23
2.15
1.08
3.79
0.48
-0.03
-2.74
-0.72
-0.88
0.3
-0.73
0.09
1.76

> <PUBCHEM_SHAPE_SELFOVERLAP>
687.342

> <PUBCHEM_SHAPE_VOLUME>
191.4

> <PUBCHEM_COORDINATE_TYPE>
2
5
10

$$$$
