REMARK  Name = 125048
REMARK  5 active torsions:
REMARK  status: ('A' for Active; 'I' for Inactive)
REMARK    1  A    between atoms: C_6  and  O_16
REMARK    2  A    between atoms: C_6  and  C_22
REMARK    3  A    between atoms: C_10  and  C_19
REMARK    4  A    between atoms: C_19  and  O_20
REMARK    5  A    between atoms: C_22  and  O_23
REMARK                            x       y       z     vdW  Elec       q    Type
REMARK                         _______ _______ _______ _____ _____    ______ ____
ROOT
ATOM      1  O   UNL     1      -0.632  -2.273   1.412  0.00  0.00    -0.447 OA
ATOM      2  O   UNL     1      -2.833  -2.219   0.926  0.00  0.00    -0.247 OA
ATOM      3  C   UNL     1      -0.378   0.238   0.146  0.00  0.00    +0.057 C 
ATOM      4  C   UNL     1       0.169   1.225  -0.933  0.00  0.00    +0.011 C 
ATOM      5  C   UNL     1       0.870  -0.413   0.806  0.00  0.00    +0.061 C 
ATOM      6  C   UNL     1      -1.367  -0.823  -0.406  0.00  0.00    +0.208 C 
ATOM      7  C   UNL     1      -0.019   2.663  -0.395  0.00  0.00    +0.018 C 
ATOM      8  C   UNL     1      -1.047   1.177   1.125  0.00  0.00    -0.032 C 
ATOM      9  C   UNL     1       1.611   0.834  -1.065  0.00  0.00    +0.012 C 
ATOM     10  C   UNL     1       1.975  -0.050  -0.134  0.00  0.00    +0.103 C 
ATOM     11  C   UNL     1      -0.863   2.469   0.832  0.00  0.00    -0.048 C 
ATOM     12  C   UNL     1       0.711  -1.911   1.045  0.00  0.00    +0.209 C 
ATOM     13  C   UNL     1      -1.694  -1.828   0.690  0.00  0.00    +0.344 C 
ATOM     14  C   UNL     1      -0.676   3.559  -1.443  0.00  0.00    +0.004 C 
ATOM     15  C   UNL     1      -1.356   3.619   1.637  0.00  0.00    +0.026 C 
ENDROOT
BRANCH   6  16
ATOM     16  O   UNL     1      -2.616  -0.203  -0.736  0.00  0.00    -0.374 OA
ATOM     17  H   UNL     1      -2.945   0.291   0.032  0.00  0.00    +0.211 HD
ENDBRANCH   6  16
BRANCH  10  19
ATOM     18  O   UNL     1       4.107  -0.671  -0.978  0.00  0.00    -0.250 OA
ATOM     19  C   UNL     1       3.337  -0.547  -0.035  0.00  0.00    +0.313 C 
BRANCH  19  20
ATOM     20  O   UNL     1       3.627  -0.854   1.250  0.00  0.00    -0.480 OA
ATOM     21  H   UNL     1       2.981  -0.731   1.918  0.00  0.00    +0.295 HD
ENDBRANCH  19  20
ENDBRANCH  10  19
BRANCH   6  22
ATOM     22  C   UNL     1      -0.932  -1.574  -1.672  0.00  0.00    +0.175 C 
BRANCH  22  23
ATOM     23  O   UNL     1      -1.994  -2.416  -2.072  0.00  0.00    -0.379 OA
ATOM     24  H   UNL     1      -1.739  -2.901  -2.873  0.00  0.00    +0.211 HD
ENDBRANCH  22  23
ENDBRANCH   6  22
TORSDOF 5
