125047
  -OEChem-03292013323D

 54 55  0     1  0  0  0  0  0999 V2000
    2.0029    0.5383   -2.1647 O   0  0  0  0  0  0  0  0  0  0  0  0
    1.7765    2.9146    1.3435 O   0  0  0  0  0  0  0  0  0  0  0  0
   -2.2271    2.8287   -0.6673 O   0  0  0  0  0  0  0  0  0  0  0  0
   -5.0062    2.4690   -0.6831 O   0  0  0  0  0  0  0  0  0  0  0  0
    8.4445   -0.4776    0.4743 O   0  5  0  0  0  0  0  0  0  0  0  0
    7.4902   -2.4470    0.6466 O   0  0  0  0  0  0  0  0  0  0  0  0
    0.0440    1.4369   -0.3243 N   0  0  0  0  0  0  0  0  0  0  0  0
   -3.4355    1.1833    0.4629 N   0  0  0  0  0  0  0  0  0  0  0  0
   -6.9979    1.3709    0.8394 N   0  0  0  0  0  0  0  0  0  0  0  0
    7.4306   -1.2147    0.4179 N   0  3  0  0  0  0  0  0  0  0  0  0
    1.2997    0.8674    0.1477 C   0  0  1  0  0  0  0  0  0  0  0  0
    2.3972    1.1078   -0.9133 C   0  0  1  0  0  0  0  0  0  0  0  0
    1.6369    1.5061    1.5010 C   0  0  0  0  0  0  0  0  0  0  0  0
    3.7337    0.4913   -0.5607 C   0  0  0  0  0  0  0  0  0  0  0  0
   -1.0225    1.2207    0.6412 C   0  0  0  0  0  0  0  0  0  0  0  0
   -5.7819    0.5827    0.6292 C   0  0  1  0  0  0  0  0  0  0  0  0
    3.8046   -0.8676   -0.3081 C   0  0  0  0  0  0  0  0  0  0  0  0
    4.8550    1.2998   -0.4980 C   0  0  0  0  0  0  0  0  0  0  0  0
   -6.0540   -0.5808   -0.3377 C   0  0  0  0  0  0  0  0  0  0  0  0
   -2.2749    1.8500    0.0751 C   0  0  0  0  0  0  0  0  0  0  0  0
   -4.7276    1.5315    0.0619 C   0  0  0  0  0  0  0  0  0  0  0  0
    5.0361   -1.4360    0.0176 C   0  0  0  0  0  0  0  0  0  0  0  0
    6.0864    0.7316   -0.1724 C   0  0  0  0  0  0  0  0  0  0  0  0
   -5.0401   -1.6951   -0.2234 C   0  0  0  0  0  0  0  0  0  0  0  0
    6.1771   -0.6364    0.0855 C   0  0  0  0  0  0  0  0  0  0  0  0
   -3.9005   -1.6582   -1.0102 C   0  0  0  0  0  0  0  0  0  0  0  0
   -5.2694   -2.7320    0.6662 C   0  0  0  0  0  0  0  0  0  0  0  0
   -2.9643   -2.6867   -0.9046 C   0  0  0  0  0  0  0  0  0  0  0  0
   -4.3330   -3.7605    0.7718 C   0  0  0  0  0  0  0  0  0  0  0  0
   -3.1805   -3.7378   -0.0137 C   0  0  0  0  0  0  0  0  0  0  0  0
    1.1548   -0.2109    0.2913 H   0  0  0  0  0  0  0  0  0  0  0  0
    2.5166    2.1835   -1.0927 H   0  0  0  0  0  0  0  0  0  0  0  0
   -0.2081    1.0110   -1.2161 H   0  0  0  0  0  0  0  0  0  0  0  0
    2.5983    1.1241    1.8626 H   0  0  0  0  0  0  0  0  0  0  0  0
    0.9236    1.2886    2.2999 H   0  0  0  0  0  0  0  0  0  0  0  0
   -1.1808    0.1522    0.8237 H   0  0  0  0  0  0  0  0  0  0  0  0
   -0.8760    1.7388    1.5926 H   0  0  0  0  0  0  0  0  0  0  0  0
   -5.4589    0.2085    1.6077 H   0  0  0  0  0  0  0  0  0  0  0  0
    2.9298   -1.5079   -0.3671 H   0  0  0  0  0  0  0  0  0  0  0  0
    4.7962    2.3661   -0.6955 H   0  0  0  0  0  0  0  0  0  0  0  0
   -7.0476   -1.0076   -0.1410 H   0  0  0  0  0  0  0  0  0  0  0  0
   -6.0920   -0.2252   -1.3765 H   0  0  0  0  0  0  0  0  0  0  0  0
    1.4366   -0.2324   -1.9903 H   0  0  0  0  0  0  0  0  0  0  0  0
   -3.3340    0.3869    1.0870 H   0  0  0  0  0  0  0  0  0  0  0  0
    5.0693   -2.5054    0.2098 H   0  0  0  0  0  0  0  0  0  0  0  0
    6.9539    1.3852   -0.1284 H   0  0  0  0  0  0  0  0  0  0  0  0
    2.0235    3.2752    2.2120 H   0  0  0  0  0  0  0  0  0  0  0  0
   -6.7963    2.1668    1.4432 H   0  0  0  0  0  0  0  0  0  0  0  0
   -7.3258    1.7510   -0.0476 H   0  0  0  0  0  0  0  0  0  0  0  0
   -3.7247   -0.8488   -1.7128 H   0  0  0  0  0  0  0  0  0  0  0  0
   -6.1624   -2.7572    1.2840 H   0  0  0  0  0  0  0  0  0  0  0  0
   -2.0671   -2.6691   -1.5166 H   0  0  0  0  0  0  0  0  0  0  0  0
   -4.5008   -4.5786    1.4661 H   0  0  0  0  0  0  0  0  0  0  0  0
   -2.4514   -4.5385    0.0687 H   0  0  0  0  0  0  0  0  0  0  0  0
  1 12  1  0  0  0  0
  1 43  1  0  0  0  0
  2 13  1  0  0  0  0
  2 47  1  0  0  0  0
  3 20  2  0  0  0  0
  4 21  2  0  0  0  0
  5 10  1  0  0  0  0
  6 10  2  0  0  0  0
  7 11  1  0  0  0  0
  7 15  1  0  0  0  0
  7 33  1  0  0  0  0
  8 20  1  0  0  0  0
  8 21  1  0  0  0  0
  8 44  1  0  0  0  0
  9 16  1  0  0  0  0
  9 48  1  0  0  0  0
  9 49  1  0  0  0  0
 10 25  1  0  0  0  0
 11 12  1  0  0  0  0
 11 13  1  0  0  0  0
 11 31  1  0  0  0  0
 12 14  1  0  0  0  0
 12 32  1  0  0  0  0
 13 34  1  0  0  0  0
 13 35  1  0  0  0  0
 14 17  2  0  0  0  0
 14 18  1  0  0  0  0
 15 20  1  0  0  0  0
 15 36  1  0  0  0  0
 15 37  1  0  0  0  0
 16 19  1  0  0  0  0
 16 21  1  0  0  0  0
 16 38  1  0  0  0  0
 17 22  1  0  0  0  0
 17 39  1  0  0  0  0
 18 23  2  0  0  0  0
 18 40  1  0  0  0  0
 19 24  1  0  0  0  0
 19 41  1  0  0  0  0
 19 42  1  0  0  0  0
 22 25  2  0  0  0  0
 22 45  1  0  0  0  0
 23 25  1  0  0  0  0
 23 46  1  0  0  0  0
 24 26  2  0  0  0  0
 24 27  1  0  0  0  0
 26 28  1  0  0  0  0
 26 50  1  0  0  0  0
 27 29  2  0  0  0  0
 27 51  1  0  0  0  0
 28 30  2  0  0  0  0
 28 52  1  0  0  0  0
 29 30  1  0  0  0  0
 29 53  1  0  0  0  0
 30 54  1  0  0  0  0
M  CHG  2   5  -1  10   1
M  END
> <PUBCHEM_COMPOUND_CID>
125047

> <PUBCHEM_CONFORMER_RMSD>
1

> <PUBCHEM_CONFORMER_DIVERSEORDER>
1
91
8
165
181
178
29
159
146
138
147
89
185
21
14
106
75
172
17
108
46
176
142
158
2
100
84
157
136
4
131
19
20
104
12
72
169
171
123
22
112
139
192
153
141
54
145
94
193
127
150
170
184
38
66
126
61
102
162
49
129
122
166
9
74
175
118
144
113
189
10
63
47
76
80
149
168
93
163
25
33
99
105
39
60
133
110
190
124
69
62
121
97
154
59
32
65
90
179
34
148
114
27
116
109
23
5
155
16
130
173
92
164
183
101
119
51
56
111
103
194
98
79
71
186
48
83
73
128
81
55
40
53
58
6
85
24
96
3
7
95
180
188
143
18
156
137
82
68
117
161
152
57
78
160
13
28
177
140
26
11
125
187
167
182
120
42
132
37
35
44
88
45
15
67
70
50
174
151
52
77
107
87
36
134
191
43
64
86
31
41
135
115
30

> <PUBCHEM_MMFF94_PARTIAL_CHARGES>
45
1 -0.68
10 0.91
11 0.27
12 0.42
13 0.28
14 -0.14
15 0.33
16 0.33
17 -0.15
18 -0.15
19 0.14
2 -0.68
20 0.57
21 0.57
22 -0.15
23 -0.15
24 -0.14
25 0.13
26 -0.15
27 -0.15
28 -0.15
29 -0.15
3 -0.57
30 -0.15
33 0.36
39 0.15
4 -0.57
40 0.15
43 0.4
44 0.37
45 0.15
46 0.15
47 0.4
48 0.36
49 0.36
5 -0.52
50 0.15
51 0.15
52 0.15
53 0.15
54 0.15
6 -0.52
7 -0.9
8 -0.49
9 -0.99

> <PUBCHEM_EFFECTIVE_ROTOR_COUNT>
12

> <PUBCHEM_PHARMACOPHORE_FEATURES>
16
1 1 acceptor
1 1 donor
1 2 acceptor
1 2 donor
1 3 acceptor
1 4 acceptor
1 5 acceptor
1 5 anion
1 6 acceptor
1 7 cation
1 7 donor
1 8 donor
1 9 cation
1 9 donor
6 14 17 18 22 23 25 rings
6 24 26 27 28 29 30 rings

> <PUBCHEM_HEAVY_ATOM_COUNT>
30

> <PUBCHEM_ATOM_DEF_STEREO_COUNT>
3

> <PUBCHEM_ATOM_UDEF_STEREO_COUNT>
0

> <PUBCHEM_BOND_DEF_STEREO_COUNT>
0

> <PUBCHEM_BOND_UDEF_STEREO_COUNT>
0

> <PUBCHEM_ISOTOPIC_ATOM_COUNT>
0

> <PUBCHEM_COMPONENT_COUNT>
1

> <PUBCHEM_CACTVS_TAUTO_COUNT>
3

> <PUBCHEM_CONFORMER_ID>
0001E87700000001

> <PUBCHEM_MMFF94_ENERGY>
78.0965

> <PUBCHEM_FEATURE_SELFOVERLAP>
81.291

> <PUBCHEM_SHAPE_FINGERPRINT>
10939801 23 18197500838671287774
11135609 99 18412825764477068670
11524674 6 17632857517168499807
117089 54 17755873261797372043
11796584 16 18410856517048929684
12643181 29 18410289207851454563
14251751 18 18412547642888497672
14279260 333 18186516601288174442
14289585 56 16660633059994038887
14394314 77 18340208492976654745
14461889 52 18272643598081226336
14866123 147 18339367465840530907
15021287 119 17530972384218872981
15183329 4 16877654686860066618
15230672 131 18335978658495604291
15352257 5 18413670214527884946
15439362 3 17469594115443093741
15728490 51 18410853257965382534
17492 89 18049443948823527235
23559900 14 18269829969042627689
397830 11 18129651015672420504
4073 2 18341049734644982473
439807 62 18409732901885464027
5085150 59 18272929414484532366
5104073 3 18059860613909535136
513202 73 18189629392216230699
559249 180 18410575085322565911
59755656 520 16732707155681167051
6371380 46 18273211964152548745
6437827 68 18412265030093801607
68570916 9 18335704983522732356
7495541 125 18201720686705138856
8863177 126 18271524307348427624
9862886 166 18272090495680686232
999808 66 17968670410258852979

> <PUBCHEM_SHAPE_MULTIPOLES>
562.25
21.56
3.94
1.11
23.4
2.34
0.13
9.43
-2.81
-5.54
-0.54
0.08
-0.2
-0.41

> <PUBCHEM_SHAPE_SELFOVERLAP>
1176.706

> <PUBCHEM_SHAPE_VOLUME>
315.4

> <PUBCHEM_COORDINATE_TYPE>
2
5
10

$$$$
