REMARK  Name = 125073
REMARK  10 active torsions:
REMARK  status: ('A' for Active; 'I' for Inactive)
REMARK    1  A    between atoms: C_1  and  O_2
REMARK    2  A    between atoms: C_1  and  C_4
REMARK    3  A    between atoms: C_1  and  CA_14
REMARK    4  A    between atoms: C_4  and  O_5
REMARK    5  A    between atoms: C_4  and  C_7
REMARK    6  A    between atoms: C_7  and  O_8
REMARK    7  A    between atoms: C_7  and  C_11
REMARK    8  A    between atoms: C_11  and  O_12
REMARK    9  A    between atoms: CA_14  and  N_16
REMARK   10  A    between atoms: CA_14  and  C_20
REMARK                            x       y       z     vdW  Elec       q    Type
REMARK                         _______ _______ _______ _____ _____    ______ ____
ROOT
ATOM      1  C   UNL     1       0.546   0.886  -0.078  0.00  0.00    +0.166 C 
ENDROOT
BRANCH   1   2
ATOM      2  O   UNL     1       0.627   1.487  -1.375  0.00  0.00    -0.380 OA
ATOM      3  H   UNL     1      -0.206   1.944  -1.572  0.00  0.00    +0.211 HD
ENDBRANCH   1   2
BRANCH   1   4
ATOM      4  C   UNL     1      -0.682  -0.047  -0.073  0.00  0.00    +0.177 C 
BRANCH   4   5
ATOM      5  O   UNL     1      -0.722  -0.722   1.190  0.00  0.00    -0.379 OA
ATOM      6  H   UNL     1       0.121  -1.178   1.340  0.00  0.00    +0.211 HD
ENDBRANCH   4   5
BRANCH   4   7
ATOM      7  C   UNL     1      -2.031   0.659  -0.269  0.00  0.00    +0.239 C 
BRANCH   7   8
ATOM      8  O   UNL     1      -2.184   1.593   0.802  0.00  0.00    -0.373 OA
ATOM      9  H   UNL     1      -1.452   2.228   0.784  0.00  0.00    +0.211 HD
ENDBRANCH   7   8
BRANCH   7  11
ATOM     10  O   UNL     1      -4.043  -0.267   0.732  0.00  0.00    -0.248 OA
ATOM     11  C   UNL     1      -3.209  -0.287  -0.165  0.00  0.00    +0.344 C 
BRANCH  11  12
ATOM     12  O   UNL     1      -3.255  -1.171  -1.194  0.00  0.00    -0.478 OA
ATOM     13  H   UNL     1      -2.595  -1.149  -1.859  0.00  0.00    +0.295 HD
ENDBRANCH  11  12
ENDBRANCH   7  11
ENDBRANCH   4   7
ENDBRANCH   1   4
BRANCH   1  14
ATOM     14  CA  UNL     1       1.875   0.171   0.210  0.00  0.00    +0.167 C 
BRANCH  14  16
ATOM     15  O   UNL     1       2.428  -2.657   0.759  0.00  0.00    -0.265 OA
ATOM     16  N   UNL     1       2.165  -0.876  -0.735  0.00  0.00    -0.290 N 
ATOM     17  C   UNL     1       2.413  -2.184  -0.370  0.00  0.00    +0.300 C 
ATOM     18  H   UNL     1       2.189  -0.648  -1.692  0.00  0.00    +0.150 HD
ENDBRANCH  14  16
BRANCH  14  20
ATOM     19  O   UNL     1       3.010   2.300   0.441  0.00  0.00    -0.286 OA
ATOM     20  C   UNL     1       3.061   1.114   0.124  0.00  0.00    +0.229 C 
ENDBRANCH  14  20
ENDBRANCH   1  14
TORSDOF 10
