REMARK  Name = 125011
REMARK  8 active torsions:
REMARK  status: ('A' for Active; 'I' for Inactive)
REMARK    1  A    between atoms: C_6  and  C_20
REMARK    2  A    between atoms: C_7  and  N_11
REMARK    3  A    between atoms: C_8  and  O_18
REMARK    4  A    between atoms: C_20  and  O_21
REMARK    5  A    between atoms: O_21  and  P_22
REMARK    6  A    between atoms: P_22  and  O_24
REMARK    7  A    between atoms: P_22  and  O_26
REMARK    8  A    between atoms: O_26  and  C_28
REMARK                            x       y       z     vdW  Elec       q    Type
REMARK                         _______ _______ _______ _____ _____    ______ ____
ROOT
ATOM      1  O   UNL     1      -0.079  -0.629   0.370  0.00  0.00    -0.333 OA
ATOM      2  O   UNL     1      -1.682  -3.713  -0.255  0.00  0.00    -0.304 OA
ATOM      3  O   UNL     1      -2.847  -1.673  -0.194  0.00  0.00    -0.303 OA
ATOM      4  C   UNL     1      -0.816  -2.657  -0.645  0.00  0.00    +0.181 C 
ATOM      5  C   UNL     1      -1.723  -1.538  -1.067  0.00  0.00    +0.197 C 
ATOM      6  C   UNL     1      -0.059  -2.059   0.541  0.00  0.00    +0.177 C 
ATOM      7  C   UNL     1      -0.894  -0.309  -0.767  0.00  0.00    +0.230 C 
ATOM      8  C   UNL     1      -2.915  -3.073   0.103  0.00  0.00    +0.375 C 
ENDROOT
BRANCH   7  11
ATOM      9  O   UNL     1      -1.617   1.620  -2.700  0.00  0.00    -0.252 OA
ATOM     10  O   UNL     1      -3.883   4.156   0.411  0.00  0.00    -0.270 OA
ATOM     11  N   UNL     1      -1.671   0.862  -0.490  0.00  0.00    -0.217 N 
ATOM     12  N   UNL     1      -2.744   2.882  -1.149  0.00  0.00    -0.236 N 
ATOM     13  C   UNL     1      -1.980   1.771  -1.532  0.00  0.00    +0.315 C 
ATOM     14  C   UNL     1      -2.124   1.109   0.802  0.00  0.00    +0.076 C 
ATOM     15  C   UNL     1      -2.852   2.172   1.152  0.00  0.00    +0.074 C 
ATOM     16  C   UNL     1      -3.216   3.167   0.123  0.00  0.00    +0.254 C 
ATOM     17  H   UNL     1      -2.970   3.527  -1.858  0.00  0.00    +0.159 HD
ENDBRANCH   7  11
BRANCH   8  18
ATOM     18  O   UNL     1      -3.233  -3.291   1.471  0.00  0.00    -0.304 OA
ATOM     19  C   UNL     1      -4.474  -2.692   1.821  0.00  0.00    +0.179 C 
ENDBRANCH   8  18
BRANCH   6  20
ATOM     20  C   UNL     1       1.383  -2.532   0.613  0.00  0.00    +0.187 C 
BRANCH  20  21
ATOM     21  O   UNL     1       2.046  -2.157  -0.583  0.00  0.00    -0.261 OA
BRANCH  21  22
ATOM     22  P   UNL     1       3.634  -1.842  -0.565  0.00  0.00    +0.531 P 
ATOM     23  O   UNL     1       4.220  -1.457  -1.894  0.00  0.00    -0.215 OA
BRANCH  22  24
ATOM     24  O   UNL     1       4.290  -3.182   0.065  0.00  0.00    -0.293 OA
ATOM     25  H   UNL     1       3.871  -3.377   0.918  0.00  0.00    +0.223 HD
ENDBRANCH  22  24
BRANCH  22  26
ATOM     26  O   UNL     1       3.845  -0.755   0.611  0.00  0.00    -0.403 OA
BRANCH  26  28
ATOM     27 CL   UNL     1       1.876   4.774   0.474  0.00  0.00    -0.082 Cl
ATOM     28  C   UNL     1       3.384   0.534   0.580  0.00  0.00    +0.149 C 
ATOM     29  C   UNL     1       2.677   0.986  -0.529  0.00  0.00    +0.038 C 
ATOM     30  C   UNL     1       3.630   1.380   1.656  0.00  0.00    +0.038 C 
ATOM     31  C   UNL     1       2.209   2.300  -0.561  0.00  0.00    +0.015 C 
ATOM     32  C   UNL     1       3.163   2.693   1.623  0.00  0.00    +0.015 C 
ATOM     33  C   UNL     1       2.453   3.154   0.514  0.00  0.00    +0.058 C 
ENDBRANCH  26  28
ENDBRANCH  22  26
ENDBRANCH  21  22
ENDBRANCH  20  21
ENDBRANCH   6  20
TORSDOF 8
