REMARK  Name = 125047
REMARK  13 active torsions:
REMARK  status: ('A' for Active; 'I' for Inactive)
REMARK    1  A    between atoms: N_1  and  CA_4
REMARK    2  A    between atoms: N_1  and  C_20
REMARK    3  A    between atoms: CA_4  and  C_5
REMARK    4  A    between atoms: CA_4  and  C_17
REMARK    5  A    between atoms: C_5  and  C_6
REMARK    6  A    between atoms: C_5  and  O_15
REMARK    7  A    between atoms: C_11  and  N_14
REMARK    8  A    between atoms: C_17  and  O_18
REMARK    9  A    between atoms: C_20  and  C_24
REMARK   10  A    between atoms: C_25  and  C_27
REMARK   11  A    between atoms: C_27  and  N_28
REMARK   12  A    between atoms: C_27  and  C_32
REMARK   13  A    between atoms: C_32  and  C_33
REMARK                            x       y       z     vdW  Elec       q    Type
REMARK                         _______ _______ _______ _____ _____    ______ ____
ROOT
ATOM      1  N   UNL     1       0.044   1.437  -0.324  0.00  0.00    +0.394 N 
ATOM      2  H1  UNL     1      -0.211   0.995  -1.208  0.00  0.00    -0.083 HD
ATOM      3  H2  UNL     1       0.170   2.441  -0.450  0.00  0.00    -0.083 HD
ENDROOT
BRANCH   1   4
ATOM      4  CA  UNL     1       1.300   0.867   0.148  0.00  0.00    +0.000 C 
BRANCH   4   5
ATOM      5  C   UNL     1       2.397   1.108  -0.913  0.00  0.00    +0.116 C 
BRANCH   5   6
ATOM      6  C   UNL     1       3.734   0.491  -0.561  0.00  0.00    +0.002 C 
ATOM      7  C   UNL     1       3.805  -0.868  -0.308  0.00  0.00    -0.000 C 
ATOM      8  C   UNL     1       4.855   1.300  -0.498  0.00  0.00    -0.000 C 
ATOM      9  C   UNL     1       5.036  -1.436   0.018  0.00  0.00    +0.024 C 
ATOM     10  C   UNL     1       6.086   0.732  -0.172  0.00  0.00    +0.024 C 
ATOM     11  C   UNL     1       6.177  -0.636   0.086  0.00  0.00    +0.143 C 
BRANCH  11  14
ATOM     12  O   UNL     1       8.444  -0.478   0.474  0.00  0.00    -0.126 OA
ATOM     13  O   UNL     1       7.490  -2.447   0.647  0.00  0.00    -0.126 OA
ATOM     14  N   UNL     1       7.431  -1.215   0.418  0.00  0.00    +0.058 N 
ENDBRANCH  11  14
ENDBRANCH   5   6
BRANCH   5  15
ATOM     15  O   UNL     1       2.003   0.538  -2.165  0.00  0.00    -0.382 OA
ATOM     16  H   UNL     1       1.146   0.907  -2.432  0.00  0.00    +0.211 HD
ENDBRANCH   5  15
ENDBRANCH   4   5
BRANCH   4  17
ATOM     17  C   UNL     1       1.637   1.506   1.501  0.00  0.00    +0.119 C 
BRANCH  17  18
ATOM     18  O   UNL     1       1.776   2.915   1.343  0.00  0.00    -0.384 OA
ATOM     19  H   UNL     1       1.990   3.316   2.200  0.00  0.00    +0.210 HD
ENDBRANCH  17  18
ENDBRANCH   4  17
ENDBRANCH   1   4
BRANCH   1  20
ATOM     20  C   UNL     1      -1.022   1.221   0.641  0.00  0.00    +0.006 C 
BRANCH  20  24
ATOM     21  O   UNL     1      -2.227   2.829  -0.667  0.00  0.00    -0.277 OA
ATOM     22  O   UNL     1      -5.006   2.469  -0.683  0.00  0.00    -0.277 OA
ATOM     23  N   UNL     1      -3.436   1.183   0.463  0.00  0.00    -0.259 N 
ATOM     24  C   UNL     1      -2.275   1.850   0.075  0.00  0.00    +0.206 C 
ATOM     25  C   UNL     1      -4.728   1.532   0.062  0.00  0.00    +0.208 C 
ATOM     26  H   UNL     1      -3.338   0.410   1.064  0.00  0.00    +0.157 HD
BRANCH  25  27
ATOM     27  C   UNL     1      -5.782   0.583   0.629  0.00  0.00    +0.018 C 
BRANCH  27  28
ATOM     28  N   UNL     1      -6.998   1.371   0.839  0.00  0.00    +0.388 N 
ATOM     29  H   UNL     1      -7.730   0.771   1.219  0.00  0.00    -0.089 HD
ATOM     30  H   UNL     1      -7.307   1.763  -0.050  0.00  0.00    -0.089 HD
ATOM     31  H   UNL     1      -6.804   2.128   1.495  0.00  0.00    -0.089 HD
ENDBRANCH  27  28
BRANCH  27  32
ATOM     32  C   UNL     1      -6.054  -0.581  -0.338  0.00  0.00    +0.013 C 
BRANCH  32  33
ATOM     33  C   UNL     1      -5.040  -1.695  -0.223  0.00  0.00    -0.024 C 
ATOM     34  C   UNL     1      -3.901  -1.658  -1.010  0.00  0.00    -0.004 C 
ATOM     35  C   UNL     1      -5.269  -2.732   0.666  0.00  0.00    -0.004 C 
ATOM     36  C   UNL     1      -2.964  -2.687  -0.905  0.00  0.00    -0.000 C 
ATOM     37  C   UNL     1      -4.333  -3.760   0.772  0.00  0.00    -0.000 C 
ATOM     38  C   UNL     1      -3.180  -3.738  -0.014  0.00  0.00    -0.000 C 
ENDBRANCH  32  33
ENDBRANCH  27  32
ENDBRANCH  25  27
ENDBRANCH  20  24
ENDBRANCH   1  20
TORSDOF 13
