REMARK  Name = 125084
REMARK  16 active torsions:
REMARK  status: ('A' for Active; 'I' for Inactive)
REMARK    1  A    between atoms: C_2  and  C_9
REMARK    2  A    between atoms: C_3  and  C_23
REMARK    3  A    between atoms: C_4  and  O_7
REMARK    4  A    between atoms: C_10  and  C_11
REMARK    5  A    between atoms: C_11  and  C_12
REMARK    6  A    between atoms: C_11  and  O_21
REMARK    7  A    between atoms: C_12  and  C_15
REMARK    8  A    between atoms: C_15  and  C_16
REMARK    9  A    between atoms: C_16  and  C_17
REMARK   10  A    between atoms: C_17  and  O_19
REMARK   11  A    between atoms: C_23  and  C_24
REMARK   12  A    between atoms: C_25  and  C_26
REMARK   13  A    between atoms: C_26  and  C_27
REMARK   14  A    between atoms: C_27  and  C_28
REMARK   15  A    between atoms: C_28  and  C_30
REMARK   16  A    between atoms: C_30  and  O_31
REMARK                            x       y       z     vdW  Elec       q    Type
REMARK                         _______ _______ _______ _____ _____    ______ ____
ROOT
ATOM      1  O   UNL     1      -2.560  -3.692   0.488  0.00  0.00    -0.296 OA
ATOM      2  C   UNL     1      -0.704  -1.123  -1.075  0.00  0.00    +0.056 C 
ATOM      3  C   UNL     1      -0.689  -2.227  -0.007  0.00  0.00    +0.068 C 
ATOM      4  C   UNL     1      -1.414  -1.775  -2.269  0.00  0.00    +0.122 C 
ATOM      5  C   UNL     1      -2.557  -2.573  -1.645  0.00  0.00    +0.094 C 
ATOM      6  C   UNL     1      -2.006  -2.924  -0.287  0.00  0.00    +0.153 C 
ENDROOT
BRANCH   4   7
ATOM      7  O   UNL     1      -1.922  -0.777  -3.140  0.00  0.00    -0.384 OA
ATOM      8  H   UNL     1      -1.184  -0.281  -3.528  0.00  0.00    +0.210 HD
ENDBRANCH   4   7
BRANCH   2   9
ATOM      9  C   UNL     1       0.667  -0.629  -1.412  0.00  0.00    -0.026 C 
ATOM     10  C   UNL     1       1.052   0.649  -1.287  0.00  0.00    -0.002 C 
BRANCH  10  11
ATOM     11  C   UNL     1       2.434   1.145  -1.629  0.00  0.00    +0.132 C 
BRANCH  11  12
ATOM     12  C   UNL     1       3.180   1.865  -0.458  0.00  0.00    +0.029 C 
ATOM     13  C   UNL     1       2.347   3.053   0.084  0.00  0.00    +0.003 C 
ATOM     14  C   UNL     1       4.505   2.453  -0.994  0.00  0.00    +0.003 C 
BRANCH  12  15
ATOM     15  C   UNL     1       3.469   0.908   0.738  0.00  0.00    +0.005 C 
BRANCH  15  16
ATOM     16  C   UNL     1       4.259  -0.366   0.399  0.00  0.00    +0.029 C 
BRANCH  16  17
ATOM     17  C   UNL     1       4.447  -1.264   1.628  0.00  0.00    +0.111 C 
ATOM     18  C   UNL     1       5.255  -2.508   1.283  0.00  0.00    +0.032 C 
BRANCH  17  19
ATOM     19  O   UNL     1       3.170  -1.667   2.112  0.00  0.00    -0.384 OA
ATOM     20  H   UNL     1       2.646  -0.882   2.335  0.00  0.00    +0.210 HD
ENDBRANCH  17  19
ENDBRANCH  16  17
ENDBRANCH  15  16
ENDBRANCH  12  15
ENDBRANCH  11  12
BRANCH  11  21
ATOM     21  O   UNL     1       2.312   2.043  -2.739  0.00  0.00    -0.380 OA
ATOM     22  H   UNL     1       3.189   2.379  -2.981  0.00  0.00    +0.211 HD
ENDBRANCH  11  21
ENDBRANCH  10  11
ENDBRANCH   2   9
BRANCH   3  23
ATOM     23  C   UNL     1      -0.604  -1.692   1.411  0.00  0.00    +0.033 C 
BRANCH  23  24
ATOM     24  C   UNL     1      -1.673  -0.723   1.841  0.00  0.00    -0.030 C 
ATOM     25  C   UNL     1      -1.495   0.522   2.308  0.00  0.00    -0.031 C 
BRANCH  25  26
ATOM     26  C   UNL     1      -2.622   1.431   2.705  0.00  0.00    +0.026 C 
BRANCH  26  27
ATOM     27  C   UNL     1      -2.675   2.735   1.898  0.00  0.00    +0.016 C 
BRANCH  27  28
ATOM     28  C   UNL     1      -2.873   2.528   0.394  0.00  0.00    +0.110 C 
BRANCH  28  30
ATOM     29  O   UNL     1      -5.178   1.800   0.690  0.00  0.00    -0.250 OA
ATOM     30  C   UNL     1      -4.140   1.780   0.042  0.00  0.00    +0.314 C 
BRANCH  30  31
ATOM     31  O   UNL     1      -3.985   1.027  -1.078  0.00  0.00    -0.480 OA
ATOM     32  H   UNL     1      -3.171   1.042  -1.544  0.00  0.00    +0.295 HD
ENDBRANCH  30  31
ENDBRANCH  28  30
ENDBRANCH  27  28
ENDBRANCH  26  27
ENDBRANCH  25  26
ENDBRANCH  23  24
ENDBRANCH   3  23
TORSDOF 16
