125048
  -OEChem-03292013323D

 39 41  0     1  0  0  0  0  0999 V2000
   -0.6321   -2.2732    1.4121 O   0  0  0  0  0  0  0  0  0  0  0  0
   -2.6165   -0.2028   -0.7359 O   0  0  0  0  0  0  0  0  0  0  0  0
   -1.9944   -2.4164   -2.0720 O   0  0  0  0  0  0  0  0  0  0  0  0
   -2.8331   -2.2187    0.9264 O   0  0  0  0  0  0  0  0  0  0  0  0
    3.6267   -0.8540    1.2501 O   0  0  0  0  0  0  0  0  0  0  0  0
    4.1075   -0.6706   -0.9782 O   0  0  0  0  0  0  0  0  0  0  0  0
   -0.3781    0.2380    0.1457 C   0  0  2  0  0  0  0  0  0  0  0  0
    0.1692    1.2246   -0.9331 C   0  0  1  0  0  0  0  0  0  0  0  0
    0.8701   -0.4127    0.8061 C   0  0  2  0  0  0  0  0  0  0  0  0
   -1.3666   -0.8234   -0.4062 C   0  0  1  0  0  0  0  0  0  0  0  0
   -0.0190    2.6625   -0.3954 C   0  0  2  0  0  0  0  0  0  0  0  0
   -1.0469    1.1765    1.1254 C   0  0  0  0  0  0  0  0  0  0  0  0
    1.6112    0.8340   -1.0654 C   0  0  0  0  0  0  0  0  0  0  0  0
    1.9749   -0.0498   -0.1336 C   0  0  0  0  0  0  0  0  0  0  0  0
   -0.8631    2.4685    0.8321 C   0  0  0  0  0  0  0  0  0  0  0  0
    0.7112   -1.9113    1.0447 C   0  0  0  0  0  0  0  0  0  0  0  0
   -1.6937   -1.8278    0.6901 C   0  0  0  0  0  0  0  0  0  0  0  0
   -0.9325   -1.5744   -1.6719 C   0  0  0  0  0  0  0  0  0  0  0  0
   -0.6757    3.5595   -1.4426 C   0  0  0  0  0  0  0  0  0  0  0  0
   -1.3564    3.6192    1.6371 C   0  0  0  0  0  0  0  0  0  0  0  0
    3.3374   -0.5475   -0.0355 C   0  0  0  0  0  0  0  0  0  0  0  0
   -0.3323    1.1053   -1.8988 H   0  0  0  0  0  0  0  0  0  0  0  0
    1.0722    0.0611    1.7775 H   0  0  0  0  0  0  0  0  0  0  0  0
    0.9404    3.1098   -0.1048 H   0  0  0  0  0  0  0  0  0  0  0  0
   -1.5936    0.8291    1.9926 H   0  0  0  0  0  0  0  0  0  0  0  0
    2.2644    1.2477   -1.8213 H   0  0  0  0  0  0  0  0  0  0  0  0
    1.0264   -2.5317    0.2003 H   0  0  0  0  0  0  0  0  0  0  0  0
    1.3505   -2.2133    1.8825 H   0  0  0  0  0  0  0  0  0  0  0  0
   -0.0407   -2.1869   -1.5407 H   0  0  0  0  0  0  0  0  0  0  0  0
   -0.7579   -0.8876   -2.5042 H   0  0  0  0  0  0  0  0  0  0  0  0
   -1.6722    3.1962   -1.7182 H   0  0  0  0  0  0  0  0  0  0  0  0
   -0.7836    4.5839   -1.0704 H   0  0  0  0  0  0  0  0  0  0  0  0
   -0.0659    3.6000   -2.3515 H   0  0  0  0  0  0  0  0  0  0  0  0
   -0.5217    4.2621    1.9337 H   0  0  0  0  0  0  0  0  0  0  0  0
   -1.8617    3.2858    2.5497 H   0  0  0  0  0  0  0  0  0  0  0  0
   -2.0696    4.2166    1.0611 H   0  0  0  0  0  0  0  0  0  0  0  0
   -3.2002   -0.8782   -1.1221 H   0  0  0  0  0  0  0  0  0  0  0  0
   -1.7112   -2.8745   -2.8816 H   0  0  0  0  0  0  0  0  0  0  0  0
    4.5411   -1.1946    1.3501 H   0  0  0  0  0  0  0  0  0  0  0  0
  1 16  1  0  0  0  0
  1 17  1  0  0  0  0
  2 10  1  0  0  0  0
  2 37  1  0  0  0  0
  3 18  1  0  0  0  0
  3 38  1  0  0  0  0
  4 17  2  0  0  0  0
  5 21  1  0  0  0  0
  5 39  1  0  0  0  0
  6 21  2  0  0  0  0
  7  8  1  0  0  0  0
  7  9  1  0  0  0  0
  7 10  1  0  0  0  0
  7 12  1  0  0  0  0
  8 11  1  0  0  0  0
  8 13  1  0  0  0  0
  8 22  1  0  0  0  0
  9 14  1  0  0  0  0
  9 16  1  0  0  0  0
  9 23  1  0  0  0  0
 10 17  1  0  0  0  0
 10 18  1  0  0  0  0
 11 15  1  0  0  0  0
 11 19  1  0  0  0  0
 11 24  1  0  0  0  0
 12 15  2  0  0  0  0
 12 25  1  0  0  0  0
 13 14  2  0  0  0  0
 13 26  1  0  0  0  0
 14 21  1  0  0  0  0
 15 20  1  0  0  0  0
 16 27  1  0  0  0  0
 16 28  1  0  0  0  0
 18 29  1  0  0  0  0
 18 30  1  0  0  0  0
 19 31  1  0  0  0  0
 19 32  1  0  0  0  0
 19 33  1  0  0  0  0
 20 34  1  0  0  0  0
 20 35  1  0  0  0  0
 20 36  1  0  0  0  0
M  END
> <PUBCHEM_COMPOUND_CID>
125048

> <PUBCHEM_CONFORMER_RMSD>
0.6

> <PUBCHEM_CONFORMER_DIVERSEORDER>
2
6
3
5
4
1

> <PUBCHEM_MMFF94_PARTIAL_CHARGES>
25
1 -0.43
10 0.34
11 0.14
12 -0.29
13 -0.29
14 -0.12
15 -0.28
16 0.28
17 0.66
18 0.28
2 -0.68
20 0.14
21 0.71
25 0.15
26 0.15
3 -0.68
37 0.4
38 0.4
39 0.5
4 -0.57
5 -0.65
6 -0.57
7 0.14
8 0.14
9 0.14

> <PUBCHEM_EFFECTIVE_ROTOR_COUNT>
2.8

> <PUBCHEM_PHARMACOPHORE_FEATURES>
11
1 2 acceptor
1 2 donor
1 3 acceptor
1 3 donor
1 4 acceptor
1 5 acceptor
1 6 acceptor
3 5 6 21 anion
5 7 8 11 12 15 rings
5 7 8 9 13 14 rings
6 1 7 9 10 16 17 rings

> <PUBCHEM_HEAVY_ATOM_COUNT>
21

> <PUBCHEM_ATOM_DEF_STEREO_COUNT>
4

> <PUBCHEM_ATOM_UDEF_STEREO_COUNT>
1

> <PUBCHEM_BOND_DEF_STEREO_COUNT>
0

> <PUBCHEM_BOND_UDEF_STEREO_COUNT>
0

> <PUBCHEM_ISOTOPIC_ATOM_COUNT>
0

> <PUBCHEM_COMPONENT_COUNT>
1

> <PUBCHEM_CACTVS_TAUTO_COUNT>
1

> <PUBCHEM_CONFORMER_ID>
0001E87800000002

> <PUBCHEM_MMFF94_ENERGY>
61.9887

> <PUBCHEM_FEATURE_SELFOVERLAP>
56.417

> <PUBCHEM_SHAPE_FINGERPRINT>
10948715 1 17767134102820328248
12788726 201 18411703166740518136
13027679 85 18117567437989599850
13134695 92 18056201508311132601
13140716 1 18409447020214194808
13681431 1 18051122902477715660
14142880 1 18338793395451739816
14817 1 15911672165986468395
15001771 113 18261967348142937208
15309172 13 17759252795062207024
15490181 7 17615130984003927204
15906896 17 18268997487867302251
16945 1 18190752946331970144
19591789 44 17542522534545726442
20600515 1 18045479057958332840
21041028 32 18267878348555449377
21296965 67 18338521966055075914
21524375 3 17908138772527501632
21731228 192 17835804093043416192
22112679 90 18126592182090897048
2334 1 18192432085287080000
23419403 2 17041410536852580124
23526113 38 17754985895028950447
2748010 2 18263916816544810936
427121 178 17410805486971894369
5845 1 8637855139886365960
6992083 37 17845941852218265391
7364860 26 17689728875072008138
81228 2 18411133602469019080
9981440 41 16481572030045214906

> <PUBCHEM_SHAPE_MULTIPOLES>
396.95
4.05
3.83
1.7
1.76
2.3
-0.29
-4.1
0.93
-2.03
-0.66
0.28
0.45
0.06

> <PUBCHEM_SHAPE_SELFOVERLAP>
868.668

> <PUBCHEM_SHAPE_VOLUME>
215

> <PUBCHEM_COORDINATE_TYPE>
2
5
10

$$$$
