125084
  -OEChem-03292013323D

 64 64  0     1  0  0  0  0  0999 V2000
   -1.9216   -0.7775   -3.1404 O   0  0  0  0  0  0  0  0  0  0  0  0
    2.3117    2.0429   -2.7388 O   0  0  0  0  0  0  0  0  0  0  0  0
   -2.5602   -3.6924    0.4882 O   0  0  0  0  0  0  0  0  0  0  0  0
    3.1695   -1.6670    2.1122 O   0  0  0  0  0  0  0  0  0  0  0  0
   -3.9845    1.0271   -1.0783 O   0  0  0  0  0  0  0  0  0  0  0  0
   -5.1775    1.8002    0.6903 O   0  0  0  0  0  0  0  0  0  0  0  0
   -0.7042   -1.1225   -1.0752 C   0  0  2  0  0  0  0  0  0  0  0  0
   -0.6893   -2.2270   -0.0074 C   0  0  2  0  0  0  0  0  0  0  0  0
   -1.4141   -1.7754   -2.2688 C   0  0  1  0  0  0  0  0  0  0  0  0
   -2.5571   -2.5729   -1.6451 C   0  0  0  0  0  0  0  0  0  0  0  0
    3.1796    1.8654   -0.4580 C   0  0  0  0  0  0  0  0  0  0  0  0
   -2.0055   -2.9236   -0.2873 C   0  0  0  0  0  0  0  0  0  0  0  0
   -0.6041   -1.6923    1.4114 C   0  0  0  0  0  0  0  0  0  0  0  0
    0.6666   -0.6292   -1.4117 C   0  0  0  0  0  0  0  0  0  0  0  0
    2.4338    1.1454   -1.6294 C   0  0  1  0  0  0  0  0  0  0  0  0
    3.4686    0.9084    0.7380 C   0  0  0  0  0  0  0  0  0  0  0  0
    1.0519    0.6495   -1.2873 C   0  0  0  0  0  0  0  0  0  0  0  0
    2.3469    3.0528    0.0840 C   0  0  0  0  0  0  0  0  0  0  0  0
    4.5054    2.4533   -0.9944 C   0  0  0  0  0  0  0  0  0  0  0  0
    4.2586   -0.3660    0.3986 C   0  0  0  0  0  0  0  0  0  0  0  0
   -1.6730   -0.7229    1.8409 C   0  0  0  0  0  0  0  0  0  0  0  0
    4.4475   -1.2637    1.6276 C   0  0  2  0  0  0  0  0  0  0  0  0
   -1.4947    0.5220    2.3085 C   0  0  0  0  0  0  0  0  0  0  0  0
    5.2552   -2.5078    1.2826 C   0  0  0  0  0  0  0  0  0  0  0  0
   -2.6218    1.4305    2.7052 C   0  0  0  0  0  0  0  0  0  0  0  0
   -2.6751    2.7352    1.8984 C   0  0  0  0  0  0  0  0  0  0  0  0
   -2.8727    2.5280    0.3937 C   0  0  0  0  0  0  0  0  0  0  0  0
   -4.1400    1.7795    0.0424 C   0  0  0  0  0  0  0  0  0  0  0  0
   -1.3196   -0.2729   -0.7511 H   0  0  0  0  0  0  0  0  0  0  0  0
    0.1125   -2.9525   -0.1948 H   0  0  0  0  0  0  0  0  0  0  0  0
   -0.7397   -2.4323   -2.8321 H   0  0  0  0  0  0  0  0  0  0  0  0
   -2.7717   -3.4758   -2.2221 H   0  0  0  0  0  0  0  0  0  0  0  0
   -3.4659   -1.9748   -1.5312 H   0  0  0  0  0  0  0  0  0  0  0  0
    1.3849   -1.3649   -1.7664 H   0  0  0  0  0  0  0  0  0  0  0  0
    0.3806   -1.2304    1.5554 H   0  0  0  0  0  0  0  0  0  0  0  0
   -0.6419   -2.5392    2.1091 H   0  0  0  0  0  0  0  0  0  0  0  0
    3.0536    0.3198   -1.9966 H   0  0  0  0  0  0  0  0  0  0  0  0
    4.0162    1.4597    1.5145 H   0  0  0  0  0  0  0  0  0  0  0  0
    2.5123    0.6215    1.1943 H   0  0  0  0  0  0  0  0  0  0  0  0
    0.3259    1.3848   -0.9514 H   0  0  0  0  0  0  0  0  0  0  0  0
    1.4285    2.7182    0.5780 H   0  0  0  0  0  0  0  0  0  0  0  0
    2.0667    3.7467   -0.7161 H   0  0  0  0  0  0  0  0  0  0  0  0
    2.9182    3.6228    0.8263 H   0  0  0  0  0  0  0  0  0  0  0  0
    5.1090    1.6888   -1.4948 H   0  0  0  0  0  0  0  0  0  0  0  0
    5.1076    2.8742   -0.1811 H   0  0  0  0  0  0  0  0  0  0  0  0
    4.3289    3.2579   -1.7171 H   0  0  0  0  0  0  0  0  0  0  0  0
    5.2388   -0.1013   -0.0119 H   0  0  0  0  0  0  0  0  0  0  0  0
    3.7193   -0.9388   -0.3627 H   0  0  0  0  0  0  0  0  0  0  0  0
   -2.4312   -1.2297   -3.8342 H   0  0  0  0  0  0  0  0  0  0  0  0
   -2.6940   -1.0929    1.7659 H   0  0  0  0  0  0  0  0  0  0  0  0
    4.9512   -0.7044    2.4239 H   0  0  0  0  0  0  0  0  0  0  0  0
    1.8964    1.5553   -3.4709 H   0  0  0  0  0  0  0  0  0  0  0  0
   -0.4853    0.9140    2.4040 H   0  0  0  0  0  0  0  0  0  0  0  0
    4.7397   -3.1138    0.5294 H   0  0  0  0  0  0  0  0  0  0  0  0
    6.2478   -2.2454    0.9045 H   0  0  0  0  0  0  0  0  0  0  0  0
    5.3768   -3.1427    2.1668 H   0  0  0  0  0  0  0  0  0  0  0  0
   -3.5842    0.9097    2.6433 H   0  0  0  0  0  0  0  0  0  0  0  0
   -2.4875    1.6867    3.7636 H   0  0  0  0  0  0  0  0  0  0  0  0
    3.3145   -2.2182    2.9000 H   0  0  0  0  0  0  0  0  0  0  0  0
   -3.4947    3.3505    2.2899 H   0  0  0  0  0  0  0  0  0  0  0  0
   -1.7503    3.3036    2.0575 H   0  0  0  0  0  0  0  0  0  0  0  0
   -2.0131    1.9894   -0.0187 H   0  0  0  0  0  0  0  0  0  0  0  0
   -2.9190    3.5011   -0.1078 H   0  0  0  0  0  0  0  0  0  0  0  0
   -4.7970    0.5223   -1.2957 H   0  0  0  0  0  0  0  0  0  0  0  0
  1  9  1  0  0  0  0
  1 49  1  0  0  0  0
  2 15  1  0  0  0  0
  2 52  1  0  0  0  0
  3 12  2  0  0  0  0
  4 22  1  0  0  0  0
  4 59  1  0  0  0  0
  5 28  1  0  0  0  0
  5 64  1  0  0  0  0
  6 28  2  0  0  0  0
  7  8  1  0  0  0  0
  7  9  1  0  0  0  0
  7 14  1  0  0  0  0
  7 29  1  0  0  0  0
  8 12  1  0  0  0  0
  8 13  1  0  0  0  0
  8 30  1  0  0  0  0
  9 10  1  0  0  0  0
  9 31  1  0  0  0  0
 10 12  1  0  0  0  0
 10 32  1  0  0  0  0
 10 33  1  0  0  0  0
 11 15  1  0  0  0  0
 11 16  1  0  0  0  0
 11 18  1  0  0  0  0
 11 19  1  0  0  0  0
 13 21  1  0  0  0  0
 13 35  1  0  0  0  0
 13 36  1  0  0  0  0
 14 17  2  3  0  0  0
 14 34  1  0  0  0  0
 15 17  1  0  0  0  0
 15 37  1  0  0  0  0
 16 20  1  0  0  0  0
 16 38  1  0  0  0  0
 16 39  1  0  0  0  0
 17 40  1  0  0  0  0
 18 41  1  0  0  0  0
 18 42  1  0  0  0  0
 18 43  1  0  0  0  0
 19 44  1  0  0  0  0
 19 45  1  0  0  0  0
 19 46  1  0  0  0  0
 20 22  1  0  0  0  0
 20 47  1  0  0  0  0
 20 48  1  0  0  0  0
 21 23  2  3  0  0  0
 21 50  1  0  0  0  0
 22 24  1  0  0  0  0
 22 51  1  0  0  0  0
 23 25  1  0  0  0  0
 23 53  1  0  0  0  0
 24 54  1  0  0  0  0
 24 55  1  0  0  0  0
 24 56  1  0  0  0  0
 25 26  1  0  0  0  0
 25 57  1  0  0  0  0
 25 58  1  0  0  0  0
 26 27  1  0  0  0  0
 26 60  1  0  0  0  0
 26 61  1  0  0  0  0
 27 28  1  0  0  0  0
 27 62  1  0  0  0  0
 27 63  1  0  0  0  0
M  END
> <PUBCHEM_COMPOUND_CID>
125084

> <PUBCHEM_CONFORMER_RMSD>
1.2

> <PUBCHEM_CONFORMER_DIVERSEORDER>
1
177
73
21
89
176
47
164
169
80
175
33
116
157
99
217
126
68
120
145
53
101
216
141
182
143
26
92
140
59
96
186
214
215
75
62
147
219
125
111
139
193
66
37
213
13
194
206
129
201
39
208
19
30
6
137
54
198
121
151
98
142
160
162
203
15
190
109
122
218
128
48
153
84
135
209
34
221
20
29
154
119
197
70
46
152
163
166
4
199
173
161
55
24
134
22
76
168
44
42
16
65
172
50
43
124
211
195
28
90
132
95
100
87
110
106
155
41
8
108
11
149
191
220
38
85
146
184
113
58
170
204
57
10
31
159
67
49
35
189
5
185
56
105
114
86
71
72
94
118
117
93
212
63
156
167
183
150
27
138
179
64
207
107
123
115
32
187
130
192
131
74
165
181
136
18
88
103
40
83
9
210
104
77
112
188
36
69
205
14
12
61
158
17
82
2
45
144
81
91
174
200
202
196
25
97
60
148
52
3
133
102
79
127
178
180
7
23
171
51
78

> <PUBCHEM_MMFF94_PARTIAL_CHARGES>
29
1 -0.68
10 0.06
12 0.45
13 0.14
14 -0.29
15 0.42
17 -0.29
2 -0.68
21 -0.29
22 0.28
23 -0.29
25 0.14
27 0.06
28 0.66
3 -0.57
34 0.15
4 -0.68
40 0.15
49 0.4
5 -0.65
50 0.15
52 0.4
53 0.15
59 0.4
6 -0.57
64 0.5
7 0.14
8 0.06
9 0.28

> <PUBCHEM_EFFECTIVE_ROTOR_COUNT>
12.8

> <PUBCHEM_PHARMACOPHORE_FEATURES>
13
1 1 acceptor
1 1 donor
1 2 acceptor
1 2 donor
1 3 acceptor
1 4 acceptor
1 4 donor
1 5 acceptor
1 6 acceptor
3 11 18 19 hydrophobe
3 5 6 28 anion
4 23 25 26 27 hydrophobe
5 7 8 9 10 12 rings

> <PUBCHEM_HEAVY_ATOM_COUNT>
28

> <PUBCHEM_ATOM_DEF_STEREO_COUNT>
4

> <PUBCHEM_ATOM_UDEF_STEREO_COUNT>
0

> <PUBCHEM_BOND_DEF_STEREO_COUNT>
0

> <PUBCHEM_BOND_UDEF_STEREO_COUNT>
2

> <PUBCHEM_ISOTOPIC_ATOM_COUNT>
0

> <PUBCHEM_COMPONENT_COUNT>
1

> <PUBCHEM_CACTVS_TAUTO_COUNT>
3

> <PUBCHEM_CONFORMER_ID>
0001E89C00000001

> <PUBCHEM_MMFF94_ENERGY>
43.1699

> <PUBCHEM_FEATURE_SELFOVERLAP>
66.032

> <PUBCHEM_SHAPE_FINGERPRINT>
10764073 3 16663461936087747279
11045515 52 17340129257627177303
11421498 54 17905330980860719682
11595378 159 17915471699283684754
12788726 201 18198625630128823871
13583140 156 18116449200262651016
14251757 17 14692281790667694105
15219462 58 18046641271855945458
173720 79 18412830183660675891
17818456 19 18342730802245701118
17974551 9 17532965777282892784
17980427 23 17978511927858034337
22907989 373 17631186349119420217
23419403 2 16301184958080171347
238 59 17841462270338131865
3493558 16 17557977343063954463
445580 2 17023742282499739016
469060 322 17981066398422805155
508706 21 15697730276228645898
77296 10 17749116599650768147

> <PUBCHEM_SHAPE_MULTIPOLES>
541.01
9.27
4.23
2.88
5.59
0.62
0.36
-2.79
-2.47
-1.73
-0.22
-0.27
0.18
-3.94

> <PUBCHEM_SHAPE_SELFOVERLAP>
1069.447

> <PUBCHEM_SHAPE_VOLUME>
323

> <PUBCHEM_COORDINATE_TYPE>
2
5
10

$$$$
