REMARK  Name = 125181567
REMARK  3 active torsions:
REMARK  status: ('A' for Active; 'I' for Inactive)
REMARK    1  A    between atoms: C_6  and  C_27
REMARK    2  A    between atoms: C_14  and  O_32
REMARK    3  A    between atoms: C_18  and  O_34
REMARK                            x       y       z     vdW  Elec       q    Type
REMARK                         _______ _______ _______ _____ _____    ______ ____
ROOT
ATOM      1  O   UNL     1      -1.139   3.524  -0.698  0.00  0.00    -0.296 OA
ATOM      2  O   UNL     1       0.284  -2.764  -0.102  0.00  0.00    -0.292 OA
ATOM      3  C   UNL     1      -1.867   0.173   0.107  0.00  0.00    +0.020 C 
ATOM      4  C   UNL     1      -0.881   1.077  -0.695  0.00  0.00    +0.069 C 
ATOM      5  C   UNL     1       2.445  -0.780   0.354  0.00  0.00    +0.021 C 
ATOM      6  C   UNL     1      -3.257   0.666  -0.372  0.00  0.00    +0.045 C 
ATOM      7  C   UNL     1       3.347   0.431  -0.117  0.00  0.00    +0.009 C 
ATOM      8  C   UNL     1       0.521   0.827  -0.171  0.00  0.00    -0.013 C 
ATOM      9  C   UNL     1       0.964  -0.450   0.001  0.00  0.00    +0.007 C 
ATOM     10  C   UNL     1       4.909   0.251  -0.035  0.00  0.00    +0.025 C 
ATOM     11  C   UNL     1      -1.551  -1.278  -0.233  0.00  0.00    +0.070 C 
ATOM     12  C   UNL     1       2.835   1.731   0.511  0.00  0.00    +0.034 C 
ATOM     13  C   UNL     1      -3.120   2.199  -0.339  0.00  0.00    +0.068 C 
ATOM     14  C   UNL     1       1.403   2.032   0.065  0.00  0.00    +0.129 C 
ATOM     15  C   UNL     1      -1.632   2.412  -0.562  0.00  0.00    +0.153 C 
ATOM     16  C   UNL     1       2.981  -2.049  -0.367  0.00  0.00    +0.007 C 
ATOM     17  C   UNL     1      -0.058  -1.581  -0.112  0.00  0.00    +0.169 C 
ATOM     18  C   UNL     1       5.290  -1.084  -0.730  0.00  0.00    +0.110 C 
ATOM     19  C   UNL     1      -1.746   0.352   1.656  0.00  0.00    +0.001 C 
ATOM     20  C   UNL     1      -0.832   0.849  -2.233  0.00  0.00    +0.012 C 
ATOM     21  C   UNL     1       4.484  -2.270  -0.225  0.00  0.00    +0.030 C 
ATOM     22  C   UNL     1       2.446  -1.033   1.879  0.00  0.00    +0.004 C 
ATOM     23  C   UNL     1       5.481   0.326   1.396  0.00  0.00    +0.002 C 
ATOM     24  C   UNL     1       5.607   1.391  -0.830  0.00  0.00    +0.002 C 
ENDROOT
BRANCH   6  27
ATOM     25  O   UNL     1      -4.243  -1.191   0.812  0.00  0.00    -0.456 OA
ATOM     26  O   UNL     1      -4.786  -3.258  -0.022  0.00  0.00    -0.250 OA
ATOM     27  C   UNL     1      -4.471   0.175   0.421  0.00  0.00    +0.137 C 
ATOM     28  C   UNL     1      -5.733   0.109  -0.423  0.00  0.00    +0.052 C 
ATOM     29  C   UNL     1      -4.665   1.020   1.676  0.00  0.00    +0.044 C 
ATOM     30  C   UNL     1      -5.641  -1.252  -1.076  0.00  0.00    +0.113 C 
ATOM     31  C   UNL     1      -4.871  -2.040  -0.059  0.00  0.00    +0.317 C 
ENDBRANCH   6  27
BRANCH  14  32
ATOM     32  O   UNL     1       0.819   2.850   1.079  0.00  0.00    -0.380 OA
ATOM     33  H   UNL     1      -0.095   3.065   0.835  0.00  0.00    +0.211 HD
ENDBRANCH  14  32
BRANCH  18  34
ATOM     34  O   UNL     1       6.679  -1.363  -0.556  0.00  0.00    -0.384 OA
ATOM     35  H   UNL     1       7.202  -0.611  -0.876  0.00  0.00    +0.210 HD
ENDBRANCH  18  34
TORSDOF 3
