REMARK  Name = 125142
REMARK  11 active torsions:
REMARK  status: ('A' for Active; 'I' for Inactive)
REMARK    1  A    between atoms: C_2  and  C_11
REMARK    2  A    between atoms: C_7  and  O_23
REMARK    3  A    between atoms: C_12  and  O_17
REMARK    4  A    between atoms: C_14  and  O_19
REMARK    5  A    between atoms: C_16  and  O_21
REMARK    6  A    between atoms: O_23  and  C_29
REMARK    7  A    between atoms: C_25  and  O_30
REMARK    8  A    between atoms: C_26  and  O_32
REMARK    9  A    between atoms: C_27  and  O_34
REMARK   10  A    between atoms: C_28  and  C_36
REMARK   11  A    between atoms: C_36  and  O_37
REMARK                            x       y       z     vdW  Elec       q    Type
REMARK                         _______ _______ _______ _____ _____    ______ ____
ROOT
ATOM      1  O   UNL     1      -1.243   2.068   1.515  0.00  0.00    -0.475 OA
ATOM      2  C   UNL     1      -2.979   2.270  -0.234  0.00  0.00    +0.074 C 
ATOM      3  C   UNL     1      -1.916   2.630  -1.285  0.00  0.00    +0.038 C 
ATOM      4  C   UNL     1      -0.517   2.380  -0.792  0.00  0.00    +0.012 C 
ATOM      5  C   UNL     1      -2.468   2.709   1.145  0.00  0.00    +0.210 C 
ATOM      6  C   UNL     1      -0.261   2.126   0.561  0.00  0.00    +0.138 C 
ATOM      7  C   UNL     1       2.099   1.896   0.089  0.00  0.00    +0.144 C 
ATOM      8  C   UNL     1       1.041   1.869   0.997  0.00  0.00    +0.074 C 
ATOM      9  C   UNL     1       0.555   2.416  -1.693  0.00  0.00    +0.002 C 
ATOM     10  C   UNL     1       1.857   2.174  -1.254  0.00  0.00    +0.037 C 
ENDROOT
BRANCH   2  11
ATOM     11  C   UNL     1      -3.451   0.821  -0.210  0.00  0.00    +0.018 C 
ATOM     12  C   UNL     1      -4.758   0.501   0.162  0.00  0.00    +0.167 C 
ATOM     13  C   UNL     1      -2.562  -0.193  -0.568  0.00  0.00    +0.002 C 
ATOM     14  C   UNL     1      -5.173  -0.830   0.177  0.00  0.00    +0.205 C 
ATOM     15  C   UNL     1      -2.978  -1.524  -0.553  0.00  0.00    +0.040 C 
ATOM     16  C   UNL     1      -4.283  -1.843  -0.181  0.00  0.00    +0.175 C 
BRANCH  12  17
ATOM     17  O   UNL     1      -5.630   1.489   0.515  0.00  0.00    -0.503 OA
ATOM     18  H   UNL     1      -5.353   2.384   0.506  0.00  0.00    +0.292 HD
ENDBRANCH  12  17
BRANCH  14  19
ATOM     19  O   UNL     1      -6.449  -1.143   0.543  0.00  0.00    -0.465 OA
ATOM     20  C   UNL     1      -7.251  -1.821  -0.421  0.00  0.00    +0.253 C 
ENDBRANCH  14  19
BRANCH  16  21
ATOM     21  O   UNL     1      -4.677  -3.147  -0.169  0.00  0.00    -0.468 OA
ATOM     22  C   UNL     1      -4.492  -3.868   1.047  0.00  0.00    +0.253 C 
ENDBRANCH  16  21
ENDBRANCH   2  11
BRANCH   7  23
ATOM     23  O   UNL     1       3.370   1.649   0.516  0.00  0.00    -0.450 OA
BRANCH  23  29
ATOM     24  O   UNL     1       3.296  -0.657   0.169  0.00  0.00    -0.316 OA
ATOM     25  C   UNL     1       6.162  -0.821   0.076  0.00  0.00    +0.173 C 
ATOM     26  C   UNL     1       5.274  -2.058   0.206  0.00  0.00    +0.169 C 
ATOM     27  C   UNL     1       5.431   0.438   0.545  0.00  0.00    +0.210 C 
ATOM     28  C   UNL     1       3.900  -1.809  -0.421  0.00  0.00    +0.177 C 
ATOM     29  C   UNL     1       4.038   0.536  -0.076  0.00  0.00    +0.318 C 
BRANCH  25  30
ATOM     30  O   UNL     1       7.324  -1.024   0.881  0.00  0.00    -0.379 OA
ATOM     31  H   UNL     1       7.788  -1.822   0.583  0.00  0.00    +0.211 HD
ENDBRANCH  25  30
BRANCH  26  32
ATOM     32  O   UNL     1       5.899  -3.158  -0.449  0.00  0.00    -0.379 OA
ATOM     33  H   UNL     1       6.770  -3.318  -0.053  0.00  0.00    +0.211 HD
ENDBRANCH  26  32
BRANCH  27  34
ATOM     34  O   UNL     1       6.177   1.591   0.157  0.00  0.00    -0.377 OA
ATOM     35  H   UNL     1       7.066   1.547   0.542  0.00  0.00    +0.211 HD
ENDBRANCH  27  34
BRANCH  28  36
ATOM     36  C   UNL     1       2.957  -2.987  -0.200  0.00  0.00    +0.169 C 
BRANCH  36  37
ATOM     37  O   UNL     1       1.708  -2.683  -0.795  0.00  0.00    -0.379 OA
ATOM     38  H   UNL     1       1.097  -3.424  -0.663  0.00  0.00    +0.211 HD
ENDBRANCH  36  37
ENDBRANCH  28  36
ENDBRANCH  23  29
ENDBRANCH   7  23
TORSDOF 11
