REMARK  Name = 125136
REMARK  8 active torsions:
REMARK  status: ('A' for Active; 'I' for Inactive)
REMARK    1  A    between atoms: P_1  and  O_25
REMARK    2  A    between atoms: C_7  and  O_27
REMARK    3  A    between atoms: C_9  and  N_13
REMARK    4  A    between atoms: C_20  and  C_22
REMARK    5  A    between atoms: C_22  and  C_23
REMARK    6  A    between atoms: O_27  and  C_29
REMARK    7  A    between atoms: C_29  and  C_30
REMARK    8  A    between atoms: C_30  and  C_31
REMARK                            x       y       z     vdW  Elec       q    Type
REMARK                         _______ _______ _______ _____ _____    ______ ____
ROOT
ATOM      1  P   UNL     1       3.010  -3.547   0.770  0.00  0.00    +0.477 P 
ATOM      2  O   UNL     1       1.166  -0.757  -1.978  0.00  0.00    -0.331 OA
ATOM      3  O   UNL     1       2.835  -1.937   0.949  0.00  0.00    -0.269 OA
ATOM      4  O   UNL     1       2.913  -3.799  -0.834  0.00  0.00    -0.271 OA
ATOM      5  O   UNL     1       4.238  -4.110   1.424  0.00  0.00    -0.227 OA
ATOM      6  C   UNL     1       1.820  -1.347   0.170  0.00  0.00    +0.200 C 
ATOM      7  C   UNL     1       1.736   0.161   0.172  0.00  0.00    +0.246 C 
ATOM      8  C   UNL     1       2.081  -1.612  -1.297  0.00  0.00    +0.179 C 
ATOM      9  C   UNL     1       0.978   0.412  -1.140  0.00  0.00    +0.250 C 
ATOM     10  C   UNL     1       1.934  -3.090  -1.596  0.00  0.00    +0.186 C 
ENDROOT
BRANCH   9  13
ATOM     11  O   UNL     1      -0.250   2.896  -0.856  0.00  0.00    -0.193 OA
ATOM     12  O   UNL     1      -4.740  -0.935   0.785  0.00  0.00    -0.275 OA
ATOM     13  N   UNL     1      -0.433   0.593  -0.930  0.00  0.00    -0.177 N 
ATOM     14  N   UNL     1      -2.338   2.037  -0.594  0.00  0.00    -0.305 NA
ATOM     15  N   UNL     1      -4.423   1.080  -0.337  0.00  0.00    -0.259 N 
ATOM     16  C   UNL     1      -1.275  -0.510  -0.858  0.00  0.00    +0.084 C 
ATOM     17  C   UNL     1      -0.973   1.900  -0.796  0.00  0.00    +0.276 C 
ATOM     18  C   UNL     1      -2.590  -0.407  -0.665  0.00  0.00    +0.066 C 
ATOM     19  C   UNL     1      -3.072   0.976  -0.536  0.00  0.00    +0.201 C 
ATOM     20  C   UNL     1      -5.175   0.112   0.314  0.00  0.00    +0.228 C 
ATOM     21  H   UNL     1      -4.885   1.882  -0.673  0.00  0.00    +0.157 HD
BRANCH  20  22
ATOM     22  C   UNL     1      -6.639   0.511   0.378  0.00  0.00    +0.085 C 
BRANCH  22  23
ATOM     23  C   UNL     1      -7.496  -0.532   1.089  0.00  0.00    +0.010 C 
ATOM     24  C   UNL     1      -8.950  -0.096   1.171  0.00  0.00    +0.001 C 
ENDBRANCH  22  23
ENDBRANCH  20  22
ENDBRANCH   9  13
BRANCH   1  25
ATOM     25  O   UNL     1       1.620  -4.151   1.341  0.00  0.00    -0.302 OA
ATOM     26  H   UNL     1       0.874  -3.743   0.874  0.00  0.00    +0.222 HD
ENDBRANCH   1  25
BRANCH   7  27
ATOM     27  O   UNL     1       3.031   0.746   0.073  0.00  0.00    -0.445 OA
BRANCH  27  29
ATOM     28  O   UNL     1       2.257   2.658   1.105  0.00  0.00    -0.250 OA
ATOM     29  C   UNL     1       3.154   2.010   0.584  0.00  0.00    +0.317 C 
BRANCH  29  30
ATOM     30  C   UNL     1       4.578   2.483   0.400  0.00  0.00    +0.110 C 
BRANCH  30  31
ATOM     31  C   UNL     1       4.782   3.901   0.926  0.00  0.00    +0.012 C 
ATOM     32  C   UNL     1       6.224   4.353   0.765  0.00  0.00    +0.001 C 
ENDBRANCH  30  31
ENDBRANCH  29  30
ENDBRANCH  27  29
ENDBRANCH   7  27
TORSDOF 8
