REMARK  Name = 125160
REMARK  7 active torsions:
REMARK  status: ('A' for Active; 'I' for Inactive)
REMARK    1  A    between atoms: N_1  and  C_13
REMARK    2  A    between atoms: C_13  and  C_14
REMARK    3  A    between atoms: C_14  and  O_15
REMARK    4  A    between atoms: C_14  and  C_18
REMARK    5  A    between atoms: C_18  and  O_19
REMARK    6  A    between atoms: O_19  and  C_20
REMARK    7  A    between atoms: C_20  and  C_22
REMARK                            x       y       z     vdW  Elec       q    Type
REMARK                         _______ _______ _______ _____ _____    ______ ____
ROOT
ATOM      1  N   UNL     1       1.021   0.755   0.472  0.00  0.00    -0.269 N 
ATOM      2  N   UNL     1       3.065   1.591   0.571  0.00  0.00    -0.242 NA
ATOM      3  N   UNL     1       1.510  -1.537  -0.150  0.00  0.00    -0.228 NA
ATOM      4  N   UNL     1       3.916  -1.881  -0.377  0.00  0.00    -0.229 NA
ATOM      5  C   UNL     1       1.842  -0.275   0.158  0.00  0.00    +0.151 C 
ATOM      6  C   UNL     1       3.117   0.265   0.225  0.00  0.00    +0.140 C 
ATOM      7  C   UNL     1       1.783   1.854   0.712  0.00  0.00    +0.221 C 
ATOM      8  C   UNL     1       4.177  -0.591  -0.057  0.00  0.00    +0.143 C 
ATOM      9  C   UNL     1       2.617  -2.268  -0.403  0.00  0.00    +0.253 C 
ATOM     10  N   UNL     1       5.504  -0.129  -0.011  0.00  0.00    -0.342 N 
ATOM     11  H   UNL     1       6.246  -0.743  -0.213  0.00  0.00    +0.144 HD
ATOM     12  H   UNL     1       5.691   0.809   0.222  0.00  0.00    +0.144 HD
ENDROOT
BRANCH   1  13
ATOM     13  C   UNL     1      -0.439   0.706   0.543  0.00  0.00    +0.135 C 
BRANCH  13  14
ATOM     14  C   UNL     1      -1.095   1.039  -0.796  0.00  0.00    +0.230 C 
BRANCH  14  15
ATOM     15  O   UNL     1      -0.734   2.364  -1.165  0.00  0.00    -0.373 OA
ATOM     16  H   UNL     1       0.231   2.426  -1.243  0.00  0.00    +0.211 HD
ENDBRANCH  14  15
BRANCH  14  18
ATOM     17  O   UNL     1      -3.348   1.948  -0.832  0.00  0.00    -0.247 OA
ATOM     18  C   UNL     1      -2.606   0.986  -0.685  0.00  0.00    +0.346 C 
BRANCH  18  19
ATOM     19  O   UNL     1      -2.997  -0.285  -0.374  0.00  0.00    -0.451 OA
BRANCH  19  20
ATOM     20  C   UNL     1      -4.188  -0.388   0.414  0.00  0.00    +0.169 C 
ATOM     21  C   UNL     1      -3.978   0.360   1.723  0.00  0.00    +0.047 C 
BRANCH  20  22
ATOM     22  C   UNL     1      -4.497  -1.866   0.664  0.00  0.00    +0.044 C 
ATOM     23  C   UNL     1      -4.672  -2.646  -0.632  0.00  0.00    +0.004 C 
ENDBRANCH  20  22
ENDBRANCH  19  20
ENDBRANCH  18  19
ENDBRANCH  14  18
ENDBRANCH  13  14
ENDBRANCH   1  13
TORSDOF 7
