REMARK  Name = 125152
REMARK  4 active torsions:
REMARK  status: ('A' for Active; 'I' for Inactive)
REMARK    1  A    between atoms: C_9  and  O_21
REMARK    2  A    between atoms: C_10  and  O_23
REMARK    3  A    between atoms: C_13  and  O_25
REMARK    4  A    between atoms: C_18  and  O_27
REMARK                            x       y       z     vdW  Elec       q    Type
REMARK                         _______ _______ _______ _____ _____    ______ ____
ROOT
ATOM      1  O   UNL     1      -1.569   2.245   0.198  0.00  0.00    -0.286 OA
ATOM      2  O   UNL     1      -0.721  -3.021  -0.085  0.00  0.00    -0.286 OA
ATOM      3  C   UNL     1       0.017   0.511   0.076  0.00  0.00    +0.079 A 
ATOM      4  C   UNL     1       0.245  -0.861   0.001  0.00  0.00    +0.079 A 
ATOM      5  C   UNL     1      -2.495   0.094   0.108  0.00  0.00    +0.076 C 
ATOM      6  C   UNL     1       2.651  -0.470  -0.029  0.00  0.00    +0.040 A 
ATOM      7  C   UNL     1       2.420   0.923   0.048  0.00  0.00    +0.037 A 
ATOM      8  C   UNL     1      -2.267  -1.282   0.034  0.00  0.00    +0.045 C 
ATOM      9  C   UNL     1       1.099   1.400   0.100  0.00  0.00    +0.137 A 
ATOM     10  C   UNL     1       1.556  -1.350  -0.051  0.00  0.00    +0.137 A 
ATOM     11  C   UNL     1      -1.362   1.041   0.132  0.00  0.00    +0.202 C 
ATOM     12  C   UNL     1      -0.888  -1.810  -0.022  0.00  0.00    +0.199 C 
ATOM     13  C   UNL     1      -3.807   0.582   0.159  0.00  0.00    +0.142 C 
ATOM     14  C   UNL     1       3.972  -0.944  -0.081  0.00  0.00    +0.040 C 
ATOM     15  C   UNL     1       3.516   1.801   0.070  0.00  0.00    +0.006 C 
ATOM     16  C   UNL     1      -3.349  -2.169   0.012  0.00  0.00    +0.003 C 
ATOM     17  C   UNL     1      -4.882  -0.306   0.137  0.00  0.00    +0.037 C 
ATOM     18  C   UNL     1       5.049  -0.058  -0.058  0.00  0.00    +0.134 C 
ATOM     19  C   UNL     1      -4.654  -1.679   0.063  0.00  0.00    +0.003 C 
ATOM     20  C   UNL     1       4.822   1.313   0.018  0.00  0.00    +0.037 C 
ENDROOT
BRANCH   9  21
ATOM     21  O   UNL     1       0.899   2.752   0.174  0.00  0.00    -0.505 OA
ATOM     22  H   UNL     1       0.028   3.095   0.210  0.00  0.00    +0.292 HD
ENDBRANCH   9  21
BRANCH  10  23
ATOM     23  O   UNL     1       1.800  -2.695  -0.124  0.00  0.00    -0.505 OA
ATOM     24  H   UNL     1       1.084  -3.300  -0.140  0.00  0.00    +0.292 HD
ENDBRANCH  10  23
BRANCH  13  25
ATOM     25  O   UNL     1      -4.103   1.911   0.232  0.00  0.00    -0.471 OA
ATOM     26  C   UNL     1      -4.270   2.605  -1.002  0.00  0.00    +0.252 C 
ENDBRANCH  13  25
BRANCH  18  27
ATOM     27  O   UNL     1       6.324  -0.534  -0.108  0.00  0.00    -0.506 OA
ATOM     28  H   UNL     1       6.477  -1.457  -0.159  0.00  0.00    +0.292 HD
ENDBRANCH  18  27
TORSDOF 4
