REMARK  Name = 125172
REMARK  7 active torsions:
REMARK  status: ('A' for Active; 'I' for Inactive)
REMARK    1  A    between atoms: C_2  and  O_7
REMARK    2  A    between atoms: C_3  and  O_9
REMARK    3  A    between atoms: C_4  and  O_11
REMARK    4  A    between atoms: C_5  and  C_14
REMARK    5  A    between atoms: C_6  and  O_17
REMARK    6  A    between atoms: C_14  and  O_15
REMARK    7  A    between atoms: O_17  and  C_22
REMARK                            x       y       z     vdW  Elec       q    Type
REMARK                         _______ _______ _______ _____ _____    ______ ____
ROOT
ATOM      1  O   UNL     1       0.708  -0.252   0.525  0.00  0.00    -0.317 OA
ATOM      2  C   UNL     1       2.067   2.093  -0.427  0.00  0.00    +0.172 C 
ATOM      3  C   UNL     1       2.807   0.792  -0.115  0.00  0.00    +0.178 C 
ATOM      4  C   UNL     1       0.729   2.165   0.309  0.00  0.00    +0.197 C 
ATOM      5  C   UNL     1       1.879  -0.407  -0.268  0.00  0.00    +0.245 C 
ATOM      6  C   UNL     1      -0.071   0.874   0.129  0.00  0.00    +0.268 C 
ENDROOT
BRANCH   2   7
ATOM      7  O   UNL     1       2.896   3.182  -0.017  0.00  0.00    -0.379 OA
ATOM      8  H   UNL     1       3.745   3.136  -0.485  0.00  0.00    +0.211 HD
ENDBRANCH   2   7
BRANCH   3   9
ATOM      9  O   UNL     1       3.897   0.646  -1.024  0.00  0.00    -0.379 OA
ATOM     10  H   UNL     1       4.496   1.404  -0.936  0.00  0.00    +0.211 HD
ENDBRANCH   3   9
BRANCH   4  11
ATOM     11  O   UNL     1      -0.042   3.246  -0.214  0.00  0.00    -0.378 OA
ATOM     12  H   UNL     1       0.451   4.075  -0.109  0.00  0.00    +0.211 HD
ENDBRANCH   4  11
BRANCH   5  14
ATOM     13  O   UNL     1       2.066  -2.269   1.241  0.00  0.00    -0.247 OA
ATOM     14  C   UNL     1       2.508  -1.644   0.286  0.00  0.00    +0.347 C 
BRANCH  14  15
ATOM     15  O   UNL     1       3.626  -1.948  -0.433  0.00  0.00    -0.443 OA
ATOM     16  C   UNL     1       4.332  -3.118  -0.007  0.00  0.00    +0.256 C 
ENDBRANCH  14  15
ENDBRANCH   5  14
BRANCH   6  17
ATOM     17  O   UNL     1      -1.239   0.964   0.944  0.00  0.00    -0.305 OA
BRANCH  17  22
ATOM     18  F   UNL     1      -3.715   2.127   0.200  0.00  0.00    -0.203 F 
ATOM     19  O   UNL     1      -2.863  -3.122  -0.431  0.00  0.00    -0.206 OA
ATOM     20  N   UNL     1      -2.087  -1.086   0.241  0.00  0.00    -0.233 N 
ATOM     21  N   UNL     1      -4.288  -1.342  -0.656  0.00  0.00    -0.160 NA
ATOM     22  C   UNL     1      -2.269   0.260   0.418  0.00  0.00    +0.254 C 
ATOM     23  C   UNL     1      -3.423   0.824   0.075  0.00  0.00    +0.185 C 
ATOM     24  C   UNL     1      -3.077  -1.916  -0.293  0.00  0.00    +0.214 C 
ATOM     25  C   UNL     1      -4.443  -0.069  -0.483  0.00  0.00    +0.142 C 
ATOM     26  H   UNL     1      -1.225  -1.485   0.501  0.00  0.00    +0.162 HD
ENDBRANCH  17  22
ENDBRANCH   6  17
TORSDOF 7
