REMARK  Name = 125137
REMARK  8 active torsions:
REMARK  status: ('A' for Active; 'I' for Inactive)
REMARK    1  A    between atoms: S_1  and  C_3
REMARK    2  A    between atoms: S_1  and  C_13
REMARK    3  A    between atoms: C_7  and  C_10
REMARK    4  A    between atoms: C_10  and  O_11
REMARK    5  A    between atoms: C_13  and  C_14
REMARK    6  A    between atoms: C_14  and  N_15
REMARK    7  A    between atoms: C_14  and  C_20
REMARK    8  A    between atoms: C_20  and  O_21
REMARK                            x       y       z     vdW  Elec       q    Type
REMARK                         _______ _______ _______ _____ _____    ______ ____
ROOT
ATOM      1  S   UNK     1       0.724   0.185   0.406  0.00  0.00    -0.137 S 
ENDROOT
BRANCH   1   3
ATOM      2  N   UNK     1      -2.671   1.115   0.355  0.00  0.00    -0.289 N 
ATOM      3  C   UNK     1      -0.613   0.718  -0.703  0.00  0.00    +0.085 C 
ATOM      4  C   UNK     1      -0.874   2.248  -0.586  0.00  0.00    +0.038 C 
ATOM      5  C   UNK     1      -1.915   0.164  -0.267  0.00  0.00    +0.037 C 
ATOM      6  C   UNK     1      -2.021   2.409   0.432  0.00  0.00    +0.097 C 
ATOM      7  C   UNK     1      -2.641  -0.998  -0.291  0.00  0.00    +0.019 C 
ATOM      8  C   UNK     1      -3.866   0.629   0.745  0.00  0.00    +0.065 C 
ATOM      9  C   UNK     1      -3.881  -0.702   0.357  0.00  0.00    +0.015 C 
BRANCH   7  10
ATOM     10  C   UNK     1      -2.234  -2.291  -0.868  0.00  0.00    +0.165 C 
BRANCH  10  11
ATOM     11  O   UNK     1      -1.560  -3.126   0.079  0.00  0.00    -0.377 OA
ATOM     12  H   UNK     1      -1.313  -3.963  -0.346  0.00  0.00    +0.211 HD
ENDBRANCH  10  11
ENDBRANCH   7  10
ENDBRANCH   1   3
BRANCH   1  13
ATOM     13  C   UNK     1       2.096   1.026  -0.417  0.00  0.00    +0.047 C 
BRANCH  13  14
ATOM     14  C   UNK     1       3.438   0.718   0.250  0.00  0.00    +0.047 C 
BRANCH  14  15
ATOM     15  N   UNK     1       4.520   1.399  -0.463  0.00  0.00    +0.389 N 
ATOM     16  H   UNK     1       4.337   2.403  -0.481  0.00  0.00    -0.088 HD
ATOM     17  H   UNK     1       4.572   1.046  -1.419  0.00  0.00    -0.088 HD
ATOM     18  H   UNK     1       5.405   1.223   0.013  0.00  0.00    -0.088 HD
ENDBRANCH  14  15
BRANCH  14  20
ATOM     19  O   UNK     1       3.814  -1.442  -0.770  0.00  0.00    -0.253 OA
ATOM     20  C   UNK     1       3.754  -0.766   0.250  0.00  0.00    +0.294 C 
BRANCH  20  21
ATOM     21  O   UNK     1       3.930  -1.288   1.490  0.00  0.00    -0.482 OA
ATOM     22  H   UNK     1       3.875  -0.734   2.244  0.00  0.00    +0.295 HD
ENDBRANCH  20  21
ENDBRANCH  14  20
ENDBRANCH  13  14
ENDBRANCH   1  13
TORSDOF 8
