REMARK  Name = 125104
REMARK  10 active torsions:
REMARK  status: ('A' for Active; 'I' for Inactive)
REMARK    1  A    between atoms: C_1  and  N_4
REMARK    2  A    between atoms: C_1  and  C_22
REMARK    3  A    between atoms: C_5  and  C_7
REMARK    4  A    between atoms: C_7  and  N_8
REMARK    5  A    between atoms: C_7  and  C_12
REMARK    6  A    between atoms: C_12  and  C_13
REMARK    7  A    between atoms: C_13  and  C_14
REMARK    8  A    between atoms: C_14  and  C_15
REMARK    9  A    between atoms: C_15  and  N_16
REMARK   10  A    between atoms: N_21  and  C_26
REMARK                            x       y       z     vdW  Elec       q    Type
REMARK                         _______ _______ _______ _____ _____    ______ ____
ROOT
ATOM      1  C   UNL     1      -2.278   2.457   0.692  0.00  0.00    +0.149 C 
ATOM      2  C   UNL     1      -2.307   3.431   1.859  0.00  0.00    +0.031 C 
ENDROOT
BRANCH   1   4
ATOM      3  O   UNL     1      -3.595   1.256  -1.584  0.00  0.00    -0.277 OA
ATOM      4  N   UNL     1      -3.438   1.595   0.708  0.00  0.00    -0.300 N 
ATOM      5  C   UNL     1      -4.005   1.061  -0.441  0.00  0.00    +0.202 C 
ATOM      6  H   UNL     1      -3.845   1.375   1.576  0.00  0.00    +0.150 HD
BRANCH   5   7
ATOM      7  C   UNL     1      -5.202   0.168  -0.129  0.00  0.00    +0.013 C 
BRANCH   7   8
ATOM      8  N   UNL     1      -6.375   0.758  -0.771  0.00  0.00    +0.387 N 
ATOM      9  H   UNL     1      -7.194   0.182  -0.579  0.00  0.00    -0.089 HD
ATOM     10  H   UNL     1      -6.222   0.809  -1.778  0.00  0.00    -0.089 HD
ATOM     11  H   UNL     1      -6.527   1.698  -0.403  0.00  0.00    -0.089 HD
ENDBRANCH   7   8
BRANCH   7  12
ATOM     12  C   UNL     1      -4.921  -1.257  -0.630  0.00  0.00    -0.013 C 
BRANCH  12  13
ATOM     13  C   UNL     1      -3.708  -1.909   0.042  0.00  0.00    -0.004 C 
BRANCH  13  14
ATOM     14  C   UNL     1      -3.496  -3.338  -0.464  0.00  0.00    -0.024 C 
BRANCH  14  15
ATOM     15  C   UNL     1      -2.265  -3.975   0.178  0.00  0.00    -0.086 C 
BRANCH  15  16
ATOM     16  N   UNL     1      -2.070  -5.327  -0.332  0.00  0.00    +0.380 N 
ATOM     17  H   UNL     1      -1.246  -5.740   0.105  0.00  0.00    -0.089 HD
ATOM     18  H   UNL     1      -1.938  -5.293  -1.342  0.00  0.00    -0.089 HD
ATOM     19  H   UNL     1      -2.890  -5.894  -0.114  0.00  0.00    -0.089 HD
ENDBRANCH  15  16
ENDBRANCH  14  15
ENDBRANCH  13  14
ENDBRANCH  12  13
ENDBRANCH   7  12
ENDBRANCH   5   7
ENDBRANCH   1   4
BRANCH   1  22
ATOM     20  O   UNL     1      -0.999   0.526   1.366  0.00  0.00    -0.273 OA
ATOM     21  N   UNL     1       0.025   2.173   0.044  0.00  0.00    -0.282 N 
ATOM     22  C   UNL     1      -1.026   1.583   0.741  0.00  0.00    +0.244 C 
ATOM     23  H   UNL     1      -0.165   3.044  -0.374  0.00  0.00    +0.155 HD
BRANCH  21  26
ATOM     24  O   UNL     1       3.293  -1.282   0.819  0.00  0.00    -0.421 OA
ATOM     25  O   UNL     1       4.823  -2.938   1.202  0.00  0.00    -0.244 OA
ATOM     26  C   UNL     1       1.335   1.669  -0.132  0.00  0.00    +0.053 C 
ATOM     27  C   UNL     1       3.949   0.672  -0.492  0.00  0.00    +0.031 C 
ATOM     28  C   UNL     1       2.990  -0.036   0.235  0.00  0.00    +0.150 C 
ATOM     29  C   UNL     1       1.693   0.444   0.422  0.00  0.00    +0.052 C 
ATOM     30  C   UNL     1       2.272   2.397  -0.863  0.00  0.00    +0.015 C 
ATOM     31  C   UNL     1       5.291   0.091  -0.639  0.00  0.00    -0.012 C 
ATOM     32  C   UNL     1       3.569   1.903  -1.042  0.00  0.00    +0.004 C 
ATOM     33  C   UNL     1       5.550  -1.096  -0.072  0.00  0.00    +0.078 C 
ATOM     34  C   UNL     1       6.344   0.827  -1.415  0.00  0.00    +0.031 C 
ATOM     35  C   UNL     1       4.549  -1.854   0.697  0.00  0.00    +0.346 C 
ENDBRANCH  21  26
ENDBRANCH   1  22
TORSDOF 10
