REMARK  Name = 125175
REMARK  5 active torsions:
REMARK  status: ('A' for Active; 'I' for Inactive)
REMARK    1  A    between atoms: C_1  and  C_17
REMARK    2  A    between atoms: C_4  and  C_8
REMARK    3  A    between atoms: C_8  and  O_9
REMARK    4  A    between atoms: O_9  and  N_12
REMARK    5  A    between atoms: C_17  and  N_20
REMARK                            x       y       z     vdW  Elec       q    Type
REMARK                         _______ _______ _______ _____ _____    ______ ____
ROOT
ATOM      1  C   UNL     1       2.116   0.758   0.429  0.00  0.00    +0.020 C 
ATOM      2  C   UNL     1       1.688  -0.705   0.252  0.00  0.00    +0.002 C 
ATOM      3  C   UNL     1       1.087   1.530   1.265  0.00  0.00    +0.002 C 
ATOM      4  C   UNL     1      -0.737  -0.039   0.491  0.00  0.00    +0.101 C 
ATOM      5  C   UNL     1       0.285  -0.814  -0.341  0.00  0.00    +0.011 C 
ATOM      6  C   UNL     1      -0.317   1.420   0.673  0.00  0.00    +0.011 C 
ENDROOT
BRANCH   4   8
ATOM      7  O   UNL     1      -2.238  -0.152  -1.386  0.00  0.00    -0.248 OA
ATOM      8  C   UNL     1      -2.078  -0.088  -0.175  0.00  0.00    +0.340 C 
BRANCH   8   9
ATOM      9  O   UNL     1      -3.058  -0.047   0.773  0.00  0.00    -0.336 OA
BRANCH   9  12
ATOM     10  O   UNL     1      -4.604  -2.402   0.217  0.00  0.00    -0.267 OA
ATOM     11  O   UNL     1      -4.710   2.204   0.103  0.00  0.00    -0.267 OA
ATOM     12  N   UNL     1      -4.349  -0.091   0.202  0.00  0.00    -0.054 N 
ATOM     13  C   UNL     1      -6.304  -0.923  -0.665  0.00  0.00    +0.066 C 
ATOM     14  C   UNL     1      -6.340   0.607  -0.703  0.00  0.00    +0.066 C 
ATOM     15  C   UNL     1      -4.988  -1.268  -0.024  0.00  0.00    +0.287 C 
ATOM     16  C   UNL     1      -5.041   1.043  -0.081  0.00  0.00    +0.287 C 
ENDBRANCH   9  12
ENDBRANCH   8   9
ENDBRANCH   4   8
BRANCH   1  17
ATOM     17  C   UNL     1       3.501   0.841   1.069  0.00  0.00    +0.101 C 
BRANCH  17  20
ATOM     18  O   UNL     1       4.427  -1.990   1.141  0.00  0.00    -0.269 OA
ATOM     19  O   UNL     1       5.173   1.935  -1.146  0.00  0.00    -0.269 OA
ATOM     20  N   UNL     1       4.481   0.184   0.258  0.00  0.00    -0.223 N 
ATOM     21  C   UNL     1       4.842  -1.143   0.368  0.00  0.00    +0.255 C 
ATOM     22  C   UNL     1       5.206   0.782  -0.751  0.00  0.00    +0.255 C 
ATOM     23  C   UNL     1       5.870  -1.391  -0.654  0.00  0.00    +0.063 C 
ATOM     24  C   UNL     1       6.086  -0.253  -1.315  0.00  0.00    +0.063 C 
ENDBRANCH  17  20
ENDBRANCH   1  17
TORSDOF 5
