REMARK  Name = 125138
REMARK  9 active torsions:
REMARK  status: ('A' for Active; 'I' for Inactive)
REMARK    1  A    between atoms: N_1  and  C1*_14
REMARK    2  A    between atoms: C_9  and  O_23
REMARK    3  A    between atoms: C3*_15  and  O3*_18
REMARK    4  A    between atoms: C4*_17  and  C5*_20
REMARK    5  A    between atoms: C5*_20  and  O5*_21
REMARK    6  A    between atoms: O_23  and  C_24
REMARK    7  A    between atoms: C_24  and  C_25
REMARK    8  A    between atoms: C_25  and  S_26
REMARK    9  A    between atoms: S_26  and  C_27
REMARK                            x       y       z     vdW  Elec       q    Type
REMARK                         _______ _______ _______ _____ _____    ______ ____
ROOT
ATOM      1  N   UNL     1      -1.541   0.025  -0.171  0.00  0.00    -0.238 N 
ATOM      2  N   UNL     1       0.336   1.217  -0.363  0.00  0.00    -0.239 NA
ATOM      3  N   UNL     1      -0.598  -2.211  -0.036  0.00  0.00    -0.311 NA
ATOM      4  N   UNL     1       1.839  -2.157  -0.163  0.00  0.00    -0.289 NA
ATOM      5  N   UNL     1       0.670  -4.175   0.059  0.00  0.00    -0.283 N 
ATOM      6  C   UNL     1      -0.512  -0.876  -0.149  0.00  0.00    +0.223 C 
ATOM      7  C   UNL     1      -0.978   1.269  -0.302  0.00  0.00    +0.224 C 
ATOM      8  C   UNL     1       0.641  -0.118  -0.269  0.00  0.00    +0.190 C 
ATOM      9  C   UNL     1       1.850  -0.806  -0.274  0.00  0.00    +0.311 C 
ATOM     10  C   UNL     1       0.634  -2.766  -0.053  0.00  0.00    +0.200 C 
ATOM     11  H   UNL     1      -0.168  -4.684   0.143  0.00  0.00    +0.156 HD
ATOM     12  H   UNL     1       1.534  -4.647   0.054  0.00  0.00    +0.156 HD
ENDROOT
BRANCH   1  14
ATOM     13  O4* UNL     1      -3.716   0.671  -0.865  0.00  0.00    -0.335 OA
ATOM     14  C1* UNL     1      -2.966  -0.270  -0.076  0.00  0.00    +0.198 C 
ATOM     15  C3* UNL     1      -4.984   0.106   1.073  0.00  0.00    +0.144 C 
ATOM     16  C2* UNL     1      -3.527  -0.201   1.337  0.00  0.00    +0.083 C 
ATOM     17  C4* UNL     1      -4.932   1.001  -0.161  0.00  0.00    +0.173 C 
BRANCH  15  18
ATOM     18  O3* UNL     1      -5.650  -1.113   0.750  0.00  0.00    -0.382 OA
ATOM     19  H3* UNL     1      -5.682  -1.681   1.536  0.00  0.00    +0.210 HD
ENDBRANCH  15  18
BRANCH  17  20
ATOM     20  C5* UNL     1      -4.886   2.482   0.190  0.00  0.00    +0.169 C 
BRANCH  20  21
ATOM     21  O5* UNL     1      -4.829   3.231  -1.011  0.00  0.00    -0.379 OA
ATOM     22  H5* UNL     1      -4.799   4.178  -0.800  0.00  0.00    +0.211 HD
ENDBRANCH  20  21
ENDBRANCH  17  20
ENDBRANCH   1  14
BRANCH   9  23
ATOM     23  O   UNL     1       3.059  -0.170  -0.387  0.00  0.00    -0.449 OA
BRANCH  23  24
ATOM     24  C   UNL     1       4.218  -0.993  -0.378  0.00  0.00    +0.220 C 
BRANCH  24  25
ATOM     25  C   UNL     1       5.462  -0.146  -0.596  0.00  0.00    +0.105 C 
BRANCH  25  26
ATOM     26  S   UNL     1       5.645   1.113   0.704  0.00  0.00    -0.136 S 
BRANCH  26  27
ATOM     27  C   UNL     1       7.172   1.877   0.112  0.00  0.00    +0.058 C 
ATOM     28  C   UNL     1       7.592   3.009   1.030  0.00  0.00    +0.013 C 
ENDBRANCH  26  27
ENDBRANCH  25  26
ENDBRANCH  24  25
ENDBRANCH  23  24
ENDBRANCH   9  23
TORSDOF 9
