REMARK  Name = 125102
REMARK  15 active torsions:
REMARK  status: ('A' for Active; 'I' for Inactive)
REMARK    1  A    between atoms: CA_1  and  N_3
REMARK    2  A    between atoms: CA_1  and  C_19
REMARK    3  A    between atoms: CA_1  and  CB_26
REMARK    4  A    between atoms: C_4  and  C_6
REMARK    5  A    between atoms: C_6  and  C_7
REMARK    6  A    between atoms: C_7  and  CA_8
REMARK    7  A    between atoms: CA_8  and  N_9
REMARK    8  A    between atoms: CA_8  and  C_14
REMARK    9  A    between atoms: C_14  and  O_15
REMARK   10  A    between atoms: N_18  and  CA_21
REMARK   11  A    between atoms: CA_21  and  C_23
REMARK   12  A    between atoms: C_23  and  O_24
REMARK   13  A    between atoms: CB_26  and  SG_27
REMARK   14  A    between atoms: SG_27  and  C_28
REMARK   15  A    between atoms: C_28  and  C_30
REMARK                            x       y       z     vdW  Elec       q    Type
REMARK                         _______ _______ _______ _____ _____    ______ ____
ROOT
ATOM      1  CA  UNL     1       0.751  -1.037  -0.935  0.00  0.00    +0.159 C 
ENDROOT
BRANCH   1   3
ATOM      2  O   UNL     1      -1.865  -1.027  -2.152  0.00  0.00    -0.275 OA
ATOM      3  N   UNL     1      -0.521  -0.927  -0.260  0.00  0.00    -0.298 N 
ATOM      4  C   UNL     1      -1.734  -0.932  -0.935  0.00  0.00    +0.223 C 
ATOM      5  H   UNL     1      -0.529  -0.846   0.721  0.00  0.00    +0.150 HD
BRANCH   4   6
ATOM      6  C   UNL     1      -2.906  -0.793   0.022  0.00  0.00    +0.083 C 
BRANCH   6   7
ATOM      7  C   UNL     1      -4.253  -0.796  -0.702  0.00  0.00    -0.001 C 
BRANCH   7   8
ATOM      8  CA  UNL     1      -5.446  -0.730   0.259  0.00  0.00    +0.036 C 
BRANCH   8   9
ATOM      9  N   UNL     1      -6.694  -0.737  -0.508  0.00  0.00    +0.389 N 
ATOM     10  H1  UNL     1      -6.745  -1.588  -1.067  0.00  0.00    -0.088 HD
ATOM     11  H2  UNL     1      -6.718   0.076  -1.124  0.00  0.00    -0.088 HD
ATOM     12  H3  UNL     1      -7.487  -0.702   0.132  0.00  0.00    -0.088 HD
ENDBRANCH   8   9
BRANCH   8  14
ATOM     13  OXT UNL     1      -5.922   1.619   0.696  0.00  0.00    -0.253 OA
ATOM     14  C   UNL     1      -5.436   0.557   1.063  0.00  0.00    +0.293 C 
BRANCH  14  15
ATOM     15  O   UNL     1      -4.793   0.417   2.251  0.00  0.00    -0.482 OA
ATOM     16  H   UNL     1      -4.434  -0.414   2.495  0.00  0.00    +0.295 HD
ENDBRANCH  14  15
ENDBRANCH   8  14
ENDBRANCH   7   8
ENDBRANCH   6   7
ENDBRANCH   4   6
ENDBRANCH   1   3
BRANCH   1  19
ATOM     17  O   UNL     1       1.432  -2.189   1.090  0.00  0.00    -0.273 OA
ATOM     18  N   UNL     1       2.925  -2.073  -0.683  0.00  0.00    -0.294 N 
ATOM     19  C   ACE A   1       1.712  -1.832  -0.053  0.00  0.00    +0.242 C 
ATOM     20  H   UNL     1       3.053  -1.746  -1.602  0.00  0.00    +0.150 HD
BRANCH  18  21
ATOM     21  CA  UNL     1       4.006  -2.785  -0.043  0.00  0.00    +0.200 C 
BRANCH  21  23
ATOM     22  OXT UNL     1       5.927  -2.280   1.316  0.00  0.00    -0.248 OA
ATOM     23  C   UNL     1       4.942  -1.876   0.712  0.00  0.00    +0.334 C 
BRANCH  23  24
ATOM     24  O   UNL     1       4.587  -0.571   0.660  0.00  0.00    -0.479 OA
ATOM     25  H   UNL     1       3.823  -0.312   0.184  0.00  0.00    +0.295 HD
ENDBRANCH  23  24
ENDBRANCH  21  23
ENDBRANCH  18  21
ENDBRANCH   1  19
BRANCH   1  26
ATOM     26  CB  UNL     1       1.304   0.326  -1.360  0.00  0.00    +0.087 C 
BRANCH  26  27
ATOM     27  SG  UNL     1       1.665   1.440   0.036  0.00  0.00    -0.130 S 
BRANCH  27  28
ATOM     28  C   UNL     1       2.187   2.883  -0.918  0.00  0.00    +0.122 C 
BRANCH  28  30
ATOM     29  O   UNL     1       2.543   4.004   1.205  0.00  0.00    -0.295 OA
ATOM     30  C   UNL     1       2.574   4.043  -0.024  0.00  0.00    +0.162 C 
ATOM     31  C   UNL     1       3.014   5.298  -0.737  0.00  0.00    +0.073 C 
ENDBRANCH  28  30
ENDBRANCH  27  28
ENDBRANCH  26  27
ENDBRANCH   1  26
TORSDOF 15
