125152
  -OEChem-03292013323D

 37 40  0     0  0  0  0  0  0999 V2000
    0.8989    2.7518    0.1744 O   0  0  0  0  0  0  0  0  0  0  0  0
    1.7995   -2.6946   -0.1239 O   0  0  0  0  0  0  0  0  0  0  0  0
   -4.1032    1.9107    0.2318 O   0  0  0  0  0  0  0  0  0  0  0  0
   -1.5690    2.2455    0.1979 O   0  0  0  0  0  0  0  0  0  0  0  0
   -0.7211   -3.0209   -0.0848 O   0  0  0  0  0  0  0  0  0  0  0  0
    6.3235   -0.5339   -0.1084 O   0  0  0  0  0  0  0  0  0  0  0  0
    0.0165    0.5115    0.0764 C   0  0  0  0  0  0  0  0  0  0  0  0
    0.2446   -0.8612    0.0013 C   0  0  0  0  0  0  0  0  0  0  0  0
   -2.4953    0.0937    0.1076 C   0  0  0  0  0  0  0  0  0  0  0  0
    2.6510   -0.4697   -0.0291 C   0  0  0  0  0  0  0  0  0  0  0  0
    2.4196    0.9230    0.0475 C   0  0  0  0  0  0  0  0  0  0  0  0
   -2.2667   -1.2816    0.0337 C   0  0  0  0  0  0  0  0  0  0  0  0
    1.0991    1.3999    0.0996 C   0  0  0  0  0  0  0  0  0  0  0  0
    1.5562   -1.3499   -0.0510 C   0  0  0  0  0  0  0  0  0  0  0  0
   -1.3621    1.0406    0.1324 C   0  0  0  0  0  0  0  0  0  0  0  0
   -0.8884   -1.8095   -0.0216 C   0  0  0  0  0  0  0  0  0  0  0  0
   -3.8065    0.5820    0.1590 C   0  0  0  0  0  0  0  0  0  0  0  0
    3.9722   -0.9441   -0.0813 C   0  0  0  0  0  0  0  0  0  0  0  0
    3.5158    1.8009    0.0701 C   0  0  0  0  0  0  0  0  0  0  0  0
   -3.3492   -2.1692    0.0117 C   0  0  0  0  0  0  0  0  0  0  0  0
   -4.8824   -0.3059    0.1365 C   0  0  0  0  0  0  0  0  0  0  0  0
    5.0494   -0.0578   -0.0582 C   0  0  0  0  0  0  0  0  0  0  0  0
   -4.6543   -1.6786    0.0633 C   0  0  0  0  0  0  0  0  0  0  0  0
    4.8215    1.3125    0.0176 C   0  0  0  0  0  0  0  0  0  0  0  0
   -4.2700    2.6049   -1.0023 C   0  0  0  0  0  0  0  0  0  0  0  0
    4.2016   -2.0041   -0.1576 H   0  0  0  0  0  0  0  0  0  0  0  0
    3.3774    2.8783    0.1287 H   0  0  0  0  0  0  0  0  0  0  0  0
   -3.2001   -3.2441   -0.0453 H   0  0  0  0  0  0  0  0  0  0  0  0
   -5.9036    0.0641    0.1771 H   0  0  0  0  0  0  0  0  0  0  0  0
   -5.4936   -2.3679    0.0464 H   0  0  0  0  0  0  0  0  0  0  0  0
    5.6517    2.0136    0.0367 H   0  0  0  0  0  0  0  0  0  0  0  0
   -0.0220    2.9779   -0.0222 H   0  0  0  0  0  0  0  0  0  0  0  0
    2.5488   -2.9177    0.4525 H   0  0  0  0  0  0  0  0  0  0  0  0
   -3.4676    2.3712   -1.7097 H   0  0  0  0  0  0  0  0  0  0  0  0
   -4.2547    3.6788   -0.7968 H   0  0  0  0  0  0  0  0  0  0  0  0
   -5.2375    2.3475   -1.4445 H   0  0  0  0  0  0  0  0  0  0  0  0
    6.9418    0.2165   -0.0825 H   0  0  0  0  0  0  0  0  0  0  0  0
  1 13  1  0  0  0  0
  1 32  1  0  0  0  0
  2 14  1  0  0  0  0
  2 33  1  0  0  0  0
  3 17  1  0  0  0  0
  3 25  1  0  0  0  0
  4 15  2  0  0  0  0
  5 16  2  0  0  0  0
  6 22  1  0  0  0  0
  6 37  1  0  0  0  0
  7  8  1  0  0  0  0
  7 13  2  0  0  0  0
  7 15  1  0  0  0  0
  8 14  2  0  0  0  0
  8 16  1  0  0  0  0
  9 12  2  0  0  0  0
  9 15  1  0  0  0  0
  9 17  1  0  0  0  0
 10 11  2  0  0  0  0
 10 14  1  0  0  0  0
 10 18  1  0  0  0  0
 11 13  1  0  0  0  0
 11 19  1  0  0  0  0
 12 16  1  0  0  0  0
 12 20  1  0  0  0  0
 17 21  2  0  0  0  0
 18 22  2  0  0  0  0
 18 26  1  0  0  0  0
 19 24  2  0  0  0  0
 19 27  1  0  0  0  0
 20 23  2  0  0  0  0
 20 28  1  0  0  0  0
 21 23  1  0  0  0  0
 21 29  1  0  0  0  0
 22 24  1  0  0  0  0
 23 30  1  0  0  0  0
 24 31  1  0  0  0  0
 25 34  1  0  0  0  0
 25 35  1  0  0  0  0
 25 36  1  0  0  0  0
M  END
> <PUBCHEM_COMPOUND_CID>
125152

> <PUBCHEM_CONFORMER_RMSD>
0.6

> <PUBCHEM_CONFORMER_DIVERSEORDER>
1

> <PUBCHEM_MMFF94_PARTIAL_CHARGES>
32
1 -0.53
12 0.09
13 0.08
14 0.08
15 0.4
16 0.4
17 0.08
18 -0.15
19 -0.15
2 -0.53
20 -0.15
21 -0.15
22 0.08
23 -0.15
24 -0.15
25 0.28
26 0.15
27 0.15
28 0.15
29 0.15
3 -0.36
30 0.15
31 0.15
32 0.45
33 0.45
37 0.45
4 -0.57
5 -0.57
6 -0.53
7 0.09
8 0.09
9 0.09

> <PUBCHEM_EFFECTIVE_ROTOR_COUNT>
1

> <PUBCHEM_PHARMACOPHORE_FEATURES>
10
1 1 donor
1 2 donor
1 3 acceptor
1 4 acceptor
1 5 acceptor
1 6 donor
6 10 11 18 19 22 24 rings
6 7 8 10 11 13 14 rings
6 7 8 9 12 15 16 rings
6 9 12 17 20 21 23 rings

> <PUBCHEM_HEAVY_ATOM_COUNT>
25

> <PUBCHEM_ATOM_DEF_STEREO_COUNT>
0

> <PUBCHEM_ATOM_UDEF_STEREO_COUNT>
0

> <PUBCHEM_BOND_DEF_STEREO_COUNT>
0

> <PUBCHEM_BOND_UDEF_STEREO_COUNT>
0

> <PUBCHEM_ISOTOPIC_ATOM_COUNT>
0

> <PUBCHEM_COMPONENT_COUNT>
1

> <PUBCHEM_CACTVS_TAUTO_COUNT>
61

> <PUBCHEM_CONFORMER_ID>
0001E8E000000001

> <PUBCHEM_MMFF94_ENERGY>
99.9876

> <PUBCHEM_FEATURE_SELFOVERLAP>
50.829

> <PUBCHEM_SHAPE_FINGERPRINT>
10411042 1 17977948213659870827
10616163 171 18411983563553973191
10675989 125 17038936249386283357
10693767 8 17483095426457475631
10967382 1 18411419513951624691
11578080 2 16952517005963649143
12011746 2 18410854373512115599
12107183 9 17902786362734440026
12236239 1 17967251988603148210
12403259 226 18125437768465752121
12403259 415 18271519879311173944
12788726 201 17130146386950117785
12838862 33 18339343215405183577
13140716 1 17978234086202427875
13402501 40 18411700997460104684
138480 1 17690562983364860910
13862211 1 18411979199835655846
14790565 3 18410017662670606468
15042514 8 18121222236685564683
15196674 1 18411419535674309512
1601671 61 18410855434711850888
1813 80 17313097596833759564
18681886 176 18412259575949377640
19591789 44 18339360871899335569
200 152 18060420239457613275
20028762 73 18059009609105836702
20715895 44 18047181960894222621
20775438 99 16547725534331552591
21033648 29 18342163488431901897
21236236 1 18412263947418800749
21267235 1 18338806700859444066
21279426 13 18340208475574999254
21421861 104 17752198397235597138
21709351 56 18407755941324069492
221490 88 18265058113782763915
22182313 1 18200046065770547751
22393880 68 18410856529696396542
23402539 116 18342452651541983678
23559900 14 18199186196597045854
3004659 81 18334016103934586156
335352 9 18411420613463129356
338550 245 18334862752893133572
34934 24 18337387132705934891
350125 39 18410858798014265009
3545911 37 18411702062944498393
3680242 22 18335983048131431762
4214541 1 18410575084874419809
5104073 3 18411418423056189232
559249 180 18335978688829283626
59755656 215 18410293571047571679
6138700 20 18410858729363652286
9709674 26 18412270540236363391

> <PUBCHEM_SHAPE_MULTIPOLES>
479.27
11.01
2.99
0.65
5.33
0.09
-0.04
0.98
-0.45
-1.8
-0.23
-0.19
0.12
0.49

> <PUBCHEM_SHAPE_SELFOVERLAP>
1101.65

> <PUBCHEM_SHAPE_VOLUME>
245.7

> <PUBCHEM_COORDINATE_TYPE>
2
5
10

$$$$
