REMARK  Name = 125188
REMARK  7 active torsions:
REMARK  status: ('A' for Active; 'I' for Inactive)
REMARK    1  A    between atoms: C_2  and  N_17
REMARK    2  A    between atoms: C_4  and  C_26
REMARK    3  A    between atoms: C_5  and  N_8
REMARK    4  A    between atoms: N_18  and  N_22
REMARK    5  A    between atoms: N_18  and  C_23
REMARK    6  A    between atoms: C_23  and  C_25
REMARK    7  A    between atoms: C_26  and  O_27
REMARK                            x       y       z     vdW  Elec       q    Type
REMARK                         _______ _______ _______ _____ _____    ______ ____
ROOT
ATOM      1  O   UNL     1      -1.015   1.072   1.119  0.00  0.00    -0.335 OA
ATOM      2  C   UNL     1       0.755   1.045  -0.474  0.00  0.00    +0.107 C 
ATOM      3  C   UNL     1      -0.271   0.007  -0.869  0.00  0.00    +0.073 C 
ATOM      4  C   UNL     1      -0.012   1.914   0.519  0.00  0.00    +0.164 C 
ATOM      5  C   UNL     1      -1.065  -0.175   0.413  0.00  0.00    +0.201 C 
ENDROOT
BRANCH   5   8
ATOM      6  O   UNL     1      -2.075  -2.837   0.333  0.00  0.00    -0.252 OA
ATOM      7  O   UNL     1      -6.353  -1.369  -0.498  0.00  0.00    -0.270 OA
ATOM      8  N   UNL     1      -2.433  -0.535   0.178  0.00  0.00    -0.219 N 
ATOM      9  N   UNL     1      -4.203  -2.091  -0.082  0.00  0.00    -0.236 N 
ATOM     10  C   UNL     1      -3.359   0.480  -0.029  0.00  0.00    +0.071 C 
ATOM     11  C   UNL     1      -2.840  -1.887   0.157  0.00  0.00    +0.315 C 
ATOM     12  C   UNL     1      -4.663   0.280  -0.257  0.00  0.00    +0.047 C 
ATOM     13  C   UNL     1      -5.168  -1.118  -0.294  0.00  0.00    +0.250 C 
ATOM     14  C   UNL     1      -5.643   1.388  -0.478  0.00  0.00    +0.037 C 
ATOM     15  H   UNL     1      -4.511  -3.026  -0.102  0.00  0.00    +0.159 HD
ENDBRANCH   5   8
BRANCH   2  17
ATOM     16  O   UNL     1       3.116   0.234  -1.792  0.00  0.00    -0.251 OA
ATOM     17  N   UNL     1       1.902   0.427   0.151  0.00  0.00    -0.287 N 
ATOM     18  N   UNL     1       4.071  -0.535   0.174  0.00  0.00    -0.163 N 
ATOM     19  C   UNL     1       3.038   0.052  -0.573  0.00  0.00    +0.320 C 
ATOM     20  H   UNL     1       1.882   0.263   1.122  0.00  0.00    +0.151 HD
BRANCH  18  22
ATOM     21  O   UNL     1       4.899  -1.251   2.181  0.00  0.00    -0.078 OA
ATOM     22  N   UNL     1       3.918  -0.723   1.645  0.00  0.00    +0.054 NA
ENDBRANCH  18  22
BRANCH  18  23
ATOM     23  C   UNL     1       5.311  -0.970  -0.457  0.00  0.00    +0.134 C 
BRANCH  23  25
ATOM     24 CL   UNL     1       7.863  -0.441  -1.267  0.00  0.00    -0.112 Cl
ATOM     25  C   UNL     1       6.366   0.123  -0.485  0.00  0.00    +0.118 C 
ENDBRANCH  23  25
ENDBRANCH  18  23
ENDBRANCH   2  17
BRANCH   4  26
ATOM     26  C   UNL     1      -0.722   3.084  -0.152  0.00  0.00    +0.168 C 
BRANCH  26  27
ATOM     27  O   UNL     1      -1.415   3.827   0.837  0.00  0.00    -0.379 OA
ATOM     28  H   UNL     1      -1.871   4.575   0.420  0.00  0.00    +0.211 HD
ENDBRANCH  26  27
ENDBRANCH   4  26
TORSDOF 7
