125102
  -OEChem-03292013323D

 45 44  0     1  0  0  0  0  0999 V2000
    1.6649    1.4403    0.0359 S   0  0  0  0  0  0  0  0  0  0  0  0
   -1.8652   -1.0269   -2.1519 O   0  0  0  0  0  0  0  0  0  0  0  0
    1.4322   -2.1888    1.0896 O   0  0  0  0  0  0  0  0  0  0  0  0
   -4.7928    0.4167    2.2514 O   0  0  0  0  0  0  0  0  0  0  0  0
   -5.9221    1.6195    0.6961 O   0  0  0  0  0  0  0  0  0  0  0  0
    2.5428    4.0040    1.2052 O   0  0  0  0  0  0  0  0  0  0  0  0
    4.5873   -0.5713    0.6598 O   0  0  0  0  0  0  0  0  0  0  0  0
    5.9274   -2.2805    1.3164 O   0  0  0  0  0  0  0  0  0  0  0  0
   -0.5214   -0.9274   -0.2599 N   0  0  0  0  0  0  0  0  0  0  0  0
    2.9246   -2.0731   -0.6829 N   0  0  0  0  0  0  0  0  0  0  0  0
   -6.6936   -0.7366   -0.5084 N   0  0  0  0  0  0  0  0  0  0  0  0
    0.7511   -1.0369   -0.9349 C   0  0  1  0  0  0  0  0  0  0  0  0
   -4.2535   -0.7963   -0.7022 C   0  0  0  0  0  0  0  0  0  0  0  0
   -2.9056   -0.7935    0.0220 C   0  0  0  0  0  0  0  0  0  0  0  0
   -5.4457   -0.7304    0.2588 C   0  0  1  0  0  0  0  0  0  0  0  0
    1.3040    0.3255   -1.3604 C   0  0  0  0  0  0  0  0  0  0  0  0
   -1.7335   -0.9319   -0.9347 C   0  0  0  0  0  0  0  0  0  0  0  0
    1.7118   -1.8319   -0.0531 C   0  0  0  0  0  0  0  0  0  0  0  0
   -5.4356    0.5571    1.0628 C   0  0  0  0  0  0  0  0  0  0  0  0
    2.1870    2.8829   -0.9176 C   0  0  0  0  0  0  0  0  0  0  0  0
    4.0064   -2.7852   -0.0435 C   0  0  0  0  0  0  0  0  0  0  0  0
    2.5738    4.0435   -0.0238 C   0  0  0  0  0  0  0  0  0  0  0  0
    4.9416   -1.8764    0.7118 C   0  0  0  0  0  0  0  0  0  0  0  0
    3.0141    5.2976   -0.7368 C   0  0  0  0  0  0  0  0  0  0  0  0
    0.5919   -1.6345   -1.8424 H   0  0  0  0  0  0  0  0  0  0  0  0
   -4.2817    0.0541   -1.3975 H   0  0  0  0  0  0  0  0  0  0  0  0
   -4.3301   -1.7031   -1.3169 H   0  0  0  0  0  0  0  0  0  0  0  0
   -2.7666    0.1434    0.5728 H   0  0  0  0  0  0  0  0  0  0  0  0
   -2.8633   -1.6222    0.7387 H   0  0  0  0  0  0  0  0  0  0  0  0
   -5.4495   -1.5870    0.9420 H   0  0  0  0  0  0  0  0  0  0  0  0
   -0.5199   -0.8193    0.7506 H   0  0  0  0  0  0  0  0  0  0  0  0
    2.2233    0.2070   -1.9423 H   0  0  0  0  0  0  0  0  0  0  0  0
    0.5710    0.8252   -2.0040 H   0  0  0  0  0  0  0  0  0  0  0  0
    3.0684   -1.7595   -1.6376 H   0  0  0  0  0  0  0  0  0  0  0  0
   -6.7431   -1.5842   -1.0726 H   0  0  0  0  0  0  0  0  0  0  0  0
   -7.4870   -0.7759    0.1308 H   0  0  0  0  0  0  0  0  0  0  0  0
    3.0553    2.6177   -1.5280 H   0  0  0  0  0  0  0  0  0  0  0  0
    1.3645    3.2075   -1.5616 H   0  0  0  0  0  0  0  0  0  0  0  0
    4.5718   -3.2902   -0.8317 H   0  0  0  0  0  0  0  0  0  0  0  0
    3.5938   -3.5195    0.6547 H   0  0  0  0  0  0  0  0  0  0  0  0
   -4.7778    1.2553    2.7601 H   0  0  0  0  0  0  0  0  0  0  0  0
    2.1998    5.6666   -1.3653 H   0  0  0  0  0  0  0  0  0  0  0  0
    3.2722    6.0678   -0.0047 H   0  0  0  0  0  0  0  0  0  0  0  0
    3.8945    5.0819   -1.3471 H   0  0  0  0  0  0  0  0  0  0  0  0
    5.2101   -0.0011    1.1590 H   0  0  0  0  0  0  0  0  0  0  0  0
  1 16  1  0  0  0  0
  1 20  1  0  0  0  0
  2 17  2  0  0  0  0
  3 18  2  0  0  0  0
  4 19  1  0  0  0  0
  4 41  1  0  0  0  0
  5 19  2  0  0  0  0
  6 22  2  0  0  0  0
  7 23  1  0  0  0  0
  7 45  1  0  0  0  0
  8 23  2  0  0  0  0
  9 12  1  0  0  0  0
  9 17  1  0  0  0  0
  9 31  1  0  0  0  0
 10 18  1  0  0  0  0
 10 21  1  0  0  0  0
 10 34  1  0  0  0  0
 11 15  1  0  0  0  0
 11 35  1  0  0  0  0
 11 36  1  0  0  0  0
 12 16  1  0  0  0  0
 12 18  1  0  0  0  0
 12 25  1  0  0  0  0
 13 14  1  0  0  0  0
 13 15  1  0  0  0  0
 13 26  1  0  0  0  0
 13 27  1  0  0  0  0
 14 17  1  0  0  0  0
 14 28  1  0  0  0  0
 14 29  1  0  0  0  0
 15 19  1  0  0  0  0
 15 30  1  0  0  0  0
 16 32  1  0  0  0  0
 16 33  1  0  0  0  0
 20 22  1  0  0  0  0
 20 37  1  0  0  0  0
 20 38  1  0  0  0  0
 21 23  1  0  0  0  0
 21 39  1  0  0  0  0
 21 40  1  0  0  0  0
 22 24  1  0  0  0  0
 24 42  1  0  0  0  0
 24 43  1  0  0  0  0
 24 44  1  0  0  0  0
M  END
> <PUBCHEM_COMPOUND_CID>
125102

> <PUBCHEM_CONFORMER_RMSD>
1.2

> <PUBCHEM_CONFORMER_DIVERSEORDER>
1
46
33
9
50
27
20
5
30
10
32
37
36
25
44
51
48
19
38
6
15
21
41
7
47
14
24
49
39
43
4
31
18
8
35
13
11
22
16
45
34
12
26
29
28
40
3
17
23
2
42

> <PUBCHEM_MMFF94_PARTIAL_CHARGES>
29
1 -0.46
10 -0.73
11 -0.99
12 0.36
14 0.06
15 0.33
16 0.23
17 0.57
18 0.57
19 0.66
2 -0.57
20 0.29
21 0.36
22 0.45
23 0.66
24 0.06
3 -0.57
31 0.37
34 0.37
35 0.36
36 0.36
4 -0.65
41 0.5
45 0.5
5 -0.57
6 -0.57
7 -0.65
8 -0.57
9 -0.73

> <PUBCHEM_EFFECTIVE_ROTOR_COUNT>
14

> <PUBCHEM_PHARMACOPHORE_FEATURES>
13
1 10 donor
1 11 cation
1 11 donor
1 2 acceptor
1 3 acceptor
1 4 acceptor
1 5 acceptor
1 6 acceptor
1 7 acceptor
1 8 acceptor
1 9 donor
3 4 5 19 anion
3 7 8 23 anion

> <PUBCHEM_HEAVY_ATOM_COUNT>
24

> <PUBCHEM_ATOM_DEF_STEREO_COUNT>
2

> <PUBCHEM_ATOM_UDEF_STEREO_COUNT>
0

> <PUBCHEM_BOND_DEF_STEREO_COUNT>
0

> <PUBCHEM_BOND_UDEF_STEREO_COUNT>
0

> <PUBCHEM_ISOTOPIC_ATOM_COUNT>
0

> <PUBCHEM_COMPONENT_COUNT>
1

> <PUBCHEM_CACTVS_TAUTO_COUNT>
12

> <PUBCHEM_CONFORMER_ID>
0001E8AE00000001

> <PUBCHEM_MMFF94_ENERGY>
33.5579

> <PUBCHEM_FEATURE_SELFOVERLAP>
66.094

> <PUBCHEM_SHAPE_FINGERPRINT>
11049842 53 17060074647912641375
12403259 118 18130793322406814455
13540713 5 17985253312657805711
13590594 115 18337395915761477296
13899415 154 18408892824148038014
14466204 15 18193840336618157873
14739800 52 17702094979302480321
14849402 71 18336270136387902052
14955137 171 18339085878308310942
15081414 286 18410848855206984556
15475509 8 18058751125715906070
17980427 23 17774992471184722901
17980427 26 18196082477187740364
18785283 64 18335136557216469932
21033648 29 17487031411216101035
21304253 13 18412539882515460042
23559900 14 17458349662974419007
249057 25 18131914880175476357
25147074 1 17987786553246517407
5104073 3 18336840787808464251
5895379 119 17273440303931854121
67856867 119 18342174509855520399
6898599 12 10589179398870486546

> <PUBCHEM_SHAPE_MULTIPOLES>
441.73
14.06
5.22
1.44
19.81
8.9
-0.11
-3.01
-5.2
-11.77
-0.18
0.7
-0.02
-2.16

> <PUBCHEM_SHAPE_SELFOVERLAP>
849.747

> <PUBCHEM_SHAPE_VOLUME>
268

> <PUBCHEM_COORDINATE_TYPE>
2
5
10

$$$$
