125104
  -OEChem-03292013323D

 53 54  0     1  0  0  0  0  0999 V2000
   -3.5947    1.2562   -1.5837 O   0  0  0  0  0  0  0  0  0  0  0  0
    3.2927   -1.2819    0.8193 O   0  0  0  0  0  0  0  0  0  0  0  0
   -0.9993    0.5264    1.3658 O   0  0  0  0  0  0  0  0  0  0  0  0
    4.8229   -2.9376    1.2018 O   0  0  0  0  0  0  0  0  0  0  0  0
   -3.4376    1.5946    0.7075 N   0  0  0  0  0  0  0  0  0  0  0  0
   -6.3748    0.7585   -0.7708 N   0  0  0  0  0  0  0  0  0  0  0  0
    0.0252    2.1734    0.0445 N   0  0  0  0  0  0  0  0  0  0  0  0
   -2.0699   -5.3272   -0.3315 N   0  0  0  0  0  0  0  0  0  0  0  0
   -4.9208   -1.2570   -0.6296 C   0  0  0  0  0  0  0  0  0  0  0  0
   -5.2021    0.1676   -0.1290 C   0  0  1  0  0  0  0  0  0  0  0  0
   -3.7078   -1.9090    0.0420 C   0  0  0  0  0  0  0  0  0  0  0  0
   -3.4963   -3.3385   -0.4640 C   0  0  0  0  0  0  0  0  0  0  0  0
   -4.0050    1.0609   -0.4414 C   0  0  0  0  0  0  0  0  0  0  0  0
   -2.2779    2.4569    0.6915 C   0  0  2  0  0  0  0  0  0  0  0  0
   -2.2651   -3.9753    0.1785 C   0  0  0  0  0  0  0  0  0  0  0  0
   -1.0260    1.5831    0.7412 C   0  0  0  0  0  0  0  0  0  0  0  0
   -2.3065    3.4312    1.8589 C   0  0  0  0  0  0  0  0  0  0  0  0
    1.3355    1.6686   -0.1320 C   0  0  0  0  0  0  0  0  0  0  0  0
    3.9491    0.6717   -0.4921 C   0  0  0  0  0  0  0  0  0  0  0  0
    2.9904   -0.0357    0.2348 C   0  0  0  0  0  0  0  0  0  0  0  0
    1.6928    0.4439    0.4220 C   0  0  0  0  0  0  0  0  0  0  0  0
    2.2722    2.3973   -0.8631 C   0  0  0  0  0  0  0  0  0  0  0  0
    5.2906    0.0911   -0.6390 C   0  0  0  0  0  0  0  0  0  0  0  0
    3.5693    1.9034   -1.0422 C   0  0  0  0  0  0  0  0  0  0  0  0
    5.5499   -1.0956   -0.0722 C   0  0  0  0  0  0  0  0  0  0  0  0
    6.3439    0.8272   -1.4145 C   0  0  0  0  0  0  0  0  0  0  0  0
    4.5492   -1.8542    0.6972 C   0  0  0  0  0  0  0  0  0  0  0  0
   -5.8061   -1.8805   -0.4483 H   0  0  0  0  0  0  0  0  0  0  0  0
   -4.7627   -1.2471   -1.7164 H   0  0  0  0  0  0  0  0  0  0  0  0
   -5.3872    0.1307    0.9506 H   0  0  0  0  0  0  0  0  0  0  0  0
   -2.8041   -1.3232   -0.1608 H   0  0  0  0  0  0  0  0  0  0  0  0
   -3.8511   -1.9200    1.1291 H   0  0  0  0  0  0  0  0  0  0  0  0
   -4.3868   -3.9401   -0.2420 H   0  0  0  0  0  0  0  0  0  0  0  0
   -3.3789   -3.3257   -1.5550 H   0  0  0  0  0  0  0  0  0  0  0  0
   -2.2929    3.0201   -0.2493 H   0  0  0  0  0  0  0  0  0  0  0  0
   -3.8001    1.3154    1.6144 H   0  0  0  0  0  0  0  0  0  0  0  0
   -1.3733   -3.3790   -0.0427 H   0  0  0  0  0  0  0  0  0  0  0  0
   -2.3814   -4.0105    1.2672 H   0  0  0  0  0  0  0  0  0  0  0  0
   -7.1894    0.1696   -0.6019 H   0  0  0  0  0  0  0  0  0  0  0  0
   -6.5814    1.6600   -0.3420 H   0  0  0  0  0  0  0  0  0  0  0  0
   -2.2900    2.9023    2.8187 H   0  0  0  0  0  0  0  0  0  0  0  0
   -3.2125    4.0458    1.8327 H   0  0  0  0  0  0  0  0  0  0  0  0
   -1.4381    4.0979    1.8347 H   0  0  0  0  0  0  0  0  0  0  0  0
   -0.1481    3.0742   -0.3963 H   0  0  0  0  0  0  0  0  0  0  0  0
    1.0249   -0.1813    0.9972 H   0  0  0  0  0  0  0  0  0  0  0  0
   -2.8825   -5.8998   -0.1063 H   0  0  0  0  0  0  0  0  0  0  0  0
   -1.2772   -5.7565    0.1439 H   0  0  0  0  0  0  0  0  0  0  0  0
    2.0074    3.3562   -1.3024 H   0  0  0  0  0  0  0  0  0  0  0  0
    4.2679    2.5040   -1.6191 H   0  0  0  0  0  0  0  0  0  0  0  0
    6.5302   -1.5542   -0.1605 H   0  0  0  0  0  0  0  0  0  0  0  0
    7.2914    0.2773   -1.4406 H   0  0  0  0  0  0  0  0  0  0  0  0
    6.0291    0.9767   -2.4529 H   0  0  0  0  0  0  0  0  0  0  0  0
    6.5498    1.8030   -0.9617 H   0  0  0  0  0  0  0  0  0  0  0  0
  1 13  2  0  0  0  0
  2 20  1  0  0  0  0
  2 27  1  0  0  0  0
  3 16  2  0  0  0  0
  4 27  2  0  0  0  0
  5 13  1  0  0  0  0
  5 14  1  0  0  0  0
  5 36  1  0  0  0  0
  6 10  1  0  0  0  0
  6 39  1  0  0  0  0
  6 40  1  0  0  0  0
  7 16  1  0  0  0  0
  7 18  1  0  0  0  0
  7 44  1  0  0  0  0
  8 15  1  0  0  0  0
  8 46  1  0  0  0  0
  8 47  1  0  0  0  0
  9 10  1  0  0  0  0
  9 11  1  0  0  0  0
  9 28  1  0  0  0  0
  9 29  1  0  0  0  0
 10 13  1  0  0  0  0
 10 30  1  0  0  0  0
 11 12  1  0  0  0  0
 11 31  1  0  0  0  0
 11 32  1  0  0  0  0
 12 15  1  0  0  0  0
 12 33  1  0  0  0  0
 12 34  1  0  0  0  0
 14 16  1  0  0  0  0
 14 17  1  0  0  0  0
 14 35  1  0  0  0  0
 15 37  1  0  0  0  0
 15 38  1  0  0  0  0
 17 41  1  0  0  0  0
 17 42  1  0  0  0  0
 17 43  1  0  0  0  0
 18 21  2  0  0  0  0
 18 22  1  0  0  0  0
 19 20  2  0  0  0  0
 19 23  1  0  0  0  0
 19 24  1  0  0  0  0
 20 21  1  0  0  0  0
 21 45  1  0  0  0  0
 22 24  2  0  0  0  0
 22 48  1  0  0  0  0
 23 25  2  0  0  0  0
 23 26  1  0  0  0  0
 24 49  1  0  0  0  0
 25 27  1  0  0  0  0
 25 50  1  0  0  0  0
 26 51  1  0  0  0  0
 26 52  1  0  0  0  0
 26 53  1  0  0  0  0
M  END
> <PUBCHEM_COMPOUND_CID>
125104

> <PUBCHEM_CONFORMER_RMSD>
1

> <PUBCHEM_CONFORMER_DIVERSEORDER>
1
219
52
73
78
63
57
185
147
154
170
131
61
99
148
25
56
207
199
22
107
103
183
44
47
128
112
143
10
87
182
109
187
134
197
83
121
32
81
165
29
155
119
100
94
72
166
15
101
135
175
113
60
110
80
168
77
138
102
124
40
221
142
41
4
180
225
164
196
228
153
74
58
192
209
21
231
105
79
37
26
104
204
167
145
49
23
159
206
161
97
210
186
156
157
162
6
118
53
172
9
193
133
108
76
136
69
189
106
38
181
55
158
213
96
116
36
129
184
149
120
160
190
122
130
194
31
54
65
215
51
132
92
62
179
48
169
114
178
14
212
16
198
144
174
95
86
127
64
19
24
39
218
42
235
233
90
35
152
151
126
88
139
12
125
70
75
177
71
163
84
115
13
141
43
214
230
82
171
11
146
229
17
216
208
150
59
66
93
89
224
220
202
195
173
223
2
98
20
188
85
176
123
28
7
191
226
137
111
30
34
46
8
68
3
5
203
91
27
117
201
222
33
211
67
227
50
232
200
18
205
45
140
217
234

> <PUBCHEM_MMFF94_PARTIAL_CHARGES>
33
1 -0.57
10 0.33
13 0.57
14 0.36
15 0.27
16 0.57
18 0.12
19 0.03
2 -0.23
20 0.08
21 -0.15
22 -0.15
23 -0.17
24 -0.15
25 -0.14
26 0.14
27 0.71
3 -0.57
36 0.37
39 0.36
4 -0.57
40 0.36
44 0.37
45 0.15
46 0.36
47 0.36
48 0.15
49 0.15
5 -0.73
50 0.15
6 -0.99
7 -0.55
8 -0.99

> <PUBCHEM_EFFECTIVE_ROTOR_COUNT>
10

> <PUBCHEM_PHARMACOPHORE_FEATURES>
11
1 1 acceptor
1 3 acceptor
1 4 acceptor
1 5 donor
1 6 cation
1 6 donor
1 7 donor
1 8 cation
1 8 donor
6 18 19 20 21 22 24 rings
6 2 19 20 23 25 27 rings

> <PUBCHEM_HEAVY_ATOM_COUNT>
27

> <PUBCHEM_ATOM_DEF_STEREO_COUNT>
2

> <PUBCHEM_ATOM_UDEF_STEREO_COUNT>
0

> <PUBCHEM_BOND_DEF_STEREO_COUNT>
0

> <PUBCHEM_BOND_UDEF_STEREO_COUNT>
0

> <PUBCHEM_ISOTOPIC_ATOM_COUNT>
0

> <PUBCHEM_COMPONENT_COUNT>
1

> <PUBCHEM_CACTVS_TAUTO_COUNT>
4

> <PUBCHEM_CONFORMER_ID>
0001E8B000000001

> <PUBCHEM_MMFF94_ENERGY>
60.5375

> <PUBCHEM_FEATURE_SELFOVERLAP>
55.848

> <PUBCHEM_SHAPE_FINGERPRINT>
10622 236 18335405847150059090
11135609 149 16010128927677401370
11135609 99 18411413974509839126
11186622 123 18264764544373872154
11211813 140 17680403599436060474
12236239 1 18341616967023981196
12788726 201 18202286870863451209
12969540 37 17548129387350481193
14251740 79 18408323315520917363
14251757 5 18338236076242719403
14461889 52 18060129973737863472
15183329 4 18261107482800056071
15250474 111 18410292471931738602
15728490 51 18411412900857341618
16719943 64 18412261718916979679
17349148 13 18272091560943670124
17857418 61 18411981338650209072
19958102 18 18334845130832150839
20028762 73 18266172826049718218
20775438 99 16904640207379610343
20775530 9 18195805400147081703
21049683 118 15980073665346257017
23559900 14 18270111439402708617
3004659 81 18335979839643284885
314194 84 18261965037841188888
373842 8 18269836419756770486
439807 62 18335422422166883999
44062 13 18339642364626089023
44880168 125 17058112109656819254
463206 1 18337956791450929355
474144 1 17823955893345428179
5326457 24 18335420153854082390
6437827 68 18410011056974047023

> <PUBCHEM_SHAPE_MULTIPOLES>
512.25
14.82
4.92
1.23
4.97
6.11
-0.11
3.93
4.03
-4.79
-0.93
0.16
-0.6
-2.45

> <PUBCHEM_SHAPE_SELFOVERLAP>
1058.461

> <PUBCHEM_SHAPE_VOLUME>
292.2

> <PUBCHEM_COORDINATE_TYPE>
2
5
10

$$$$
