REMARK  Name = 125150
REMARK  8 active torsions:
REMARK  status: ('A' for Active; 'I' for Inactive)
REMARK    1  A    between atoms: C_2  and  O_16
REMARK    2  A    between atoms: C_3  and  O_18
REMARK    3  A    between atoms: C_4  and  C_20
REMARK    4  A    between atoms: C_5  and  N_7
REMARK    5  A    between atoms: C_20  and  O_21
REMARK    6  A    between atoms: O_21  and  P_22
REMARK    7  A    between atoms: P_22  and  O_24
REMARK    8  A    between atoms: P_22  and  O_26
REMARK                            x       y       z     vdW  Elec       q    Type
REMARK                         _______ _______ _______ _____ _____    ______ ____
ROOT
ATOM      1  O   UNL     1      -0.192  -1.173   1.135  0.00  0.00    -0.332 OA
ATOM      2  C   UNL     1       0.075  -2.836  -0.531  0.00  0.00    +0.171 C 
ATOM      3  C   UNL     1      -1.129  -1.987  -0.884  0.00  0.00    +0.188 C 
ATOM      4  C   UNL     1       0.821  -1.940   0.448  0.00  0.00    +0.176 C 
ATOM      5  C   UNL     1      -1.443  -1.319   0.444  0.00  0.00    +0.236 C 
ENDROOT
BRANCH   5   7
ATOM      6  O   UNL     1      -4.210  -0.793   0.415  0.00  0.00    -0.193 OA
ATOM      7  N   UNL     1      -2.039  -0.024   0.279  0.00  0.00    -0.178 N 
ATOM      8  N   UNL     1      -3.949   1.441   0.112  0.00  0.00    -0.306 NA
ATOM      9  N   UNL     1      -3.674   3.729  -0.202  0.00  0.00    -0.332 N 
ATOM     10  C   UNL     1      -1.209   1.074   0.116  0.00  0.00    +0.083 C 
ATOM     11  C   UNL     1      -3.445   0.162   0.276  0.00  0.00    +0.276 C 
ATOM     12  C   UNL     1      -1.674   2.312  -0.044  0.00  0.00    +0.065 C 
ATOM     13  C   UNL     1      -3.152   2.466  -0.040  0.00  0.00    +0.193 C 
ATOM     14  H   UNL     1      -4.649   3.862  -0.203  0.00  0.00    +0.145 HD
ATOM     15  H   UNL     1      -3.072   4.500  -0.316  0.00  0.00    +0.145 HD
ENDBRANCH   5   7
BRANCH   2  16
ATOM     16  O   UNL     1      -0.336  -4.009   0.171  0.00  0.00    -0.379 OA
ATOM     17  H   UNL     1      -0.815  -4.597  -0.434  0.00  0.00    +0.211 HD
ENDBRANCH   2  16
BRANCH   3  18
ATOM     18  O   UNL     1      -2.206  -2.760  -1.373  0.00  0.00    -0.378 OA
ATOM     19  H   UNL     1      -1.956  -3.164  -2.218  0.00  0.00    +0.211 HD
ENDBRANCH   3  18
BRANCH   4  20
ATOM     20  C   UNL     1       1.773  -0.965  -0.233  0.00  0.00    +0.186 C 
BRANCH  20  21
ATOM     21  O   UNL     1       2.403  -0.178   0.761  0.00  0.00    -0.270 OA
BRANCH  21  22
ATOM     22  P   UNL     1       3.480   0.959   0.339  0.00  0.00    +0.480 P 
ATOM     23  O   UNL     1       4.069   1.716   1.495  0.00  0.00    -0.227 OA
BRANCH  22  24
ATOM     24  O   UNL     1       4.562   0.171  -0.573  0.00  0.00    -0.270 OA
ATOM     25  C   UNL     1       5.366  -0.823   0.040  0.00  0.00    +0.186 C 
ENDBRANCH  22  24
BRANCH  22  26
ATOM     26  O   UNL     1       2.695   1.877  -0.741  0.00  0.00    -0.270 OA
ATOM     27  C   UNL     1       3.415   2.900  -1.407  0.00  0.00    +0.186 C 
ENDBRANCH  22  26
ENDBRANCH  21  22
ENDBRANCH  20  21
ENDBRANCH   4  20
TORSDOF 8
