125160
  -OEChem-03292013323D

 37 38  0     1  0  0  0  0  0999 V2000
   -2.9971   -0.2851   -0.3737 O   0  0  0  0  0  0  0  0  0  0  0  0
   -0.7339    2.3638   -1.1647 O   0  0  0  0  0  0  0  0  0  0  0  0
   -3.3482    1.9476   -0.8318 O   0  0  0  0  0  0  0  0  0  0  0  0
    1.0209    0.7554    0.4720 N   0  0  0  0  0  0  0  0  0  0  0  0
    3.0654    1.5914    0.5712 N   0  0  0  0  0  0  0  0  0  0  0  0
    1.5099   -1.5373   -0.1502 N   0  0  0  0  0  0  0  0  0  0  0  0
    3.9155   -1.8813   -0.3767 N   0  0  0  0  0  0  0  0  0  0  0  0
    5.5039   -0.1290   -0.0113 N   0  0  0  0  0  0  0  0  0  0  0  0
   -0.4389    0.7056    0.5430 C   0  0  0  0  0  0  0  0  0  0  0  0
   -1.0946    1.0392   -0.7964 C   0  0  1  0  0  0  0  0  0  0  0  0
   -4.1876   -0.3884    0.4138 C   0  0  1  0  0  0  0  0  0  0  0  0
    1.8420   -0.2747    0.1582 C   0  0  0  0  0  0  0  0  0  0  0  0
   -4.4965   -1.8659    0.6638 C   0  0  0  0  0  0  0  0  0  0  0  0
   -2.6055    0.9856   -0.6850 C   0  0  0  0  0  0  0  0  0  0  0  0
    3.1168    0.2645    0.2251 C   0  0  0  0  0  0  0  0  0  0  0  0
    1.7829    1.8540    0.7121 C   0  0  0  0  0  0  0  0  0  0  0  0
   -3.9777    0.3602    1.7231 C   0  0  0  0  0  0  0  0  0  0  0  0
   -4.6717   -2.6462   -0.6325 C   0  0  0  0  0  0  0  0  0  0  0  0
    4.1772   -0.5910   -0.0569 C   0  0  0  0  0  0  0  0  0  0  0  0
    2.6173   -2.2685   -0.4031 C   0  0  0  0  0  0  0  0  0  0  0  0
   -0.7136   -0.2951    0.8952 H   0  0  0  0  0  0  0  0  0  0  0  0
   -0.7378    1.4203    1.3202 H   0  0  0  0  0  0  0  0  0  0  0  0
   -0.7695    0.3696   -1.5990 H   0  0  0  0  0  0  0  0  0  0  0  0
   -5.0228    0.0570   -0.1416 H   0  0  0  0  0  0  0  0  0  0  0  0
   -3.6753   -2.3262    1.2270 H   0  0  0  0  0  0  0  0  0  0  0  0
   -5.4054   -1.9606    1.2689 H   0  0  0  0  0  0  0  0  0  0  0  0
    1.3662    2.8141    0.9850 H   0  0  0  0  0  0  0  0  0  0  0  0
   -3.0748    0.0093    2.2353 H   0  0  0  0  0  0  0  0  0  0  0  0
   -3.8608    1.4379    1.5768 H   0  0  0  0  0  0  0  0  0  0  0  0
   -4.8311    0.2159    2.3940 H   0  0  0  0  0  0  0  0  0  0  0  0
   -3.7530   -2.6468   -1.2272 H   0  0  0  0  0  0  0  0  0  0  0  0
   -5.4761   -2.2196   -1.2401 H   0  0  0  0  0  0  0  0  0  0  0  0
   -4.9285   -3.6875   -0.4128 H   0  0  0  0  0  0  0  0  0  0  0  0
   -0.9756    2.9585   -0.4341 H   0  0  0  0  0  0  0  0  0  0  0  0
    2.4448   -3.3075   -0.6629 H   0  0  0  0  0  0  0  0  0  0  0  0
    6.2571   -0.7699   -0.2205 H   0  0  0  0  0  0  0  0  0  0  0  0
    5.7017    0.8335    0.2268 H   0  0  0  0  0  0  0  0  0  0  0  0
  1 11  1  0  0  0  0
  1 14  1  0  0  0  0
  2 10  1  0  0  0  0
  2 34  1  0  0  0  0
  3 14  2  0  0  0  0
  4  9  1  0  0  0  0
  4 12  1  0  0  0  0
  4 16  1  0  0  0  0
  5 15  1  0  0  0  0
  5 16  2  0  0  0  0
  6 12  2  0  0  0  0
  6 20  1  0  0  0  0
  7 19  1  0  0  0  0
  7 20  2  0  0  0  0
  8 19  1  0  0  0  0
  8 36  1  0  0  0  0
  8 37  1  0  0  0  0
  9 10  1  0  0  0  0
  9 21  1  0  0  0  0
  9 22  1  0  0  0  0
 10 14  1  0  0  0  0
 10 23  1  0  0  0  0
 11 13  1  0  0  0  0
 11 17  1  0  0  0  0
 11 24  1  0  0  0  0
 12 15  1  0  0  0  0
 13 18  1  0  0  0  0
 13 25  1  0  0  0  0
 13 26  1  0  0  0  0
 15 19  2  0  0  0  0
 16 27  1  0  0  0  0
 17 28  1  0  0  0  0
 17 29  1  0  0  0  0
 17 30  1  0  0  0  0
 18 31  1  0  0  0  0
 18 32  1  0  0  0  0
 18 33  1  0  0  0  0
 20 35  1  0  0  0  0
M  END
> <PUBCHEM_COMPOUND_CID>
125160

> <PUBCHEM_CONFORMER_RMSD>
0.8

> <PUBCHEM_CONFORMER_DIVERSEORDER>
1
153
18
43
212
217
225
249
158
175
99
27
5
124
166
129
187
258
72
238
143
52
178
125
208
76
228
239
284
8
42
45
28
230
260
222
169
23
194
236
51
44
273
229
256
246
189
148
219
83
61
204
283
184
46
38
195
188
73
199
220
144
17
266
85
68
233
60
2
55
231
186
113
167
130
176
247
145
248
160
281
135
54
262
232
182
84
37
226
287
80
218
66
137
29
117
237
185
91
49
21
268
269
168
118
261
70
30
157
161
241
109
57
59
252
259
7
270
41
156
20
191
285
282
250
255
165
25
36
63
277
234
121
34
221
12
209
108
97
107
14
240
192
235
71
33
19
183
253
276
40
163
242
126
10
102
196
101
251
22
271
265
227
79
69
75
6
193
171
190
64
164
272
213
111
67
278
141
216
119
9
224
214
106
139
88
136
205
104
16
98
32
11
47
211
3
13
89
26
172
78
93
62
114
112
267
127
264
140
201
82
200
147
103
152
202
170
81
115
110
155
100
210
53
116
90
4
245
223
149
138
94
154
95
206
197
257
92
179
159
48
142
58
286
207
24
133
74
86
77
275
128
35
31
56
280
15
151
134
263
122
87
174
173
215
150
96
244
177
243
162
198
123
50
180
65
274
120
254
131
146
279
181
203
132
105
39

> <PUBCHEM_MMFF94_PARTIAL_CHARGES>
22
1 -0.43
10 0.34
11 0.28
12 0.11
14 0.66
15 0.23
16 0.04
19 0.41
2 -0.68
20 0.47
27 0.15
3 -0.57
34 0.4
35 0.15
36 0.4
37 0.4
4 0.05
5 -0.57
6 -0.57
7 -0.62
8 -0.9
9 0.26

> <PUBCHEM_EFFECTIVE_ROTOR_COUNT>
6

> <PUBCHEM_PHARMACOPHORE_FEATURES>
11
1 18 hydrophobe
1 2 acceptor
1 2 donor
1 3 acceptor
1 8 cation
1 8 donor
3 4 5 16 cation
3 4 6 12 cation
3 6 7 20 cation
5 4 5 12 15 16 rings
6 6 7 12 15 19 20 rings

> <PUBCHEM_HEAVY_ATOM_COUNT>
20

> <PUBCHEM_ATOM_DEF_STEREO_COUNT>
0

> <PUBCHEM_ATOM_UDEF_STEREO_COUNT>
2

> <PUBCHEM_BOND_DEF_STEREO_COUNT>
0

> <PUBCHEM_BOND_UDEF_STEREO_COUNT>
0

> <PUBCHEM_ISOTOPIC_ATOM_COUNT>
0

> <PUBCHEM_COMPONENT_COUNT>
1

> <PUBCHEM_CACTVS_TAUTO_COUNT>
3

> <PUBCHEM_CONFORMER_ID>
0001E8E800000001

> <PUBCHEM_MMFF94_ENERGY>
31.1524

> <PUBCHEM_FEATURE_SELFOVERLAP>
56.436

> <PUBCHEM_SHAPE_FINGERPRINT>
11370993 144 18199760154545872073
11552529 35 17988641943491886307
12596602 18 16630247021131664491
12633257 1 17988095413203556915
12892183 10 17917712456773375593
13103583 49 17774739601175448419
13464513 79 18408604798924006106
13533116 47 18129100199048985307
13544653 18 18337956787525194489
13583140 156 17203324503437038753
13675066 3 16128664032823545081
14251764 30 17916885538066924878
14386348 63 18260548909581761571
15527383 91 18341059536166384393
17357779 13 18041833026061694023
17834074 16 18410572859996652679
1813 80 17676212398702138933
18785283 64 18267859665833496376
19141452 34 18411423899946573323
20261772 1 18130785719566212279
20281475 54 18412267228831986609
20645477 70 18129367224911635349
21673915 165 18198339748526340319
221490 88 18411699859736980374
23402539 116 17167863028489940724
23557571 272 17749665203817691917
23559900 14 18410281528429245945
2838139 119 16588611750657291118
2871803 45 18261100916080215251
3268164 11 16805599244505490149
4921388 177 17023198080442308465
5104073 3 18341324496930233600
6433294 58 18264487286855027827
7495541 125 18333730221989321728
9709674 26 18261956353258865707

> <PUBCHEM_SHAPE_MULTIPOLES>
369.08
10.79
2.58
1.04
1.32
0.73
0.13
5.51
0.97
0.95
-0.59
1.02
-0.33
0.66

> <PUBCHEM_SHAPE_SELFOVERLAP>
774.674

> <PUBCHEM_SHAPE_VOLUME>
206.8

> <PUBCHEM_COORDINATE_TYPE>
2
5
10

$$$$
