REMARK  Name = 125273
REMARK  7 active torsions:
REMARK  status: ('A' for Active; 'I' for Inactive)
REMARK    1  A    between atoms: O_1  and  C_5
REMARK    2  A    between atoms: O_1  and  C_22
REMARK    3  A    between atoms: C_18  and  O_23
REMARK    4  A    between atoms: C_19  and  O_25
REMARK    5  A    between atoms: C_20  and  O_27
REMARK    6  A    between atoms: C_21  and  C_29
REMARK    7  A    between atoms: C_29  and  O_30
REMARK                            x       y       z     vdW  Elec       q    Type
REMARK                         _______ _______ _______ _____ _____    ______ ____
ROOT
ATOM      1  O   UNL     1      -1.974   1.586  -0.447  0.00  0.00    -0.451 OA
ENDROOT
BRANCH   1   5
ATOM      2  O   UNL     1       2.401   0.445   1.006  0.00  0.00    -0.465 OA
ATOM      3  O   UNL     1       6.801  -0.708   2.262  0.00  0.00    -0.286 OA
ATOM      4  N   UNL     1       3.270   0.200  -1.720  0.00  0.00    -0.399 NA
ATOM      5  C   UNL     1      -0.684   1.246  -0.750  0.00  0.00    +0.141 C 
ATOM      6  C   UNL     1       0.227   1.012   0.274  0.00  0.00    +0.061 C 
ATOM      7  C   UNL     1      -0.293   1.136  -2.080  0.00  0.00    +0.039 C 
ATOM      8  C   UNL     1       1.541   0.665  -0.043  0.00  0.00    +0.242 C 
ATOM      9  C   UNL     1       1.953   0.549  -1.376  0.00  0.00    +0.153 C 
ATOM     10  C   UNL     1       1.022   0.788  -2.392  0.00  0.00    +0.035 C 
ATOM     11  C   UNL     1       3.706   0.099   0.690  0.00  0.00    +0.172 C 
ATOM     12  C   UNL     1       4.096  -0.012  -0.742  0.00  0.00    +0.165 C 
ATOM     13  C   UNL     1       4.595  -0.129   1.661  0.00  0.00    +0.082 C 
ATOM     14  C   UNL     1       5.500  -0.383  -1.032  0.00  0.00    +0.038 C 
ATOM     15  C   UNL     1       5.993  -0.499   1.364  0.00  0.00    +0.199 C 
ATOM     16  C   UNL     1       6.380  -0.609  -0.056  0.00  0.00    +0.045 C 
ENDBRANCH   1   5
BRANCH   1  22
ATOM     17  O   UNL     1      -2.781  -0.603  -0.370  0.00  0.00    -0.316 OA
ATOM     18  C   UNL     1      -5.024   0.195   1.228  0.00  0.00    +0.173 C 
ATOM     19  C   UNL     1      -4.980  -1.151   0.503  0.00  0.00    +0.169 C 
ATOM     20  C   UNL     1      -4.120   1.218   0.542  0.00  0.00    +0.210 C 
ATOM     21  C   UNL     1      -3.525  -1.603   0.337  0.00  0.00    +0.177 C 
ATOM     22  C   UNL     1      -2.719   0.643   0.323  0.00  0.00    +0.318 C 
BRANCH  18  23
ATOM     23  O   UNL     1      -6.359   0.693   1.257  0.00  0.00    -0.379 OA
ATOM     24  H   UNL     1      -6.936   0.046   1.692  0.00  0.00    +0.211 HD
ENDBRANCH  18  23
BRANCH  19  25
ATOM     25  O   UNL     1      -5.575  -1.018  -0.789  0.00  0.00    -0.379 OA
ATOM     26  H   UNL     1      -6.497  -0.732  -0.693  0.00  0.00    +0.211 HD
ENDBRANCH  19  25
BRANCH  20  27
ATOM     27  O   UNL     1      -4.009   2.377   1.370  0.00  0.00    -0.377 OA
ATOM     28  H   UNL     1      -4.891   2.753   1.518  0.00  0.00    +0.211 HD
ENDBRANCH  20  27
BRANCH  21  29
ATOM     29  C   UNL     1      -3.407  -2.901  -0.452  0.00  0.00    +0.169 C 
BRANCH  29  30
ATOM     30  O   UNL     1      -2.036  -3.239  -0.566  0.00  0.00    -0.379 OA
ATOM     31  H   UNL     1      -1.947  -4.064  -1.067  0.00  0.00    +0.211 HD
ENDBRANCH  29  30
ENDBRANCH  21  29
ENDBRANCH   1  22
TORSDOF 7
