REMARK  Name = 125224
REMARK  6 active torsions:
REMARK  status: ('A' for Active; 'I' for Inactive)
REMARK    1  A    between atoms: C_2  and  O_17
REMARK    2  A    between atoms: C_3  and  O_19
REMARK    3  A    between atoms: C_4  and  N_10
REMARK    4  A    between atoms: C_5  and  O_21
REMARK    5  A    between atoms: C_6  and  C_24
REMARK    6  A    between atoms: C_24  and  O_25
REMARK                            x       y       z     vdW  Elec       q    Type
REMARK                         _______ _______ _______ _____ _____    ______ ____
ROOT
ATOM      1  O   UNL     1       0.918  -0.790  -0.267  0.00  0.00    -0.324 OA
ATOM      2  C   UNL     1       0.685   1.554   0.323  0.00  0.00    +0.187 C 
ATOM      3  C   UNL     1       2.202   1.729   0.235  0.00  0.00    +0.171 C 
ATOM      4  C   UNL     1       0.217   0.410  -0.576  0.00  0.00    +0.230 C 
ATOM      5  C   UNL     1       2.933   0.398   0.409  0.00  0.00    +0.178 C 
ATOM      6  C   UNL     1       2.320  -0.674  -0.486  0.00  0.00    +0.244 C 
ENDROOT
BRANCH   4  10
ATOM      7  F   UNL     1      -3.329  -0.771   2.394  0.00  0.00    -0.198 F 
ATOM      8  O   UNL     1      -1.772   0.533  -2.618  0.00  0.00    -0.252 OA
ATOM      9  O   UNL     1      -5.114  -0.618   0.350  0.00  0.00    -0.267 OA
ATOM     10  N   UNL     1      -1.187   0.151  -0.387  0.00  0.00    -0.214 N 
ATOM     11  N   UNL     1      -3.435  -0.040  -1.140  0.00  0.00    -0.234 N 
ATOM     12  C   UNL     1      -2.098   0.237  -1.466  0.00  0.00    +0.316 C 
ATOM     13  C   UNL     1      -1.631  -0.187   0.884  0.00  0.00    +0.106 C 
ATOM     14  C   UNL     1      -2.908  -0.445   1.159  0.00  0.00    +0.208 C 
ATOM     15  C   UNL     1      -3.935  -0.383   0.108  0.00  0.00    +0.282 C 
ATOM     16  H   UNL     1      -4.087   0.013  -1.876  0.00  0.00    +0.159 HD
ENDBRANCH   4  10
BRANCH   2  17
ATOM     17  O   UNL     1       0.076   2.775  -0.091  0.00  0.00    -0.378 OA
ATOM     18  H   UNL     1       0.376   3.498   0.482  0.00  0.00    +0.211 HD
ENDBRANCH   2  17
BRANCH   3  19
ATOM     19  O   UNL     1       2.633   2.618   1.268  0.00  0.00    -0.379 OA
ATOM     20  H   UNL     1       2.178   3.469   1.173  0.00  0.00    +0.211 HD
ENDBRANCH   3  19
BRANCH   5  21
ATOM     21  O   UNL     1       4.301   0.597   0.055  0.00  0.00    -0.379 OA
ATOM     22  H   UNL     1       4.687   1.280   0.626  0.00  0.00    +0.211 HD
ENDBRANCH   5  21
BRANCH   6  24
ATOM     23  O   UNL     1       2.138  -2.946   0.307  0.00  0.00    -0.247 OA
ATOM     24  C   UNL     1       2.826  -2.033  -0.125  0.00  0.00    +0.344 C 
BRANCH  24  25
ATOM     25  O   UNL     1       4.161  -2.119  -0.339  0.00  0.00    -0.478 OA
ATOM     26  H   UNL     1       4.631  -1.380  -0.672  0.00  0.00    +0.295 HD
ENDBRANCH  24  25
ENDBRANCH   6  24
TORSDOF 6
