125209
  -OEChem-03292013323D

 31 33  0     1  0  0  0  0  0999 V2000
    2.2194   -3.0229    0.1273 Br  0  0  0  0  0  0  0  0  0  0  0  0
    1.8926    0.4635    0.9975 O   0  0  0  0  0  0  0  0  0  0  0  0
    3.7724   -1.0909   -1.6646 O   0  0  0  0  0  0  0  0  0  0  0  0
    4.1487    2.1247    1.3576 O   0  0  0  0  0  0  0  0  0  0  0  0
   -0.3039    0.1695    0.1391 N   0  0  0  0  0  0  0  0  0  0  0  0
   -1.6243    1.7495   -0.7068 N   0  0  0  0  0  0  0  0  0  0  0  0
   -1.9740   -1.4604    0.8111 N   0  0  0  0  0  0  0  0  0  0  0  0
   -4.2274   -0.6827    0.2879 N   0  0  0  0  0  0  0  0  0  0  0  0
   -4.6476    1.4291   -0.7565 N   0  0  0  0  0  0  0  0  0  0  0  0
    0.9289   -0.5140    0.5486 C   0  0  1  0  0  0  0  0  0  0  0  0
    2.7136   -0.4139   -1.0234 C   0  0  1  0  0  0  0  0  0  0  0  0
    1.5732   -1.3105   -0.5848 C   0  0  1  0  0  0  0  0  0  0  0  0
    3.1207    0.2577    0.2785 C   0  0  1  0  0  0  0  0  0  0  0  0
    3.8274    1.5879    0.0850 C   0  0  0  0  0  0  0  0  0  0  0  0
   -1.5787   -0.2947    0.2774 C   0  0  0  0  0  0  0  0  0  0  0  0
   -0.3803    1.3989   -0.4554 C   0  0  0  0  0  0  0  0  0  0  0  0
   -2.3839    0.7000   -0.2539 C   0  0  0  0  0  0  0  0  0  0  0  0
   -3.7566    0.4742   -0.2369 C   0  0  0  0  0  0  0  0  0  0  0  0
   -3.3203   -1.5650    0.7721 C   0  0  0  0  0  0  0  0  0  0  0  0
    0.6581   -1.1227    1.4187 H   0  0  0  0  0  0  0  0  0  0  0  0
    2.3235    0.3391   -1.7197 H   0  0  0  0  0  0  0  0  0  0  0  0
    0.8977   -1.5885   -1.3989 H   0  0  0  0  0  0  0  0  0  0  0  0
    3.7539   -0.3993    0.8882 H   0  0  0  0  0  0  0  0  0  0  0  0
    3.1768    2.3112   -0.4164 H   0  0  0  0  0  0  0  0  0  0  0  0
    4.7478    1.4780   -0.4964 H   0  0  0  0  0  0  0  0  0  0  0  0
    0.4919    1.9948   -0.6868 H   0  0  0  0  0  0  0  0  0  0  0  0
    3.3947   -1.5767   -2.4173 H   0  0  0  0  0  0  0  0  0  0  0  0
    4.7568    1.5043    1.7944 H   0  0  0  0  0  0  0  0  0  0  0  0
   -3.7323   -2.4800    1.1843 H   0  0  0  0  0  0  0  0  0  0  0  0
   -4.2987    2.2933   -1.1484 H   0  0  0  0  0  0  0  0  0  0  0  0
   -5.6407    1.2420   -0.7326 H   0  0  0  0  0  0  0  0  0  0  0  0
  1 12  1  0  0  0  0
  2 10  1  0  0  0  0
  2 13  1  0  0  0  0
  3 11  1  0  0  0  0
  3 27  1  0  0  0  0
  4 14  1  0  0  0  0
  4 28  1  0  0  0  0
  5 10  1  0  0  0  0
  5 15  1  0  0  0  0
  5 16  1  0  0  0  0
  6 16  2  0  0  0  0
  6 17  1  0  0  0  0
  7 15  2  0  0  0  0
  7 19  1  0  0  0  0
  8 18  1  0  0  0  0
  8 19  2  0  0  0  0
  9 18  1  0  0  0  0
  9 30  1  0  0  0  0
  9 31  1  0  0  0  0
 10 12  1  0  0  0  0
 10 20  1  0  0  0  0
 11 12  1  0  0  0  0
 11 13  1  0  0  0  0
 11 21  1  0  0  0  0
 12 22  1  0  0  0  0
 13 14  1  0  0  0  0
 13 23  1  0  0  0  0
 14 24  1  0  0  0  0
 14 25  1  0  0  0  0
 15 17  1  0  0  0  0
 16 26  1  0  0  0  0
 17 18  2  0  0  0  0
 19 29  1  0  0  0  0
M  END
> <PUBCHEM_COMPOUND_CID>
125209

> <PUBCHEM_CONFORMER_RMSD>
0.6

> <PUBCHEM_CONFORMER_DIVERSEORDER>
1
15
9
5
7
16
4
8
2
12
3
14
13
10
11
6

> <PUBCHEM_MMFF94_PARTIAL_CHARGES>
25
1 -0.23
10 0.54
11 0.28
12 0.23
13 0.28
14 0.28
15 0.11
16 0.04
17 0.23
18 0.41
19 0.47
2 -0.56
26 0.15
27 0.4
28 0.4
29 0.15
3 -0.68
30 0.4
31 0.4
4 -0.68
5 0.05
6 -0.57
7 -0.57
8 -0.62
9 -0.9

> <PUBCHEM_EFFECTIVE_ROTOR_COUNT>
3

> <PUBCHEM_PHARMACOPHORE_FEATURES>
14
1 1 hydrophobe
1 2 acceptor
1 3 acceptor
1 3 donor
1 4 acceptor
1 4 donor
1 9 cation
1 9 donor
3 5 6 16 cation
3 5 7 15 cation
3 7 8 19 cation
5 2 10 11 12 13 rings
5 5 6 15 16 17 rings
6 7 8 15 17 18 19 rings

> <PUBCHEM_HEAVY_ATOM_COUNT>
19

> <PUBCHEM_ATOM_DEF_STEREO_COUNT>
4

> <PUBCHEM_ATOM_UDEF_STEREO_COUNT>
0

> <PUBCHEM_BOND_DEF_STEREO_COUNT>
0

> <PUBCHEM_BOND_UDEF_STEREO_COUNT>
0

> <PUBCHEM_ISOTOPIC_ATOM_COUNT>
0

> <PUBCHEM_COMPONENT_COUNT>
1

> <PUBCHEM_CACTVS_TAUTO_COUNT>
3

> <PUBCHEM_CONFORMER_ID>
0001E91900000001

> <PUBCHEM_MMFF94_ENERGY>
44.0422

> <PUBCHEM_FEATURE_SELFOVERLAP>
71.655

> <PUBCHEM_SHAPE_FINGERPRINT>
10498660 4 18259988162725244661
10608611 8 18409727326849128109
10871710 139 16174542624825813212
11132069 177 18260266377795423057
12173636 292 18041835091935617517
12236239 1 16370725941769020416
13214271 11 18336539525315773933
13296908 3 18411704283374018671
13544592 145 18338522915390593511
14289901 80 17775563139336721553
14787075 74 17842555420570476139
15219456 202 18412827992578333050
15375358 24 18335977640508915281
16945 1 18259992556492476053
17980427 23 17386565902870846956
18186145 218 18339088102826641217
19784866 170 18335983155115152032
200 152 17489586719151483343
20279233 1 18409730655580534475
20510252 161 18410009897670526345
20645477 56 18114181891859824437
20645477 70 17989205910719340222
21501502 16 18121507855624662170
23402539 116 18113611309422294998
23557571 272 18262244416361889336
23559900 14 18261676978478932302
296302 2 18341891922171095641
34934 24 18334849528931285475
495365 180 18058432249562685499
5104073 3 18334859385833693033
633830 44 17917152697964655309
7364860 26 18338230445656535042
77492 1 15123795080216294987
81228 2 17968106265661223697
9709674 26 18335140860599997403

> <PUBCHEM_SHAPE_MULTIPOLES>
354.44
8.42
2.42
1.06
3.07
0.97
-0.08
-1.83
-0.26
-1.63
0.25
-0.79
-0.05
1.69

> <PUBCHEM_SHAPE_SELFOVERLAP>
753.69

> <PUBCHEM_SHAPE_VOLUME>
203.9

> <PUBCHEM_COORDINATE_TYPE>
2
5
10

$$$$
