REMARK  Name = 125252
REMARK  11 active torsions:
REMARK  status: ('A' for Active; 'I' for Inactive)
REMARK    1  A    between atoms: C_1  and  O_2
REMARK    2  A    between atoms: C_1  and  C_4
REMARK    3  A    between atoms: C_1  and  C_18
REMARK    4  A    between atoms: C_4  and  N_5
REMARK    5  A    between atoms: N_5  and  C_8
REMARK    6  A    between atoms: C_8  and  C_11
REMARK    7  A    between atoms: C_11  and  N_13
REMARK    8  A    between atoms: C_14  and  C_17
REMARK    9  A    between atoms: C_18  and  O_19
REMARK   10  A    between atoms: O_19  and  C_21
REMARK   11  A    between atoms: C_28  and  C_31
REMARK                            x       y       z     vdW  Elec       q    Type
REMARK                         _______ _______ _______ _____ _____    ______ ____
ROOT
ATOM      1  C   UNL     1      -0.945  -3.172   0.590  0.00  0.00    +0.133 C 
ENDROOT
BRANCH   1   2
ATOM      2  O   UNL     1      -1.093  -4.224  -0.368  0.00  0.00    -0.383 OA
ATOM      3  H   UNL     1      -2.018  -4.515  -0.388  0.00  0.00    +0.210 HD
ENDBRANCH   1   2
BRANCH   1   4
ATOM      4  C   UNL     1      -1.915  -2.048   0.220  0.00  0.00    -0.048 C 
BRANCH   4   5
ATOM      5  N   UNL     1      -1.806  -0.915   1.121  0.00  0.00    +0.389 N 
ATOM      6  H   UNL     1      -2.008  -1.222   2.073  0.00  0.00    -0.084 HD
ATOM      7  H   UNL     1      -0.859  -0.539   1.068  0.00  0.00    -0.084 HD
BRANCH   5   8
ATOM      8  C   UNL     1      -2.759   0.138   0.739  0.00  0.00    -0.027 C 
ATOM      9  C   UNL     1      -2.572   1.315   1.707  0.00  0.00    -0.020 C 
ATOM     10  C   UNL     1      -2.446   0.585  -0.697  0.00  0.00    -0.020 C 
BRANCH   8  11
ATOM     11  C   UNL     1      -4.175  -0.458   0.847  0.00  0.00    +0.070 C 
BRANCH  11  13
ATOM     12  O   UNL     1      -5.595   0.731  -1.362  0.00  0.00    -0.274 OA
ATOM     13  N   UNL     1      -5.213   0.536   0.922  0.00  0.00    -0.306 N 
ATOM     14  C   UNL     1      -5.843   1.053  -0.202  0.00  0.00    +0.234 C 
ATOM     15  H   UNL     1      -5.488   0.864   1.808  0.00  0.00    +0.149 HD
BRANCH  14  17
ATOM     16 BR   UNL     1      -6.300   3.739  -0.713  0.00  0.00    -0.070 Br
ATOM     17  C   UNL     1      -6.880   2.092   0.130  0.00  0.00    +0.152 C 
ENDBRANCH  14  17
ENDBRANCH  11  13
ENDBRANCH   8  11
ENDBRANCH   5   8
ENDBRANCH   4   5
ENDBRANCH   1   4
BRANCH   1  18
ATOM     18  C   UNL     1       0.517  -2.730   0.604  0.00  0.00    +0.232 C 
BRANCH  18  19
ATOM     19  O   UNL     1       0.877  -2.290  -0.702  0.00  0.00    -0.473 OA
BRANCH  19  21
ATOM     20  N   UNL     1       4.790   1.558  -0.800  0.00  0.00    -0.305 N 
ATOM     21  C   UNL     1       1.828  -1.308  -0.780  0.00  0.00    +0.139 C 
ATOM     22  C   UNL     1       3.788  -0.209   0.124  0.00  0.00    +0.018 C 
ATOM     23  C   UNL     1       3.740   0.680  -0.952  0.00  0.00    +0.049 C 
ATOM     24  C   UNL     1       2.813  -1.222   0.210  0.00  0.00    +0.038 C 
ATOM     25  C   UNL     1       1.805  -0.408  -1.843  0.00  0.00    +0.038 C 
ATOM     26  C   UNL     1       2.762   0.606  -1.950  0.00  0.00    +0.018 C 
ATOM     27  C   UNL     1       4.903   0.166   0.925  0.00  0.00    +0.027 C 
ATOM     28  C   UNL     1       5.498   1.255   0.332  0.00  0.00    +0.118 C 
ATOM     29  H   UNL     1       5.001   2.296  -1.416  0.00  0.00    +0.153 HD
BRANCH  28  31
ATOM     30  N   UNL     1       7.577   2.558   1.130  0.00  0.00    -0.190 NA
ATOM     31  C   UNL     1       6.642   1.972   0.771  0.00  0.00    +0.115 C 
ENDBRANCH  28  31
ENDBRANCH  19  21
ENDBRANCH  18  19
ENDBRANCH   1  18
TORSDOF 11
