REMARK  Name = 125202
REMARK  3 active torsions:
REMARK  status: ('A' for Active; 'I' for Inactive)
REMARK    1  A    between atoms: N_2  and  C_5
REMARK    2  A    between atoms: N_2  and  C_16
REMARK    3  A    between atoms: C_6  and  C_25
REMARK                            x       y       z     vdW  Elec       q    Type
REMARK                         _______ _______ _______ _____ _____    ______ ____
ROOT
ATOM      1  O   UNL     1       1.104   1.271  -0.201  0.00  0.00    -0.267 OA
ATOM      2  N   UNL     1       1.200  -0.884   0.699  0.00  0.00    -0.250 N 
ATOM      3  N   UNL     1      -0.376  -2.413   1.467  0.00  0.00    -0.371 N 
ATOM      4  C   UNL     1      -0.152  -1.165   0.933  0.00  0.00    +0.189 C 
ATOM      5  C   UNL     1       1.743   0.287   0.159  0.00  0.00    +0.285 C 
ATOM      6  H   UNL     1       1.841  -1.591   0.941  0.00  0.00    +0.158 HD
ATOM      7  H   UNL     1      -1.294  -2.705   1.668  0.00  0.00    +0.159 HD
ATOM      8  H   UNL     1       0.382  -3.014   1.648  0.00  0.00    +0.159 HD
ENDROOT
BRANCH   5  13
ATOM      9 CL   UNL     1       5.727  -2.503  -0.692  0.00  0.00    -0.044 Cl
ATOM     10  N   UNL     1       3.739  -0.921  -0.240  0.00  0.00    -0.378 NA
ATOM     11  N   UNL     1       5.288   1.413  -0.090  0.00  0.00    -0.367 NA
ATOM     12  N   UNL     1       7.238   0.127  -0.496  0.00  0.00    -0.330 N 
ATOM     13  C   UNL     1       3.219   0.287  -0.011  0.00  0.00    +0.229 C 
ATOM     14  C   UNL     1       3.949   1.433   0.067  0.00  0.00    +0.213 C 
ATOM     15  C   UNL     1       5.078  -0.941  -0.397  0.00  0.00    +0.232 C 
ATOM     16  C   UNL     1       5.838   0.205  -0.323  0.00  0.00    +0.220 C 
ATOM     17  H   UNL     1       7.787   0.943  -0.444  0.00  0.00    +0.145 HD
ATOM     18  H   UNL     1       7.665  -0.743  -0.668  0.00  0.00    +0.145 HD
ATOM     19  N   UNL     1       3.313   2.671   0.313  0.00  0.00    -0.331 N 
ATOM     20  H   UNL     1       3.846   3.497   0.368  0.00  0.00    +0.145 HD
ATOM     21  H   UNL     1       2.336   2.707   0.430  0.00  0.00    +0.145 HD
ENDBRANCH   5  13
BRANCH   4  22
ATOM     22  N   UNL     1      -1.019  -0.261   0.637  0.00  0.00    -0.244 NA
BRANCH  22  29
ATOM     23  O   UNL     1      -6.013   0.848  -1.232  0.00  0.00    -0.118 OA
ATOM     24  N   UNL     1      -4.821   0.382  -0.545  0.00  0.00    -0.138 NA
ATOM     25  C   UNL     1      -3.923   1.395   0.138  0.00  0.00    +0.075 C 
ATOM     26  C   UNL     1      -4.511  -1.101  -0.535  0.00  0.00    +0.075 C 
ATOM     27  C   UNL     1      -3.173   0.690   1.280  0.00  0.00    +0.042 C 
ATOM     28  C   UNL     1      -3.001  -1.279  -0.336  0.00  0.00    +0.042 C 
ATOM     29  C   UNL     1      -2.429  -0.585   0.895  0.00  0.00    +0.109 C 
ATOM     30  C   UNL     1      -4.787   2.509   0.759  0.00  0.00    +0.019 C 
ATOM     31  C   UNL     1      -2.998   1.988  -0.927  0.00  0.00    +0.019 C 
ATOM     32  C   UNL     1      -5.346  -1.743   0.576  0.00  0.00    +0.019 C 
ATOM     33  C   UNL     1      -4.887  -1.710  -1.898  0.00  0.00    +0.019 C 
ENDBRANCH  22  29
ENDBRANCH   4  22
TORSDOF 3
