REMARK  Name = 125294
REMARK  6 active torsions:
REMARK  status: ('A' for Active; 'I' for Inactive)
REMARK    1  A    between atoms: C_2  and  C_17
REMARK    2  A    between atoms: C_10  and  O_28
REMARK    3  A    between atoms: C_11  and  O_30
REMARK    4  A    between atoms: C_17  and  C_18
REMARK    5  A    between atoms: C_19  and  O_24
REMARK    6  A    between atoms: O_24  and  C_26
REMARK                            x       y       z     vdW  Elec       q    Type
REMARK                         _______ _______ _______ _____ _____    ______ ____
ROOT
ATOM      1  O   UNL     1      -3.828  -0.904  -0.875  0.00  0.00    -0.286 OA
ATOM      2  C   UNL     1      -0.235   0.452   0.686  0.00  0.00    +0.107 C 
ATOM      3  C   UNL     1      -1.346   1.408   0.318  0.00  0.00    -0.005 C 
ATOM      4  C   UNL     1      -0.668  -0.987   0.840  0.00  0.00    -0.005 C 
ATOM      5  C   UNL     1      -2.577   0.957  -0.172  0.00  0.00    +0.069 C 
ATOM      6  C   UNL     1      -1.898  -1.444   0.351  0.00  0.00    +0.069 C 
ATOM      7  C   UNL     1      -2.845  -0.494  -0.271  0.00  0.00    +0.201 C 
ATOM      8  C   UNL     1      -1.133   2.793   0.430  0.00  0.00    -0.003 C 
ATOM      9  C   UNL     1       0.197  -1.909   1.454  0.00  0.00    -0.003 C 
ATOM     10  C   UNL     1      -3.572   1.867  -0.550  0.00  0.00    +0.136 C 
ATOM     11  C   UNL     1      -2.253  -2.795   0.465  0.00  0.00    +0.136 C 
ATOM     12  C   UNL     1      -2.126   3.700   0.058  0.00  0.00    +0.003 C 
ATOM     13  C   UNL     1      -0.159  -3.252   1.572  0.00  0.00    +0.003 C 
ATOM     14  C   UNL     1      -3.343   3.237  -0.434  0.00  0.00    +0.037 C 
ATOM     15  C   UNL     1      -1.382  -3.695   1.075  0.00  0.00    +0.037 C 
ENDROOT
BRANCH   2  17
ATOM     16  O   UNL     1       0.673   0.231  -1.503  0.00  0.00    -0.291 OA
ATOM     17  C   UNL     1       0.869   0.542  -0.330  0.00  0.00    +0.184 C 
BRANCH  17  18
ATOM     18  C   UNL     1       2.215   1.015   0.102  0.00  0.00    +0.070 C 
ATOM     19  C   UNL     1       3.340   0.554  -0.546  0.00  0.00    +0.151 C 
ATOM     20  C   UNL     1       2.278   1.908   1.150  0.00  0.00    +0.006 C 
ATOM     21  C   UNL     1       4.590   1.008  -0.125  0.00  0.00    +0.038 C 
ATOM     22  C   UNL     1       3.529   2.362   1.570  0.00  0.00    +0.000 C 
ATOM     23  C   UNL     1       4.684   1.912   0.933  0.00  0.00    +0.003 C 
BRANCH  19  24
ATOM     24  O   UNL     1       3.269  -0.331  -1.580  0.00  0.00    -0.424 OA
BRANCH  24  26
ATOM     25  O   UNL     1       3.411  -2.084  -0.036  0.00  0.00    -0.250 OA
ATOM     26  C   UNL     1       3.315  -1.677  -1.186  0.00  0.00    +0.322 C 
ATOM     27  C   UNL     1       3.231  -2.567  -2.391  0.00  0.00    +0.122 C 
ENDBRANCH  24  26
ENDBRANCH  19  24
ENDBRANCH  17  18
ENDBRANCH   2  17
BRANCH  10  28
ATOM     28  O   UNL     1      -4.792   1.479  -1.021  0.00  0.00    -0.505 OA
ATOM     29  H   UNL     1      -4.989   0.568  -1.115  0.00  0.00    +0.292 HD
ENDBRANCH  10  28
BRANCH  11  30
ATOM     30  O   UNL     1      -3.443  -3.288   0.017  0.00  0.00    -0.505 OA
ATOM     31  H   UNL     1      -4.060  -2.718  -0.399  0.00  0.00    +0.292 HD
ENDBRANCH  11  30
TORSDOF 6
