REMARK  Name = 125244
REMARK  4 active torsions:
REMARK  status: ('A' for Active; 'I' for Inactive)
REMARK    1  A    between atoms: O_1  and  C_4
REMARK    2  A    between atoms: O_1  and  C_15
REMARK    3  A    between atoms: C_5  and  C_11
REMARK    4  A    between atoms: C_15  and  C_20
REMARK                            x       y       z     vdW  Elec       q    Type
REMARK                         _______ _______ _______ _____ _____    ______ ____
ROOT
ATOM      1  O   UNL     1      -1.036  -0.319   0.014  0.00  0.00    -0.406 OA
ENDROOT
BRANCH   1   4
ATOM      2  N   UNL     1      -4.501  -0.146  -0.093  0.00  0.00    -0.309 N 
ATOM      3  N   UNL     1      -2.966  -1.742  -0.268  0.00  0.00    -0.286 N 
ATOM      4  C   UNL     1      -2.377  -0.528  -0.067  0.00  0.00    +0.218 C 
ATOM      5  C   UNL     1      -3.294   0.479   0.045  0.00  0.00    +0.149 C 
ATOM      6  C   UNL     1      -4.253  -1.478  -0.279  0.00  0.00    +0.184 C 
ATOM      7  H   UNL     1      -5.386   0.283  -0.065  0.00  0.00    +0.149 HD
ATOM      8  H   UNL     1      -2.526  -2.616  -0.379  0.00  0.00    +0.151 HD
BRANCH   5  11
ATOM      9  O   UNL     1      -2.012   2.448   0.404  0.00  0.00    -0.269 OA
ATOM     10  N   UNL     1      -4.268   2.684   0.330  0.00  0.00    -0.324 N 
ATOM     11  C   UNL     1      -3.122   1.879   0.257  0.00  0.00    +0.260 C 
ATOM     12  H   UNL     1      -4.179   3.654   0.476  0.00  0.00    +0.145 HD
ATOM     13  H   UNL     1      -5.160   2.280   0.236  0.00  0.00    +0.145 HD
ENDBRANCH   5  11
ENDBRANCH   1   4
BRANCH   1  15
ATOM     14  O   UNL     1      -0.521  -2.559  -0.261  0.00  0.00    -0.244 OA
ATOM     15  C   UNL     1      -0.174  -1.380  -0.107  0.00  0.00    +0.347 C 
BRANCH  15  20
ATOM     16  O   UNL     1       3.439   1.883  -0.687  0.00  0.00    -0.435 OA
ATOM     17  O   UNL     1       5.078   0.399   0.272  0.00  0.00    -0.435 OA
ATOM     18  C   UNL     1       2.900   0.692  -0.309  0.00  0.00    +0.177 C 
ATOM     19  C   UNL     1       3.836  -0.155   0.239  0.00  0.00    +0.176 C 
ATOM     20  C   UNL     1       1.209  -0.946   0.008  0.00  0.00    +0.079 C 
ATOM     21  C   UNL     1       1.576   0.326  -0.438  0.00  0.00    +0.047 C 
ATOM     22  C   UNL     1       3.499  -1.416   0.687  0.00  0.00    +0.040 C 
ATOM     23  C   UNL     1       2.165  -1.812   0.568  0.00  0.00    +0.010 C 
ATOM     24  C   UNL     1       4.819   1.691  -0.315  0.00  0.00    +0.429 C 
ENDBRANCH  15  20
ENDBRANCH   1  15
TORSDOF 4
