REMARK  Name = 125266
REMARK  6 active torsions:
REMARK  status: ('A' for Active; 'I' for Inactive)
REMARK    1  A    between atoms: C_2  and  C_10
REMARK    2  A    between atoms: C_3  and  C_20
REMARK    3  A    between atoms: C_4  and  C_27
REMARK    4  A    between atoms: C_11  and  N_18
REMARK    5  A    between atoms: C_20  and  C_22
REMARK    6  A    between atoms: C_27  and  O_28
REMARK                            x       y       z     vdW  Elec       q    Type
REMARK                         _______ _______ _______ _____ _____    ______ ____
ROOT
ATOM      1  N   UNL     1      -0.026   2.934  -0.963  0.00  0.00    -0.334 N 
ATOM      2  C   UNL     1       0.237   0.317   0.090  0.00  0.00    +0.009 C 
ATOM      3  C   UNL     1      -0.959   0.769  -0.753  0.00  0.00    +0.038 C 
ATOM      4  C   UNL     1       1.190   1.466   0.440  0.00  0.00    +0.085 C 
ATOM      5  C   UNL     1      -1.027   2.022  -1.257  0.00  0.00    +0.095 C 
ATOM      6  C   UNL     1       1.032   2.696  -0.100  0.00  0.00    +0.028 C 
ATOM      7  C   UNL     1      -2.129   2.550  -2.136  0.00  0.00    +0.026 C 
ATOM      8  C   UNL     1       1.929   3.879   0.146  0.00  0.00    +0.047 C 
ATOM      9  H   UNL     1      -0.070   3.815  -1.400  0.00  0.00    +0.147 HD
ENDROOT
BRANCH   2  10
ATOM     10  C   UNL     1       0.987  -0.769  -0.627  0.00  0.00    +0.023 C 
ATOM     11  C   UNL     1       1.099  -2.045  -0.082  0.00  0.00    +0.143 C 
ATOM     12  C   UNL     1       1.571  -0.471  -1.855  0.00  0.00    +0.002 C 
ATOM     13  C   UNL     1       1.803  -3.032  -0.772  0.00  0.00    +0.024 C 
ATOM     14  C   UNL     1       2.275  -1.459  -2.544  0.00  0.00    +0.000 C 
ATOM     15  C   UNL     1       2.391  -2.739  -2.002  0.00  0.00    +0.002 C 
BRANCH  11  18
ATOM     16  O   UNL     1       0.640  -3.528   1.623  0.00  0.00    -0.126 OA
ATOM     17  O   UNL     1      -0.121  -1.475   1.789  0.00  0.00    -0.126 OA
ATOM     18  N   UNL     1       0.510  -2.365   1.172  0.00  0.00    +0.058 N 
ENDBRANCH  11  18
ENDBRANCH   2  10
BRANCH   3  20
ATOM     19  O   UNL     1      -1.998  -0.921  -1.949  0.00  0.00    -0.284 OA
ATOM     20  C   UNL     1      -2.042  -0.210  -0.939  0.00  0.00    +0.227 C 
BRANCH  20  22
ATOM     21  O   UNL     1      -3.067   0.548   1.075  0.00  0.00    -0.447 OA
ATOM     22  C   UNL     1      -3.135  -0.298   0.042  0.00  0.00    +0.184 C 
ATOM     23  C   UNL     1      -4.208  -1.107   0.070  0.00  0.00    +0.044 C 
ATOM     24  C   UNL     1      -4.903  -0.737   1.247  0.00  0.00    +0.044 C 
ATOM     25  C   UNL     1      -4.168   0.273   1.822  0.00  0.00    +0.180 C 
ENDBRANCH  20  22
ENDBRANCH   3  20
BRANCH   4  27
ATOM     26  O   UNL     1       2.066   1.288   2.635  0.00  0.00    -0.245 OA
ATOM     27  C   UNL     1       2.235   1.175   1.435  0.00  0.00    +0.342 C 
BRANCH  27  28
ATOM     28  O   UNL     1       3.353   0.780   0.778  0.00  0.00    -0.441 OA
ATOM     29  C   UNL     1       4.467   0.459   1.617  0.00  0.00    +0.256 C 
ENDBRANCH  27  28
ENDBRANCH   4  27
TORSDOF 6
