REMARK  Name = 125257
REMARK  6 active torsions:
REMARK  status: ('A' for Active; 'I' for Inactive)
REMARK    1  A    between atoms: C_6  and  N_16
REMARK    2  A    between atoms: C_7  and  O_24
REMARK    3  A    between atoms: C_8  and  N_20
REMARK    4  A    between atoms: C_9  and  O_26
REMARK    5  A    between atoms: C_10  and  O_28
REMARK    6  A    between atoms: C_12  and  O_30
REMARK                            x       y       z     vdW  Elec       q    Type
REMARK                         _______ _______ _______ _____ _____    ______ ____
ROOT
ATOM      1  O   UNL     1       0.816   0.882  -0.014  0.00  0.00    -0.327 OA
ATOM      2  O   UNL     1       0.261  -1.656  -1.078  0.00  0.00    -0.324 OA
ATOM      3  O   UNL     1       2.063  -1.837   0.445  0.00  0.00    -0.324 OA
ATOM      4  C   UNL     1      -0.517   0.503  -0.375  0.00  0.00    +0.131 C 
ATOM      5  C   UNL     1      -0.645  -1.007  -0.177  0.00  0.00    +0.168 C 
ATOM      6  C   UNL     1      -1.527   1.251   0.508  0.00  0.00    -0.006 C 
ATOM      7  C   UNL     1      -2.068  -1.506  -0.451  0.00  0.00    +0.123 C 
ATOM      8  C   UNL     1      -3.090  -0.733   0.403  0.00  0.00    -0.006 C 
ATOM      9  C   UNL     1      -2.966   0.790   0.206  0.00  0.00    +0.077 C 
ATOM     10  C   UNL     1       1.805   0.235  -0.830  0.00  0.00    +0.290 C 
ATOM     11  C   UNL     1       1.626  -1.301  -0.808  0.00  0.00    +0.296 C 
ATOM     12  C   UNL     1       3.145   0.620  -0.260  0.00  0.00    +0.170 C 
ATOM     13  C   UNL     1       3.472  -1.675   0.652  0.00  0.00    +0.143 C 
ATOM     14  C   UNL     1       3.915  -0.261   0.398  0.00  0.00    +0.040 C 
ATOM     15  C   UNL     1       3.761  -2.091   2.089  0.00  0.00    +0.037 C 
ENDROOT
BRANCH   6  16
ATOM     16  N   UNL     1      -1.406   2.700   0.316  0.00  0.00    +0.387 N 
ATOM     17  C   UNL     1      -2.368   3.408   1.144  0.00  0.00    -0.105 C 
ATOM     18  H   UNL     1      -1.578   2.924  -0.664  0.00  0.00    -0.084 HD
ATOM     19  H   UNL     1      -0.465   2.990   0.584  0.00  0.00    -0.084 HD
ENDBRANCH   6  16
BRANCH   8  20
ATOM     20  N   UNL     1      -4.448  -1.188   0.083  0.00  0.00    +0.387 N 
ATOM     21  C   UNL     1      -5.421  -0.528   0.937  0.00  0.00    -0.105 C 
ATOM     22  H   UNL     1      -4.506  -2.196   0.225  0.00  0.00    -0.084 HD
ATOM     23  H   UNL     1      -4.652  -0.956  -0.889  0.00  0.00    -0.084 HD
ENDBRANCH   8  20
BRANCH   7  24
ATOM     24  O   UNL     1      -2.110  -2.892  -0.103  0.00  0.00    -0.384 OA
ATOM     25  H   UNL     1      -1.467  -3.380  -0.641  0.00  0.00    +0.210 HD
ENDBRANCH   7  24
BRANCH   9  26
ATOM     26  O   UNL     1      -3.307   1.104  -1.147  0.00  0.00    -0.388 OA
ATOM     27  H   UNL     1      -3.233   2.061  -1.285  0.00  0.00    +0.210 HD
ENDBRANCH   9  26
BRANCH  10  28
ATOM     28  O   UNL     1       1.718   0.659  -2.195  0.00  0.00    -0.355 OA
ATOM     29  H   UNL     1       0.853   0.408  -2.556  0.00  0.00    +0.213 HD
ENDBRANCH  10  28
BRANCH  12  30
ATOM     30  O   UNL     1       3.533   1.925  -0.483  0.00  0.00    -0.471 OA
ATOM     31  C   UNL     1       3.758   2.598   0.741  0.00  0.00    +0.252 C 
ENDBRANCH  12  30
TORSDOF 6
