REMARK  Name = 125241
REMARK  8 active torsions:
REMARK  status: ('A' for Active; 'I' for Inactive)
REMARK    1  A    between atoms: CA_5  and  N_11
REMARK    2  A    between atoms: CA_7  and  C_22
REMARK    3  A    between atoms: C_8  and  C_25
REMARK    4  A    between atoms: C_12  and  C_15
REMARK    5  A    between atoms: C_15  and  C_17
REMARK    6  A    between atoms: C_22  and  O_23
REMARK    7  A    between atoms: C_25  and  O_26
REMARK    8  A    between atoms: O_26  and  C_28
REMARK                            x       y       z     vdW  Elec       q    Type
REMARK                         _______ _______ _______ _____ _____    ______ ____
ROOT
ATOM      1  S   UNL     1       0.208   1.029   0.564  0.00  0.00    -0.114 S 
ATOM      2  O   UNL     1      -0.099  -3.505  -0.420  0.00  0.00    -0.273 OA
ATOM      3  N   UNL     1      -0.865  -1.381   0.263  0.00  0.00    -0.242 N 
ATOM      4  C   UNL     1      -0.072  -0.632   1.220  0.00  0.00    +0.155 C 
ATOM      5  CA  UNL     1       1.044  -1.668   0.963  0.00  0.00    +0.178 C 
ATOM      6  C   UNL     1      -0.035  -2.442   0.152  0.00  0.00    +0.251 C 
ATOM      7  CA  UNL     1      -2.052  -0.950  -0.236  0.00  0.00    +0.127 C 
ATOM      8  C   UNL     1      -2.448   0.338  -0.106  0.00  0.00    +0.030 C 
ATOM      9  C   UNL     1      -1.572   1.428   0.510  0.00  0.00    +0.086 C 
ENDROOT
BRANCH   5  11
ATOM     10  O   UNL     1       3.695  -1.029   1.925  0.00  0.00    -0.272 OA
ATOM     11  N   UNL     1       2.201  -1.269   0.162  0.00  0.00    -0.294 N 
ATOM     12  C   UNL     1       3.443  -0.980   0.722  0.00  0.00    +0.260 C 
ATOM     13  H   UNL     1       2.097  -1.201  -0.814  0.00  0.00    +0.150 HD
BRANCH  12  15
ATOM     14  F   UNL     1       5.722  -1.036   0.100  0.00  0.00    -0.222 F 
ATOM     15  C   UNL     1       4.494  -0.596  -0.301  0.00  0.00    +0.264 C 
BRANCH  15  17
ATOM     16  S   UNL     1       3.508   1.599  -1.652  0.00  0.00    -0.088 S 
ATOM     17  C   UNL     1       4.497   0.902  -0.459  0.00  0.00    +0.048 C 
ATOM     18  C   UNL     1       5.216   1.811   0.255  0.00  0.00    +0.006 C 
ATOM     19  C   UNL     1       4.952   3.139  -0.188  0.00  0.00    +0.007 C 
ATOM     20  C   UNL     1       4.040   3.168  -1.221  0.00  0.00    +0.035 C 
ENDBRANCH  15  17
ENDBRANCH  12  15
ENDBRANCH   5  11
BRANCH   7  22
ATOM     21  OXT UNL     1      -2.741  -2.149  -2.169  0.00  0.00    -0.244 OA
ATOM     22  C   UNL     1      -2.857  -1.930  -0.981  0.00  0.00    +0.352 C 
BRANCH  22  23
ATOM     23  O   UNL     1      -3.725  -2.526  -0.140  0.00  0.00    -0.476 OA
ATOM     24  H   UNL     1      -3.739  -2.288   0.766  0.00  0.00    +0.295 HD
ENDBRANCH  22  23
ENDBRANCH   7  22
BRANCH   8  25
ATOM     25  C   UNL     1      -3.784   0.874  -0.559  0.00  0.00    +0.233 C 
BRANCH  25  26
ATOM     26  O   UNL     1      -4.474   1.411   0.549  0.00  0.00    -0.444 OA
BRANCH  26  28
ATOM     27  O   UNL     1      -6.258   1.983  -0.801  0.00  0.00    -0.250 OA
ATOM     28  C   UNL     1      -5.713   1.940   0.293  0.00  0.00    +0.318 C 
ATOM     29  C   UNL     1      -6.323   2.469   1.556  0.00  0.00    +0.121 C 
ENDBRANCH  26  28
ENDBRANCH  25  26
ENDBRANCH   8  25
TORSDOF 8
