125294
  -OEChem-03292013323D

 45 48  0     0  0  0  0  0  0999 V2000
    0.6735    0.2314   -1.5029 O   0  0  0  0  0  0  0  0  0  0  0  0
   -3.8277   -0.9037   -0.8750 O   0  0  0  0  0  0  0  0  0  0  0  0
   -4.7918    1.4790   -1.0206 O   0  0  0  0  0  0  0  0  0  0  0  0
   -3.4434   -3.2878    0.0173 O   0  0  0  0  0  0  0  0  0  0  0  0
    3.2689   -0.3306   -1.5804 O   0  0  0  0  0  0  0  0  0  0  0  0
    3.4113   -2.0839   -0.0359 O   0  0  0  0  0  0  0  0  0  0  0  0
   -0.2350    0.4524    0.6858 C   0  0  0  0  0  0  0  0  0  0  0  0
   -1.3457    1.4083    0.3179 C   0  0  0  0  0  0  0  0  0  0  0  0
   -0.6682   -0.9869    0.8395 C   0  0  0  0  0  0  0  0  0  0  0  0
   -2.5774    0.9566   -0.1716 C   0  0  0  0  0  0  0  0  0  0  0  0
   -1.8982   -1.4444    0.3511 C   0  0  0  0  0  0  0  0  0  0  0  0
    0.8690    0.5417   -0.3300 C   0  0  0  0  0  0  0  0  0  0  0  0
   -2.8447   -0.4940   -0.2705 C   0  0  0  0  0  0  0  0  0  0  0  0
   -1.1335    2.7927    0.4301 C   0  0  0  0  0  0  0  0  0  0  0  0
    0.1965   -1.9085    1.4535 C   0  0  0  0  0  0  0  0  0  0  0  0
   -3.5723    1.8673   -0.5503 C   0  0  0  0  0  0  0  0  0  0  0  0
   -2.2535   -2.7946    0.4646 C   0  0  0  0  0  0  0  0  0  0  0  0
    2.2146    1.0148    0.1019 C   0  0  0  0  0  0  0  0  0  0  0  0
   -2.1257    3.7003    0.0580 C   0  0  0  0  0  0  0  0  0  0  0  0
   -0.1587   -3.2525    1.5717 C   0  0  0  0  0  0  0  0  0  0  0  0
   -3.3428    3.2374   -0.4342 C   0  0  0  0  0  0  0  0  0  0  0  0
   -1.3816   -3.6950    1.0751 C   0  0  0  0  0  0  0  0  0  0  0  0
    3.3399    0.5538   -0.5457 C   0  0  0  0  0  0  0  0  0  0  0  0
    2.2782    1.9081    1.1502 C   0  0  0  0  0  0  0  0  0  0  0  0
    4.5901    1.0079   -0.1254 C   0  0  0  0  0  0  0  0  0  0  0  0
    3.5285    2.3619    1.5704 C   0  0  0  0  0  0  0  0  0  0  0  0
    4.6844    1.9118    0.9327 C   0  0  0  0  0  0  0  0  0  0  0  0
    3.3148   -1.6770   -1.1861 C   0  0  0  0  0  0  0  0  0  0  0  0
    3.2305   -2.5665   -2.3910 C   0  0  0  0  0  0  0  0  0  0  0  0
    0.0925    0.7360    1.6913 H   0  0  0  0  0  0  0  0  0  0  0  0
   -0.2004    3.1989    0.7982 H   0  0  0  0  0  0  0  0  0  0  0  0
    1.1579   -1.5823    1.8431 H   0  0  0  0  0  0  0  0  0  0  0  0
   -1.9468    4.7678    0.1491 H   0  0  0  0  0  0  0  0  0  0  0  0
    0.5206   -3.9531    2.0484 H   0  0  0  0  0  0  0  0  0  0  0  0
   -4.1043    3.9587   -0.7191 H   0  0  0  0  0  0  0  0  0  0  0  0
   -1.6510   -4.7434    1.1713 H   0  0  0  0  0  0  0  0  0  0  0  0
    1.4235    2.2883    1.6896 H   0  0  0  0  0  0  0  0  0  0  0  0
    5.4952    0.6620   -0.6176 H   0  0  0  0  0  0  0  0  0  0  0  0
   -5.3298    2.2641   -1.2199 H   0  0  0  0  0  0  0  0  0  0  0  0
   -4.0143   -2.5701   -0.2963 H   0  0  0  0  0  0  0  0  0  0  0  0
    3.6031    3.0645    2.3954 H   0  0  0  0  0  0  0  0  0  0  0  0
    5.6578    2.2649    1.2602 H   0  0  0  0  0  0  0  0  0  0  0  0
    2.2877   -2.3891   -2.9144 H   0  0  0  0  0  0  0  0  0  0  0  0
    3.2618   -3.6123   -2.0727 H   0  0  0  0  0  0  0  0  0  0  0  0
    4.0801   -2.3756   -3.0509 H   0  0  0  0  0  0  0  0  0  0  0  0
  1 12  2  0  0  0  0
  2 13  2  0  0  0  0
  3 16  1  0  0  0  0
  3 39  1  0  0  0  0
  4 17  1  0  0  0  0
  4 40  1  0  0  0  0
  5 23  1  0  0  0  0
  5 28  1  0  0  0  0
  6 28  2  0  0  0  0
  7  8  1  0  0  0  0
  7  9  1  0  0  0  0
  7 12  1  0  0  0  0
  7 30  1  0  0  0  0
  8 10  2  0  0  0  0
  8 14  1  0  0  0  0
  9 11  2  0  0  0  0
  9 15  1  0  0  0  0
 10 13  1  0  0  0  0
 10 16  1  0  0  0  0
 11 13  1  0  0  0  0
 11 17  1  0  0  0  0
 12 18  1  0  0  0  0
 14 19  2  0  0  0  0
 14 31  1  0  0  0  0
 15 20  2  0  0  0  0
 15 32  1  0  0  0  0
 16 21  2  0  0  0  0
 17 22  2  0  0  0  0
 18 23  1  0  0  0  0
 18 24  2  0  0  0  0
 19 21  1  0  0  0  0
 19 33  1  0  0  0  0
 20 22  1  0  0  0  0
 20 34  1  0  0  0  0
 21 35  1  0  0  0  0
 22 36  1  0  0  0  0
 23 25  2  0  0  0  0
 24 26  1  0  0  0  0
 24 37  1  0  0  0  0
 25 27  1  0  0  0  0
 25 38  1  0  0  0  0
 26 27  2  0  0  0  0
 26 41  1  0  0  0  0
 27 42  1  0  0  0  0
 28 29  1  0  0  0  0
 29 43  1  0  0  0  0
 29 44  1  0  0  0  0
 29 45  1  0  0  0  0
M  END
> <PUBCHEM_COMPOUND_CID>
125294

> <PUBCHEM_CONFORMER_RMSD>
0.8

> <PUBCHEM_CONFORMER_DIVERSEORDER>
1
15
6
14
20
19
38
37
13
30
29
4
34
24
10
35
28
31
27
26
17
2
11
32
21
25
12
5
16
9
18
3
8
7
23
22
33
36

> <PUBCHEM_MMFF94_PARTIAL_CHARGES>
41
1 -0.57
10 0.09
11 0.09
12 0.42
13 0.4
14 -0.15
15 -0.15
16 0.08
17 0.08
18 0.09
19 -0.15
2 -0.57
20 -0.15
21 -0.15
22 -0.15
23 0.08
24 -0.15
25 -0.15
26 -0.15
27 -0.15
28 0.66
29 0.06
3 -0.53
31 0.15
32 0.15
33 0.15
34 0.15
35 0.15
36 0.15
37 0.15
38 0.15
39 0.45
4 -0.53
40 0.45
41 0.15
42 0.15
5 -0.23
6 -0.57
7 0.35
8 -0.14
9 -0.14

> <PUBCHEM_EFFECTIVE_ROTOR_COUNT>
4.2

> <PUBCHEM_PHARMACOPHORE_FEATURES>
9
1 1 acceptor
1 2 acceptor
1 3 donor
1 4 donor
1 6 acceptor
6 18 23 24 25 26 27 rings
6 7 8 9 10 11 13 rings
6 8 10 14 16 19 21 rings
6 9 11 15 17 20 22 rings

> <PUBCHEM_HEAVY_ATOM_COUNT>
29

> <PUBCHEM_ATOM_DEF_STEREO_COUNT>
0

> <PUBCHEM_ATOM_UDEF_STEREO_COUNT>
0

> <PUBCHEM_BOND_DEF_STEREO_COUNT>
0

> <PUBCHEM_BOND_UDEF_STEREO_COUNT>
0

> <PUBCHEM_ISOTOPIC_ATOM_COUNT>
0

> <PUBCHEM_COMPONENT_COUNT>
1

> <PUBCHEM_CACTVS_TAUTO_COUNT>
62

> <PUBCHEM_CONFORMER_ID>
0001E96E00000001

> <PUBCHEM_MMFF94_ENERGY>
99.1889

> <PUBCHEM_FEATURE_SELFOVERLAP>
45.713

> <PUBCHEM_SHAPE_FINGERPRINT>
10319926 262 18266999817981656336
10366900 7 18271811288990267056
10764073 3 17113039089374727379
108634 29 18338513144134078212
10906281 52 17903932384642315137
1100329 8 18049717421622109586
11582403 64 17195952290446668128
11828532 37 17103959683705558699
12160290 23 17967541206910067139
12553582 1 17830757690932657187
12788726 201 17825681211371457890
13140716 1 18263355890048442289
13583140 156 18131632313702410780
140371 6 18266744773553182717
14081887 123 18337952415021640544
14223421 5 18271252715565984614
14251757 17 18343024354527925970
14363568 33 16531757408026909248
14790565 3 18124598587881326793
14955137 171 17187298867995732003
15324884 4 17767406056202560648
19049666 15 18341621403861672504
19591789 44 18264775363659799769
20465049 17 17908156377735766737
20600515 1 17535733432628031168
20642791 13 18267581489064010393
20775438 99 18127948893820120599
21133410 32 17249832789205730350
21285901 2 18195534915796580799
22393880 68 18122054304825864493
22440779 20 17252369331732476202
22907989 373 17826551943082065543
23557571 272 18265054802341879432
23558518 356 18408326583400133748
23559900 14 18413107264949399604
3493558 16 15365863852825958844
469060 322 18114760312538998417
7399639 24 17985542505742961528
81228 2 18192167085762738729
9709674 26 18342179968568997742
9981440 41 17843657063161836736

> <PUBCHEM_SHAPE_MULTIPOLES>
561.59
8.22
4.83
1.51
3.42
1.45
0.32
-3.06
2.09
-2.93
-1.06
1.28
0.83
2.65

> <PUBCHEM_SHAPE_SELFOVERLAP>
1263.877

> <PUBCHEM_SHAPE_VOLUME>
290.4

> <PUBCHEM_COORDINATE_TYPE>
2
5
10

$$$$
