REMARK  Name = 125209
REMARK  4 active torsions:
REMARK  status: ('A' for Active; 'I' for Inactive)
REMARK    1  A    between atoms: N_1  and  C_12
REMARK    2  A    between atoms: C_13  and  O_16
REMARK    3  A    between atoms: C_15  and  C_18
REMARK    4  A    between atoms: C_18  and  O_19
REMARK                            x       y       z     vdW  Elec       q    Type
REMARK                         _______ _______ _______ _____ _____    ______ ____
ROOT
ATOM      1  N   UNL     1      -0.304   0.170   0.139  0.00  0.00    -0.248 N 
ATOM      2  N   UNL     1      -1.624   1.750  -0.707  0.00  0.00    -0.242 NA
ATOM      3  N   UNL     1      -1.974  -1.460   0.811  0.00  0.00    -0.228 NA
ATOM      4  N   UNL     1      -4.227  -0.683   0.288  0.00  0.00    -0.229 NA
ATOM      5  C   UNL     1      -1.579  -0.295   0.277  0.00  0.00    +0.152 C 
ATOM      6  C   UNL     1      -0.380   1.399  -0.455  0.00  0.00    +0.223 C 
ATOM      7  C   UNL     1      -2.384   0.700  -0.254  0.00  0.00    +0.140 C 
ATOM      8  C   UNL     1      -3.757   0.474  -0.237  0.00  0.00    +0.143 C 
ATOM      9  C   UNL     1      -3.320  -1.565   0.772  0.00  0.00    +0.253 C 
ATOM     10  N   UNL     1      -4.648   1.429  -0.756  0.00  0.00    -0.342 N 
ATOM     11  H   UNL     1      -5.617   1.259  -0.739  0.00  0.00    +0.144 HD
ATOM     12  H   UNL     1      -4.302   2.268  -1.138  0.00  0.00    +0.144 HD
ENDROOT
BRANCH   1  15
ATOM     13 BR   UNL     1       2.219  -3.023   0.127  0.00  0.00    -0.075 Br
ATOM     14  O   UNL     1       1.893   0.464   0.998  0.00  0.00    -0.334 OA
ATOM     15  C   UNL     1       0.929  -0.514   0.549  0.00  0.00    +0.208 C 
ATOM     16  C   UNL     1       2.714  -0.414  -1.023  0.00  0.00    +0.155 C 
ATOM     17  C   UNL     1       1.573  -1.310  -0.585  0.00  0.00    +0.133 C 
ATOM     18  C   UNL     1       3.121   0.258   0.279  0.00  0.00    +0.174 C 
BRANCH  16  19
ATOM     19  O   UNL     1       3.772  -1.091  -1.665  0.00  0.00    -0.381 OA
ATOM     20  H   UNL     1       3.448  -1.495  -2.485  0.00  0.00    +0.210 HD
ENDBRANCH  16  19
BRANCH  18  21
ATOM     21  C   UNL     1       3.827   1.588   0.085  0.00  0.00    +0.169 C 
BRANCH  21  22
ATOM     22  O   UNL     1       4.149   2.125   1.358  0.00  0.00    -0.379 OA
ATOM     23  H   UNL     1       4.601   2.975   1.245  0.00  0.00    +0.211 HD
ENDBRANCH  21  22
ENDBRANCH  18  21
ENDBRANCH   1  15
TORSDOF 4
