REMARK  Name = 125236
REMARK  9 active torsions:
REMARK  status: ('A' for Active; 'I' for Inactive)
REMARK    1  A    between atoms: C_2  and  C_11
REMARK    2  A    between atoms: C_3  and  C_18
REMARK    3  A    between atoms: C_4  and  C_23
REMARK    4  A    between atoms: C_5  and  C_26
REMARK    5  A    between atoms: C_18  and  O_19
REMARK    6  A    between atoms: O_19  and  C_20
REMARK    7  A    between atoms: C_23  and  O_24
REMARK    8  A    between atoms: C_26  and  O_27
REMARK    9  A    between atoms: O_27  and  C_30
REMARK                            x       y       z     vdW  Elec       q    Type
REMARK                         _______ _______ _______ _____ _____    ______ ____
ROOT
ATOM      1  N   UNL     1      -1.339  -2.146   0.166  0.00  0.00    -0.331 N 
ATOM      2  C   UNL     1       0.808  -0.458  -0.594  0.00  0.00    +0.012 C 
ATOM      3  C   UNL     1      -0.663  -0.122  -0.859  0.00  0.00    +0.075 C 
ATOM      4  C   UNL     1       1.004  -1.870  -0.033  0.00  0.00    +0.085 C 
ATOM      5  C   UNL     1      -1.655  -0.948  -0.454  0.00  0.00    +0.142 C 
ATOM      6  C   UNL     1      -0.052  -2.629   0.340  0.00  0.00    +0.029 C 
ATOM      7  C   UNL     1       0.033  -4.004   0.946  0.00  0.00    +0.047 C 
ATOM      8  H   UNL     1      -2.083  -2.693   0.508  0.00  0.00    +0.147 HD
ENDROOT
BRANCH   2  11
ATOM      9 CL   UNL     1       3.106   1.234  -1.648  0.00  0.00    -0.081 Cl
ATOM     10 CL   UNL     1       4.292   3.356   0.453  0.00  0.00    -0.081 Cl
ATOM     11  C   UNL     1       1.406   0.552   0.342  0.00  0.00    +0.012 C 
ATOM     12  C   UNL     1       2.460   1.375  -0.044  0.00  0.00    +0.068 C 
ATOM     13  C   UNL     1       0.870   0.646   1.623  0.00  0.00    +0.001 C 
ATOM     14  C   UNL     1       2.983   2.300   0.859  0.00  0.00    +0.068 C 
ATOM     15  C   UNL     1       1.393   1.571   2.526  0.00  0.00    +0.001 C 
ATOM     16  C   UNL     1       2.450   2.398   2.144  0.00  0.00    +0.012 C 
ENDBRANCH   2  11
BRANCH   3  18
ATOM     17  O   UNL     1      -0.976   1.157  -2.829  0.00  0.00    -0.245 OA
ATOM     18  C   UNL     1      -0.930   1.113  -1.614  0.00  0.00    +0.339 C 
BRANCH  18  19
ATOM     19  O   UNL     1      -1.103   2.126  -0.731  0.00  0.00    -0.446 OA
BRANCH  19  20
ATOM     20  C   UNL     1      -1.374   3.403  -1.318  0.00  0.00    +0.209 C 
ATOM     21  C   UNL     1      -1.543   4.426  -0.215  0.00  0.00    +0.051 C 
ENDBRANCH  19  20
ENDBRANCH  18  19
ENDBRANCH   3  18
BRANCH   4  23
ATOM     22  O   UNL     1       3.100  -2.246   1.008  0.00  0.00    -0.245 OA
ATOM     23  C   UNL     1       2.387  -2.369   0.029  0.00  0.00    +0.342 C 
BRANCH  23  24
ATOM     24  O   UNL     1       2.683  -2.958  -1.155  0.00  0.00    -0.441 OA
ATOM     25  C   UNL     1       4.005  -3.498  -1.251  0.00  0.00    +0.256 C 
ENDBRANCH  23  24
ENDBRANCH   4  23
BRANCH   5  26
ATOM     26  C   UNL     1      -3.127  -0.686  -0.619  0.00  0.00    +0.234 C 
BRANCH  26  27
ATOM     27  O   UNL     1      -3.746  -0.650   0.651  0.00  0.00    -0.433 OA
BRANCH  27  30
ATOM     28  O   UNL     1      -5.786  -0.246  -0.336  0.00  0.00    -0.227 OA
ATOM     29  N   UNL     1      -5.585  -0.407   1.949  0.00  0.00    -0.295 N 
ATOM     30  C   UNL     1      -5.099  -0.419   0.665  0.00  0.00    +0.399 C 
ATOM     31  H   UNL     1      -4.975  -0.553   2.708  0.00  0.00    +0.148 HD
ATOM     32  H   UNL     1      -6.543  -0.251   2.111  0.00  0.00    +0.148 HD
ENDBRANCH  27  30
ENDBRANCH  26  27
ENDBRANCH   5  26
TORSDOF 9
