REMARK  Name = 125235
REMARK  8 active torsions:
REMARK  status: ('A' for Active; 'I' for Inactive)
REMARK    1  A    between atoms: C_2  and  C_11
REMARK    2  A    between atoms: C_3  and  C_18
REMARK    3  A    between atoms: C_4  and  C_22
REMARK    4  A    between atoms: C_5  and  C_25
REMARK    5  A    between atoms: C_18  and  O_19
REMARK    6  A    between atoms: C_22  and  O_23
REMARK    7  A    between atoms: C_25  and  O_26
REMARK    8  A    between atoms: O_26  and  C_29
REMARK                            x       y       z     vdW  Elec       q    Type
REMARK                         _______ _______ _______ _____ _____    ______ ____
ROOT
ATOM      1  N   UNL     1      -1.523  -1.888   0.183  0.00  0.00    -0.331 N 
ATOM      2  C   UNL     1       0.732  -0.358  -0.596  0.00  0.00    +0.012 C 
ATOM      3  C   UNL     1      -0.713   0.072  -0.868  0.00  0.00    +0.075 C 
ATOM      4  C   UNL     1       0.833  -1.772  -0.014  0.00  0.00    +0.085 C 
ATOM      5  C   UNL     1      -1.758  -0.680  -0.454  0.00  0.00    +0.142 C 
ATOM      6  C   UNL     1      -0.271  -2.453   0.367  0.00  0.00    +0.029 C 
ATOM      7  C   UNL     1      -0.278  -3.822   0.993  0.00  0.00    +0.047 C 
ATOM      8  H   UNL     1      -2.302  -2.380   0.531  0.00  0.00    +0.147 HD
ENDROOT
BRANCH   2  11
ATOM      9 CL   UNL     1       3.139   1.162  -1.668  0.00  0.00    -0.081 Cl
ATOM     10 CL   UNL     1       4.461   3.231   0.405  0.00  0.00    -0.081 Cl
ATOM     11  C   UNL     1       1.395   0.624   0.327  0.00  0.00    +0.012 C 
ATOM     12  C   UNL     1       2.502   1.369  -0.068  0.00  0.00    +0.068 C 
ATOM     13  C   UNL     1       0.864   0.772   1.605  0.00  0.00    +0.001 C 
ATOM     14  C   UNL     1       3.084   2.270   0.823  0.00  0.00    +0.068 C 
ATOM     15  C   UNL     1       1.447   1.673   2.497  0.00  0.00    +0.001 C 
ATOM     16  C   UNL     1       2.557   2.422   2.106  0.00  0.00    +0.012 C 
ENDBRANCH   2  11
BRANCH   3  18
ATOM     17  O   UNL     1      -0.939   1.340  -2.858  0.00  0.00    -0.245 OA
ATOM     18  C   UNL     1      -0.897   1.310  -1.641  0.00  0.00    +0.339 C 
BRANCH  18  19
ATOM     19  O   UNL     1      -1.004   2.345  -0.773  0.00  0.00    -0.442 OA
ATOM     20  C   UNL     1      -1.190   3.629  -1.379  0.00  0.00    +0.256 C 
ENDBRANCH  18  19
ENDBRANCH   3  18
BRANCH   4  22
ATOM     21  O   UNL     1       2.898  -2.269   1.037  0.00  0.00    -0.245 OA
ATOM     22  C   UNL     1       2.180  -2.360   0.058  0.00  0.00    +0.342 C 
BRANCH  22  23
ATOM     23  O   UNL     1       2.438  -2.984  -1.116  0.00  0.00    -0.441 OA
ATOM     24  C   UNL     1       3.722  -3.611  -1.201  0.00  0.00    +0.256 C 
ENDBRANCH  22  23
ENDBRANCH   4  22
BRANCH   5  25
ATOM     25  C   UNL     1      -3.210  -0.326  -0.627  0.00  0.00    +0.234 C 
BRANCH  25  26
ATOM     26  O   UNL     1      -3.827  -0.230   0.641  0.00  0.00    -0.433 OA
BRANCH  26  29
ATOM     27  O   UNL     1      -5.835   0.292  -0.357  0.00  0.00    -0.227 OA
ATOM     28  N   UNL     1      -5.648   0.153   1.930  0.00  0.00    -0.295 N 
ATOM     29  C   UNL     1      -5.162   0.089   0.648  0.00  0.00    +0.399 C 
ATOM     30  H   UNL     1      -5.050  -0.021   2.693  0.00  0.00    +0.148 HD
ATOM     31  H   UNL     1      -6.594   0.373   2.087  0.00  0.00    +0.148 HD
ENDBRANCH  26  29
ENDBRANCH  25  26
ENDBRANCH   5  25
TORSDOF 8
