125382
  -OEChem-03292013323D

 30 31  0     1  0  0  0  0  0999 V2000
    2.4112    2.4576    1.0647 F   0  0  0  0  0  0  0  0  0  0  0  0
   -1.4753    0.4555   -1.0270 O   0  0  0  0  0  0  0  0  0  0  0  0
   -3.5118   -0.9852    1.5451 O   0  0  0  0  0  0  0  0  0  0  0  0
   -3.5502    2.3425   -1.3065 O   0  0  0  0  0  0  0  0  0  0  0  0
    1.5352   -2.2855   -1.2559 O   0  0  0  0  0  0  0  0  0  0  0  0
    0.6363   -0.3303   -0.4187 N   0  0  0  0  0  0  0  0  0  0  0  0
    3.0151   -0.7866   -0.4064 N   0  0  0  0  0  0  0  0  0  0  0  0
    4.5230    0.7593    0.4674 N   0  0  0  0  0  0  0  0  0  0  0  0
   -2.7089    0.3541   -0.2973 C   0  0  1  0  0  0  0  0  0  0  0  0
   -2.3612   -0.3849    0.9867 C   0  0  2  0  0  0  0  0  0  0  0  0
   -0.7084   -0.7236   -0.7318 C   0  0  1  0  0  0  0  0  0  0  0  0
   -1.3589   -1.3586    0.4567 C   0  0  0  0  0  0  0  0  0  0  0  0
   -3.2729    1.7431   -0.0541 C   0  0  0  0  0  0  0  0  0  0  0  0
   -1.1476   -2.6126    0.8726 C   0  0  0  0  0  0  0  0  0  0  0  0
    0.8870    0.8944    0.1824 C   0  0  0  0  0  0  0  0  0  0  0  0
    1.7259   -1.1916   -0.7212 C   0  0  0  0  0  0  0  0  0  0  0  0
    2.1210    1.2818    0.4828 C   0  0  0  0  0  0  0  0  0  0  0  0
    3.2406    0.3707    0.1608 C   0  0  0  0  0  0  0  0  0  0  0  0
   -3.4146   -0.2168   -0.9171 H   0  0  0  0  0  0  0  0  0  0  0  0
   -1.8854    0.2688    1.7268 H   0  0  0  0  0  0  0  0  0  0  0  0
   -0.7384   -1.3820   -1.6071 H   0  0  0  0  0  0  0  0  0  0  0  0
   -2.5458    2.3763    0.4648 H   0  0  0  0  0  0  0  0  0  0  0  0
   -4.1980    1.7008    0.5284 H   0  0  0  0  0  0  0  0  0  0  0  0
   -0.4297   -3.2582    0.3799 H   0  0  0  0  0  0  0  0  0  0  0  0
   -1.6906   -3.0215    1.7179 H   0  0  0  0  0  0  0  0  0  0  0  0
   -4.1229   -0.2733    1.7995 H   0  0  0  0  0  0  0  0  0  0  0  0
    0.0469    1.5354    0.4188 H   0  0  0  0  0  0  0  0  0  0  0  0
   -3.9074    3.2290   -1.1277 H   0  0  0  0  0  0  0  0  0  0  0  0
    4.7219    1.6517    0.9074 H   0  0  0  0  0  0  0  0  0  0  0  0
    5.3136    0.1585    0.2603 H   0  0  0  0  0  0  0  0  0  0  0  0
  1 17  1  0  0  0  0
  2  9  1  0  0  0  0
  2 11  1  0  0  0  0
  3 10  1  0  0  0  0
  3 26  1  0  0  0  0
  4 13  1  0  0  0  0
  4 28  1  0  0  0  0
  5 16  2  0  0  0  0
  6 11  1  0  0  0  0
  6 15  1  0  0  0  0
  6 16  1  0  0  0  0
  7 16  1  0  0  0  0
  7 18  2  0  0  0  0
  8 18  1  0  0  0  0
  8 29  1  0  0  0  0
  8 30  1  0  0  0  0
  9 10  1  0  0  0  0
  9 13  1  0  0  0  0
  9 19  1  0  0  0  0
 10 12  1  0  0  0  0
 10 20  1  0  0  0  0
 11 12  1  0  0  0  0
 11 21  1  0  0  0  0
 12 14  2  0  0  0  0
 13 22  1  0  0  0  0
 13 23  1  0  0  0  0
 14 24  1  0  0  0  0
 14 25  1  0  0  0  0
 15 17  2  0  0  0  0
 15 27  1  0  0  0  0
 17 18  1  0  0  0  0
M  END
> <PUBCHEM_COMPOUND_CID>
125382

> <PUBCHEM_CONFORMER_RMSD>
0.6

> <PUBCHEM_CONFORMER_DIVERSEORDER>
1
10
9
6
3
8
11
7
4
5
2

> <PUBCHEM_MMFF94_PARTIAL_CHARGES>
25
1 -0.15
10 0.42
11 0.72
12 -0.28
13 0.28
14 -0.3
15 -0.04
16 0.84
17 0.16
18 0.49
2 -0.56
24 0.15
25 0.15
26 0.4
27 0.15
28 0.4
29 0.4
3 -0.68
30 0.4
4 -0.68
5 -0.57
6 -0.47
7 -0.66
8 -0.85
9 0.28

> <PUBCHEM_EFFECTIVE_ROTOR_COUNT>
2.8

> <PUBCHEM_PHARMACOPHORE_FEATURES>
10
1 2 acceptor
1 3 acceptor
1 3 donor
1 4 acceptor
1 4 donor
1 5 acceptor
1 7 donor
1 8 donor
5 2 9 10 11 12 rings
6 6 7 15 16 17 18 rings

> <PUBCHEM_HEAVY_ATOM_COUNT>
18

> <PUBCHEM_ATOM_DEF_STEREO_COUNT>
3

> <PUBCHEM_ATOM_UDEF_STEREO_COUNT>
0

> <PUBCHEM_BOND_DEF_STEREO_COUNT>
0

> <PUBCHEM_BOND_UDEF_STEREO_COUNT>
0

> <PUBCHEM_ISOTOPIC_ATOM_COUNT>
0

> <PUBCHEM_COMPONENT_COUNT>
1

> <PUBCHEM_CACTVS_TAUTO_COUNT>
3

> <PUBCHEM_CONFORMER_ID>
0001E9C600000001

> <PUBCHEM_MMFF94_ENERGY>
47.6517

> <PUBCHEM_FEATURE_SELFOVERLAP>
50.796

> <PUBCHEM_SHAPE_FINGERPRINT>
10608611 8 18411699906554463113
1100329 8 16174253843565503555
11640471 11 15768951077145433675
12077114 3 18334008393550612873
12251169 10 18262523722459282418
12500047 106 18334288773437062184
12633257 1 18339091500172367706
12654215 9 18342175510519577516
13294875 104 17973706000955641595
13380535 76 18412538808262076190
13464514 151 17834115247615295309
15219456 202 18411986840540030638
15375358 24 18412538786987751636
15653759 3 18187087277512343872
16945 1 18059862726938206358
18186145 218 18267594502667113919
18219364 16 18343867735696777841
19049666 15 18265343819439638355
200 152 17632291332904568879
20510252 161 18408610266507071049
20645464 45 18408042926759573203
20645477 70 17916584224451410646
20715346 28 18337402564644787791
21524375 3 18338227177075321813
21639500 275 17847055588513676257
23402539 116 18263635320631678463
23493267 7 18334009506369038512
23526113 38 18196651796150334231
23559900 14 18192158105682987606
25 1 18269834224816627901
2748010 2 18335150743525025719
53812653 166 18261678052072959031
6049 1 18338536169675337239
69090 78 18342459279009317715
77492 1 15984823683920968855
81228 2 17969230099973562267
84936 182 17540804002683639389

> <PUBCHEM_SHAPE_MULTIPOLES>
324.74
6.5
2.47
1.16
1.81
0.1
-0.01
-2.98
-0.81
-0.81
-0.05
-0.48
0.11
1.85

> <PUBCHEM_SHAPE_SELFOVERLAP>
689.276

> <PUBCHEM_SHAPE_VOLUME>
181.4

> <PUBCHEM_COORDINATE_TYPE>
2
5
10

$$$$
