REMARK  Name = 125392
REMARK  7 active torsions:
REMARK  status: ('A' for Active; 'I' for Inactive)
REMARK    1  A    between atoms: N_1  and  C1*_14
REMARK    2  A    between atoms: C_9  and  O_23
REMARK    3  A    between atoms: C3*_15  and  O3*_18
REMARK    4  A    between atoms: C4*_17  and  C5*_20
REMARK    5  A    between atoms: C5*_20  and  O5*_21
REMARK    6  A    between atoms: O_23  and  C_24
REMARK    7  A    between atoms: C_24  and  C_25
REMARK                            x       y       z     vdW  Elec       q    Type
REMARK                         _______ _______ _______ _____ _____    ______ ____
ROOT
ATOM      1  N   UNL     1      -2.079   0.059  -0.125  0.00  0.00    -0.238 N 
ATOM      2  N   UNL     1      -0.239   1.321  -0.043  0.00  0.00    -0.239 NA
ATOM      3  N   UNL     1      -1.063  -2.145  -0.229  0.00  0.00    -0.311 NA
ATOM      4  N   UNL     1       1.374  -2.004  -0.197  0.00  0.00    -0.289 NA
ATOM      5  N   UNL     1       0.270  -4.067  -0.315  0.00  0.00    -0.283 N 
ATOM      6  C   UNL     1      -1.020  -0.806  -0.159  0.00  0.00    +0.223 C 
ATOM      7  C   UNL     1      -1.555   1.326  -0.056  0.00  0.00    +0.224 C 
ATOM      8  C   UNL     1       0.109  -0.005  -0.107  0.00  0.00    +0.190 C 
ATOM      9  C   UNL     1       1.341  -0.651  -0.128  0.00  0.00    +0.311 C 
ATOM     10  C   UNL     1       0.187  -2.657  -0.243  0.00  0.00    +0.200 C 
ATOM     11  H   UNL     1      -0.553  -4.607  -0.351  0.00  0.00    +0.156 HD
ATOM     12  H   UNL     1       1.149  -4.508  -0.329  0.00  0.00    +0.156 HD
ENDROOT
BRANCH   1  14
ATOM     13  O4* UNL     1      -4.233   0.730  -0.860  0.00  0.00    -0.335 OA
ATOM     14  C1* UNL     1      -3.495  -0.286  -0.157  0.00  0.00    +0.198 C 
ATOM     15  C3* UNL     1      -5.587  -0.126   0.904  0.00  0.00    +0.144 C 
ATOM     16  C2* UNL     1      -4.138  -0.423   1.215  0.00  0.00    +0.083 C 
ATOM     17  C4* UNL     1      -5.498   0.927  -0.195  0.00  0.00    +0.173 C 
BRANCH  15  18
ATOM     18  O3* UNL     1      -6.188  -1.310   0.384  0.00  0.00    -0.382 OA
ATOM     19  H3* UNL     1      -6.244  -1.979   1.084  0.00  0.00    +0.210 HD
ENDBRANCH  15  18
BRANCH  17  20
ATOM     20  C5* UNL     1      -5.527   2.348   0.350  0.00  0.00    +0.169 C 
BRANCH  20  21
ATOM     21  O5* UNL     1      -5.430   3.253  -0.736  0.00  0.00    -0.379 OA
ATOM     22  H5* UNL     1      -5.447   4.163  -0.401  0.00  0.00    +0.211 HD
ENDBRANCH  20  21
ENDBRANCH  17  20
ENDBRANCH   1  14
BRANCH   9  23
ATOM     23  O   UNL     1       2.531   0.030  -0.082  0.00  0.00    -0.445 OA
BRANCH  23  24
ATOM     24  C   UNL     1       3.717  -0.754  -0.110  0.00  0.00    +0.235 C 
BRANCH  24  25
ATOM     25  C   UNL     1       4.942   0.087   0.023  0.00  0.00    +0.021 C 
ATOM     26  C   UNL     1       5.564   0.598  -1.116  0.00  0.00    -0.001 C 
ATOM     27  C   UNL     1       5.465   0.362   1.286  0.00  0.00    -0.001 C 
ATOM     28  C   UNL     1       6.710   1.384  -0.991  0.00  0.00    -0.000 C 
ATOM     29  C   UNL     1       6.611   1.148   1.411  0.00  0.00    -0.000 C 
ATOM     30  C   UNL     1       7.233   1.659   0.272  0.00  0.00    -0.000 C 
ENDBRANCH  24  25
ENDBRANCH  23  24
ENDBRANCH   9  23
TORSDOF 7
