REMARK  Name = 125364
REMARK  8 active torsions:
REMARK  status: ('A' for Active; 'I' for Inactive)
REMARK    1  A    between atoms: C_3  and  O_15
REMARK    2  A    between atoms: C_6  and  O_21
REMARK    3  A    between atoms: C_10  and  C_18
REMARK    4  A    between atoms: C_18  and  O_19
REMARK    5  A    between atoms: O_21  and  C_23
REMARK    6  A    between atoms: C_23  and  C_24
REMARK    7  A    between atoms: C_26  and  O_31
REMARK    8  A    between atoms: C_30  and  O_33
REMARK                            x       y       z     vdW  Elec       q    Type
REMARK                         _______ _______ _______ _____ _____    ______ ____
ROOT
ATOM      1  C   UNL     1       2.194  -1.476   0.270  0.00  0.00    +0.034 C 
ATOM      2  C   UNL     1       3.284  -0.674   0.961  0.00  0.00    +0.007 C 
ATOM      3  C   UNL     1       1.405  -0.747  -0.855  0.00  0.00    +0.149 C 
ATOM      4  C   UNL     1       2.868   0.773   1.245  0.00  0.00    +0.022 C 
ATOM      5  C   UNL     1       0.848  -1.678   1.014  0.00  0.00    +0.049 C 
ATOM      6  C   UNL     1       0.136  -1.470  -0.336  0.00  0.00    +0.197 C 
ATOM      7  C   UNL     1       4.524  -0.542   0.067  0.00  0.00    +0.000 C 
ATOM      8  C   UNL     1       5.226   0.761   0.508  0.00  0.00    +0.000 C 
ATOM      9  C   UNL     1       4.220   1.473   1.441  0.00  0.00    +0.004 C 
ATOM     10  C   UNL     1       1.368   0.737  -0.783  0.00  0.00    +0.076 C 
ATOM     11  C   UNL     1       2.647  -2.869  -0.247  0.00  0.00    +0.003 C 
ATOM     12  C   UNL     1       2.034   1.414   0.163  0.00  0.00    -0.022 C 
ATOM     13  C   UNL     1       6.526   0.450   1.264  0.00  0.00    +0.000 C 
ATOM     14  C   UNL     1       5.559   1.633  -0.711  0.00  0.00    +0.000 C 
ENDROOT
BRANCH   3  15
ATOM     15  O   UNL     1       1.759  -1.173  -2.193  0.00  0.00    -0.379 OA
ATOM     16  H   UNL     1       1.781  -2.143  -2.228  0.00  0.00    +0.211 HD
ENDBRANCH   3  15
BRANCH  10  18
ATOM     17  O   UNL     1       0.509   2.722  -1.767  0.00  0.00    -0.245 OA
ATOM     18  C   UNL     1       0.591   1.508  -1.758  0.00  0.00    +0.336 C 
BRANCH  18  19
ATOM     19  O   UNL     1      -0.006   0.666  -2.626  0.00  0.00    -0.477 OA
ATOM     20  H   UNL     1       0.116  -0.259  -2.540  0.00  0.00    +0.295 HD
ENDBRANCH  18  19
ENDBRANCH  10  18
BRANCH   6  21
ATOM     21  O   UNL     1      -1.091  -0.691  -0.287  0.00  0.00    -0.446 OA
BRANCH  21  23
ATOM     22  O   UNL     1      -2.092  -2.418   0.840  0.00  0.00    -0.245 OA
ATOM     23  C   UNL     1      -2.139  -1.299   0.341  0.00  0.00    +0.344 C 
BRANCH  23  24
ATOM     24  C   UNL     1      -3.346  -0.468   0.359  0.00  0.00    +0.105 C 
ATOM     25  C   UNL     1      -3.570   0.409   1.416  0.00  0.00    -0.010 C 
ATOM     26  C   UNL     1      -4.261  -0.563  -0.685  0.00  0.00    +0.143 C 
ATOM     27  C   UNL     1      -4.720   1.198   1.429  0.00  0.00    +0.033 C 
ATOM     28  C   UNL     1      -5.411   0.226  -0.672  0.00  0.00    +0.073 C 
ATOM     29  C   UNL     1      -2.603   0.529   2.549  0.00  0.00    +0.031 C 
ATOM     30  C   UNL     1      -5.641   1.107   0.385  0.00  0.00    +0.136 C 
BRANCH  26  31
ATOM     31  O   UNL     1      -4.056  -1.417  -1.728  0.00  0.00    -0.505 OA
ATOM     32  H   UNL     1      -3.288  -1.953  -1.750  0.00  0.00    +0.292 HD
ENDBRANCH  26  31
BRANCH  30  33
ATOM     33  O   UNL     1      -6.763   1.877   0.397  0.00  0.00    -0.505 OA
ATOM     34  H   UNL     1      -6.918   2.468   1.107  0.00  0.00    +0.292 HD
ENDBRANCH  30  33
ENDBRANCH  23  24
ENDBRANCH  21  23
ENDBRANCH   6  21
TORSDOF 8
