125327
  -OEChem-03292013323D

 28 27  0     1  0  0  0  0  0999 V2000
   -4.0069    1.5032   -1.0869 S   0  0  0  0  0  0  0  0  0  0  0  0
    0.2551    1.2884    1.2931 O   0  0  0  0  0  0  0  0  0  0  0  0
   -2.4063   -1.8982   -0.8898 O   0  0  0  0  0  0  0  0  0  0  0  0
   -3.8781   -1.7292    0.8265 O   0  0  0  0  0  0  0  0  0  0  0  0
    2.7791   -1.3019   -0.4385 O   0  0  0  0  0  0  0  0  0  0  0  0
   -1.0798    0.2590   -0.3044 N   0  0  0  0  0  0  0  0  0  0  0  0
    2.4295    0.9924   -0.3493 N   0  0  0  0  0  0  0  0  0  0  0  0
    5.4396   -0.9154    0.1201 N   0  0  0  0  0  0  0  0  0  0  0  0
   -2.2370    0.0313    0.5315 C   0  0  1  0  0  0  0  0  0  0  0  0
   -3.1944    1.2257    0.5219 C   0  0  0  0  0  0  0  0  0  0  0  0
    1.1136    1.0085   -0.9475 C   0  0  0  0  0  0  0  0  0  0  0  0
    0.0781    0.8732    0.1500 C   0  0  0  0  0  0  0  0  0  0  0  0
   -2.9367   -1.2735    0.1885 C   0  0  0  0  0  0  0  0  0  0  0  0
    3.1575   -0.1705   -0.1434 C   0  0  0  0  0  0  0  0  0  0  0  0
    4.4868    0.1069    0.5283 C   0  0  0  0  0  0  0  0  0  0  0  0
   -1.8623   -0.0977    1.5552 H   0  0  0  0  0  0  0  0  0  0  0  0
   -1.1406   -0.0213   -1.2791 H   0  0  0  0  0  0  0  0  0  0  0  0
   -2.6641    2.1450    0.7925 H   0  0  0  0  0  0  0  0  0  0  0  0
   -3.9886    1.0731    1.2607 H   0  0  0  0  0  0  0  0  0  0  0  0
    0.9750    1.9677   -1.4541 H   0  0  0  0  0  0  0  0  0  0  0  0
    1.0317    0.1925   -1.6719 H   0  0  0  0  0  0  0  0  0  0  0  0
    2.8149    1.8809   -0.0429 H   0  0  0  0  0  0  0  0  0  0  0  0
    4.3442    0.0844    1.6129 H   0  0  0  0  0  0  0  0  0  0  0  0
    4.8690    1.0930    0.2473 H   0  0  0  0  0  0  0  0  0  0  0  0
   -4.7321    2.5660   -0.7087 H   0  0  0  0  0  0  0  0  0  0  0  0
   -2.8677   -2.7405   -1.0895 H   0  0  0  0  0  0  0  0  0  0  0  0
    5.5425   -0.9087   -0.8939 H   0  0  0  0  0  0  0  0  0  0  0  0
    5.0866   -1.8385    0.3691 H   0  0  0  0  0  0  0  0  0  0  0  0
  1 10  1  0  0  0  0
  1 25  1  0  0  0  0
  2 12  2  0  0  0  0
  3 13  1  0  0  0  0
  3 26  1  0  0  0  0
  4 13  2  0  0  0  0
  5 14  2  0  0  0  0
  6  9  1  0  0  0  0
  6 12  1  0  0  0  0
  6 17  1  0  0  0  0
  7 11  1  0  0  0  0
  7 14  1  0  0  0  0
  7 22  1  0  0  0  0
  8 15  1  0  0  0  0
  8 27  1  0  0  0  0
  8 28  1  0  0  0  0
  9 10  1  0  0  0  0
  9 13  1  0  0  0  0
  9 16  1  0  0  0  0
 10 18  1  0  0  0  0
 10 19  1  0  0  0  0
 11 12  1  0  0  0  0
 11 20  1  0  0  0  0
 11 21  1  0  0  0  0
 14 15  1  0  0  0  0
 15 23  1  0  0  0  0
 15 24  1  0  0  0  0
M  END
> <PUBCHEM_COMPOUND_CID>
125327

> <PUBCHEM_CONFORMER_RMSD>
0.8

> <PUBCHEM_CONFORMER_DIVERSEORDER>
1
38
21
35
4
12
37
33
24
14
30
16
5
25
20
23
36
28
18
9
27
7
32
13
11
26
34
19
2
10
17
29
22
8
3
31
6
15

> <PUBCHEM_MMFF94_PARTIAL_CHARGES>
21
1 -0.41
10 0.23
11 0.36
12 0.57
13 0.66
14 0.57
15 0.33
17 0.37
2 -0.57
22 0.37
25 0.18
26 0.5
27 0.36
28 0.36
3 -0.65
4 -0.57
5 -0.57
6 -0.73
7 -0.73
8 -0.99
9 0.36

> <PUBCHEM_EFFECTIVE_ROTOR_COUNT>
8

> <PUBCHEM_PHARMACOPHORE_FEATURES>
9
1 2 acceptor
1 3 acceptor
1 4 acceptor
1 5 acceptor
1 6 donor
1 7 donor
1 8 cation
1 8 donor
3 3 4 13 anion

> <PUBCHEM_HEAVY_ATOM_COUNT>
15

> <PUBCHEM_ATOM_DEF_STEREO_COUNT>
1

> <PUBCHEM_ATOM_UDEF_STEREO_COUNT>
0

> <PUBCHEM_BOND_DEF_STEREO_COUNT>
0

> <PUBCHEM_BOND_UDEF_STEREO_COUNT>
0

> <PUBCHEM_ISOTOPIC_ATOM_COUNT>
0

> <PUBCHEM_COMPONENT_COUNT>
1

> <PUBCHEM_CACTVS_TAUTO_COUNT>
4

> <PUBCHEM_CONFORMER_ID>
0001E98F00000001

> <PUBCHEM_MMFF94_ENERGY>
22.8506

> <PUBCHEM_FEATURE_SELFOVERLAP>
45.731

> <PUBCHEM_SHAPE_FINGERPRINT>
10465860 250 18131632283363411008
12346177 29 18408879642376227453
124424 183 18131346397555572233
12500047 106 18341605988860154141
14251731 8 18260265213732516572
14252887 29 17346611763631091990
15375358 24 18059573551237926550
17834072 8 18187080611802364781
18186145 218 14634874175494451252
20279233 1 17846782892492310348
20645477 70 17774438257495592166
20828058 44 18341895173672205418
22169311 21 18342453742284438976
22485316 2 18261390027482092648
23402539 116 17458341923379865900
23559900 14 18341889689194615208
26918003 58 18343015558915010024
2916195 48 9078817564684379758
559249 180 18261104132683581475
57005193 9 18341044112701304494
58051976 100 18259702302792477645
633830 44 16153431648962650404
81228 2 16914565184456194217

> <PUBCHEM_SHAPE_MULTIPOLES>
274.12
9.77
1.78
1.01
8.54
0.55
-0.01
1.87
0.02
-1.89
0.18
-0.47
-0.16
0.44

> <PUBCHEM_SHAPE_SELFOVERLAP>
518.723

> <PUBCHEM_SHAPE_VOLUME>
169.8

> <PUBCHEM_COORDINATE_TYPE>
2
5
10

$$$$
