REMARK  Name = 125348
REMARK  8 active torsions:
REMARK  status: ('A' for Active; 'I' for Inactive)
REMARK    1  A    between atoms: N_1  and  C1*_12
REMARK    2  A    between atoms: C2*_11  and  O2*_15
REMARK    3  A    between atoms: C3*_13  and  O3*_17
REMARK    4  A    between atoms: C4*_14  and  C5*_19
REMARK    5  A    between atoms: C5*_19  and  O5*_20
REMARK    6  A    between atoms: N_22  and  C_24
REMARK    7  A    between atoms: C_24  and  C_26
REMARK    8  A    between atoms: C_31  and  N_32
REMARK                            x       y       z     vdW  Elec       q    Type
REMARK                         _______ _______ _______ _____ _____    ______ ____
ROOT
ATOM      1  N   UNL     1       2.455  -0.262   0.268  0.00  0.00    -0.247 N 
ATOM      2  N   UNL     1       0.510   0.831   0.261  0.00  0.00    -0.242 NA
ATOM      3  N   UNL     1       1.643  -2.552   0.312  0.00  0.00    -0.228 NA
ATOM      4  N   UNL     1      -0.796  -2.628   0.329  0.00  0.00    -0.228 NA
ATOM      5  C   UNL     1       1.480  -1.220   0.290  0.00  0.00    +0.152 C 
ATOM      6  C   UNL     1       1.821   0.953   0.251  0.00  0.00    +0.223 C 
ATOM      7  C   UNL     1       0.283  -0.522   0.285  0.00  0.00    +0.140 C 
ATOM      8  C   UNL     1      -0.886  -1.277   0.305  0.00  0.00    +0.146 C 
ATOM      9  C   UNL     1       0.444  -3.174   0.331  0.00  0.00    +0.253 C 
ATOM     10  N   UNL     1      -2.144  -0.651   0.301  0.00  0.00    -0.313 N 
ATOM     11  H   UNL     1      -2.179   0.333   0.283  0.00  0.00    +0.149 HD
ENDROOT
BRANCH   1  14
ATOM     12  O4* UNL     1       4.551   0.578   0.999  0.00  0.00    -0.333 OA
ATOM     13  C2* UNL     1       4.513  -0.510  -1.141  0.00  0.00    +0.187 C 
ATOM     14  C1* UNL     1       3.902  -0.481   0.262  0.00  0.00    +0.225 C 
ATOM     15  C3* UNL     1       5.168   0.854  -1.251  0.00  0.00    +0.171 C 
ATOM     16  C4* UNL     1       5.601   1.121   0.181  0.00  0.00    +0.175 C 
BRANCH  13  17
ATOM     17  O2* UNL     1       5.481  -1.555  -1.210  0.00  0.00    -0.378 OA
ATOM     18  H2* UNL     1       5.035  -2.414  -1.138  0.00  0.00    +0.211 HD
ENDBRANCH  13  17
BRANCH  15  19
ATOM     19  O3* UNL     1       6.257   0.884  -2.149  0.00  0.00    -0.379 OA
ATOM     20  H3* UNL     1       5.939   0.709  -3.048  0.00  0.00    +0.211 HD
ENDBRANCH  15  19
BRANCH  16  21
ATOM     21  C5* UNL     1       5.784   2.595   0.492  0.00  0.00    +0.169 C 
BRANCH  21  22
ATOM     22  O5* UNL     1       6.174   2.727   1.848  0.00  0.00    -0.379 OA
ATOM     23  H5* UNL     1       6.295   3.666   2.060  0.00  0.00    +0.211 HD
ENDBRANCH  21  22
ENDBRANCH  16  21
ENDBRANCH   1  14
BRANCH  10  24
ATOM     24  C   UNL     1      -3.379  -1.379   0.321  0.00  0.00    +0.115 C 
BRANCH  24  26
ATOM     25  I   UNL     1      -6.971   1.280  -2.876  0.00  0.00    -0.041 I 
ATOM     26  C   UNL     1      -4.571  -0.461   0.274  0.00  0.00    -0.002 C 
ATOM     27  C   UNL     1      -5.104  -0.092  -0.953  0.00  0.00    +0.004 C 
ATOM     28  C   UNL     1      -5.121   0.004   1.461  0.00  0.00    -0.001 C 
ATOM     29  C   UNL     1      -6.209   0.758  -0.995  0.00  0.00    +0.043 C 
ATOM     30  C   UNL     1      -6.226   0.854   1.419  0.00  0.00    +0.014 C 
ATOM     31  C   UNL     1      -6.770   1.231   0.191  0.00  0.00    +0.047 C 
BRANCH  31  32
ATOM     32  N   UNL     1      -7.889   2.094   0.194  0.00  0.00    -0.357 N 
ATOM     33  H   UNL     1      -8.295   2.377  -0.657  0.00  0.00    +0.142 HD
ATOM     34  H   UNL     1      -8.264   2.411   1.048  0.00  0.00    +0.142 HD
ENDBRANCH  31  32
ENDBRANCH  24  26
ENDBRANCH  10  24
TORSDOF 8
