125348
  -OEChem-03292013323D

 47 50  0     1  0  0  0  0  0999 V2000
   -6.9710    1.2801   -2.8762 I   0  0  0  0  0  0  0  0  0  0  0  0
    4.5511    0.5778    0.9986 O   0  0  0  0  0  0  0  0  0  0  0  0
    5.4806   -1.5553   -1.2104 O   0  0  0  0  0  0  0  0  0  0  0  0
    6.2568    0.8837   -2.1489 O   0  0  0  0  0  0  0  0  0  0  0  0
    6.1743    2.7272    1.8481 O   0  0  0  0  0  0  0  0  0  0  0  0
    2.4549   -0.2624    0.2675 N   0  0  0  0  0  0  0  0  0  0  0  0
    0.5102    0.8312    0.2611 N   0  0  0  0  0  0  0  0  0  0  0  0
    1.6428   -2.5517    0.3124 N   0  0  0  0  0  0  0  0  0  0  0  0
   -2.1443   -0.6512    0.3006 N   0  0  0  0  0  0  0  0  0  0  0  0
   -0.7965   -2.6284    0.3287 N   0  0  0  0  0  0  0  0  0  0  0  0
   -7.8894    2.0938    0.1944 N   0  0  0  0  0  0  0  0  0  0  0  0
    4.5127   -0.5097   -1.1406 C   0  0  1  0  0  0  0  0  0  0  0  0
    3.9024   -0.4807    0.2618 C   0  0  1  0  0  0  0  0  0  0  0  0
    5.1684    0.8540   -1.2507 C   0  0  1  0  0  0  0  0  0  0  0  0
    5.6005    1.1209    0.1807 C   0  0  1  0  0  0  0  0  0  0  0  0
    5.7842    2.5954    0.4925 C   0  0  0  0  0  0  0  0  0  0  0  0
    1.4799   -1.2202    0.2902 C   0  0  0  0  0  0  0  0  0  0  0  0
    1.8212    0.9532    0.2512 C   0  0  0  0  0  0  0  0  0  0  0  0
    0.2829   -0.5220    0.2854 C   0  0  0  0  0  0  0  0  0  0  0  0
   -0.8856   -1.2767    0.3054 C   0  0  0  0  0  0  0  0  0  0  0  0
    0.4439   -3.1738    0.3308 C   0  0  0  0  0  0  0  0  0  0  0  0
   -3.3787   -1.3785    0.3205 C   0  0  0  0  0  0  0  0  0  0  0  0
   -4.5713   -0.4607    0.2743 C   0  0  0  0  0  0  0  0  0  0  0  0
   -5.1039   -0.0925   -0.9532 C   0  0  0  0  0  0  0  0  0  0  0  0
   -5.1211    0.0039    1.4608 C   0  0  0  0  0  0  0  0  0  0  0  0
   -6.2089    0.7576   -0.9950 C   0  0  0  0  0  0  0  0  0  0  0  0
   -6.2261    0.8541    1.4191 C   0  0  0  0  0  0  0  0  0  0  0  0
   -6.7700    1.2310    0.1911 C   0  0  0  0  0  0  0  0  0  0  0  0
    3.7898   -0.6862   -1.9436 H   0  0  0  0  0  0  0  0  0  0  0  0
    4.0821   -1.4113    0.8126 H   0  0  0  0  0  0  0  0  0  0  0  0
    4.4193    1.5883   -1.5716 H   0  0  0  0  0  0  0  0  0  0  0  0
    6.5228    0.5796    0.4284 H   0  0  0  0  0  0  0  0  0  0  0  0
    4.8527    3.1548    0.3580 H   0  0  0  0  0  0  0  0  0  0  0  0
    6.5597    3.0442   -0.1345 H   0  0  0  0  0  0  0  0  0  0  0  0
    5.0072   -2.3968   -1.0939 H   0  0  0  0  0  0  0  0  0  0  0  0
    6.6379    1.7776   -2.1228 H   0  0  0  0  0  0  0  0  0  0  0  0
    2.3584    1.8915    0.2279 H   0  0  0  0  0  0  0  0  0  0  0  0
    5.4785    2.3232    2.3945 H   0  0  0  0  0  0  0  0  0  0  0  0
   -2.1560    0.3631    0.2858 H   0  0  0  0  0  0  0  0  0  0  0  0
    0.4774   -4.2579    0.3496 H   0  0  0  0  0  0  0  0  0  0  0  0
   -3.4375   -2.0016    1.2225 H   0  0  0  0  0  0  0  0  0  0  0  0
   -3.4262   -2.0717   -0.5296 H   0  0  0  0  0  0  0  0  0  0  0  0
   -4.6549   -0.4674   -1.8699 H   0  0  0  0  0  0  0  0  0  0  0  0
   -4.7037   -0.2820    2.4221 H   0  0  0  0  0  0  0  0  0  0  0  0
   -6.6521    1.2153    2.3518 H   0  0  0  0  0  0  0  0  0  0  0  0
   -8.3028    2.3813   -0.6826 H   0  0  0  0  0  0  0  0  0  0  0  0
   -8.2772    2.4220    1.0689 H   0  0  0  0  0  0  0  0  0  0  0  0
  1 26  1  0  0  0  0
  2 13  1  0  0  0  0
  2 15  1  0  0  0  0
  3 12  1  0  0  0  0
  3 35  1  0  0  0  0
  4 14  1  0  0  0  0
  4 36  1  0  0  0  0
  5 16  1  0  0  0  0
  5 38  1  0  0  0  0
  6 13  1  0  0  0  0
  6 17  1  0  0  0  0
  6 18  1  0  0  0  0
  7 18  2  0  0  0  0
  7 19  1  0  0  0  0
  8 17  2  0  0  0  0
  8 21  1  0  0  0  0
  9 20  1  0  0  0  0
  9 22  1  0  0  0  0
  9 39  1  0  0  0  0
 10 20  1  0  0  0  0
 10 21  2  0  0  0  0
 11 28  1  0  0  0  0
 11 46  1  0  0  0  0
 11 47  1  0  0  0  0
 12 13  1  0  0  0  0
 12 14  1  0  0  0  0
 12 29  1  0  0  0  0
 13 30  1  0  0  0  0
 14 15  1  0  0  0  0
 14 31  1  0  0  0  0
 15 16  1  0  0  0  0
 15 32  1  0  0  0  0
 16 33  1  0  0  0  0
 16 34  1  0  0  0  0
 17 19  1  0  0  0  0
 18 37  1  0  0  0  0
 19 20  2  0  0  0  0
 21 40  1  0  0  0  0
 22 23  1  0  0  0  0
 22 41  1  0  0  0  0
 22 42  1  0  0  0  0
 23 24  2  0  0  0  0
 23 25  1  0  0  0  0
 24 26  1  0  0  0  0
 24 43  1  0  0  0  0
 25 27  2  0  0  0  0
 25 44  1  0  0  0  0
 26 28  2  0  0  0  0
 27 28  1  0  0  0  0
 27 45  1  0  0  0  0
M  END
> <PUBCHEM_COMPOUND_CID>
125348

> <PUBCHEM_CONFORMER_RMSD>
0.8

> <PUBCHEM_CONFORMER_DIVERSEORDER>
1
83
189
79
239
72
273
25
404
132
364
165
200
145
57
410
50
310
308
24
437
386
303
323
450
218
53
333
399
343
205
142
446
267
106
44
420
80
137
370
438
443
126
394
253
307
274
52
222
147
156
361
276
429
3
318
138
171
213
416
51
191
248
441
298
127
2
208
398
425
101
154
219
45
129
161
449
240
100
388
71
54
58
426
294
352
277
55
230
43
13
290
74
209
73
417
38
423
136
5
355
32
329
187
241
405
28
162
36
372
56
411
68
366
220
160
152
173
232
289
345
424
64
296
193
120
78
433
346
133
418
382
305
113
365
139
406
176
172
363
396
286
87
159
440
211
356
221
26
179
421
34
304
237
427
46
94
155
293
93
376
401
347
84
287
349
92
177
354
144
112
265
439
374
135
371
86
350
317
419
195
291
309
257
442
247
29
12
170
315
202
311
199
18
17
344
312
228
403
359
85
413
95
35
412
224
197
128
351
134
259
27
326
321
140
268
88
130
357
331
229
264
393
70
342
299
121
97
384
235
368
223
353
285
22
400
306
148
75
415
358
266
105
21
226
383
90
49
414
431
249
188
115
275
334
325
447
10
238
157
16
131
448
271
77
314
340
41
9
269
186
114
42
164
335
330
320
60
375
281
108
69
141
196
143
201
234
185
319
260
168
59
348
89
251
387
96
107
242
190
47
183
284
37
123
362
295
163
322
407
167
327
118
91
204
436
40
338
153
76
111
198
435
392
8
434
250
297
11
391
116
82
63
146
194
233
395
104
231
102
302
402
217
428
262
316
212
216
122
408
175
245
181
7
288
48
182
169
215
203
379
444
360
125
33
192
31
282
207
261
445
385
23
110
390
300
66
272
184
14
369
283
206
378
227
252
377
81
339
178
19
279
422
124
30
236
39
258
158
367
255
301
117
278
210
397
20
61
341
15
292
180
109
254
151
336
62
313
166
149
256
328
243
280
98
6
430
150
380
373
389
381
432
244
332
214
99
225
263
65
270
67
119
4
246
103
324
409
174
337

> <PUBCHEM_MMFF94_PARTIAL_CHARGES>
39
1 -0.08
10 -0.62
11 -0.9
12 0.28
13 0.54
14 0.28
15 0.28
16 0.28
17 0.11
18 0.04
19 0.23
2 -0.56
20 0.41
21 0.47
22 0.51
23 -0.14
24 -0.15
25 -0.15
26 0.08
27 -0.15
28 0.1
3 -0.68
35 0.4
36 0.4
37 0.15
38 0.4
39 0.4
4 -0.68
40 0.15
43 0.15
44 0.15
45 0.15
46 0.4
47 0.4
5 -0.68
6 0.05
7 -0.57
8 -0.57
9 -0.87

> <PUBCHEM_EFFECTIVE_ROTOR_COUNT>
6

> <PUBCHEM_PHARMACOPHORE_FEATURES>
19
1 1 hydrophobe
1 11 cation
1 11 donor
1 2 acceptor
1 3 acceptor
1 3 donor
1 4 acceptor
1 4 donor
1 5 acceptor
1 5 donor
1 9 cation
1 9 donor
3 6 7 18 cation
3 6 8 17 cation
3 8 10 21 cation
5 2 12 13 14 15 rings
5 6 7 17 18 19 rings
6 23 24 25 26 27 28 rings
6 8 10 17 19 20 21 rings

> <PUBCHEM_HEAVY_ATOM_COUNT>
28

> <PUBCHEM_ATOM_DEF_STEREO_COUNT>
4

> <PUBCHEM_ATOM_UDEF_STEREO_COUNT>
0

> <PUBCHEM_BOND_DEF_STEREO_COUNT>
0

> <PUBCHEM_BOND_UDEF_STEREO_COUNT>
0

> <PUBCHEM_ISOTOPIC_ATOM_COUNT>
0

> <PUBCHEM_COMPONENT_COUNT>
1

> <PUBCHEM_CACTVS_TAUTO_COUNT>
3

> <PUBCHEM_CONFORMER_ID>
0001E9A400000001

> <PUBCHEM_MMFF94_ENERGY>
83.048

> <PUBCHEM_FEATURE_SELFOVERLAP>
97.044

> <PUBCHEM_SHAPE_FINGERPRINT>
10 15 17022910038813951713
10554248 39 18338223869755961975
10816530 90 18187652461603925988
10835480 77 18201437042933116968
10883706 89 16154810359118270072
11475781 23 18201438116780052484
11796584 16 14836402514840324423
12166972 35 12535349021189998378
12422481 6 17167859772730729223
13685833 64 9799687095863211835
13782708 43 12463562981291968167
14123256 34 10663823005110840773
15183329 4 17060343998243932839
1577012 14 18201715108317314703
18222031 100 12463580586368507810
2026 5 11815897830379009101
20281389 69 18113615677699356233
20715895 44 18339078298149858896
21033648 144 18335134251584059623
21033648 29 18187928421119129682
21033650 10 16056607500576664739
21150785 3 16558745754149324341
21279426 13 18341622520379589774
23522609 53 13551772673006425239
24771293 8 18266453390324511492
2748736 6 18411130359705374769
2838139 119 18272653411574958603
312425 54 13695587750163078249
3504750 166 12324231772819979963
3663271 9 14418136223003071829
4340502 62 15936128564700552098
50009960 94 11886021327392026364
504843 32 18335982064790545207
59682541 52 17203616951881143126
636775 8 9510918015292239600
8863177 126 12031203162178890797
999808 66 11167938104747907333

> <PUBCHEM_SHAPE_MULTIPOLES>
534.8
22.34
2.67
1.75
13.52
0.94
-0.81
-18.22
-3.55
-1.87
0.16
1.37
-1.16
2.42

> <PUBCHEM_SHAPE_SELFOVERLAP>
1141.344

> <PUBCHEM_SHAPE_VOLUME>
304

> <PUBCHEM_COORDINATE_TYPE>
2
5
10

$$$$
