REMARK  Name = 125343
REMARK  12 active torsions:
REMARK  status: ('A' for Active; 'I' for Inactive)
REMARK    1  A    between atoms: C_1  and  N_3
REMARK    2  A    between atoms: C_1  and  C_15
REMARK    3  A    between atoms: C_1  and  C_26
REMARK    4  A    between atoms: C_4  and  C_7
REMARK    5  A    between atoms: C_8  and  C_10
REMARK    6  A    between atoms: C_10  and  O_11
REMARK    7  A    between atoms: N_14  and  C_17
REMARK    8  A    between atoms: C_17  and  C_18
REMARK    9  A    between atoms: C_18  and  C_19
REMARK   10  A    between atoms: C_19  and  C_20
REMARK   11  A    between atoms: C_20  and  N_22
REMARK   12  A    between atoms: C_26  and  C_28
REMARK                            x       y       z     vdW  Elec       q    Type
REMARK                         _______ _______ _______ _____ _____    ______ ____
ROOT
ATOM      1  C   UNL     1       0.386   1.290  -0.515  0.00  0.00    +0.149 C 
ENDROOT
BRANCH   1   3
ATOM      2  O   UNL     1       2.899   2.301   0.546  0.00  0.00    -0.272 OA
ATOM      3  N   UNL     1       1.660   0.617  -0.482  0.00  0.00    -0.296 N 
ATOM      4  C   UNL     1       2.806   1.185   0.048  0.00  0.00    +0.253 C 
ATOM      5  H   UNL     1       1.718  -0.293  -0.855  0.00  0.00    +0.150 HD
BRANCH   4   7
ATOM      6  O   UNL     1       4.698   0.192   1.232  0.00  0.00    -0.333 OA
ATOM      7  C   UNL     1       4.011   0.307  -0.021  0.00  0.00    +0.229 C 
ATOM      8  C   UNL     1       4.044  -0.985   0.742  0.00  0.00    +0.250 C 
BRANCH   8  10
ATOM      9  O   UNL     1       5.884  -2.426   1.078  0.00  0.00    -0.247 OA
ATOM     10  C   UNL     1       4.980  -2.045   0.350  0.00  0.00    +0.344 C 
BRANCH  10  11
ATOM     11  O   UNL     1       4.719  -2.532  -0.887  0.00  0.00    -0.478 OA
ATOM     12  H   UNL     1       4.006  -2.186  -1.386  0.00  0.00    +0.295 HD
ENDBRANCH  10  11
ENDBRANCH   8  10
ENDBRANCH   4   7
ENDBRANCH   1   3
BRANCH   1  15
ATOM     13  O   UNL     1       0.147   0.322   1.697  0.00  0.00    -0.273 OA
ATOM     14  N   UNL     1      -1.465   1.819   0.953  0.00  0.00    -0.303 N 
ATOM     15  C   UNL     1      -0.306   1.066   0.829  0.00  0.00    +0.240 C 
ATOM     16  H   UNL     1      -1.739   2.384   0.195  0.00  0.00    +0.149 HD
BRANCH  14  17
ATOM     17  C   UNL     1      -2.289   1.815   2.140  0.00  0.00    +0.089 C 
BRANCH  17  18
ATOM     18  C   UNL     1      -3.373   0.743   2.092  0.00  0.00    +0.023 C 
BRANCH  18  19
ATOM     19  C   UNL     1      -4.344   0.941   0.921  0.00  0.00    +0.023 C 
BRANCH  19  20
ATOM     20  C   UNL     1      -5.421  -0.138   0.867  0.00  0.00    +0.089 C 
BRANCH  20  22
ATOM     21  O   UNL     1      -4.872  -1.517  -1.635  0.00  0.00    -0.275 OA
ATOM     22  N   UNL     1      -4.871  -1.454   0.695  0.00  0.00    -0.304 N 
ATOM     23  C   UNL     1      -4.643  -2.031  -0.546  0.00  0.00    +0.223 C 
ATOM     24  C   UNL     1      -4.063  -3.405  -0.488  0.00  0.00    +0.095 C 
ATOM     25  H   UNL     1      -4.643  -1.974   1.499  0.00  0.00    +0.149 HD
ENDBRANCH  20  22
ENDBRANCH  19  20
ENDBRANCH  18  19
ENDBRANCH  17  18
ENDBRANCH  14  17
ENDBRANCH   1  15
BRANCH   1  26
ATOM     26  C   UNL     1      -0.494   0.859  -1.713  0.00  0.00    +0.027 C 
ATOM     27  C   UNL     1      -0.906  -0.612  -1.563  0.00  0.00    +0.002 C 
BRANCH  26  28
ATOM     28  C   UNL     1       0.192   1.120  -3.072  0.00  0.00    +0.002 C 
ATOM     29  C   UNL     1       0.621   2.569  -3.267  0.00  0.00    +0.000 C 
ENDBRANCH  26  28
ENDBRANCH   1  26
TORSDOF 12
