125321
  -OEChem-03292013323D

 55 59  0     1  0  0  0  0  0999 V2000
   -0.4698   -0.7035    1.4937 O   0  0  0  0  0  0  0  0  0  0  0  0
   -4.2862   -0.1825   -1.1185 O   0  0  0  0  0  0  0  0  0  0  0  0
    1.8922    0.3920    2.6360 O   0  0  0  0  0  0  0  0  0  0  0  0
    2.5103   -2.8305    1.0860 O   0  0  0  0  0  0  0  0  0  0  0  0
    1.3134   -3.1248   -1.2987 O   0  0  0  0  0  0  0  0  0  0  0  0
   -7.3060    2.6570   -0.6137 O   0  0  0  0  0  0  0  0  0  0  0  0
    4.4802    0.9695   -2.2044 O   0  0  0  0  0  0  0  0  0  0  0  0
    4.6073    2.9472   -0.2577 O   0  0  0  0  0  0  0  0  0  0  0  0
    1.6087   -1.7925    0.6984 C   0  0  2  0  0  0  0  0  0  0  0  0
    0.6231   -1.5641    1.8461 C   0  0  1  0  0  0  0  0  0  0  0  0
   -4.5217    0.2751    0.2384 C   0  0  1  0  0  0  0  0  0  0  0  0
   -3.1710    0.4032    0.9580 C   0  0  0  0  0  0  0  0  0  0  0  0
   -2.3625   -0.5078    0.1146 C   0  0  0  0  0  0  0  0  0  0  0  0
   -1.0952   -1.0234    0.3271 C   0  0  0  0  0  0  0  0  0  0  0  0
   -0.5280   -1.8052   -0.6813 C   0  0  0  0  0  0  0  0  0  0  0  0
    0.8426   -2.3209   -0.5006 C   0  0  0  0  0  0  0  0  0  0  0  0
    2.4071   -0.5356    0.4265 C   0  0  0  0  0  0  0  0  0  0  0  0
   -5.2835    1.5892    0.1900 C   0  0  1  0  0  0  0  0  0  0  0  0
    1.3583   -0.8858    3.0006 C   0  0  0  0  0  0  0  0  0  0  0  0
   -3.0514   -0.7761   -1.0588 C   0  0  0  0  0  0  0  0  0  0  0  0
    2.5054    0.4601    1.4117 C   0  0  0  0  0  0  0  0  0  0  0  0
   -1.2322   -2.0767   -1.8699 C   0  0  0  0  0  0  0  0  0  0  0  0
   -2.5113   -1.5529   -2.0650 C   0  0  0  0  0  0  0  0  0  0  0  0
   -6.6110    1.4181   -0.5588 C   0  0  0  0  0  0  0  0  0  0  0  0
    3.0941   -0.3474   -0.7840 C   0  0  0  0  0  0  0  0  0  0  0  0
   -5.5146    2.1307    1.6051 C   0  0  0  0  0  0  0  0  0  0  0  0
    3.2353    1.6289    1.1713 C   0  0  0  0  0  0  0  0  0  0  0  0
    3.8303    0.8158   -1.0169 C   0  0  0  0  0  0  0  0  0  0  0  0
    3.8971    1.8056   -0.0412 C   0  0  0  0  0  0  0  0  0  0  0  0
    3.7582    1.5977   -3.2617 C   0  0  0  0  0  0  0  0  0  0  0  0
    5.9807    2.9396    0.1276 C   0  0  0  0  0  0  0  0  0  0  0  0
    0.2059   -2.5130    2.2106 H   0  0  0  0  0  0  0  0  0  0  0  0
   -5.1302   -0.4977    0.7308 H   0  0  0  0  0  0  0  0  0  0  0  0
   -3.2361    0.0825    2.0015 H   0  0  0  0  0  0  0  0  0  0  0  0
   -2.7536    1.4141    0.9001 H   0  0  0  0  0  0  0  0  0  0  0  0
   -4.6965    2.3370   -0.3605 H   0  0  0  0  0  0  0  0  0  0  0  0
    0.6601   -0.7021    3.8249 H   0  0  0  0  0  0  0  0  0  0  0  0
    2.1712   -1.5097    3.3907 H   0  0  0  0  0  0  0  0  0  0  0  0
   -0.7896   -2.6819   -2.6568 H   0  0  0  0  0  0  0  0  0  0  0  0
   -3.0569   -1.7501   -2.9811 H   0  0  0  0  0  0  0  0  0  0  0  0
   -6.4444    1.0841   -1.5879 H   0  0  0  0  0  0  0  0  0  0  0  0
   -7.2525    0.6869   -0.0551 H   0  0  0  0  0  0  0  0  0  0  0  0
    1.9880   -3.5978    1.3765 H   0  0  0  0  0  0  0  0  0  0  0  0
    3.0643   -1.1111   -1.5571 H   0  0  0  0  0  0  0  0  0  0  0  0
   -4.5726    2.3353    2.1229 H   0  0  0  0  0  0  0  0  0  0  0  0
   -6.0872    1.4195    2.2105 H   0  0  0  0  0  0  0  0  0  0  0  0
   -6.0709    3.0737    1.5815 H   0  0  0  0  0  0  0  0  0  0  0  0
    3.2910    2.4013    1.9351 H   0  0  0  0  0  0  0  0  0  0  0  0
   -8.1378    2.4969   -1.0910 H   0  0  0  0  0  0  0  0  0  0  0  0
    3.4681    2.6147   -2.9794 H   0  0  0  0  0  0  0  0  0  0  0  0
    2.8705    1.0118   -3.5207 H   0  0  0  0  0  0  0  0  0  0  0  0
    4.4103    1.6506   -4.1377 H   0  0  0  0  0  0  0  0  0  0  0  0
    6.5307    2.1686   -0.4211 H   0  0  0  0  0  0  0  0  0  0  0  0
    6.0754    2.7740    1.2055 H   0  0  0  0  0  0  0  0  0  0  0  0
    6.4100    3.9153   -0.1155 H   0  0  0  0  0  0  0  0  0  0  0  0
  1 10  1  0  0  0  0
  1 14  1  0  0  0  0
  2 11  1  0  0  0  0
  2 20  1  0  0  0  0
  3 19  1  0  0  0  0
  3 21  1  0  0  0  0
  4  9  1  0  0  0  0
  4 43  1  0  0  0  0
  5 16  2  0  0  0  0
  6 24  1  0  0  0  0
  6 49  1  0  0  0  0
  7 28  1  0  0  0  0
  7 30  1  0  0  0  0
  8 29  1  0  0  0  0
  8 31  1  0  0  0  0
  9 10  1  0  0  0  0
  9 16  1  0  0  0  0
  9 17  1  0  0  0  0
 10 19  1  0  0  0  0
 10 32  1  0  0  0  0
 11 12  1  0  0  0  0
 11 18  1  0  0  0  0
 11 33  1  0  0  0  0
 12 13  1  0  0  0  0
 12 34  1  0  0  0  0
 12 35  1  0  0  0  0
 13 14  1  0  0  0  0
 13 20  2  0  0  0  0
 14 15  2  0  0  0  0
 15 16  1  0  0  0  0
 15 22  1  0  0  0  0
 17 21  1  0  0  0  0
 17 25  2  0  0  0  0
 18 24  1  0  0  0  0
 18 26  1  0  0  0  0
 18 36  1  0  0  0  0
 19 37  1  0  0  0  0
 19 38  1  0  0  0  0
 20 23  1  0  0  0  0
 21 27  2  0  0  0  0
 22 23  2  0  0  0  0
 22 39  1  0  0  0  0
 23 40  1  0  0  0  0
 24 41  1  0  0  0  0
 24 42  1  0  0  0  0
 25 28  1  0  0  0  0
 25 44  1  0  0  0  0
 26 45  1  0  0  0  0
 26 46  1  0  0  0  0
 26 47  1  0  0  0  0
 27 29  1  0  0  0  0
 27 48  1  0  0  0  0
 28 29  2  0  0  0  0
 30 50  1  0  0  0  0
 30 51  1  0  0  0  0
 30 52  1  0  0  0  0
 31 53  1  0  0  0  0
 31 54  1  0  0  0  0
 31 55  1  0  0  0  0
M  END
> <PUBCHEM_COMPOUND_CID>
125321

> <PUBCHEM_CONFORMER_RMSD>
0.8

> <PUBCHEM_CONFORMER_DIVERSEORDER>
2
43
3
22
34
37
9
26
42
5
4
40
27
36
19
17
24
1
41
23
35
18
14
39
38
15
32
25
12
13
11
6
16
7
10
29
33
31
8
28
30
20
21

> <PUBCHEM_MMFF94_PARTIAL_CHARGES>
35
1 -0.36
10 0.28
11 0.28
12 0.14
13 -0.14
14 0.08
15 0.09
16 0.42
17 -0.14
19 0.28
2 -0.36
20 0.08
21 0.08
22 -0.15
23 -0.15
24 0.28
25 -0.15
27 -0.15
28 0.08
29 0.08
3 -0.36
30 0.28
31 0.28
39 0.15
4 -0.68
40 0.15
43 0.4
44 0.15
48 0.15
49 0.4
5 -0.57
6 -0.68
7 -0.36
8 -0.36
9 0.48

> <PUBCHEM_EFFECTIVE_ROTOR_COUNT>
5.2

> <PUBCHEM_PHARMACOPHORE_FEATURES>
16
1 1 acceptor
1 2 acceptor
1 26 hydrophobe
1 3 acceptor
1 4 acceptor
1 4 donor
1 5 acceptor
1 6 acceptor
1 6 donor
1 7 acceptor
1 8 acceptor
5 2 11 12 13 20 rings
6 1 9 10 14 15 16 rings
6 13 14 15 20 22 23 rings
6 17 21 25 27 28 29 rings
6 3 9 10 17 19 21 rings

> <PUBCHEM_HEAVY_ATOM_COUNT>
31

> <PUBCHEM_ATOM_DEF_STEREO_COUNT>
0

> <PUBCHEM_ATOM_UDEF_STEREO_COUNT>
4

> <PUBCHEM_BOND_DEF_STEREO_COUNT>
0

> <PUBCHEM_BOND_UDEF_STEREO_COUNT>
0

> <PUBCHEM_ISOTOPIC_ATOM_COUNT>
0

> <PUBCHEM_COMPONENT_COUNT>
1

> <PUBCHEM_CACTVS_TAUTO_COUNT>
1

> <PUBCHEM_CONFORMER_ID>
0001E98900000002

> <PUBCHEM_MMFF94_ENERGY>
119.5768

> <PUBCHEM_FEATURE_SELFOVERLAP>
81.486

> <PUBCHEM_SHAPE_FINGERPRINT>
10042902 136 9510919097117342120
10305334 12 15146356135611768646
10319926 262 13696409046409276960
10498660 4 18060413647025725041
10670039 82 17846220995376082649
10721379 63 18129394700271543526
11505856 67 17537179294708379727
11578080 2 17679901233921791098
11640471 11 17755549940758454322
11720765 8 17202773596930591668
11796584 16 10807665449894245115
1200032 147 18409455786305950800
12107698 1 18044087956505403641
12633257 1 16009589217211483748
12892183 10 13190609590297239742
12895836 83 18201999988232718625
12895837 130 18051134984511525836
14251751 18 9511463312591729705
14341114 328 16805890713607451572
14537116 161 16271923780222687257
14840074 17 18410295788132385357
14848178 5 9583521997261551053
15163728 17 18341336672798695623
15210252 30 18341894108125613224
15475509 35 8717956783270098557
15840311 113 18129081369775502570
16708801 149 17688288116099987341
17134984 74 13830122910395248436
1813 80 18051405168188325514
1979834 28 14779833702943757553
20567600 234 17313106350472870077
20567600 9 18130793313289671057
20626108 58 10663826286117942379
20775438 99 13900747819555241877
21033648 29 15936673896629559215
21344244 181 13973384895498049925
21458453 9 15141817287240753769
21756936 100 18116710905794535336
21792934 111 13768198347869734053
22122407 14 18188776012163534217
22393880 68 17489579099953418279
23559900 14 18198903596460625711
2838139 119 18196650916183627216
34797466 226 14691701300816519361
38570 142 18409174320061306796
392239 28 15864347007910109044
4046055 25 15978936722941833711
427121 178 16515692134564932794
463206 1 13398643735460006820
484985 159 10414489420227973596
50009960 94 7996536306107577081
513532 50 15697703818860908683
57527293 21 14923950097288205729
57527295 17 14548472309525885538
57724786 102 17967812808268991980
66674814 147 11599733895074870069
6823239 73 14201964428410156306
7808743 9 18270113638277510633
7970288 3 9295025564834216860

> <PUBCHEM_SHAPE_MULTIPOLES>
591.01
13.25
3.26
2.53
15.47
0.16
0.12
16.46
3.59
-1.22
0.51
-2.1
-0.15
-1.73

> <PUBCHEM_SHAPE_SELFOVERLAP>
1315.486

> <PUBCHEM_SHAPE_VOLUME>
313.6

> <PUBCHEM_COORDINATE_TYPE>
2
5
10

$$$$
