125384
  -OEChem-03292013323D

 36 37  0     1  0  0  0  0  0999 V2000
    1.7798    0.1759    1.0147 O   0  0  0  0  0  0  0  0  0  0  0  0
    4.3525   -0.9509   -0.2033 O   0  0  0  0  0  0  0  0  0  0  0  0
    1.7947    2.9651    0.7439 O   0  0  0  0  0  0  0  0  0  0  0  0
   -0.1178   -3.3596    0.2734 O   0  0  0  0  0  0  0  0  0  0  0  0
   -1.9082    2.5737   -0.1400 O   0  0  0  0  0  0  0  0  0  0  0  0
   -0.0238   -1.0593    0.1804 N   0  0  0  0  0  0  0  0  0  0  0  0
   -2.0867   -2.2547    0.0612 N   0  0  0  0  0  0  0  0  0  0  0  0
   -4.1132   -1.1659   -0.1555 N   0  0  0  0  0  0  0  0  0  0  0  0
    3.3283   -0.1265   -0.7551 C   0  0  1  0  0  0  0  0  0  0  0  0
    1.4041   -1.0085    0.2975 C   0  0  1  0  0  0  0  0  0  0  0  0
    2.1050   -0.9633   -1.0505 C   0  0  0  0  0  0  0  0  0  0  0  0
    2.8293    0.8538    0.2972 C   0  0  1  0  0  0  0  0  0  0  0  0
    2.2400    2.1221   -0.3062 C   0  0  0  0  0  0  0  0  0  0  0  0
   -0.7021    0.1321    0.0705 C   0  0  0  0  0  0  0  0  0  0  0  0
   -0.7098   -2.2833    0.1770 C   0  0  0  0  0  0  0  0  0  0  0  0
   -2.0318    0.1944   -0.0435 C   0  0  0  0  0  0  0  0  0  0  0  0
   -2.7406   -1.1254   -0.0436 C   0  0  0  0  0  0  0  0  0  0  0  0
   -2.7976    1.4700   -0.1647 C   0  0  0  0  0  0  0  0  0  0  0  0
   -2.6021    3.8103   -0.2535 C   0  0  0  0  0  0  0  0  0  0  0  0
    3.7419    0.3650   -1.6406 H   0  0  0  0  0  0  0  0  0  0  0  0
    1.7628   -1.8655    0.8799 H   0  0  0  0  0  0  0  0  0  0  0  0
    1.4854   -0.4585   -1.8015 H   0  0  0  0  0  0  0  0  0  0  0  0
    2.3288   -1.9689   -1.4204 H   0  0  0  0  0  0  0  0  0  0  0  0
    3.6036    1.1084    1.0294 H   0  0  0  0  0  0  0  0  0  0  0  0
    1.4078    1.9296   -0.9868 H   0  0  0  0  0  0  0  0  0  0  0  0
    3.0124    2.6613   -0.8654 H   0  0  0  0  0  0  0  0  0  0  0  0
   -0.1265    1.0401    0.0865 H   0  0  0  0  0  0  0  0  0  0  0  0
    4.6022   -1.5990   -0.8839 H   0  0  0  0  0  0  0  0  0  0  0  0
    1.4342    3.7690    0.3324 H   0  0  0  0  0  0  0  0  0  0  0  0
   -3.5030    1.5566    0.6699 H   0  0  0  0  0  0  0  0  0  0  0  0
   -3.3544    1.4767   -1.1091 H   0  0  0  0  0  0  0  0  0  0  0  0
   -4.6803   -0.3296   -0.2400 H   0  0  0  0  0  0  0  0  0  0  0  0
   -4.6047   -2.0533   -0.1568 H   0  0  0  0  0  0  0  0  0  0  0  0
   -3.1445    3.8598   -1.2027 H   0  0  0  0  0  0  0  0  0  0  0  0
   -1.8674    4.6195   -0.2284 H   0  0  0  0  0  0  0  0  0  0  0  0
   -3.2939    3.9399    0.5843 H   0  0  0  0  0  0  0  0  0  0  0  0
  1 10  1  0  0  0  0
  1 12  1  0  0  0  0
  2  9  1  0  0  0  0
  2 28  1  0  0  0  0
  3 13  1  0  0  0  0
  3 29  1  0  0  0  0
  4 15  2  0  0  0  0
  5 18  1  0  0  0  0
  5 19  1  0  0  0  0
  6 10  1  0  0  0  0
  6 14  1  0  0  0  0
  6 15  1  0  0  0  0
  7 15  1  0  0  0  0
  7 17  2  0  0  0  0
  8 17  1  0  0  0  0
  8 32  1  0  0  0  0
  8 33  1  0  0  0  0
  9 11  1  0  0  0  0
  9 12  1  0  0  0  0
  9 20  1  0  0  0  0
 10 11  1  0  0  0  0
 10 21  1  0  0  0  0
 11 22  1  0  0  0  0
 11 23  1  0  0  0  0
 12 13  1  0  0  0  0
 12 24  1  0  0  0  0
 13 25  1  0  0  0  0
 13 26  1  0  0  0  0
 14 16  2  0  0  0  0
 14 27  1  0  0  0  0
 16 17  1  0  0  0  0
 16 18  1  0  0  0  0
 18 30  1  0  0  0  0
 18 31  1  0  0  0  0
 19 34  1  0  0  0  0
 19 35  1  0  0  0  0
 19 36  1  0  0  0  0
M  END
> <PUBCHEM_COMPOUND_CID>
125384

> <PUBCHEM_CONFORMER_RMSD>
0.6

> <PUBCHEM_CONFORMER_DIVERSEORDER>
1
74
43
52
82
10
31
76
19
71
83
54
58
75
73
11
63
28
21
4
53
84
80
50
79
66
32
60
26
70
65
37
36
27
62
72
33
78
56
12
29
51
55
77
45
38
64
30
20
68
81
48
85
13
41
39
57
44
46
61
67
7
69
35
23
18
9
14
47
24
6
25
15
17
22
42
16
40
59
5
34
49
2
8
3

> <PUBCHEM_MMFF94_PARTIAL_CHARGES>
23
1 -0.56
10 0.58
12 0.28
13 0.28
14 -0.04
15 0.84
16 -0.12
17 0.49
18 0.42
19 0.28
2 -0.68
27 0.15
28 0.4
29 0.4
3 -0.68
32 0.4
33 0.4
4 -0.57
5 -0.56
6 -0.47
7 -0.66
8 -0.85
9 0.28

> <PUBCHEM_EFFECTIVE_ROTOR_COUNT>
5

> <PUBCHEM_PHARMACOPHORE_FEATURES>
11
1 1 acceptor
1 2 acceptor
1 2 donor
1 3 acceptor
1 3 donor
1 4 acceptor
1 5 acceptor
1 7 donor
1 8 donor
5 1 9 10 11 12 rings
6 6 7 14 15 16 17 rings

> <PUBCHEM_HEAVY_ATOM_COUNT>
19

> <PUBCHEM_ATOM_DEF_STEREO_COUNT>
3

> <PUBCHEM_ATOM_UDEF_STEREO_COUNT>
0

> <PUBCHEM_BOND_DEF_STEREO_COUNT>
0

> <PUBCHEM_BOND_UDEF_STEREO_COUNT>
0

> <PUBCHEM_ISOTOPIC_ATOM_COUNT>
0

> <PUBCHEM_COMPONENT_COUNT>
1

> <PUBCHEM_CACTVS_TAUTO_COUNT>
3

> <PUBCHEM_CONFORMER_ID>
0001E9C800000001

> <PUBCHEM_MMFF94_ENERGY>
55.4414

> <PUBCHEM_FEATURE_SELFOVERLAP>
55.877

> <PUBCHEM_SHAPE_FINGERPRINT>
10498660 4 18192148411271198773
10608611 8 18341049726313068600
10967382 1 18050286174076067993
1100329 8 17615688432073094187
12173636 292 18409727339960727853
12403259 226 18412825815088118138
12403260 363 18409720764255157462
13140716 1 18119246405061914578
13464514 151 17908709431857581054
15375462 6 18051978322719349638
15442244 35 18408602552824902386
16945 1 18410289250368838194
17134986 127 18048600313502798141
17802600 8 18411417340766595262
18186145 218 18201446839246954346
18219364 16 18194414294367647889
20510252 161 18413108381260848321
21524375 3 18115589223429649243
21618674 68 18197779005969461285
22182937 141 18270407062244122913
22802520 49 18197789992622476258
23114952 82 17986698023949947492
2334 1 17761213614793332874
23402539 116 18341322387785266879
23419403 2 16171400172747128734
23557571 272 17834125512529110510
23559900 14 18269836566127867382
25 1 18048599222427974581
2748010 2 17907864259608479026
3084891 72 18052819139934910110
350125 39 18410018723374502329
58051976 378 18340200783309508607
7364860 26 18198907105400641208
7832392 63 18195244408239538701
81228 2 18123748926852947371
9709674 26 18197784503765483670
9925002 15 15106053756080842918

> <PUBCHEM_SHAPE_MULTIPOLES>
346.72
6.19
3.89
0.77
1.05
2.07
-0.03
1.02
-0.81
-2.57
0.19
0.38
0.05
0.46

> <PUBCHEM_SHAPE_SELFOVERLAP>
721.959

> <PUBCHEM_SHAPE_VOLUME>
198

> <PUBCHEM_COORDINATE_TYPE>
2
5
10

$$$$
