125347
  -OEChem-03292013323D

 47 50  0     1  0  0  0  0  0999 V2000
    4.2661    0.6526    0.9969 O   0  0  0  0  0  0  0  0  0  0  0  0
    5.2400   -1.7133   -0.9390 O   0  0  0  0  0  0  0  0  0  0  0  0
    6.0975    0.6025   -2.0939 O   0  0  0  0  0  0  0  0  0  0  0  0
    5.8952    2.8551    1.6832 O   0  0  0  0  0  0  0  0  0  0  0  0
    2.1842   -0.2287    0.2731 N   0  0  0  0  0  0  0  0  0  0  0  0
    0.2621    0.8864    0.0745 N   0  0  0  0  0  0  0  0  0  0  0  0
    1.3282   -2.4887    0.5229 N   0  0  0  0  0  0  0  0  0  0  0  0
   -2.4193   -0.5447    0.1607 N   0  0  0  0  0  0  0  0  0  0  0  0
   -1.1109   -2.5275    0.4486 N   0  0  0  0  0  0  0  0  0  0  0  0
   -8.0997    2.2496   -0.5105 N   0  0  0  0  0  0  0  0  0  0  0  0
    4.2899   -0.6520   -1.0174 C   0  0  1  0  0  0  0  0  0  0  0  0
    3.6265   -0.4676    0.3486 C   0  0  1  0  0  0  0  0  0  0  0  0
    4.9749    0.6828   -1.2422 C   0  0  1  0  0  0  0  0  0  0  0  0
    5.3562    1.0917    0.1700 C   0  0  1  0  0  0  0  0  0  0  0  0
    5.5554    2.5879    0.3340 C   0  0  0  0  0  0  0  0  0  0  0  0
    1.1913   -1.1646    0.3558 C   0  0  0  0  0  0  0  0  0  0  0  0
    1.5745    0.9876    0.1049 C   0  0  0  0  0  0  0  0  0  0  0  0
    0.0087   -0.4532    0.2301 C   0  0  0  0  0  0  0  0  0  0  0  0
   -1.1737   -1.1846    0.2813 C   0  0  0  0  0  0  0  0  0  0  0  0
    0.1181   -3.0879    0.5574 C   0  0  0  0  0  0  0  0  0  0  0  0
   -3.6669   -1.2478    0.2062 C   0  0  0  0  0  0  0  0  0  0  0  0
   -4.8395   -0.3225    0.0168 C   0  0  0  0  0  0  0  0  0  0  0  0
   -5.3164   -0.0778   -1.2632 C   0  0  0  0  0  0  0  0  0  0  0  0
   -5.4265    0.2725    1.1246 C   0  0  0  0  0  0  0  0  0  0  0  0
   -6.4026    0.7795   -1.4390 C   0  0  0  0  0  0  0  0  0  0  0  0
   -6.5128    1.1297    0.9488 C   0  0  0  0  0  0  0  0  0  0  0  0
   -7.0007    1.3832   -0.3330 C   0  0  0  0  0  0  0  0  0  0  0  0
    3.5953   -0.9010   -1.8262 H   0  0  0  0  0  0  0  0  0  0  0  0
    3.7674   -1.3380    1.0000 H   0  0  0  0  0  0  0  0  0  0  0  0
    4.2526    1.3905   -1.6676 H   0  0  0  0  0  0  0  0  0  0  0  0
    6.2580    0.5659    0.5097 H   0  0  0  0  0  0  0  0  0  0  0  0
    4.6404    3.1437    0.1046 H   0  0  0  0  0  0  0  0  0  0  0  0
    6.3628    2.9573   -0.3044 H   0  0  0  0  0  0  0  0  0  0  0  0
    4.7467   -2.5310   -0.7549 H   0  0  0  0  0  0  0  0  0  0  0  0
    6.4940    1.4886   -2.1455 H   0  0  0  0  0  0  0  0  0  0  0  0
    2.1298    1.9103    0.0059 H   0  0  0  0  0  0  0  0  0  0  0  0
    5.1714    2.5207    2.2401 H   0  0  0  0  0  0  0  0  0  0  0  0
   -2.4114    0.4626    0.0401 H   0  0  0  0  0  0  0  0  0  0  0  0
    0.1305   -4.1644    0.6902 H   0  0  0  0  0  0  0  0  0  0  0  0
   -3.7723   -1.7723    1.1649 H   0  0  0  0  0  0  0  0  0  0  0  0
   -3.6947   -2.0249   -0.5689 H   0  0  0  0  0  0  0  0  0  0  0  0
   -4.8563   -0.5414   -2.1313 H   0  0  0  0  0  0  0  0  0  0  0  0
   -5.0527    0.0832    2.1269 H   0  0  0  0  0  0  0  0  0  0  0  0
   -6.7734    0.9694   -2.4431 H   0  0  0  0  0  0  0  0  0  0  0  0
   -6.9700    1.5944    1.8187 H   0  0  0  0  0  0  0  0  0  0  0  0
   -8.4532    2.4349   -1.4398 H   0  0  0  0  0  0  0  0  0  0  0  0
   -8.5328    2.6885    0.2910 H   0  0  0  0  0  0  0  0  0  0  0  0
  1 12  1  0  0  0  0
  1 14  1  0  0  0  0
  2 11  1  0  0  0  0
  2 34  1  0  0  0  0
  3 13  1  0  0  0  0
  3 35  1  0  0  0  0
  4 15  1  0  0  0  0
  4 37  1  0  0  0  0
  5 12  1  0  0  0  0
  5 16  1  0  0  0  0
  5 17  1  0  0  0  0
  6 17  2  0  0  0  0
  6 18  1  0  0  0  0
  7 16  2  0  0  0  0
  7 20  1  0  0  0  0
  8 19  1  0  0  0  0
  8 21  1  0  0  0  0
  8 38  1  0  0  0  0
  9 19  1  0  0  0  0
  9 20  2  0  0  0  0
 10 27  1  0  0  0  0
 10 46  1  0  0  0  0
 10 47  1  0  0  0  0
 11 12  1  0  0  0  0
 11 13  1  0  0  0  0
 11 28  1  0  0  0  0
 12 29  1  0  0  0  0
 13 14  1  0  0  0  0
 13 30  1  0  0  0  0
 14 15  1  0  0  0  0
 14 31  1  0  0  0  0
 15 32  1  0  0  0  0
 15 33  1  0  0  0  0
 16 18  1  0  0  0  0
 17 36  1  0  0  0  0
 18 19  2  0  0  0  0
 20 39  1  0  0  0  0
 21 22  1  0  0  0  0
 21 40  1  0  0  0  0
 21 41  1  0  0  0  0
 22 23  2  0  0  0  0
 22 24  1  0  0  0  0
 23 25  1  0  0  0  0
 23 42  1  0  0  0  0
 24 26  2  0  0  0  0
 24 43  1  0  0  0  0
 25 27  2  0  0  0  0
 25 44  1  0  0  0  0
 26 27  1  0  0  0  0
 26 45  1  0  0  0  0
M  END
> <PUBCHEM_COMPOUND_CID>
125347

> <PUBCHEM_CONFORMER_RMSD>
0.8

> <PUBCHEM_CONFORMER_DIVERSEORDER>
1
92
138
26
5
132
43
39
145
147
122
13
11
135
65
2
119
141
83
3
73
131
45
20
116
12
100
46
19
53
130
23
144
10
76
21
90
137
37
4
107
129
142
63
28
56
58
74
86
143
99
82
41
35
87
103
50
61
148
30
32
97
60
49
40
16
62
105
9
44
124
115
66
75
85
113
78
22
94
79
33
114
149
95
64
14
134
54
111
101
36
72
68
15
125
98
27
136
57
7
93
102
121
109
25
117
34
18
128
71
70
133
31
118
17
108
55
29
59
51
104
84
8
52
96
146
127
24
106
139
47
69
67
120
112
89
38
110
48
126
81
123
6
91
80
88
42
140
77

> <PUBCHEM_MMFF94_PARTIAL_CHARGES>
39
1 -0.56
10 -0.9
11 0.28
12 0.54
13 0.28
14 0.28
15 0.28
16 0.11
17 0.04
18 0.23
19 0.41
2 -0.68
20 0.47
21 0.51
22 -0.14
23 -0.15
24 -0.15
25 -0.15
26 -0.15
27 0.1
3 -0.68
34 0.4
35 0.4
36 0.15
37 0.4
38 0.4
39 0.15
4 -0.68
42 0.15
43 0.15
44 0.15
45 0.15
46 0.4
47 0.4
5 0.05
6 -0.57
7 -0.57
8 -0.87
9 -0.62

> <PUBCHEM_EFFECTIVE_ROTOR_COUNT>
6

> <PUBCHEM_PHARMACOPHORE_FEATURES>
18
1 1 acceptor
1 10 cation
1 10 donor
1 2 acceptor
1 2 donor
1 3 acceptor
1 3 donor
1 4 acceptor
1 4 donor
1 8 cation
1 8 donor
3 5 6 17 cation
3 5 7 16 cation
3 7 9 20 cation
5 1 11 12 13 14 rings
5 5 6 16 17 18 rings
6 22 23 24 25 26 27 rings
6 7 9 16 18 19 20 rings

> <PUBCHEM_HEAVY_ATOM_COUNT>
27

> <PUBCHEM_ATOM_DEF_STEREO_COUNT>
4

> <PUBCHEM_ATOM_UDEF_STEREO_COUNT>
0

> <PUBCHEM_BOND_DEF_STEREO_COUNT>
0

> <PUBCHEM_BOND_UDEF_STEREO_COUNT>
0

> <PUBCHEM_ISOTOPIC_ATOM_COUNT>
0

> <PUBCHEM_COMPONENT_COUNT>
1

> <PUBCHEM_CACTVS_TAUTO_COUNT>
3

> <PUBCHEM_CONFORMER_ID>
0001E9A300000001

> <PUBCHEM_MMFF94_ENERGY>
79.7191

> <PUBCHEM_FEATURE_SELFOVERLAP>
91.97

> <PUBCHEM_SHAPE_FINGERPRINT>
10 15 17312829269152536865
10411042 1 17688023111805885882
10554248 39 18189037746995805279
10835480 77 18200591514059259304
10906281 52 17968108503470560073
11475781 23 18272651281513805356
11796584 16 15410889656725441711
12166972 35 12823297922269969467
12236239 1 17989203733861945603
13668630 136 10952043460447579869
13685833 64 10159692500280983263
14123256 34 10663821901457284925
14790565 3 18409453570007659353
15183329 4 17275108301804724879
15716309 27 11674879992343419829
1601671 61 18186238437456168743
18222031 100 12895080634612329466
20281389 69 18187362130198071185
20715895 44 18337669823670320712
21033648 29 18187364375890947642
21033650 10 15984830277782672979
21150785 3 17131829919271051189
21279426 13 18412834585506691338
21424621 283 18409447011608292945
23559900 14 18339654451254565950
24771293 8 18264763436546882884
2748736 6 18337100250434145833
2838139 119 18412822456703222087
293599 30 18334297586536282987
29717793 49 17489593337791051686
312425 54 13118000002746694669
3504750 166 11819264560852438203
3663271 9 13767927922994829165
465052 167 9007057980439760386
50009960 94 11670131124056325316
5104073 3 18113613521046123498
5718773 13 11383843631893846444
58260988 393 14779542349109665287
59682541 52 17346321466406713126
59755656 215 18337112255047047271
6328613 192 18273496788665335529
8863177 126 12175035780130025309

> <PUBCHEM_SHAPE_MULTIPOLES>
502.28
20.72
2.66
1.26
18.91
0.54
-0.31
-16.65
-3.82
-1.72
0.73
-0.7
-0.41
1.48

> <PUBCHEM_SHAPE_SELFOVERLAP>
1094.813

> <PUBCHEM_SHAPE_VOLUME>
269.1

> <PUBCHEM_COORDINATE_TYPE>
2
5
10

$$$$
