REMARK  Name = 125336
REMARK  5 active torsions:
REMARK  status: ('A' for Active; 'I' for Inactive)
REMARK    1  A    between atoms: C_7  and  C_17
REMARK    2  A    between atoms: C_17  and  N_18
REMARK    3  A    between atoms: N_18  and  C_20
REMARK    4  A    between atoms: C_23  and  C_27
REMARK    5  A    between atoms: C_27  and  C_29
REMARK                            x       y       z     vdW  Elec       q    Type
REMARK                         _______ _______ _______ _____ _____    ______ ____
ROOT
ATOM      1  N   UNL     1       2.251  -0.320  -0.634  0.00  0.00    -0.392 NA
ATOM      2  N   UNL     1       3.453   1.947   0.402  0.00  0.00    -0.200 NA
ATOM      3  N   UNL     1       5.457   0.807   0.610  0.00  0.00    -0.271 NA
ATOM      4  N   UNL     1       5.643  -1.491  -0.047  0.00  0.00    -0.310 NA
ATOM      5  N   UNL     1       3.756  -2.612  -0.920  0.00  0.00    -0.329 N 
ATOM      6  N   UNL     1       7.491  -0.345   0.823  0.00  0.00    -0.283 N 
ATOM      7  C   UNL     1       1.561   0.820  -0.475  0.00  0.00    +0.133 C 
ATOM      8  C   UNL     1       3.547  -0.312  -0.269  0.00  0.00    +0.248 C 
ATOM      9  C   UNL     1       4.167   0.825   0.255  0.00  0.00    +0.131 C 
ATOM     10  C   UNL     1       2.156   1.941   0.037  0.00  0.00    +0.193 C 
ATOM     11  C   UNL     1       4.344  -1.434  -0.392  0.00  0.00    +0.231 C 
ATOM     12  C   UNL     1       6.131  -0.346   0.443  0.00  0.00    +0.207 C 
ATOM     13  H   UNL     1       4.296  -3.429  -1.022  0.00  0.00    +0.145 HD
ATOM     14  H   UNL     1       2.808  -2.613  -1.185  0.00  0.00    +0.145 HD
ATOM     15  H   UNL     1       7.899   0.472   1.189  0.00  0.00    +0.156 HD
ATOM     16  H   UNL     1       8.030  -1.162   0.722  0.00  0.00    +0.156 HD
ENDROOT
BRANCH   7  17
ATOM     17  C   UNL     1       0.128   0.827  -0.873  0.00  0.00    +0.145 C 
BRANCH  17  18
ATOM     18  N   UNL     1      -0.723   0.445   0.235  0.00  0.00    -0.327 N 
ATOM     19  H   UNL     1      -0.301   0.263   1.105  0.00  0.00    +0.147 HD
BRANCH  18  20
ATOM     20  C   UNL     1      -2.097   0.321   0.136  0.00  0.00    +0.045 C 
ATOM     21  C   UNL     1      -2.873  -0.055   1.250  0.00  0.00    +0.014 C 
ATOM     22  C   UNL     1      -2.761   0.565  -1.083  0.00  0.00    +0.014 C 
ATOM     23  C   UNL     1      -4.895   0.065  -0.067  0.00  0.00    +0.042 C 
ATOM     24  C   UNL     1      -4.259  -0.182   1.149  0.00  0.00    +0.005 C 
ATOM     25  C   UNL     1      -4.146   0.438  -1.183  0.00  0.00    +0.005 C 
BRANCH  23  27
ATOM     26  O   UNL     1      -6.979   0.127  -1.211  0.00  0.00    -0.283 OA
ATOM     27  C   UNL     1      -6.340  -0.069  -0.172  0.00  0.00    +0.238 C 
BRANCH  27  29
ATOM     28  O   UNL     1      -7.843  -1.488   0.971  0.00  0.00    -0.280 OA
ATOM     29  C   UNL     1      -7.172  -0.472   1.018  0.00  0.00    +0.276 C 
ENDBRANCH  27  29
ENDBRANCH  23  27
ENDBRANCH  18  20
ENDBRANCH  17  18
ENDBRANCH   7  17
TORSDOF 5
