REMARK  Name = 125390
REMARK  8 active torsions:
REMARK  status: ('A' for Active; 'I' for Inactive)
REMARK    1  A    between atoms: N_2  and  C_5
REMARK    2  A    between atoms: C_3  and  C_15
REMARK    3  A    between atoms: C_10  and  C_12
REMARK    4  A    between atoms: C_12  and  O_13
REMARK    5  A    between atoms: C_15  and  C_16
REMARK    6  A    between atoms: C_16  and  C_17
REMARK    7  A    between atoms: C_17  and  C_18
REMARK    8  A    between atoms: C_18  and  C_21
REMARK                            x       y       z     vdW  Elec       q    Type
REMARK                         _______ _______ _______ _____ _____    ______ ____
ROOT
ATOM      1  O   UNL     1       0.389   1.414   0.176  0.00  0.00    -0.275 OA
ATOM      2  N   UNL     1       1.316  -0.699  -0.262  0.00  0.00    -0.284 N 
ATOM      3  C   UNL     1       0.286   0.223  -0.098  0.00  0.00    +0.226 C 
ATOM      4  H   UNL     1       1.045  -1.619  -0.483  0.00  0.00    +0.155 HD
ENDROOT
BRANCH   2   5
ATOM      5  C   UNL     1       2.708  -0.467  -0.148  0.00  0.00    +0.050 C 
ATOM      6  C   UNL     1       3.160   0.805   0.160  0.00  0.00    +0.015 C 
ATOM      7  C   UNL     1       3.588  -1.518  -0.348  0.00  0.00    +0.015 C 
ATOM      8  C   UNL     1       4.532   1.033   0.272  0.00  0.00    +0.008 C 
ATOM      9  C   UNL     1       4.959  -1.290  -0.236  0.00  0.00    +0.008 C 
ATOM     10  C   UNL     1       5.431  -0.014   0.074  0.00  0.00    +0.076 C 
BRANCH  10  12
ATOM     11  O   UNL     1       7.387   1.308   0.461  0.00  0.00    -0.245 OA
ATOM     12  C   UNL     1       6.861   0.223   0.191  0.00  0.00    +0.338 C 
BRANCH  12  13
ATOM     13  O   UNL     1       7.595  -0.902  -0.031  0.00  0.00    -0.477 OA
ATOM     14  H   UNL     1       7.165  -1.709  -0.234  0.00  0.00    +0.295 HD
ENDBRANCH  12  13
ENDBRANCH  10  12
ENDBRANCH   2   5
BRANCH   3  15
ATOM     15  C   UNL     1      -1.066  -0.445  -0.309  0.00  0.00    +0.085 C 
BRANCH  15  16
ATOM     16  C   UNL     1      -2.233   0.526  -0.140  0.00  0.00    +0.010 C 
BRANCH  16  17
ATOM     17  C   UNL     1      -3.573  -0.165  -0.396  0.00  0.00    +0.001 C 
BRANCH  17  18
ATOM     18  C   UNL     1      -4.742   0.799  -0.193  0.00  0.00    +0.012 C 
BRANCH  18  21
ATOM     19  S   UNL     1      -6.326  -1.219   0.808  0.00  0.00    -0.083 S 
ATOM     20  S   UNL     1      -8.367  -1.066   0.940  0.00  0.00    -0.082 S 
ATOM     21  C   UNL     1      -6.079   0.107  -0.413  0.00  0.00    +0.059 C 
ATOM     22  C   UNL     1      -7.260   1.067  -0.252  0.00  0.00    +0.024 C 
ATOM     23  C   UNL     1      -8.566   0.281  -0.253  0.00  0.00    +0.070 C 
ENDBRANCH  18  21
ENDBRANCH  17  18
ENDBRANCH  16  17
ENDBRANCH  15  16
ENDBRANCH   3  15
TORSDOF 8
