125390
  -OEChem-03292013323D

 40 41  0     1  0  0  0  0  0999 V2000
   -6.3262   -1.2188    0.8076 S   0  0  0  0  0  0  0  0  0  0  0  0
   -8.3669   -1.0660    0.9398 S   0  0  0  0  0  0  0  0  0  0  0  0
    0.3885    1.4137    0.1756 O   0  0  0  0  0  0  0  0  0  0  0  0
    7.5952   -0.9018   -0.0308 O   0  0  0  0  0  0  0  0  0  0  0  0
    7.3873    1.3075    0.4613 O   0  0  0  0  0  0  0  0  0  0  0  0
    1.3162   -0.6991   -0.2623 N   0  0  0  0  0  0  0  0  0  0  0  0
   -6.0788    0.1070   -0.4134 C   0  0  2  0  0  0  0  0  0  0  0  0
   -4.7422    0.7987   -0.1933 C   0  0  0  0  0  0  0  0  0  0  0  0
   -3.5730   -0.1646   -0.3956 C   0  0  0  0  0  0  0  0  0  0  0  0
   -7.2600    1.0670   -0.2520 C   0  0  0  0  0  0  0  0  0  0  0  0
   -2.2327    0.5258   -0.1403 C   0  0  0  0  0  0  0  0  0  0  0  0
   -8.5657    0.2809   -0.2525 C   0  0  0  0  0  0  0  0  0  0  0  0
   -1.0659   -0.4448   -0.3093 C   0  0  0  0  0  0  0  0  0  0  0  0
    0.2861    0.2227   -0.0984 C   0  0  0  0  0  0  0  0  0  0  0  0
    2.7077   -0.4672   -0.1485 C   0  0  0  0  0  0  0  0  0  0  0  0
    3.1599    0.8049    0.1602 C   0  0  0  0  0  0  0  0  0  0  0  0
    3.5876   -1.5178   -0.3485 C   0  0  0  0  0  0  0  0  0  0  0  0
    4.5315    1.0331    0.2720 C   0  0  0  0  0  0  0  0  0  0  0  0
    4.9592   -1.2898   -0.2365 C   0  0  0  0  0  0  0  0  0  0  0  0
    5.4311   -0.0142    0.0736 C   0  0  0  0  0  0  0  0  0  0  0  0
    6.8610    0.2229    0.1911 C   0  0  0  0  0  0  0  0  0  0  0  0
   -6.1061   -0.3440   -1.4127 H   0  0  0  0  0  0  0  0  0  0  0  0
   -4.6941    1.2396    0.8110 H   0  0  0  0  0  0  0  0  0  0  0  0
   -4.6460    1.6311   -0.9021 H   0  0  0  0  0  0  0  0  0  0  0  0
   -3.5931   -0.5576   -1.4197 H   0  0  0  0  0  0  0  0  0  0  0  0
   -3.6392   -1.0236    0.2797 H   0  0  0  0  0  0  0  0  0  0  0  0
   -7.1701    1.6496    0.6756 H   0  0  0  0  0  0  0  0  0  0  0  0
   -7.2677    1.7954   -1.0718 H   0  0  0  0  0  0  0  0  0  0  0  0
   -2.2176    0.9439    0.8741 H   0  0  0  0  0  0  0  0  0  0  0  0
   -2.1165    1.3696   -0.8318 H   0  0  0  0  0  0  0  0  0  0  0  0
   -8.7688   -0.1424   -1.2416 H   0  0  0  0  0  0  0  0  0  0  0  0
   -9.4113    0.9145    0.0300 H   0  0  0  0  0  0  0  0  0  0  0  0
   -1.1581   -1.2684    0.4090 H   0  0  0  0  0  0  0  0  0  0  0  0
   -1.0808   -0.8732   -1.3188 H   0  0  0  0  0  0  0  0  0  0  0  0
    1.0552   -1.6561   -0.4908 H   0  0  0  0  0  0  0  0  0  0  0  0
    2.5287    1.6648    0.3279 H   0  0  0  0  0  0  0  0  0  0  0  0
    3.2301   -2.5148   -0.5905 H   0  0  0  0  0  0  0  0  0  0  0  0
    4.8803    2.0337    0.5146 H   0  0  0  0  0  0  0  0  0  0  0  0
    5.6241   -2.1335   -0.3988 H   0  0  0  0  0  0  0  0  0  0  0  0
    8.5578   -0.7313    0.0512 H   0  0  0  0  0  0  0  0  0  0  0  0
  1  2  1  0  0  0  0
  1  7  1  0  0  0  0
  2 12  1  0  0  0  0
  3 14  2  0  0  0  0
  4 21  1  0  0  0  0
  4 40  1  0  0  0  0
  5 21  2  0  0  0  0
  6 14  1  0  0  0  0
  6 15  1  0  0  0  0
  6 35  1  0  0  0  0
  7  8  1  0  0  0  0
  7 10  1  0  0  0  0
  7 22  1  0  0  0  0
  8  9  1  0  0  0  0
  8 23  1  0  0  0  0
  8 24  1  0  0  0  0
  9 11  1  0  0  0  0
  9 25  1  0  0  0  0
  9 26  1  0  0  0  0
 10 12  1  0  0  0  0
 10 27  1  0  0  0  0
 10 28  1  0  0  0  0
 11 13  1  0  0  0  0
 11 29  1  0  0  0  0
 11 30  1  0  0  0  0
 12 31  1  0  0  0  0
 12 32  1  0  0  0  0
 13 14  1  0  0  0  0
 13 33  1  0  0  0  0
 13 34  1  0  0  0  0
 15 16  2  0  0  0  0
 15 17  1  0  0  0  0
 16 18  1  0  0  0  0
 16 36  1  0  0  0  0
 17 19  2  0  0  0  0
 17 37  1  0  0  0  0
 18 20  2  0  0  0  0
 18 38  1  0  0  0  0
 19 20  1  0  0  0  0
 19 39  1  0  0  0  0
 20 21  1  0  0  0  0
M  END
> <PUBCHEM_COMPOUND_CID>
125390

> <PUBCHEM_CONFORMER_RMSD>
0.8

> <PUBCHEM_CONFORMER_DIVERSEORDER>
1
13
41
114
74
48
90
39
91
111
117
96
9
60
71
8
18
50
44
85
23
29
64
113
108
52
88
72
106
57
58
38
61
32
66
118
81
69
103
95
89
46
78
68
94
11
35
2
19
14
24
12
21
67
115
116
37
16
105
120
55
70
97
17
34
42
51
79
101
75
5
104
87
119
73
107
80
20
82
112
83
22
63
28
76
77
65
99
53
62
100
98
4
3
7
93
102
45
33
56
47
10
43
6
109
31
36
110
15
25
27
92
40
54
86
49
59
26
84
30

> <PUBCHEM_MMFF94_PARTIAL_CHARGES>
23
1 -0.23
12 0.23
13 0.06
14 0.57
15 0.12
16 -0.15
17 -0.15
18 -0.15
19 -0.15
2 -0.23
20 0.09
21 0.63
3 -0.57
35 0.37
36 0.15
37 0.15
38 0.15
39 0.15
4 -0.65
40 0.5
5 -0.57
6 -0.55
7 0.23

> <PUBCHEM_EFFECTIVE_ROTOR_COUNT>
9

> <PUBCHEM_PHARMACOPHORE_FEATURES>
8
1 3 acceptor
1 4 acceptor
1 5 acceptor
1 6 donor
3 4 5 21 anion
4 8 9 11 13 hydrophobe
5 1 2 7 10 12 rings
6 15 16 17 18 19 20 rings

> <PUBCHEM_HEAVY_ATOM_COUNT>
21

> <PUBCHEM_ATOM_DEF_STEREO_COUNT>
1

> <PUBCHEM_ATOM_UDEF_STEREO_COUNT>
0

> <PUBCHEM_BOND_DEF_STEREO_COUNT>
0

> <PUBCHEM_BOND_UDEF_STEREO_COUNT>
0

> <PUBCHEM_ISOTOPIC_ATOM_COUNT>
0

> <PUBCHEM_COMPONENT_COUNT>
1

> <PUBCHEM_CACTVS_TAUTO_COUNT>
3

> <PUBCHEM_CONFORMER_ID>
0001E9CE00000001

> <PUBCHEM_MMFF94_ENERGY>
46.702

> <PUBCHEM_FEATURE_SELFOVERLAP>
40.652

> <PUBCHEM_SHAPE_FINGERPRINT>
10 15 18410572898941651523
10299344 5 17561362885721065655
10319688 140 16342594846615379350
106641 1 18335139821059104017
11315181 36 18202284694158875353
11638347 137 17530958061077667906
12091667 2 18202561775162424613
13073987 5 18341050705592083297
13533116 47 14261078627785088934
13685833 64 18410013229942142353
13885169 127 18260267422258433573
14123256 10 18202563973104420737
14251764 18 17561084700425592113
14251764 46 18410573989446418436
14428016 248 15913331324801164809
14933364 13 18411136927132311285
15183329 4 16558749010114180563
15419008 47 18260822696731595549
15510794 2 18408042901760175535
15716309 27 18413671314498643447
15840311 113 17676213511789954084
15849732 13 18410855464860940629
16120349 18 18343014531843417325
17093844 174 18113337497632656441
18335252 98 18409169909272591523
21095123 145 16128373831480942607
21150785 3 17275383209702625605
21267235 1 18343305843070007412
21315763 28 18334012783028470317
220451 1 16128650834557856631
22224240 67 17385442128635237867
232437 2 18410856555403253878
23521765 1 18341892987423133981
33684 2 18410572872760209254
3545911 37 18413386536348956950
4073 2 18187367683047927523
4325135 7 18272931617796850469
5758199 1 15626225710891186855
59682541 35 18409165545153224449
5969126 39 14634860951828393151
67123 10 18260548939314281757
8209 1 18411417306728720773

> <PUBCHEM_SHAPE_MULTIPOLES>
417.28
28.52
1.35
0.75
18.86
0.13
0.06
1.46
3.49
-0.16
0.09
0.57
0.08
1.48

> <PUBCHEM_SHAPE_SELFOVERLAP>
833.301

> <PUBCHEM_SHAPE_VOLUME>
246.5

> <PUBCHEM_COORDINATE_TYPE>
2
5
10

$$$$
