REMARK  Name = 125309
REMARK  5 active torsions:
REMARK  status: ('A' for Active; 'I' for Inactive)
REMARK    1  A    between atoms: C_3  and  C_14
REMARK    2  A    between atoms: C_9  and  O_24
REMARK    3  A    between atoms: C_11  and  O_26
REMARK    4  A    between atoms: C_17  and  O_20
REMARK    5  A    between atoms: C_19  and  O_22
REMARK                            x       y       z     vdW  Elec       q    Type
REMARK                         _______ _______ _______ _____ _____    ______ ____
ROOT
ATOM      1  O   UNL     1      -0.054  -0.621  -0.022  0.00  0.00    -0.474 OA
ATOM      2  O   UNL     1       1.570   3.144  -0.143  0.00  0.00    -0.291 OA
ATOM      3  C   UNL     1      -0.766   0.503   0.519  0.00  0.00    +0.196 C 
ATOM      4  C   UNL     1      -0.407   1.788  -0.224  0.00  0.00    +0.117 C 
ATOM      5  C   UNL     1       1.919   0.812  -0.037  0.00  0.00    +0.102 A 
ATOM      6  C   UNL     1       1.305  -0.444  -0.018  0.00  0.00    +0.143 A 
ATOM      7  C   UNL     1       1.077   2.023  -0.113  0.00  0.00    +0.183 C 
ATOM      8  C   UNL     1       2.088  -1.599  -0.024  0.00  0.00    +0.046 A 
ATOM      9  C   UNL     1       3.312   0.916  -0.027  0.00  0.00    +0.138 A 
ATOM     10  C   UNL     1       4.090  -0.242  -0.013  0.00  0.00    +0.045 A 
ATOM     11  C   UNL     1       3.480  -1.497  -0.016  0.00  0.00    +0.131 A 
ATOM     12  C   UNL     1       1.443  -2.949  -0.028  0.00  0.00    +0.037 C 
ATOM     13  C   UNL     1       5.583  -0.142   0.002  0.00  0.00    +0.037 C 
ENDROOT
BRANCH   3  14
ATOM     14  C   UNL     1      -2.250   0.217   0.432  0.00  0.00    +0.021 C 
ATOM     15  C   UNL     1      -2.857   0.058  -0.814  0.00  0.00    +0.039 C 
ATOM     16  C   UNL     1      -3.010   0.116   1.597  0.00  0.00    +0.002 C 
ATOM     17  C   UNL     1      -4.224  -0.205  -0.895  0.00  0.00    +0.167 C 
ATOM     18  C   UNL     1      -4.378  -0.146   1.516  0.00  0.00    +0.040 C 
ATOM     19  C   UNL     1      -4.985  -0.306   0.270  0.00  0.00    +0.167 C 
BRANCH  17  20
ATOM     20  O   UNL     1      -4.806  -0.360  -2.117  0.00  0.00    -0.503 OA
ATOM     21  H   UNL     1      -4.287  -0.290  -2.894  0.00  0.00    +0.292 HD
ENDBRANCH  17  20
BRANCH  19  22
ATOM     22  O   UNL     1      -6.321  -0.562   0.205  0.00  0.00    -0.503 OA
ATOM     23  H   UNL     1      -6.737  -0.671  -0.628  0.00  0.00    +0.292 HD
ENDBRANCH  19  22
ENDBRANCH   3  14
BRANCH   9  24
ATOM     24  O   UNL     1       3.944   2.125  -0.040  0.00  0.00    -0.506 OA
ATOM     25  H   UNL     1       3.442   2.916  -0.050  0.00  0.00    +0.292 HD
ENDBRANCH   9  24
BRANCH  11  26
ATOM     26  O   UNL     1       4.245  -2.627  -0.011  0.00  0.00    -0.506 OA
ATOM     27  H   UNL     1       3.836  -3.470  -0.013  0.00  0.00    +0.292 HD
ENDBRANCH  11  26
TORSDOF 5
