125309
  -OEChem-03292013323D

 39 41  0     1  0  0  0  0  0999 V2000
   -0.0543   -0.6210   -0.0221 O   0  0  0  0  0  0  0  0  0  0  0  0
    1.5703    3.1443   -0.1430 O   0  0  0  0  0  0  0  0  0  0  0  0
    3.9444    2.1247   -0.0399 O   0  0  0  0  0  0  0  0  0  0  0  0
    4.2452   -2.6269   -0.0105 O   0  0  0  0  0  0  0  0  0  0  0  0
   -4.8056   -0.3603   -2.1168 O   0  0  0  0  0  0  0  0  0  0  0  0
   -6.3210   -0.5623    0.2046 O   0  0  0  0  0  0  0  0  0  0  0  0
   -0.7657    0.5030    0.5194 C   0  0  1  0  0  0  0  0  0  0  0  0
   -0.4071    1.7883   -0.2240 C   0  0  0  0  0  0  0  0  0  0  0  0
    1.9192    0.8116   -0.0368 C   0  0  0  0  0  0  0  0  0  0  0  0
    1.3052   -0.4443   -0.0182 C   0  0  0  0  0  0  0  0  0  0  0  0
    1.0769    2.0231   -0.1127 C   0  0  0  0  0  0  0  0  0  0  0  0
   -2.2501    0.2175    0.4316 C   0  0  0  0  0  0  0  0  0  0  0  0
    2.0883   -1.5994   -0.0243 C   0  0  0  0  0  0  0  0  0  0  0  0
    3.3124    0.9163   -0.0272 C   0  0  0  0  0  0  0  0  0  0  0  0
    4.0900   -0.2423   -0.0126 C   0  0  0  0  0  0  0  0  0  0  0  0
    3.4797   -1.4971   -0.0161 C   0  0  0  0  0  0  0  0  0  0  0  0
   -2.8567    0.0575   -0.8138 C   0  0  0  0  0  0  0  0  0  0  0  0
   -3.0101    0.1159    1.5965 C   0  0  0  0  0  0  0  0  0  0  0  0
    1.4431   -2.9494   -0.0280 C   0  0  0  0  0  0  0  0  0  0  0  0
    5.5827   -0.1424    0.0023 C   0  0  0  0  0  0  0  0  0  0  0  0
   -4.2243   -0.2046   -0.8946 C   0  0  0  0  0  0  0  0  0  0  0  0
   -4.3777   -0.1460    1.5159 C   0  0  0  0  0  0  0  0  0  0  0  0
   -4.9848   -0.3063    0.2702 C   0  0  0  0  0  0  0  0  0  0  0  0
   -0.4831    0.5973    1.5785 H   0  0  0  0  0  0  0  0  0  0  0  0
   -0.9352    2.6424    0.2147 H   0  0  0  0  0  0  0  0  0  0  0  0
   -0.6401    1.7383   -1.2935 H   0  0  0  0  0  0  0  0  0  0  0  0
   -2.2671    0.1238   -1.7248 H   0  0  0  0  0  0  0  0  0  0  0  0
   -2.5517    0.2384    2.5741 H   0  0  0  0  0  0  0  0  0  0  0  0
    0.5850   -2.9732   -0.7088 H   0  0  0  0  0  0  0  0  0  0  0  0
    2.1196   -3.7391   -0.3697 H   0  0  0  0  0  0  0  0  0  0  0  0
    1.1023   -3.2030    0.9810 H   0  0  0  0  0  0  0  0  0  0  0  0
    5.9341    0.7543    0.5239 H   0  0  0  0  0  0  0  0  0  0  0  0
    6.0458   -0.9676    0.5539 H   0  0  0  0  0  0  0  0  0  0  0  0
    5.9724   -0.1344   -1.0203 H   0  0  0  0  0  0  0  0  0  0  0  0
   -4.9647   -0.2242    2.4270 H   0  0  0  0  0  0  0  0  0  0  0  0
    4.7850    2.0546   -0.5209 H   0  0  0  0  0  0  0  0  0  0  0  0
    5.1028   -2.4509   -0.4298 H   0  0  0  0  0  0  0  0  0  0  0  0
   -4.1277   -0.2561   -2.8064 H   0  0  0  0  0  0  0  0  0  0  0  0
   -6.5712   -0.6437   -0.7322 H   0  0  0  0  0  0  0  0  0  0  0  0
  1  7  1  0  0  0  0
  1 10  1  0  0  0  0
  2 11  2  0  0  0  0
  3 14  1  0  0  0  0
  3 36  1  0  0  0  0
  4 16  1  0  0  0  0
  4 37  1  0  0  0  0
  5 21  1  0  0  0  0
  5 38  1  0  0  0  0
  6 23  1  0  0  0  0
  6 39  1  0  0  0  0
  7  8  1  0  0  0  0
  7 12  1  0  0  0  0
  7 24  1  0  0  0  0
  8 11  1  0  0  0  0
  8 25  1  0  0  0  0
  8 26  1  0  0  0  0
  9 10  1  0  0  0  0
  9 11  1  0  0  0  0
  9 14  2  0  0  0  0
 10 13  2  0  0  0  0
 12 17  2  0  0  0  0
 12 18  1  0  0  0  0
 13 16  1  0  0  0  0
 13 19  1  0  0  0  0
 14 15  1  0  0  0  0
 15 16  2  0  0  0  0
 15 20  1  0  0  0  0
 17 21  1  0  0  0  0
 17 27  1  0  0  0  0
 18 22  2  0  0  0  0
 18 28  1  0  0  0  0
 19 29  1  0  0  0  0
 19 30  1  0  0  0  0
 19 31  1  0  0  0  0
 20 32  1  0  0  0  0
 20 33  1  0  0  0  0
 20 34  1  0  0  0  0
 21 23  2  0  0  0  0
 22 23  1  0  0  0  0
 22 35  1  0  0  0  0
M  END
> <PUBCHEM_COMPOUND_CID>
125309

> <PUBCHEM_CONFORMER_RMSD>
0.6

> <PUBCHEM_CONFORMER_DIVERSEORDER>
1
7
5
3
11
15
10
13
9
17
6
2
16
4
14
8
12
18

> <PUBCHEM_MMFF94_PARTIAL_CHARGES>
30
1 -0.36
10 0.08
11 0.42
12 -0.14
13 -0.14
14 0.08
15 -0.14
16 0.08
17 -0.15
18 -0.15
19 0.14
2 -0.57
20 0.14
21 0.08
22 -0.15
23 0.08
27 0.15
28 0.15
3 -0.53
35 0.15
36 0.45
37 0.45
38 0.45
39 0.45
4 -0.53
5 -0.53
6 -0.53
7 0.42
8 0.06
9 0.09

> <PUBCHEM_EFFECTIVE_ROTOR_COUNT>
1.6

> <PUBCHEM_PHARMACOPHORE_FEATURES>
9
1 1 acceptor
1 2 acceptor
1 3 donor
1 4 donor
1 5 donor
1 6 donor
6 1 7 8 9 10 11 rings
6 12 17 18 21 22 23 rings
6 9 10 13 14 15 16 rings

> <PUBCHEM_HEAVY_ATOM_COUNT>
23

> <PUBCHEM_ATOM_DEF_STEREO_COUNT>
0

> <PUBCHEM_ATOM_UDEF_STEREO_COUNT>
1

> <PUBCHEM_BOND_DEF_STEREO_COUNT>
0

> <PUBCHEM_BOND_UDEF_STEREO_COUNT>
0

> <PUBCHEM_ISOTOPIC_ATOM_COUNT>
0

> <PUBCHEM_COMPONENT_COUNT>
1

> <PUBCHEM_CACTVS_TAUTO_COUNT>
210

> <PUBCHEM_CONFORMER_ID>
0001E97D00000001

> <PUBCHEM_MMFF94_ENERGY>
72.8173

> <PUBCHEM_FEATURE_SELFOVERLAP>
45.706

> <PUBCHEM_SHAPE_FINGERPRINT>
10411042 1 18194121812006955178
10447042 23 18335415734406932046
10967382 1 18410295813795862402
11471102 20 18409168839524982920
11796584 16 16443059470370865130
12107183 9 17552373072404177779
12236239 1 17846502552041041409
12553582 1 18339366270810656014
12596602 18 17132109173501685115
13134695 92 18410012151890137653
13140716 1 18194967568001961168
13402501 40 18040723588595854579
13533116 47 18272652372366914057
13544653 18 18335426720500511700
13862211 1 18410292476622442010
14386348 63 17821451274644629083
14787075 74 17703788175970295840
14790565 3 17686634836921063404
14863182 85 18339933636528788190
15196674 1 18338237042588820232
15788980 27 18342173354340532205
15961568 22 16081660001046753084
17138139 8 17413279689162097823
17349148 13 18131634486850282651
17357779 13 18114455691387268005
17818456 19 17415014452069554097
1813 80 18271540692585267620
18222031 100 18342452608798149242
19489759 90 16081087078416386091
200 152 18343299249947093889
20028762 73 18202844348913116646
20511986 3 17846488232514776497
20645477 70 18333731329473471889
21033648 29 17822279219822663333
21065201 7 16370443362964544657
21197605 99 18122354737635563539
21267235 1 18412553085092090110
21623969 137 18334583463922985667
21641784 216 17969523545108920148
221357 26 18261104159023188661
23402539 116 18340769247489228401
23557571 272 16950280693970487301
23559900 14 17458063759216227032
2871803 45 18260548875185275394
314194 84 18341892987064769031
335352 9 18410860988911608566
33824 294 18408885144419244130
345986 75 18058445422343356152
34797466 226 16515697653349832335
42630746 31 18341897402807763218
46194498 28 17604150436561255949
474 4 18268713985661149544
5104073 3 18267581300328062848
5281201 14 17822012008273886037
5283173 99 17749943346089704413
602551 16 15267052692462192541
9981440 41 17121400149280527832

> <PUBCHEM_SHAPE_MULTIPOLES>
438.11
11.85
2.42
1.07
8.07
0.08
0.08
-2.93
0.4
-3.44
0.14
1.86
-0.07
-0.16

> <PUBCHEM_SHAPE_SELFOVERLAP>
970.461

> <PUBCHEM_SHAPE_VOLUME>
235.2

> <PUBCHEM_COORDINATE_TYPE>
2
5
10

$$$$
