125364
  -OEChem-03292013323D

 58 61  0     1  0  0  0  0  0999 V2000
    1.7591   -1.1735   -2.1930 O   0  0  0  0  0  0  0  0  0  0  0  0
   -1.0907   -0.6913   -0.2871 O   0  0  0  0  0  0  0  0  0  0  0  0
   -0.0061    0.6663   -2.6261 O   0  0  0  0  0  0  0  0  0  0  0  0
    0.5089    2.7223   -1.7672 O   0  0  0  0  0  0  0  0  0  0  0  0
   -2.0920   -2.4184    0.8400 O   0  0  0  0  0  0  0  0  0  0  0  0
   -4.0561   -1.4168   -1.7278 O   0  0  0  0  0  0  0  0  0  0  0  0
   -6.7631    1.8766    0.3967 O   0  0  0  0  0  0  0  0  0  0  0  0
    2.1944   -1.4762    0.2701 C   0  0  2  0  0  0  0  0  0  0  0  0
    3.2845   -0.6738    0.9613 C   0  0  2  0  0  0  0  0  0  0  0  0
    1.4054   -0.7467   -0.8545 C   0  0  2  0  0  0  0  0  0  0  0  0
    2.8682    0.7733    1.2453 C   0  0  1  0  0  0  0  0  0  0  0  0
    0.8477   -1.6782    1.0135 C   0  0  0  0  0  0  0  0  0  0  0  0
    0.1357   -1.4696   -0.3363 C   0  0  1  0  0  0  0  0  0  0  0  0
    4.5245   -0.5418    0.0671 C   0  0  0  0  0  0  0  0  0  0  0  0
    5.2261    0.7608    0.5082 C   0  0  0  0  0  0  0  0  0  0  0  0
    4.2195    1.4733    1.4414 C   0  0  0  0  0  0  0  0  0  0  0  0
    1.3680    0.7374   -0.7834 C   0  0  0  0  0  0  0  0  0  0  0  0
    2.6472   -2.8692   -0.2469 C   0  0  0  0  0  0  0  0  0  0  0  0
    2.0339    1.4144    0.1632 C   0  0  0  0  0  0  0  0  0  0  0  0
    6.5260    0.4502    1.2636 C   0  0  0  0  0  0  0  0  0  0  0  0
    5.5585    1.6330   -0.7107 C   0  0  0  0  0  0  0  0  0  0  0  0
    0.5911    1.5085   -1.7581 C   0  0  0  0  0  0  0  0  0  0  0  0
   -2.1392   -1.2990    0.3408 C   0  0  0  0  0  0  0  0  0  0  0  0
   -3.3458   -0.4677    0.3593 C   0  0  0  0  0  0  0  0  0  0  0  0
   -3.5704    0.4093    1.4162 C   0  0  0  0  0  0  0  0  0  0  0  0
   -4.2606   -0.5630   -0.6851 C   0  0  0  0  0  0  0  0  0  0  0  0
   -4.7204    1.1983    1.4288 C   0  0  0  0  0  0  0  0  0  0  0  0
   -5.4106    0.2259   -0.6724 C   0  0  0  0  0  0  0  0  0  0  0  0
   -2.6030    0.5288    2.5489 C   0  0  0  0  0  0  0  0  0  0  0  0
   -5.6407    1.1067    0.3845 C   0  0  0  0  0  0  0  0  0  0  0  0
    3.5766   -1.1606    1.9015 H   0  0  0  0  0  0  0  0  0  0  0  0
    2.2885    0.8343    2.1746 H   0  0  0  0  0  0  0  0  0  0  0  0
    0.6101   -0.9130    1.7618 H   0  0  0  0  0  0  0  0  0  0  0  0
    0.6952   -2.6564    1.4811 H   0  0  0  0  0  0  0  0  0  0  0  0
   -0.0643   -2.4115   -0.8659 H   0  0  0  0  0  0  0  0  0  0  0  0
    5.1727   -1.4201    0.1700 H   0  0  0  0  0  0  0  0  0  0  0  0
    4.2465   -0.4862   -0.9925 H   0  0  0  0  0  0  0  0  0  0  0  0
    4.1680    2.5534    1.2610 H   0  0  0  0  0  0  0  0  0  0  0  0
    4.5212    1.3477    2.4898 H   0  0  0  0  0  0  0  0  0  0  0  0
    1.8347   -3.4842   -0.6467 H   0  0  0  0  0  0  0  0  0  0  0  0
    3.4123   -2.7824   -1.0256 H   0  0  0  0  0  0  0  0  0  0  0  0
    3.0916   -3.4376    0.5790 H   0  0  0  0  0  0  0  0  0  0  0  0
    1.9658    2.4990    0.2119 H   0  0  0  0  0  0  0  0  0  0  0  0
    1.4376   -2.0833   -2.3005 H   0  0  0  0  0  0  0  0  0  0  0  0
    6.9979    1.3687    1.6299 H   0  0  0  0  0  0  0  0  0  0  0  0
    6.3384   -0.1972    2.1276 H   0  0  0  0  0  0  0  0  0  0  0  0
    7.2462   -0.0622    0.6160 H   0  0  0  0  0  0  0  0  0  0  0  0
    6.0435    2.5671   -0.4064 H   0  0  0  0  0  0  0  0  0  0  0  0
    6.2369    1.1108   -1.3947 H   0  0  0  0  0  0  0  0  0  0  0  0
    4.6570    1.8967   -1.2743 H   0  0  0  0  0  0  0  0  0  0  0  0
   -0.5392    1.1443   -3.2966 H   0  0  0  0  0  0  0  0  0  0  0  0
   -4.9101    1.8884    2.2473 H   0  0  0  0  0  0  0  0  0  0  0  0
   -6.1242    0.1500   -1.4892 H   0  0  0  0  0  0  0  0  0  0  0  0
   -1.6283    0.8718    2.1859 H   0  0  0  0  0  0  0  0  0  0  0  0
   -2.9421    1.2494    3.3010 H   0  0  0  0  0  0  0  0  0  0  0  0
   -2.4823   -0.4350    3.0546 H   0  0  0  0  0  0  0  0  0  0  0  0
   -3.2205   -1.8980   -1.6161 H   0  0  0  0  0  0  0  0  0  0  0  0
   -7.2859    1.6846   -0.4007 H   0  0  0  0  0  0  0  0  0  0  0  0
  1 10  1  0  0  0  0
  1 44  1  0  0  0  0
  2 13  1  0  0  0  0
  2 23  1  0  0  0  0
  3 22  1  0  0  0  0
  3 51  1  0  0  0  0
  4 22  2  0  0  0  0
  5 23  2  0  0  0  0
  6 26  1  0  0  0  0
  6 57  1  0  0  0  0
  7 30  1  0  0  0  0
  7 58  1  0  0  0  0
  8  9  1  0  0  0  0
  8 10  1  0  0  0  0
  8 12  1  0  0  0  0
  8 18  1  0  0  0  0
  9 11  1  0  0  0  0
  9 14  1  0  0  0  0
  9 31  1  0  0  0  0
 10 13  1  0  0  0  0
 10 17  1  0  0  0  0
 11 16  1  0  0  0  0
 11 19  1  0  0  0  0
 11 32  1  0  0  0  0
 12 13  1  0  0  0  0
 12 33  1  0  0  0  0
 12 34  1  0  0  0  0
 13 35  1  0  0  0  0
 14 15  1  0  0  0  0
 14 36  1  0  0  0  0
 14 37  1  0  0  0  0
 15 16  1  0  0  0  0
 15 20  1  0  0  0  0
 15 21  1  0  0  0  0
 16 38  1  0  0  0  0
 16 39  1  0  0  0  0
 17 19  2  0  0  0  0
 17 22  1  0  0  0  0
 18 40  1  0  0  0  0
 18 41  1  0  0  0  0
 18 42  1  0  0  0  0
 19 43  1  0  0  0  0
 20 45  1  0  0  0  0
 20 46  1  0  0  0  0
 20 47  1  0  0  0  0
 21 48  1  0  0  0  0
 21 49  1  0  0  0  0
 21 50  1  0  0  0  0
 23 24  1  0  0  0  0
 24 25  1  0  0  0  0
 24 26  2  0  0  0  0
 25 27  2  0  0  0  0
 25 29  1  0  0  0  0
 26 28  1  0  0  0  0
 27 30  1  0  0  0  0
 27 52  1  0  0  0  0
 28 30  2  0  0  0  0
 28 53  1  0  0  0  0
 29 54  1  0  0  0  0
 29 55  1  0  0  0  0
 29 56  1  0  0  0  0
M  END
> <PUBCHEM_COMPOUND_CID>
125364

> <PUBCHEM_CONFORMER_RMSD>
0.8

> <PUBCHEM_CONFORMER_DIVERSEORDER>
1
18
11
21
20
13
9
19
15
14
12
7
16
5
4
3
10
6
8
17
2

> <PUBCHEM_MMFF94_PARTIAL_CHARGES>
28
1 -0.66
10 0.37
11 0.14
13 0.26
17 -0.1
19 -0.29
2 -0.41
22 0.71
23 0.63
24 0.09
25 -0.14
26 0.08
27 -0.15
28 -0.15
29 0.14
3 -0.65
30 0.08
4 -0.57
43 0.15
44 0.4
5 -0.57
51 0.5
52 0.15
53 0.15
57 0.45
58 0.45
6 -0.53
7 -0.53

> <PUBCHEM_EFFECTIVE_ROTOR_COUNT>
5

> <PUBCHEM_PHARMACOPHORE_FEATURES>
13
1 1 acceptor
1 1 donor
1 3 acceptor
1 4 acceptor
1 5 acceptor
1 6 donor
1 7 donor
3 15 20 21 hydrophobe
3 3 4 22 anion
4 8 10 12 13 rings
5 9 11 14 15 16 rings
6 24 25 26 27 28 30 rings
6 8 9 10 11 17 19 rings

> <PUBCHEM_HEAVY_ATOM_COUNT>
30

> <PUBCHEM_ATOM_DEF_STEREO_COUNT>
5

> <PUBCHEM_ATOM_UDEF_STEREO_COUNT>
0

> <PUBCHEM_BOND_DEF_STEREO_COUNT>
0

> <PUBCHEM_BOND_UDEF_STEREO_COUNT>
0

> <PUBCHEM_ISOTOPIC_ATOM_COUNT>
0

> <PUBCHEM_COMPONENT_COUNT>
1

> <PUBCHEM_CACTVS_TAUTO_COUNT>
25

> <PUBCHEM_CONFORMER_ID>
0001E9B400000001

> <PUBCHEM_MMFF94_ENERGY>
98.9582

> <PUBCHEM_FEATURE_SELFOVERLAP>
66.775

> <PUBCHEM_SHAPE_FINGERPRINT>
10906281 52 18041009461597606734
11089746 13 18060131068337306352
11578080 2 18193554467479128876
11961588 58 14189282803667176442
11991303 11 15123220108913858836
12166972 35 18265329689329537441
12236239 1 18272366460652368311
12422481 6 17749101219130372252
12507557 5 18114185263424820195
12633257 1 17822007653018571087
12788726 201 16878765133248140340
13224815 77 13542467540602199615
13583140 156 16486407840913664926
14178342 30 18261401108313782363
14251751 18 14057007134881472449
14790565 3 17971199372686247404
14840074 17 18040719198949354332
15081414 286 18187646877507358028
15142383 8 13623798415418789823
15183329 4 17060349509177486298
15238133 3 16732991881789961981
15420108 30 18339911693214247082
1601671 61 18260831540163209260
17349148 13 18338515356469782911
17809404 112 18114194016304549339
17980427 23 18343021133508481237
20511986 3 18200580433185787513
20739085 24 17895480340313288428
21033648 144 18410005512556273111
21033648 29 17604148109010552551
21298829 104 18338234861231503553
21421861 104 17604414212252209018
22393880 68 17060329768869750435
23559900 14 16701463342740310919
2838139 119 17988918998403866056
3472631 163 17775288214860656609
404807 78 15122640641075152573
4098825 35 14692030007300696945
4280585 95 12747071942486963820
474 4 18409449202300362499
5104073 3 17750228287384221232
513532 50 18201167563288361582
57724786 102 17676778664112363293
6328613 192 18336551637577722892
653340 110 18045780087916795949
6669772 16 12031487875608590502
7226269 152 16515953796815198477
7495541 125 13623537861006251199
8509985 295 17023189310050414009
9971528 1 18335144141875604623

> <PUBCHEM_SHAPE_MULTIPOLES>
576.3
13.67
2.32
1.94
5.97
0.58
-0.48
-6.37
3.36
-0.47
-0.25
0.31
-0.56
-0.59

> <PUBCHEM_SHAPE_SELFOVERLAP>
1263.043

> <PUBCHEM_SHAPE_VOLUME>
312.9

> <PUBCHEM_COORDINATE_TYPE>
2
5
10

$$$$
