REMARK  Name = 125321
REMARK  6 active torsions:
REMARK  status: ('A' for Active; 'I' for Inactive)
REMARK    1  A    between atoms: C_5  and  O_23
REMARK    2  A    between atoms: C_7  and  C_29
REMARK    3  A    between atoms: C_21  and  O_25
REMARK    4  A    between atoms: C_22  and  O_27
REMARK    5  A    between atoms: C_29  and  C_31
REMARK    6  A    between atoms: C_31  and  O_32
REMARK                            x       y       z     vdW  Elec       q    Type
REMARK                         _______ _______ _______ _____ _____    ______ ____
ROOT
ATOM      1  O   UNL     1      -0.470  -0.704   1.494  0.00  0.00    -0.472 OA
ATOM      2  O   UNL     1      -4.286  -0.182  -1.119  0.00  0.00    -0.479 OA
ATOM      3  O   UNL     1       1.892   0.392   2.636  0.00  0.00    -0.472 OA
ATOM      4  O   UNL     1       1.313  -3.125  -1.299  0.00  0.00    -0.288 OA
ATOM      5  C   UNL     1       1.609  -1.792   0.698  0.00  0.00    +0.205 C 
ATOM      6  C   UNL     1       0.623  -1.564   1.846  0.00  0.00    +0.244 C 
ATOM      7  C   UNL     1      -4.522   0.275   0.238  0.00  0.00    +0.173 C 
ATOM      8  C   UNL     1      -3.171   0.403   0.958  0.00  0.00    +0.076 C 
ATOM      9  C   UNL     1      -2.362  -0.508   0.115  0.00  0.00    +0.049 C 
ATOM     10  C   UNL     1      -1.095  -1.023   0.327  0.00  0.00    +0.140 C 
ATOM     11  C   UNL     1      -0.528  -1.805  -0.681  0.00  0.00    +0.071 C 
ATOM     12  C   UNL     1       0.843  -2.321  -0.501  0.00  0.00    +0.207 C 
ATOM     13  C   UNL     1       2.407  -0.536   0.426  0.00  0.00    +0.049 C 
ATOM     14  C   UNL     1       1.358  -0.886   3.001  0.00  0.00    +0.252 C 
ATOM     15  C   UNL     1      -3.051  -0.776  -1.059  0.00  0.00    +0.137 C 
ATOM     16  C   UNL     1       2.505   0.460   1.412  0.00  0.00    +0.141 C 
ATOM     17  C   UNL     1      -1.232  -2.077  -1.870  0.00  0.00    +0.009 C 
ATOM     18  C   UNL     1      -2.511  -1.553  -2.065  0.00  0.00    +0.037 C 
ATOM     19  C   UNL     1       3.094  -0.347  -0.784  0.00  0.00    +0.042 C 
ATOM     20  C   UNL     1       3.235   1.629   1.171  0.00  0.00    +0.077 C 
ATOM     21  C   UNL     1       3.830   0.816  -1.017  0.00  0.00    +0.172 C 
ATOM     22  C   UNL     1       3.897   1.806  -0.041  0.00  0.00    +0.175 C 
ENDROOT
BRANCH   5  23
ATOM     23  O   UNL     1       2.510  -2.830   1.086  0.00  0.00    -0.372 OA
ATOM     24  H   UNL     1       2.011  -3.643   1.263  0.00  0.00    +0.211 HD
ENDBRANCH   5  23
BRANCH  21  25
ATOM     25  O   UNL     1       4.480   0.970  -2.204  0.00  0.00    -0.468 OA
ATOM     26  C   UNL     1       3.758   1.598  -3.262  0.00  0.00    +0.253 C 
ENDBRANCH  21  25
BRANCH  22  27
ATOM     27  O   UNL     1       4.607   2.947  -0.258  0.00  0.00    -0.468 OA
ATOM     28  C   UNL     1       5.981   2.940   0.128  0.00  0.00    +0.253 C 
ENDBRANCH  22  27
BRANCH   7  29
ATOM     29  C   UNL     1      -5.284   1.589   0.190  0.00  0.00    +0.070 C 
ATOM     30  C   UNL     1      -5.515   2.131   1.605  0.00  0.00    +0.006 C 
BRANCH  29  31
ATOM     31  C   UNL     1      -6.611   1.418  -0.559  0.00  0.00    +0.141 C 
BRANCH  31  32
ATOM     32  O   UNL     1      -7.306   2.657  -0.614  0.00  0.00    -0.382 OA
ATOM     33  H   UNL     1      -8.143   2.537  -1.089  0.00  0.00    +0.210 HD
ENDBRANCH  31  32
ENDBRANCH  29  31
ENDBRANCH   7  29
TORSDOF 6
