REMARK  Name = 125384
REMARK  6 active torsions:
REMARK  status: ('A' for Active; 'I' for Inactive)
REMARK    1  A    between atoms: N_2  and  C1*_13
REMARK    2  A    between atoms: C_7  and  C_21
REMARK    3  A    between atoms: C3*_12  and  O3*_16
REMARK    4  A    between atoms: C4*_15  and  C5*_18
REMARK    5  A    between atoms: C5*_18  and  O5*_19
REMARK    6  A    between atoms: C_21  and  O_22
REMARK                            x       y       z     vdW  Elec       q    Type
REMARK                         _______ _______ _______ _____ _____    ______ ____
ROOT
ATOM      1  O   UNL     1      -0.118  -3.360   0.273  0.00  0.00    -0.193 OA
ATOM      2  N   UNL     1      -0.024  -1.059   0.180  0.00  0.00    -0.180 N 
ATOM      3  N   UNL     1      -2.087  -2.255   0.061  0.00  0.00    -0.306 NA
ATOM      4  N   UNL     1      -4.113  -1.166  -0.155  0.00  0.00    -0.332 N 
ATOM      5  C   UNL     1      -0.702   0.132   0.070  0.00  0.00    +0.081 C 
ATOM      6  C   UNL     1      -0.710  -2.283   0.177  0.00  0.00    +0.275 C 
ATOM      7  C   UNL     1      -2.032   0.194  -0.043  0.00  0.00    +0.067 C 
ATOM      8  C   UNL     1      -2.741  -1.125  -0.044  0.00  0.00    +0.191 C 
ATOM      9  H   UNL     1      -4.582  -2.032  -0.156  0.00  0.00    +0.145 HD
ATOM     10  H   UNL     1      -4.626  -0.329  -0.235  0.00  0.00    +0.145 HD
ENDROOT
BRANCH   2  13
ATOM     11  O4* UNL     1       1.780   0.176   1.015  0.00  0.00    -0.334 OA
ATOM     12  C3* UNL     1       3.328  -0.127  -0.755  0.00  0.00    +0.144 C 
ATOM     13  C1* UNL     1       1.404  -1.008   0.297  0.00  0.00    +0.209 C 
ATOM     14  C2* UNL     1       2.105  -0.963  -1.050  0.00  0.00    +0.084 C 
ATOM     15  C4* UNL     1       2.829   0.854   0.297  0.00  0.00    +0.173 C 
BRANCH  12  16
ATOM     16  O3* UNL     1       4.353  -0.951  -0.203  0.00  0.00    -0.382 OA
ATOM     17  H3* UNL     1       4.666  -1.573  -0.879  0.00  0.00    +0.210 HD
ENDBRANCH  12  16
BRANCH  15  18
ATOM     18  C5* UNL     1       2.240   2.122  -0.306  0.00  0.00    +0.169 C 
BRANCH  18  19
ATOM     19  O5* UNL     1       1.795   2.965   0.744  0.00  0.00    -0.379 OA
ATOM     20  H5* UNL     1       1.417   3.776   0.369  0.00  0.00    +0.211 HD
ENDBRANCH  18  19
ENDBRANCH  15  18
ENDBRANCH   2  13
BRANCH   7  21
ATOM     21  C   UNL     1      -2.798   1.470  -0.165  0.00  0.00    +0.174 C 
BRANCH  21  22
ATOM     22  O   UNL     1      -1.908   2.574  -0.140  0.00  0.00    -0.346 OA
ATOM     23  C   UNL     1      -2.602   3.810  -0.254  0.00  0.00    +0.175 C 
ENDBRANCH  21  22
ENDBRANCH   7  21
TORSDOF 6
