REMARK  Name = 125347
REMARK  8 active torsions:
REMARK  status: ('A' for Active; 'I' for Inactive)
REMARK    1  A    between atoms: N_1  and  C1*_12
REMARK    2  A    between atoms: C2*_11  and  O2*_15
REMARK    3  A    between atoms: C3*_13  and  O3*_17
REMARK    4  A    between atoms: C4*_14  and  C5*_19
REMARK    5  A    between atoms: C5*_19  and  O5*_20
REMARK    6  A    between atoms: N_22  and  C_24
REMARK    7  A    between atoms: C_24  and  C_25
REMARK    8  A    between atoms: C_30  and  N_31
REMARK                            x       y       z     vdW  Elec       q    Type
REMARK                         _______ _______ _______ _____ _____    ______ ____
ROOT
ATOM      1  N   UNL     1       2.184  -0.229   0.273  0.00  0.00    -0.247 N 
ATOM      2  N   UNL     1       0.262   0.886   0.074  0.00  0.00    -0.242 NA
ATOM      3  N   UNL     1       1.328  -2.489   0.523  0.00  0.00    -0.228 NA
ATOM      4  N   UNL     1      -1.111  -2.527   0.449  0.00  0.00    -0.228 NA
ATOM      5  C   UNL     1       1.191  -1.165   0.356  0.00  0.00    +0.152 C 
ATOM      6  C   UNL     1       1.575   0.988   0.105  0.00  0.00    +0.223 C 
ATOM      7  C   UNL     1       0.009  -0.453   0.230  0.00  0.00    +0.140 C 
ATOM      8  C   UNL     1      -1.174  -1.185   0.281  0.00  0.00    +0.146 C 
ATOM      9  C   UNL     1       0.118  -3.088   0.557  0.00  0.00    +0.253 C 
ATOM     10  N   UNL     1      -2.419  -0.545   0.161  0.00  0.00    -0.313 N 
ATOM     11  H   UNL     1      -2.435   0.432   0.039  0.00  0.00    +0.149 HD
ENDROOT
BRANCH   1  14
ATOM     12  O4* UNL     1       4.266   0.653   0.997  0.00  0.00    -0.333 OA
ATOM     13  C2* UNL     1       4.290  -0.652  -1.017  0.00  0.00    +0.187 C 
ATOM     14  C1* UNL     1       3.627  -0.468   0.349  0.00  0.00    +0.225 C 
ATOM     15  C3* UNL     1       4.975   0.683  -1.242  0.00  0.00    +0.171 C 
ATOM     16  C4* UNL     1       5.356   1.092   0.170  0.00  0.00    +0.175 C 
BRANCH  13  17
ATOM     17  O2* UNL     1       5.240  -1.713  -0.939  0.00  0.00    -0.378 OA
ATOM     18  H2* UNL     1       4.776  -2.553  -0.795  0.00  0.00    +0.211 HD
ENDBRANCH  13  17
BRANCH  15  19
ATOM     19  O3* UNL     1       6.098   0.603  -2.094  0.00  0.00    -0.379 OA
ATOM     20  H3* UNL     1       5.811   0.339  -2.983  0.00  0.00    +0.211 HD
ENDBRANCH  15  19
BRANCH  16  21
ATOM     21  C5* UNL     1       5.555   2.588   0.334  0.00  0.00    +0.169 C 
BRANCH  21  22
ATOM     22  O5* UNL     1       5.895   2.855   1.683  0.00  0.00    -0.379 OA
ATOM     23  H5* UNL     1       6.025   3.809   1.801  0.00  0.00    +0.211 HD
ENDBRANCH  21  22
ENDBRANCH  16  21
ENDBRANCH   1  14
BRANCH  10  24
ATOM     24  C   UNL     1      -3.667  -1.248   0.206  0.00  0.00    +0.115 C 
BRANCH  24  25
ATOM     25  C   UNL     1      -4.840  -0.323   0.017  0.00  0.00    -0.003 C 
ATOM     26  C   UNL     1      -5.316  -0.078  -1.263  0.00  0.00    -0.001 C 
ATOM     27  C   UNL     1      -5.426   0.273   1.125  0.00  0.00    -0.001 C 
ATOM     28  C   UNL     1      -6.403   0.779  -1.439  0.00  0.00    +0.014 C 
ATOM     29  C   UNL     1      -6.513   1.130   0.949  0.00  0.00    +0.014 C 
ATOM     30  C   UNL     1      -7.001   1.383  -0.333  0.00  0.00    +0.042 C 
BRANCH  30  31
ATOM     31  N   UNL     1      -8.100   2.250  -0.510  0.00  0.00    -0.357 N 
ATOM     32  H   UNL     1      -8.444   2.429  -1.415  0.00  0.00    +0.142 HD
ATOM     33  H   UNL     1      -8.522   2.675   0.270  0.00  0.00    +0.142 HD
ENDBRANCH  30  31
ENDBRANCH  24  25
ENDBRANCH  10  24
TORSDOF 8
