REMARK  Name = 125327
REMARK  9 active torsions:
REMARK  status: ('A' for Active; 'I' for Inactive)
REMARK    1  A    between atoms: N_2  and  CA_5
REMARK    2  A    between atoms: C_3  and  CA_13
REMARK    3  A    between atoms: CA_5  and  C_7
REMARK    4  A    between atoms: CA_5  and  CB_10
REMARK    5  A    between atoms: C_7  and  O_8
REMARK    6  A    between atoms: CB_10  and  SG_11
REMARK    7  A    between atoms: CA_13  and  N_15
REMARK    8  A    between atoms: C_16  and  CA_18
REMARK    9  A    between atoms: CA_18  and  N_19
REMARK                            x       y       z     vdW  Elec       q    Type
REMARK                         _______ _______ _______ _____ _____    ______ ____
ROOT
ATOM      1  O   GLY A   2       0.255   1.288   1.293  0.00  0.00    -0.273 OA
ATOM      2  N   CYS A   3      -1.080   0.259  -0.304  0.00  0.00    -0.295 N 
ATOM      3  C   GLY A   2       0.078   0.873   0.150  0.00  0.00    +0.243 C 
ATOM      4  H   CYS A   3      -1.115  -0.037  -1.243  0.00  0.00    +0.150 HD
ENDROOT
BRANCH   2   5
ATOM      5  CA  CYS A   3      -2.237   0.031   0.531  0.00  0.00    +0.182 C 
BRANCH   5   7
ATOM      6  OXT CYS A   3      -3.878  -1.729   0.827  0.00  0.00    -0.248 OA
ATOM      7  C   CYS A   3      -2.937  -1.274   0.189  0.00  0.00    +0.333 C 
BRANCH   7   8
ATOM      8  O   CYS A   3      -2.406  -1.898  -0.890  0.00  0.00    -0.479 OA
ATOM      9  H   CYS A   3      -1.686  -1.512  -1.348  0.00  0.00    +0.295 HD
ENDBRANCH   7   8
ENDBRANCH   5   7
BRANCH   5  10
ATOM     10  CB  CYS A   3      -3.194   1.226   0.522  0.00  0.00    +0.084 C 
BRANCH  10  11
ATOM     11  SG  CYS A   3      -4.007   1.503  -1.087  0.00  0.00    -0.166 S 
ATOM     12  HG  CYS A   3      -4.834   2.579  -0.998  0.00  0.00    +0.102 HD
ENDBRANCH  10  11
ENDBRANCH   5  10
ENDBRANCH   2   5
BRANCH   3  13
ATOM     13  CA  GLY A   2       1.114   1.008  -0.948  0.00  0.00    +0.176 C 
BRANCH  13  15
ATOM     14  O   GLY A   1       2.779  -1.302  -0.439  0.00  0.00    -0.277 OA
ATOM     15  N   GLY A   2       2.429   0.992  -0.349  0.00  0.00    -0.298 N 
ATOM     16  C   GLY A   1       3.158  -0.171  -0.143  0.00  0.00    +0.201 C 
ATOM     17  H   GLY A   2       2.829   1.849  -0.074  0.00  0.00    +0.150 HD
BRANCH  16  18
ATOM     18  CA  GLY A   1       4.487   0.107   0.528  0.00  0.00    +0.001 C 
BRANCH  18  19
ATOM     19  N   GLY A   1       5.440  -0.915   0.120  0.00  0.00    +0.386 N 
ATOM     20  H1  GLY A   1       6.340  -0.739   0.567  0.00  0.00    -0.089 HD
ATOM     21  H2  GLY A   1       5.552  -0.890  -0.893  0.00  0.00    -0.089 HD
ATOM     22  H3  GLY A   1       5.095  -1.833   0.401  0.00  0.00    -0.089 HD
ENDBRANCH  18  19
ENDBRANCH  16  18
ENDBRANCH  13  15
ENDBRANCH   3  13
TORSDOF 9
