REMARK  Name = 125360
REMARK  14 active torsions:
REMARK  status: ('A' for Active; 'I' for Inactive)
REMARK    1  A    between atoms: C_3  and  C_20
REMARK    2  A    between atoms: C_4  and  O_8
REMARK    3  A    between atoms: C_5  and  C_10
REMARK    4  A    between atoms: C_11  and  C_12
REMARK    5  A    between atoms: C_12  and  O_13
REMARK    6  A    between atoms: C_12  and  C_15
REMARK    7  A    between atoms: C_15  and  C_16
REMARK    8  A    between atoms: C_17  and  C_18
REMARK    9  A    between atoms: C_20  and  C_21
REMARK   10  A    between atoms: C_22  and  C_23
REMARK   11  A    between atoms: C_23  and  C_24
REMARK   12  A    between atoms: C_24  and  C_25
REMARK   13  A    between atoms: C_25  and  C_27
REMARK   14  A    between atoms: C_27  and  O_28
REMARK                            x       y       z     vdW  Elec       q    Type
REMARK                         _______ _______ _______ _____ _____    ______ ____
ROOT
ATOM      1  O   UNL     1      -1.429   1.613   0.151  0.00  0.00    -0.448 OA
ATOM      2  O   UNL     1      -1.164   3.845   0.108  0.00  0.00    -0.250 OA
ATOM      3  C   UNL     1       0.517   0.071   0.200  0.00  0.00    +0.076 C 
ATOM      4  C   UNL     1       1.332   1.223  -0.393  0.00  0.00    +0.126 C 
ATOM      5  C   UNL     1      -0.960   0.277  -0.163  0.00  0.00    +0.193 C 
ATOM      6  C   UNL     1       0.832   2.543   0.160  0.00  0.00    +0.139 C 
ATOM      7  C   UNL     1      -0.661   2.724   0.100  0.00  0.00    +0.320 C 
ENDROOT
BRANCH   4   8
ATOM      8  O   UNL     1       1.233   1.264  -1.814  0.00  0.00    -0.384 OA
ATOM      9  H   UNL     1       1.549   0.426  -2.185  0.00  0.00    +0.210 HD
ENDBRANCH   4   8
BRANCH   5  10
ATOM     10  C   UNL     1      -1.881  -0.669   0.544  0.00  0.00    +0.015 C 
ATOM     11  C   UNL     1      -2.717  -1.508  -0.085  0.00  0.00    +0.002 C 
BRANCH  11  12
ATOM     12  C   UNL     1      -3.647  -2.449   0.628  0.00  0.00    +0.137 C 
BRANCH  12  13
ATOM     13  O   UNL     1      -3.254  -3.779   0.285  0.00  0.00    -0.380 OA
ATOM     14  H   UNL     1      -2.330  -3.919   0.543  0.00  0.00    +0.211 HD
ENDBRANCH  12  13
BRANCH  12  15
ATOM     15  C   UNL     1      -5.111  -2.246   0.213  0.00  0.00    +0.059 C 
BRANCH  15  16
ATOM     16  C   UNL     1      -5.604  -0.857   0.499  0.00  0.00    -0.028 C 
ATOM     17  C   UNL     1      -6.045  -0.014  -0.446  0.00  0.00    -0.031 C 
BRANCH  17  18
ATOM     18  C   UNL     1      -6.531   1.376  -0.163  0.00  0.00    +0.026 C 
ATOM     19  C   UNL     1      -5.393   2.383  -0.229  0.00  0.00    +0.005 C 
ENDBRANCH  17  18
ENDBRANCH  15  16
ENDBRANCH  12  15
ENDBRANCH  11  12
ENDBRANCH   5  10
BRANCH   3  20
ATOM     20  C   UNL     1       1.052  -1.285  -0.272  0.00  0.00    +0.032 C 
BRANCH  20  21
ATOM     21  C   UNL     1       2.490  -1.581   0.034  0.00  0.00    -0.030 C 
ATOM     22  C   UNL     1       3.465  -1.879  -0.838  0.00  0.00    -0.031 C 
BRANCH  22  23
ATOM     23  C   UNL     1       4.886  -2.150  -0.436  0.00  0.00    +0.026 C 
BRANCH  23  24
ATOM     24  C   UNL     1       5.899  -1.177  -1.057  0.00  0.00    +0.016 C 
BRANCH  24  25
ATOM     25  C   UNL     1       5.672   0.287  -0.668  0.00  0.00    +0.110 C 
BRANCH  25  27
ATOM     26  O   UNL     1       6.396  -0.100   1.624  0.00  0.00    -0.250 OA
ATOM     27  C   UNL     1       5.727   0.538   0.823  0.00  0.00    +0.314 C 
BRANCH  27  28
ATOM     28  O   UNL     1       4.897   1.548   1.193  0.00  0.00    -0.480 OA
ATOM     29  H   UNL     1       4.403   2.010   0.544  0.00  0.00    +0.295 HD
ENDBRANCH  27  28
ENDBRANCH  25  27
ENDBRANCH  24  25
ENDBRANCH  23  24
ENDBRANCH  22  23
ENDBRANCH  20  21
ENDBRANCH   3  20
TORSDOF 14
