REMARK  Name = 125382
REMARK  4 active torsions:
REMARK  status: ('A' for Active; 'I' for Inactive)
REMARK    1  A    between atoms: N_3  and  C_15
REMARK    2  A    between atoms: C_13  and  C_20
REMARK    3  A    between atoms: C_14  and  O_18
REMARK    4  A    between atoms: C_20  and  O_21
REMARK                            x       y       z     vdW  Elec       q    Type
REMARK                         _______ _______ _______ _____ _____    ______ ____
ROOT
ATOM      1  F   UNL     1       2.411   2.458   1.065  0.00  0.00    -0.199 F 
ATOM      2  O   UNL     1       1.535  -2.285  -1.256  0.00  0.00    -0.193 OA
ATOM      3  N   UNL     1       0.636  -0.330  -0.419  0.00  0.00    -0.174 N 
ATOM      4  N   UNL     1       3.015  -0.787  -0.406  0.00  0.00    -0.304 NA
ATOM      5  N   UNL     1       4.523   0.759   0.467  0.00  0.00    -0.330 N 
ATOM      6  C   UNL     1       0.887   0.894   0.182  0.00  0.00    +0.113 C 
ATOM      7  C   UNL     1       1.726  -1.192  -0.721  0.00  0.00    +0.276 C 
ATOM      8  C   UNL     1       2.121   1.282   0.483  0.00  0.00    +0.200 C 
ATOM      9  C   UNL     1       3.241   0.371   0.161  0.00  0.00    +0.220 C 
ATOM     10  H   UNL     1       5.280   0.165   0.260  0.00  0.00    +0.145 HD
ATOM     11  H   UNL     1       4.684   1.632   0.894  0.00  0.00    +0.145 HD
ENDROOT
BRANCH   3  15
ATOM     12  O   UNL     1      -1.475   0.456  -1.027  0.00  0.00    -0.331 OA
ATOM     13  C   UNL     1      -2.709   0.354  -0.297  0.00  0.00    +0.177 C 
ATOM     14  C   UNL     1      -2.361  -0.385   0.987  0.00  0.00    +0.162 C 
ATOM     15  C   UNL     1      -0.708  -0.724  -0.732  0.00  0.00    +0.229 C 
ATOM     16  C   UNL     1      -1.359  -1.359   0.457  0.00  0.00    +0.032 C 
ATOM     17  C   UNL     1      -1.148  -2.613   0.873  0.00  0.00    -0.002 C 
BRANCH  14  18
ATOM     18  O   UNL     1      -3.512  -0.985   1.545  0.00  0.00    -0.378 OA
ATOM     19  H   UNL     1      -4.113  -0.295   1.866  0.00  0.00    +0.211 HD
ENDBRANCH  14  18
BRANCH  13  20
ATOM     20  C   UNL     1      -3.273   1.743  -0.054  0.00  0.00    +0.170 C 
BRANCH  20  21
ATOM     21  O   UNL     1      -3.550   2.342  -1.306  0.00  0.00    -0.379 OA
ATOM     22  H   UNL     1      -3.912   3.232  -1.166  0.00  0.00    +0.211 HD
ENDBRANCH  20  21
ENDBRANCH  13  20
ENDBRANCH   3  15
TORSDOF 4
