REMARK  Name = 125406
REMARK  9 active torsions:
REMARK  status: ('A' for Active; 'I' for Inactive)
REMARK    1  A    between atoms: C_3  and  C_13
REMARK    2  A    between atoms: C_5  and  O_7
REMARK    3  A    between atoms: O_7  and  C_8
REMARK    4  A    between atoms: C_8  and  C_10
REMARK    5  A    between atoms: C_10  and  O_11
REMARK    6  A    between atoms: C_13  and  CA_14
REMARK    7  A    between atoms: CA_14  and  N_15
REMARK    8  A    between atoms: CA_14  and  C_20
REMARK    9  A    between atoms: C_20  and  O_21
REMARK                            x       y       z     vdW  Elec       q    Type
REMARK                         _______ _______ _______ _____ _____    ______ ____
ROOT
ATOM      1  O   UNL     1       1.008   2.776   0.455  0.00  0.00    -0.355 OA
ATOM      2  N   UNL     1      -0.278   2.252   0.398  0.00  0.00    -0.040 NA
ATOM      3  C   UNL     1       1.191   0.786  -0.464  0.00  0.00    +0.065 A 
ATOM      4  C   UNL     1       1.881   1.878  -0.070  0.00  0.00    +0.154 A 
ATOM      5  C   UNL     1      -0.137   1.048  -0.163  0.00  0.00    +0.260 A 
ATOM      6  C   UNL     1       3.294   2.276  -0.086  0.00  0.00    +0.075 C 
ENDROOT
BRANCH   5   7
ATOM      7  O   UNL     1      -1.227   0.292  -0.350  0.00  0.00    -0.446 OA
BRANCH   7   8
ATOM      8  C   UNL     1      -2.494   0.828   0.065  0.00  0.00    +0.315 C 
BRANCH   8  10
ATOM      9  O   UNL     1      -3.436  -1.263  -0.736  0.00  0.00    -0.246 OA
ATOM     10  C   UNL     1      -3.584  -0.169  -0.212  0.00  0.00    +0.359 C 
BRANCH  10  11
ATOM     11  O   UNL     1      -4.780   0.316   0.206  0.00  0.00    -0.478 OA
ATOM     12  H   UNL     1      -4.830   1.164   0.601  0.00  0.00    +0.295 HD
ENDBRANCH  10  11
ENDBRANCH   8  10
ENDBRANCH   7   8
ENDBRANCH   5   7
BRANCH   3  13
ATOM     13  C   UNL     1       1.750  -0.456  -1.100  0.00  0.00    +0.023 C 
BRANCH  13  14
ATOM     14  CA  UNL     1       2.155  -1.534  -0.083  0.00  0.00    +0.040 C 
BRANCH  14  15
ATOM     15  N   UNL     1       2.703  -2.693  -0.791  0.00  0.00    +0.389 N 
ATOM     16  H1  UNL     1       3.517  -2.406  -1.334  0.00  0.00    -0.088 HD
ATOM     17  H2  UNL     1       1.994  -3.075  -1.417  0.00  0.00    -0.088 HD
ATOM     18  H3  UNL     1       2.979  -3.405  -0.115  0.00  0.00    -0.088 HD
ENDBRANCH  14  15
BRANCH  14  20
ATOM     19  OXT UNL     1       0.194  -2.922   0.341  0.00  0.00    -0.253 OA
ATOM     20  C   UNL     1       0.951  -2.029   0.702  0.00  0.00    +0.293 C 
BRANCH  20  21
ATOM     21  O   UNL     1       0.811  -1.385   1.890  0.00  0.00    -0.482 OA
ATOM     22  H   UNL     1       1.412  -0.707   2.129  0.00  0.00    +0.295 HD
ENDBRANCH  20  21
ENDBRANCH  14  20
ENDBRANCH  13  14
ENDBRANCH   3  13
TORSDOF 9
