REMARK  Name = 125449
REMARK  2 active torsions:
REMARK  status: ('A' for Active; 'I' for Inactive)
REMARK    1  A    between atoms: S_1  and  C_5
REMARK    2  A    between atoms: S_1  and  C_13
REMARK                            x       y       z     vdW  Elec       q    Type
REMARK                         _______ _______ _______ _____ _____    ______ ____
ROOT
ATOM      1  S   UNL     1      -0.253   0.518   1.387  0.00  0.00    +0.028 S 
ATOM      2  O   UNL     1      -0.573  -0.604   2.253  0.00  0.00    -0.167 OA
ATOM      3  O   UNL     1      -0.274   1.885   1.884  0.00  0.00    -0.167 OA
ENDROOT
BRANCH   1   6
ATOM      4  N   UNL     1      -1.805   1.657  -0.580  0.00  0.00    -0.226 NA
ATOM      5  N   UNL     1      -3.056   0.032  -1.431  0.00  0.00    -0.231 NA
ATOM      6  C   UNL     1      -1.485   0.526   0.083  0.00  0.00    +0.258 C 
ATOM      7  C   UNL     1      -2.250  -0.464  -0.438  0.00  0.00    +0.236 C 
ATOM      8  C   UNL     1      -2.764   1.312  -1.492  0.00  0.00    +0.204 C 
ATOM      9  C   UNL     1      -1.266   2.984  -0.395  0.00  0.00    +0.093 C 
ATOM     10  O   UNL     1      -1.565  -2.278   0.811  0.00  0.00    -0.125 OA
ATOM     11  O   UNL     1      -3.104  -2.587  -0.724  0.00  0.00    -0.125 OA
ATOM     12  N   UNL     1      -2.308  -1.824  -0.105  0.00  0.00    +0.074 N 
ENDBRANCH   1   6
BRANCH   1  14
ATOM     13  I   UNL     1       5.584  -0.725  -1.462  0.00  0.00    -0.043 I 
ATOM     14  C   UNL     1       1.289   0.190   0.636  0.00  0.00    +0.108 C 
ATOM     15  C   UNL     1       2.079   1.244   0.178  0.00  0.00    +0.019 C 
ATOM     16  C   UNL     1       1.729  -1.126   0.494  0.00  0.00    +0.019 C 
ATOM     17  C   UNL     1       3.310   0.982  -0.424  0.00  0.00    +0.007 C 
ATOM     18  C   UNL     1       2.960  -1.388  -0.108  0.00  0.00    +0.007 C 
ATOM     19  C   UNL     1       3.751  -0.334  -0.566  0.00  0.00    +0.030 C 
ENDBRANCH   1  14
TORSDOF 2
