125473
  -OEChem-03292013323D

 39 42  0     1  0  0  0  0  0999 V2000
    1.6488   -0.2005    1.5009 O   0  0  0  0  0  0  0  0  0  0  0  0
   -1.6488    0.2006    1.5009 O   0  0  0  0  0  0  0  0  0  0  0  0
    4.4426   -0.3600    0.3810 O   0  0  0  0  0  0  0  0  0  0  0  0
   -4.4426    0.3601    0.3810 O   0  0  0  0  0  0  0  0  0  0  0  0
    0.0000    0.0000   -0.1711 O   0  0  0  0  0  0  0  0  0  0  0  0
    3.7456    1.1123   -1.8724 O   0  0  0  0  0  0  0  0  0  0  0  0
   -3.7456   -1.1125   -1.8723 O   0  0  0  0  0  0  0  0  0  0  0  0
    1.2921    2.3911   -1.0512 O   0  0  0  0  0  0  0  0  0  0  0  0
   -1.2921   -2.3912   -1.0508 O   0  0  0  0  0  0  0  0  0  0  0  0
    3.2720   -0.7239   -0.4089 C   0  0  1  0  0  0  0  0  0  0  0  0
   -3.2720    0.7238   -0.4090 C   0  0  1  0  0  0  0  0  0  0  0  0
    2.5333   -1.1562    0.8752 C   0  0  1  0  0  0  0  0  0  0  0  0
   -2.5333    1.1564    0.8751 C   0  0  1  0  0  0  0  0  0  0  0  0
    2.6889    0.4447   -1.1869 C   0  0  1  0  0  0  0  0  0  0  0  0
   -2.6889   -0.4449   -1.1869 C   0  0  1  0  0  0  0  0  0  0  0  0
    0.9539    0.6895    0.6316 C   0  0  2  0  0  0  0  0  0  0  0  0
   -0.9539   -0.6893    0.6317 C   0  0  2  0  0  0  0  0  0  0  0  0
    1.9669    1.4198   -0.2556 C   0  0  2  0  0  0  0  0  0  0  0  0
   -1.9669   -1.4198   -0.2554 C   0  0  2  0  0  0  0  0  0  0  0  0
    3.9481   -1.1839    1.4716 C   0  0  0  0  0  0  0  0  0  0  0  0
   -3.9481    1.1841    1.4714 C   0  0  0  0  0  0  0  0  0  0  0  0
    3.5241   -1.5586   -1.0775 H   0  0  0  0  0  0  0  0  0  0  0  0
   -3.5241    1.5583   -1.0777 H   0  0  0  0  0  0  0  0  0  0  0  0
    2.0552   -2.1382    0.8049 H   0  0  0  0  0  0  0  0  0  0  0  0
   -2.0552    2.1384    0.8045 H   0  0  0  0  0  0  0  0  0  0  0  0
    1.9995    0.0716   -1.9537 H   0  0  0  0  0  0  0  0  0  0  0  0
   -1.9976   -0.0744   -1.9531 H   0  0  0  0  0  0  0  0  0  0  0  0
    0.4395    1.4377    1.2449 H   0  0  0  0  0  0  0  0  0  0  0  0
   -0.4392   -1.4351    1.2477 H   0  0  0  0  0  0  0  0  0  0  0  0
    2.6984    1.9522    0.3637 H   0  0  0  0  0  0  0  0  0  0  0  0
   -2.7030   -1.9486    0.3627 H   0  0  0  0  0  0  0  0  0  0  0  0
    4.0653   -0.6870    2.4383 H   0  0  0  0  0  0  0  0  0  0  0  0
    4.4387   -2.1620    1.4918 H   0  0  0  0  0  0  0  0  0  0  0  0
   -4.0653    0.6875    2.4383 H   0  0  0  0  0  0  0  0  0  0  0  0
   -4.4387    2.1623    1.4915 H   0  0  0  0  0  0  0  0  0  0  0  0
    3.3559    1.8735   -2.3356 H   0  0  0  0  0  0  0  0  0  0  0  0
   -3.3564   -1.8749   -2.3337 H   0  0  0  0  0  0  0  0  0  0  0  0
    0.6000    1.9321   -1.5576 H   0  0  0  0  0  0  0  0  0  0  0  0
   -0.8429   -3.0052   -0.4451 H   0  0  0  0  0  0  0  0  0  0  0  0
  1 12  1  0  0  0  0
  1 16  1  0  0  0  0
  2 13  1  0  0  0  0
  2 17  1  0  0  0  0
  3 10  1  0  0  0  0
  3 20  1  0  0  0  0
  4 11  1  0  0  0  0
  4 21  1  0  0  0  0
  5 16  1  0  0  0  0
  5 17  1  0  0  0  0
  6 14  1  0  0  0  0
  6 36  1  0  0  0  0
  7 15  1  0  0  0  0
  7 37  1  0  0  0  0
  8 18  1  0  0  0  0
  8 38  1  0  0  0  0
  9 19  1  0  0  0  0
  9 39  1  0  0  0  0
 10 12  1  0  0  0  0
 10 14  1  0  0  0  0
 10 22  1  0  0  0  0
 11 13  1  0  0  0  0
 11 15  1  0  0  0  0
 11 23  1  0  0  0  0
 12 20  1  0  0  0  0
 12 24  1  0  0  0  0
 13 21  1  0  0  0  0
 13 25  1  0  0  0  0
 14 18  1  0  0  0  0
 14 26  1  0  0  0  0
 15 19  1  0  0  0  0
 15 27  1  0  0  0  0
 16 18  1  0  0  0  0
 16 28  1  0  0  0  0
 17 19  1  0  0  0  0
 17 29  1  0  0  0  0
 18 30  1  0  0  0  0
 19 31  1  0  0  0  0
 20 32  1  0  0  0  0
 20 33  1  0  0  0  0
 21 34  1  0  0  0  0
 21 35  1  0  0  0  0
M  END
> <PUBCHEM_COMPOUND_CID>
125473

> <PUBCHEM_CONFORMER_RMSD>
0.6

> <PUBCHEM_CONFORMER_DIVERSEORDER>
1
14
12
8
6
2
17
7
9
5
11
16
3
13
15
4
10

> <PUBCHEM_MMFF94_PARTIAL_CHARGES>
25
1 -0.54
10 0.26
11 0.26
12 0.26
13 0.26
14 0.28
15 0.28
16 0.56
17 0.56
18 0.28
19 0.28
2 -0.54
20 0.26
21 0.26
3 -0.52
36 0.4
37 0.4
38 0.4
39 0.4
4 -0.52
5 -0.56
6 -0.68
7 -0.68
8 -0.68
9 -0.68

> <PUBCHEM_EFFECTIVE_ROTOR_COUNT>
4.4

> <PUBCHEM_PHARMACOPHORE_FEATURES>
17
1 1 acceptor
1 2 acceptor
1 3 acceptor
1 4 acceptor
1 5 acceptor
1 6 acceptor
1 6 donor
1 7 acceptor
1 7 donor
1 8 acceptor
1 8 donor
1 9 acceptor
1 9 donor
4 3 10 12 20 rings
4 4 11 13 21 rings
6 1 10 12 14 16 18 rings
6 2 11 13 15 17 19 rings

> <PUBCHEM_HEAVY_ATOM_COUNT>
21

> <PUBCHEM_ATOM_DEF_STEREO_COUNT>
10

> <PUBCHEM_ATOM_UDEF_STEREO_COUNT>
0

> <PUBCHEM_BOND_DEF_STEREO_COUNT>
0

> <PUBCHEM_BOND_UDEF_STEREO_COUNT>
0

> <PUBCHEM_ISOTOPIC_ATOM_COUNT>
0

> <PUBCHEM_COMPONENT_COUNT>
1

> <PUBCHEM_CACTVS_TAUTO_COUNT>
1

> <PUBCHEM_CONFORMER_ID>
0001EA2100000001

> <PUBCHEM_MMFF94_ENERGY>
50.9761

> <PUBCHEM_FEATURE_SELFOVERLAP>
87.493

> <PUBCHEM_SHAPE_FINGERPRINT>
10062212 137 18272082782325747331
10369192 42 16011315476674675326
10646746 165 16845287220326801066
11370993 70 15625935413439499790
11578080 2 18122310602504131016
12236239 1 18410855434358358360
12346177 29 17704346663320359599
12553582 1 18114740439450622938
12592029 89 18338807710720162387
13134695 92 17967806133678661412
13296908 3 15626508306337162821
13693222 15 12391516368873525208
14004511 7 18343862191173385177
14115302 16 18130791165431171544
15219456 202 16153429458597524256
15375358 24 16200424758743150538
16752209 62 18057334898113893345
17834072 14 15770053917209008486
17980427 23 17845920922942988744
1813 80 17971194725568516978
18186145 218 17313111860504337202
18981168 100 15719384074899468373
19784866 34 17678193778895989116
19862831 5 18410855473013063726
20279233 1 15770057228634068456
20600515 1 17346596339871341577
20645476 183 18339370750646194639
20645477 70 17676775297005260754
21065201 7 17275105002879587606
21486144 27 16515688874462935794
23175994 123 17096365034267652874
23402539 116 17417798514358425737
23557571 272 16630237095541169339
23559900 14 16773804649870117084
23598291 2 18408321098732197703
25 1 17531821250297941780
2838139 119 17970053454195593549
296302 2 15554438591912088216
312423 11 18337394966874105863
34934 24 18336275625619915468
5161694 15 16200158655512537837
5281201 14 16008754584785778574
6049 1 15719111357361061231
6287921 2 15069777233833088190
6992083 37 18410571773391155773
7495541 125 15719684199151673024
74978 22 18338797926219776040
7615 1 18340483473260894789
77492 1 18410573980856484065
81228 2 16127556794407199272
9709674 26 16702295784500280950
9862522 239 18050284765628261377
9981440 41 17545592817766691456

> <PUBCHEM_SHAPE_MULTIPOLES>
379.35
8.39
1.77
1.66
0
0
-0.15
0
0.21
0
-0.49
0
0
-2.03

> <PUBCHEM_SHAPE_SELFOVERLAP>
808.873

> <PUBCHEM_SHAPE_VOLUME>
206.6

> <PUBCHEM_COORDINATE_TYPE>
2
5
10

$$$$
