REMARK  Name = 125407
REMARK  7 active torsions:
REMARK  status: ('A' for Active; 'I' for Inactive)
REMARK    1  A    between atoms: N_3  and  C_18
REMARK    2  A    between atoms: C_4  and  C_8
REMARK    3  A    between atoms: C_8  and  CA_9
REMARK    4  A    between atoms: CA_9  and  N_10
REMARK    5  A    between atoms: CA_9  and  C_15
REMARK    6  A    between atoms: C_15  and  O_16
REMARK    7  A    between atoms: C_18  and  C_22
REMARK                            x       y       z     vdW  Elec       q    Type
REMARK                         _______ _______ _______ _____ _____    ______ ____
ROOT
ATOM      1  O   UNL     1      -0.351  -2.168   0.148  0.00  0.00    -0.377 OA
ATOM      2  O   UNL     1       0.804   0.636   1.863  0.00  0.00    -0.265 OA
ATOM      3  N   UNL     1      -0.548  -1.047   0.975  0.00  0.00    -0.154 N 
ATOM      4  C   UNL     1       1.666  -1.095   0.465  0.00  0.00    +0.068 A 
ATOM      5  C   UNL     1       0.617  -0.369   1.199  0.00  0.00    +0.288 A 
ATOM      6  C   UNL     1       1.015  -2.112  -0.106  0.00  0.00    +0.152 A 
ATOM      7  C   UNL     1       1.558  -3.190  -0.975  0.00  0.00    +0.075 C 
ENDROOT
BRANCH   4   8
ATOM      8  C   UNL     1       3.085  -0.679   0.453  0.00  0.00    +0.023 C 
BRANCH   8   9
ATOM      9  CA  UNL     1       3.412   0.290  -0.698  0.00  0.00    +0.040 C 
BRANCH   9  10
ATOM     10  N   UNL     1       4.818   0.688  -0.658  0.00  0.00    +0.389 N 
ATOM     11  H1  UNL     1       5.408  -0.142  -0.702  0.00  0.00    -0.088 HD
ATOM     12  H2  UNL     1       5.004   1.192   0.209  0.00  0.00    -0.088 HD
ATOM     13  H3  UNL     1       5.023   1.293  -1.453  0.00  0.00    -0.088 HD
ENDBRANCH   9  10
BRANCH   9  15
ATOM     14  OXT UNL     1       2.938   2.588  -0.029  0.00  0.00    -0.253 OA
ATOM     15  C   UNL     1       2.604   1.575  -0.629  0.00  0.00    +0.293 C 
BRANCH  15  16
ATOM     16  O   UNL     1       1.440   1.484  -1.326  0.00  0.00    -0.482 OA
ATOM     17  H   UNL     1       1.221   0.689  -1.772  0.00  0.00    +0.295 HD
ENDBRANCH  15  16
ENDBRANCH   9  15
ENDBRANCH   8   9
ENDBRANCH   4   8
BRANCH   3  18
ATOM     18  C   UNL     1      -1.900  -0.819   1.429  0.00  0.00    +0.182 C 
BRANCH  18  22
ATOM     19  O   UNL     1      -3.368   1.827  -0.811  0.00  0.00    -0.380 OA
ATOM     20  O   UNL     1      -3.432  -1.645  -1.010  0.00  0.00    -0.265 OA
ATOM     21  N   UNL     1      -3.748   0.625  -1.445  0.00  0.00    -0.184 N 
ATOM     22  C   UNL     1      -2.556   0.055   0.419  0.00  0.00    +0.095 A 
ATOM     23  C   UNL     1      -2.658   1.380   0.296  0.00  0.00    +0.153 A 
ATOM     24  C   UNL     1      -3.286  -0.463  -0.746  0.00  0.00    +0.286 A 
ATOM     25  C   UNL     1      -2.112   2.438   1.187  0.00  0.00    +0.075 C 
ATOM     26  H   UNL     1      -4.275   0.574  -2.275  0.00  0.00    +0.211 HD
ENDBRANCH  18  22
ENDBRANCH   3  18
TORSDOF 7
