REMARK  Name = 125419
REMARK  6 active torsions:
REMARK  status: ('A' for Active; 'I' for Inactive)
REMARK    1  A    between atoms: C_1  and  N_7
REMARK    2  A    between atoms: C_2  and  O_16
REMARK    3  A    between atoms: C_3  and  O_18
REMARK    4  A    between atoms: C_4  and  C_20
REMARK    5  A    between atoms: C_12  and  N_13
REMARK    6  A    between atoms: C_20  and  O_21
REMARK                            x       y       z     vdW  Elec       q    Type
REMARK                         _______ _______ _______ _____ _____    ______ ____
ROOT
ATOM      1  C   UNL     1      -0.440  -0.685  -0.365  0.00  0.00    +0.109 C 
ATOM      2  C   UNL     1      -1.192  -0.864   0.960  0.00  0.00    +0.156 C 
ATOM      3  C   UNL     1      -2.628  -0.388   0.686  0.00  0.00    +0.141 C 
ATOM      4  C   UNL     1      -2.444   0.532  -0.482  0.00  0.00    +0.060 C 
ATOM      5  C   UNL     1      -1.244   0.368  -1.056  0.00  0.00    +0.028 C 
ENDROOT
BRANCH   1   7
ATOM      6  O   UNL     1       1.878  -1.979  -1.363  0.00  0.00    -0.270 OA
ATOM      7  N   UNL     1       0.907  -0.219  -0.167  0.00  0.00    -0.253 N 
ATOM      8  C   UNL     1       1.986  -0.943  -0.710  0.00  0.00    +0.254 C 
ATOM      9  C   UNL     1       1.137   0.945   0.560  0.00  0.00    +0.069 C 
ATOM     10  C   UNL     1       3.352  -0.389  -0.458  0.00  0.00    +0.072 C 
ATOM     11  C   UNL     1       2.367   1.425   0.775  0.00  0.00    +0.030 C 
ATOM     12  C   UNL     1       3.532   0.740   0.250  0.00  0.00    +0.047 C 
BRANCH  12  13
ATOM     13  N   UNL     1       4.762   1.280   0.504  0.00  0.00    -0.357 N 
ATOM     14  H   UNL     1       5.573   0.840   0.162  0.00  0.00    +0.142 HD
ATOM     15  H   UNL     1       4.836   2.110   1.028  0.00  0.00    +0.142 HD
ENDBRANCH  12  13
ENDBRANCH   1   7
BRANCH   2  16
ATOM     16  O   UNL     1      -1.146  -2.217   1.378  0.00  0.00    -0.380 OA
ATOM     17  H   UNL     1      -0.225  -2.475   1.539  0.00  0.00    +0.211 HD
ENDBRANCH   2  16
BRANCH   3  18
ATOM     18  O   UNL     1      -3.487  -1.448   0.296  0.00  0.00    -0.382 OA
ATOM     19  H   UNL     1      -3.615  -2.053   1.044  0.00  0.00    +0.210 HD
ENDBRANCH   3  18
BRANCH   4  20
ATOM     20  C   UNL     1      -3.521   1.458  -0.919  0.00  0.00    +0.140 C 
BRANCH  20  21
ATOM     21  O   UNL     1      -3.819   2.387   0.113  0.00  0.00    -0.382 OA
ATOM     22  H   UNL     1      -4.523   2.985  -0.184  0.00  0.00    +0.210 HD
ENDBRANCH  20  21
ENDBRANCH   4  20
TORSDOF 6
