125488
  -OEChem-03292013323D

 18 18  0     0  0  0  0  0  0999 V2000
    2.5485   -0.7492   -0.0808 S   0  0  0  0  0  0  0  0  0  0  0  0
    1.9240    2.1587   -0.0185 F   0  0  0  0  0  0  0  0  0  0  0  0
   -2.7802    1.7261    0.0441 F   0  0  0  0  0  0  0  0  0  0  0  0
    3.1884   -0.4689    1.3973 O   0  0  0  0  0  0  0  0  0  0  0  0
    2.3727   -2.1892   -0.2012 O   0  0  0  0  0  0  0  0  0  0  0  0
    3.3332   -0.0132   -1.0597 O   0  0  0  0  0  0  0  0  0  0  0  0
   -2.4515   -2.3053   -0.0237 O   0  5  0  0  0  0  0  0  0  0  0  0
   -3.7261   -0.5134    0.0232 O   0  0  0  0  0  0  0  0  0  0  0  0
   -2.5976   -1.0599   -0.0035 N   0  3  0  0  0  0  0  0  0  0  0  0
    0.9649   -0.0141   -0.0416 C   0  0  0  0  0  0  0  0  0  0  0  0
   -0.1738   -0.8196   -0.0389 C   0  0  0  0  0  0  0  0  0  0  0  0
   -1.4406   -0.2365   -0.0102 C   0  0  0  0  0  0  0  0  0  0  0  0
    0.8368    1.3746   -0.0156 C   0  0  0  0  0  0  0  0  0  0  0  0
   -1.5687    1.1522    0.0158 C   0  0  0  0  0  0  0  0  0  0  0  0
   -0.4300    1.9578    0.0133 C   0  0  0  0  0  0  0  0  0  0  0  0
   -0.0664   -1.9006   -0.0566 H   0  0  0  0  0  0  0  0  0  0  0  0
   -0.5296    3.0389    0.0335 H   0  0  0  0  0  0  0  0  0  0  0  0
    2.6955   -0.8659    2.1536 H   0  0  0  0  0  0  0  0  0  0  0  0
  1  4  1  0  0  0  0
  1  5  2  0  0  0  0
  1  6  2  0  0  0  0
  1 10  1  0  0  0  0
  2 13  1  0  0  0  0
  3 14  1  0  0  0  0
  4 18  1  0  0  0  0
  7  9  1  0  0  0  0
  8  9  2  0  0  0  0
  9 12  1  0  0  0  0
 10 11  1  0  0  0  0
 10 13  2  0  0  0  0
 11 12  2  0  0  0  0
 11 16  1  0  0  0  0
 12 14  1  0  0  0  0
 13 15  1  0  0  0  0
 14 15  2  0  0  0  0
 15 17  1  0  0  0  0
M  CHG  2   7  -1   9   1
M  END
> <PUBCHEM_COMPOUND_CID>
125488

> <PUBCHEM_CONFORMER_RMSD>
0.6

> <PUBCHEM_CONFORMER_DIVERSEORDER>
1

> <PUBCHEM_MMFF94_PARTIAL_CHARGES>
18
1 1.49
10 -0.01
11 -0.15
12 0.13
13 0.19
14 0.19
15 -0.15
16 0.15
17 0.15
18 0.5
2 -0.19
3 -0.19
4 -0.68
5 -0.65
6 -0.65
7 -0.52
8 -0.52
9 0.91

> <PUBCHEM_EFFECTIVE_ROTOR_COUNT>
2

> <PUBCHEM_PHARMACOPHORE_FEATURES>
8
1 4 acceptor
1 5 acceptor
1 6 acceptor
1 7 acceptor
1 7 anion
1 8 acceptor
4 1 4 5 6 anion
6 10 11 12 13 14 15 rings

> <PUBCHEM_HEAVY_ATOM_COUNT>
15

> <PUBCHEM_ATOM_DEF_STEREO_COUNT>
0

> <PUBCHEM_ATOM_UDEF_STEREO_COUNT>
0

> <PUBCHEM_BOND_DEF_STEREO_COUNT>
0

> <PUBCHEM_BOND_UDEF_STEREO_COUNT>
0

> <PUBCHEM_ISOTOPIC_ATOM_COUNT>
0

> <PUBCHEM_COMPONENT_COUNT>
1

> <PUBCHEM_CACTVS_TAUTO_COUNT>
1

> <PUBCHEM_CONFORMER_ID>
0001EA3000000001

> <PUBCHEM_MMFF94_ENERGY>
28.072

> <PUBCHEM_FEATURE_SELFOVERLAP>
40.735

> <PUBCHEM_SHAPE_FINGERPRINT>
10967382 1 18411139168651481175
11132069 177 18337950065463617376
12382932 28 18340759330731508466
12932764 1 17531248297049131636
14128692 85 18410864282107246828
14144814 61 18410576167031799883
161256 15 18339361980154210084
16945 1 18339079280985186965
17990270 104 18410857659494302210
193761 8 18410856598474252573
20201158 50 18410011056704878603
20559304 39 18409731768145797662
20645477 70 18194114338494802551
20715346 28 17847055567365770406
20871998 184 18201717306348995207
20871998 22 18413110545776704678
21501502 16 18409169938920689557
21501925 9 18339631321673976472
2334 1 18338516468565703625
23463225 33 18410014307989496221
23552423 10 18262243333945877781
23559900 14 18269836407572695838
2748010 2 18339073890906803605
7364860 26 18270683206934225928
81228 2 18337393712506291737

> <PUBCHEM_SHAPE_MULTIPOLES>
263.67
5.25
2.27
0.74
0.22
0.11
-0.09
-1.73
-0.07
0.45
0.04
-0.58
-0.04
-0.06

> <PUBCHEM_SHAPE_SELFOVERLAP>
550.272

> <PUBCHEM_SHAPE_VOLUME>
150.9

> <PUBCHEM_COORDINATE_TYPE>
2
5
10

$$$$
