REMARK  Name = 125473
REMARK  6 active torsions:
REMARK  status: ('A' for Active; 'I' for Inactive)
REMARK    1  A    between atoms: O_1  and  C_7
REMARK    2  A    between atoms: O_1  and  C_19
REMARK    3  A    between atoms: C_6  and  O_10
REMARK    4  A    between atoms: C_8  and  O_12
REMARK    5  A    between atoms: C_18  and  O_22
REMARK    6  A    between atoms: C_20  and  O_24
REMARK                            x       y       z     vdW  Elec       q    Type
REMARK                         _______ _______ _______ _____ _____    ______ ____
ROOT
ATOM      1  O   UNL     1       0.000   0.000  -0.171  0.00  0.00    -0.302 OA
ENDROOT
BRANCH   1   7
ATOM      2  O   UNL     1       1.649  -0.201   1.501  0.00  0.00    -0.326 OA
ATOM      3  O   UNL     1       4.443  -0.360   0.381  0.00  0.00    -0.348 OA
ATOM      4  C   UNL     1       3.272  -0.724  -0.409  0.00  0.00    +0.174 C 
ATOM      5  C   UNL     1       2.533  -1.156   0.875  0.00  0.00    +0.177 C 
ATOM      6  C   UNL     1       2.689   0.445  -1.187  0.00  0.00    +0.172 C 
ATOM      7  C   UNL     1       0.954   0.690   0.632  0.00  0.00    +0.268 C 
ATOM      8  C   UNL     1       1.967   1.420  -0.256  0.00  0.00    +0.196 C 
ATOM      9  C   UNL     1       3.948  -1.184   1.472  0.00  0.00    +0.174 C 
BRANCH   6  10
ATOM     10  O   UNL     1       3.746   1.112  -1.872  0.00  0.00    -0.379 OA
ATOM     11  H   UNL     1       4.197   0.486  -2.460  0.00  0.00    +0.211 HD
ENDBRANCH   6  10
BRANCH   8  12
ATOM     12  O   UNL     1       1.292   2.391  -1.051  0.00  0.00    -0.378 OA
ATOM     13  H   UNL     1       1.935   2.853  -1.612  0.00  0.00    +0.211 HD
ENDBRANCH   8  12
ENDBRANCH   1   7
BRANCH   1  19
ATOM     14  O   UNL     1      -1.649   0.201   1.501  0.00  0.00    -0.326 OA
ATOM     15  O   UNL     1      -4.443   0.360   0.381  0.00  0.00    -0.348 OA
ATOM     16  C   UNL     1      -3.272   0.724  -0.409  0.00  0.00    +0.174 C 
ATOM     17  C   UNL     1      -2.533   1.156   0.875  0.00  0.00    +0.177 C 
ATOM     18  C   UNL     1      -2.689  -0.445  -1.187  0.00  0.00    +0.172 C 
ATOM     19  C   UNL     1      -0.954  -0.689   0.632  0.00  0.00    +0.268 C 
ATOM     20  C   UNL     1      -1.967  -1.420  -0.255  0.00  0.00    +0.196 C 
ATOM     21  C   UNL     1      -3.948   1.184   1.471  0.00  0.00    +0.174 C 
BRANCH  18  22
ATOM     22  O   UNL     1      -3.746  -1.113  -1.872  0.00  0.00    -0.379 OA
ATOM     23  H   UNL     1      -4.197  -0.486  -2.460  0.00  0.00    +0.211 HD
ENDBRANCH  18  22
BRANCH  20  24
ATOM     24  O   UNL     1      -1.292  -2.391  -1.051  0.00  0.00    -0.378 OA
ATOM     25  H   UNL     1      -1.935  -2.853  -1.612  0.00  0.00    +0.211 HD
ENDBRANCH  20  24
ENDBRANCH   1  19
TORSDOF 6
