REMARK  Name = 125494
REMARK  7 active torsions:
REMARK  status: ('A' for Active; 'I' for Inactive)
REMARK    1  A    between atoms: O_1  and  C_5
REMARK    2  A    between atoms: O_1  and  C_21
REMARK    3  A    between atoms: C_17  and  O_22
REMARK    4  A    between atoms: C_18  and  O_24
REMARK    5  A    between atoms: C_19  and  O_26
REMARK    6  A    between atoms: C_20  and  C_28
REMARK    7  A    between atoms: C_28  and  O_29
REMARK                            x       y       z     vdW  Elec       q    Type
REMARK                         _______ _______ _______ _____ _____    ______ ____
ROOT
ATOM      1  O   UNL     1       0.256  -0.482  -1.296  0.00  0.00    -0.450 OA
ENDROOT
BRANCH   1   5
ATOM      2  O   UNL     1      -2.015   3.509  -0.474  0.00  0.00    -0.450 OA
ATOM      3  O   UNL     1      -4.136  -0.663   0.754  0.00  0.00    -0.421 OA
ATOM      4  O   UNL     1      -5.054  -2.689   1.300  0.00  0.00    -0.244 OA
ATOM      5  C   UNL     1      -0.862   0.142  -0.813  0.00  0.00    +0.147 C 
ATOM      6  C   UNL     1      -0.958   1.547  -0.850  0.00  0.00    +0.072 C 
ATOM      7  C   UNL     1      -1.929  -0.595  -0.275  0.00  0.00    +0.069 C 
ATOM      8  C   UNL     1      -2.107   2.154  -0.352  0.00  0.00    +0.151 C 
ATOM      9  C   UNL     1      -3.056   0.070   0.210  0.00  0.00    +0.155 C 
ATOM     10  C   UNL     1      -3.187   1.462   0.190  0.00  0.00    +0.075 C 
ATOM     11  C   UNL     1      -0.126   2.607  -1.299  0.00  0.00    +0.047 C 
ATOM     12  C   UNL     1      -1.891  -2.047  -0.208  0.00  0.00    +0.013 C 
ATOM     13  C   UNL     1      -0.812   3.772  -1.048  0.00  0.00    +0.180 C 
ATOM     14  C   UNL     1      -2.917  -2.728   0.308  0.00  0.00    +0.082 C 
ATOM     15  C   UNL     1      -4.119  -2.052   0.827  0.00  0.00    +0.346 C 
ENDBRANCH   1   5
BRANCH   1  21
ATOM     16  O   UNL     1       1.754   0.539   0.173  0.00  0.00    -0.316 OA
ATOM     17  C   UNL     1       3.692  -1.543  -0.222  0.00  0.00    +0.173 C 
ATOM     18  C   UNL     1       4.037  -0.221   0.464  0.00  0.00    +0.169 C 
ATOM     19  C   UNL     1       2.456  -1.400  -1.109  0.00  0.00    +0.210 C 
ATOM     20  C   UNL     1       2.800   0.383   1.133  0.00  0.00    +0.177 C 
ATOM     21  C   UNL     1       1.315  -0.706  -0.366  0.00  0.00    +0.318 C 
BRANCH  17  22
ATOM     22  O   UNL     1       4.810  -1.930  -1.023  0.00  0.00    -0.379 OA
ATOM     23  H   UNL     1       5.595  -2.021  -0.460  0.00  0.00    +0.211 HD
ENDBRANCH  17  22
BRANCH  18  24
ATOM     24  O   UNL     1       5.042  -0.449   1.449  0.00  0.00    -0.379 OA
ATOM     25  H   UNL     1       5.827  -0.832   1.027  0.00  0.00    +0.211 HD
ENDBRANCH  18  24
BRANCH  19  26
ATOM     26  O   UNL     1       2.007  -2.695  -1.508  0.00  0.00    -0.377 OA
ATOM     27  H   UNL     1       2.718  -3.153  -1.983  0.00  0.00    +0.211 HD
ENDBRANCH  19  26
BRANCH  20  28
ATOM     28  C   UNL     1       3.092   1.758   1.723  0.00  0.00    +0.169 C 
BRANCH  28  29
ATOM     29  O   UNL     1       1.906   2.257   2.313  0.00  0.00    -0.379 OA
ATOM     30  H   UNL     1       2.077   3.133   2.693  0.00  0.00    +0.211 HD
ENDBRANCH  28  29
ENDBRANCH  20  28
ENDBRANCH   1  21
TORSDOF 7
