REMARK  Name = 125429
REMARK  4 active torsions:
REMARK  status: ('A' for Active; 'I' for Inactive)
REMARK    1  A    between atoms: C_7  and  O_14
REMARK    2  A    between atoms: C_8  and  O_16
REMARK    3  A    between atoms: C_9  and  C_18
REMARK    4  A    between atoms: C_18  and  O_19
REMARK                            x       y       z     vdW  Elec       q    Type
REMARK                         _______ _______ _______ _____ _____    ______ ____
ROOT
ATOM      1  O   UNL     1      -0.705  -0.677   0.760  0.00  0.00    -0.330 OA
ATOM      2  O   UNL     1       0.959   1.689   1.494  0.00  0.00    -0.270 OA
ATOM      3  O   UNL     1       3.419  -1.639  -0.475  0.00  0.00    -0.252 OA
ATOM      4  N   UNL     1       1.159  -1.063  -0.620  0.00  0.00    -0.261 N 
ATOM      5  N   UNL     1       2.500   0.173   0.656  0.00  0.00    -0.236 N 
ATOM      6  C   UNL     1       0.273  -0.062  -0.076  0.00  0.00    +0.251 C 
ATOM      7  C   UNL     1      -0.466   0.721  -1.150  0.00  0.00    +0.191 C 
ATOM      8  C   UNL     1      -1.794   1.023  -0.485  0.00  0.00    +0.171 C 
ATOM      9  C   UNL     1      -2.017  -0.217   0.372  0.00  0.00    +0.176 C 
ATOM     10  C   UNL     1       1.252   0.734   0.789  0.00  0.00    +0.274 C 
ATOM     11  C   UNL     1       2.474  -0.921  -0.179  0.00  0.00    +0.308 C 
ATOM     12  H   UNL     1       0.865  -1.771  -1.237  0.00  0.00    +0.154 HD
ATOM     13  H   UNL     1       3.310   0.511   1.101  0.00  0.00    +0.159 HD
ENDROOT
BRANCH   7  14
ATOM     14  O   UNL     1       0.202   1.884  -1.591  0.00  0.00    -0.378 OA
ATOM     15  H   UNL     1       1.043   1.636  -2.006  0.00  0.00    +0.211 HD
ENDBRANCH   7  14
BRANCH   8  16
ATOM     16  O   UNL     1      -1.683   2.150   0.380  0.00  0.00    -0.379 OA
ATOM     17  H   UNL     1      -1.540   2.951  -0.149  0.00  0.00    +0.211 HD
ENDBRANCH   8  16
BRANCH   9  18
ATOM     18  C   UNL     1      -2.713  -1.346  -0.377  0.00  0.00    +0.169 C 
BRANCH  18  19
ATOM     19  O   UNL     1      -2.861  -2.448   0.501  0.00  0.00    -0.379 OA
ATOM     20  H   UNL     1      -3.304  -3.175   0.036  0.00  0.00    +0.211 HD
ENDBRANCH  18  19
ENDBRANCH   9  18
TORSDOF 4
