REMARK  Name = 125488
REMARK  2 active torsions:
REMARK  status: ('A' for Active; 'I' for Inactive)
REMARK    1  A    between atoms: C_3  and  S_9
REMARK    2  A    between atoms: C_5  and  N_15
REMARK                            x       y       z     vdW  Elec       q    Type
REMARK                         _______ _______ _______ _____ _____    ______ ____
ROOT
ATOM      1  F   UNL     1       1.924   2.159  -0.018  0.00  0.00    -0.203 F 
ATOM      2  F   UNL     1      -2.780   1.726   0.044  0.00  0.00    -0.202 F 
ATOM      3  C   UNL     1       0.965  -0.014  -0.042  0.00  0.00    +0.141 C 
ATOM      4  C   UNL     1      -0.174  -0.820  -0.039  0.00  0.00    +0.048 C 
ATOM      5  C   UNL     1      -1.441  -0.236  -0.010  0.00  0.00    +0.172 C 
ATOM      6  C   UNL     1       0.837   1.375  -0.016  0.00  0.00    +0.160 C 
ATOM      7  C   UNL     1      -1.569   1.152   0.016  0.00  0.00    +0.165 C 
ATOM      8  C   UNL     1      -0.430   1.958   0.013  0.00  0.00    +0.062 C 
ENDROOT
BRANCH   3   9
ATOM      9  S   UNL     1       2.549  -0.749  -0.081  0.00  0.00    +0.044 S 
ATOM     10  O   UNL     1       3.188  -0.469   1.397  0.00  0.00    -0.065 OA
ATOM     11  O   UNL     1       2.373  -2.189  -0.201  0.00  0.00    -0.065 OA
ATOM     12  O   UNL     1       3.333  -0.013  -1.060  0.00  0.00    -0.065 OA
ENDBRANCH   3   9
BRANCH   5  15
ATOM     13  O   UNL     1      -2.451  -2.305  -0.024  0.00  0.00    -0.126 OA
ATOM     14  O   UNL     1      -3.726  -0.513   0.023  0.00  0.00    -0.126 OA
ATOM     15  N   UNL     1      -2.598  -1.060  -0.004  0.00  0.00    +0.060 N 
ENDBRANCH   5  15
TORSDOF 2
