REMARK  Name = 125483
REMARK  3 active torsions:
REMARK  status: ('A' for Active; 'I' for Inactive)
REMARK    1  A    between atoms: S_1  and  N_5
REMARK    2  A    between atoms: S_1  and  C_12
REMARK    3  A    between atoms: C_17  and  N_19
REMARK                            x       y       z     vdW  Elec       q    Type
REMARK                         _______ _______ _______ _____ _____    ______ ____
ROOT
ATOM      1  S   UNL     1       0.252   2.029   0.090  0.00  0.00    +0.075 S 
ATOM      2  O   UNL     1      -0.110   3.250  -0.619  0.00  0.00    -0.150 OA
ATOM      3  O   UNL     1       0.764   2.116   1.452  0.00  0.00    -0.150 OA
ENDROOT
BRANCH   1   5
ATOM      4  O   UNL     1       3.384  -1.063   0.985  0.00  0.00    -0.356 OA
ATOM      5  N   UNL     1       1.349   1.134  -0.865  0.00  0.00    -0.196 N 
ATOM      6  N   UNL     1       2.379  -0.104   0.923  0.00  0.00    -0.061 NA
ATOM      7  C   UNL     1       2.275   0.185  -0.370  0.00  0.00    +0.189 C 
ATOM      8  C   UNL     1       3.164  -0.537  -1.171  0.00  0.00    +0.074 C 
ATOM      9  C   UNL     1       3.843  -1.312  -0.268  0.00  0.00    +0.156 C 
ATOM     10  C   UNL     1       4.915  -2.308  -0.388  0.00  0.00    +0.075 C 
ATOM     11  H   UNL     1       1.336   1.290  -1.837  0.00  0.00    +0.175 HD
ENDBRANCH   1   5
BRANCH   1  12
ATOM     12  C   UNL     1      -1.137   0.971   0.099  0.00  0.00    +0.125 C 
ATOM     13  C   UNL     1      -2.113   1.093  -0.891  0.00  0.00    +0.022 C 
ATOM     14  C   UNL     1      -1.272   0.005   1.096  0.00  0.00    +0.022 C 
ATOM     15  C   UNL     1      -3.223   0.248  -0.883  0.00  0.00    +0.023 C 
ATOM     16  C   UNL     1      -2.381  -0.840   1.103  0.00  0.00    +0.023 C 
ATOM     17  C   UNL     1      -3.357  -0.718   0.113  0.00  0.00    +0.111 C 
BRANCH  17  19
ATOM     18  O   UNL     1      -4.284  -2.596  -0.523  0.00  0.00    -0.061 OA
ATOM     19  N   UNL     1      -4.449  -1.550   0.120  0.00  0.00    -0.096 NA
ENDBRANCH  17  19
ENDBRANCH   1  12
TORSDOF 3
