REMARK  Name = 125499
REMARK  8 active torsions:
REMARK  status: ('A' for Active; 'I' for Inactive)
REMARK    1  A    between atoms: S_1  and  C_3
REMARK    2  A    between atoms: S_1  and  C_13
REMARK    3  A    between atoms: C_7  and  C_10
REMARK    4  A    between atoms: C_10  and  O_11
REMARK    5  A    between atoms: C_13  and  C_14
REMARK    6  A    between atoms: C_14  and  N_16
REMARK    7  A    between atoms: C_14  and  C_21
REMARK    8  A    between atoms: C_21  and  O_22
REMARK                            x       y       z     vdW  Elec       q    Type
REMARK                         _______ _______ _______ _____ _____    ______ ____
ROOT
ATOM      1  S   UNK A   1       0.086   0.233  -0.233  0.00  0.00    -0.133 S 
ENDROOT
BRANCH   1   3
ATOM      2  N   UNK A   1      -3.322   1.024   0.149  0.00  0.00    -0.289 N 
ATOM      3  C   UNK A   1      -1.264   0.262   0.983  0.00  0.00    +0.085 C 
ATOM      4  C   UNK A   1      -1.548   1.708   1.483  0.00  0.00    +0.038 C 
ATOM      5  C   UNK A   1      -2.555  -0.087   0.349  0.00  0.00    +0.037 C 
ATOM      6  C   UNK A   1      -2.691   2.249   0.602  0.00  0.00    +0.097 C 
ATOM      7  C   UNK A   1      -3.264  -1.170  -0.101  0.00  0.00    +0.019 C 
ATOM      8  C   UNK A   1      -4.508   0.721  -0.414  0.00  0.00    +0.065 C 
ATOM      9  C   UNK A   1      -4.505  -0.654  -0.590  0.00  0.00    +0.015 C 
BRANCH   7  10
ATOM     10  C   UNK A   1      -2.841  -2.581  -0.084  0.00  0.00    +0.165 C 
BRANCH  10  11
ATOM     11  O   UNK A   1      -2.150  -2.961  -1.278  0.00  0.00    -0.377 OA
ATOM     12  H   UNK A   1      -1.893  -3.895  -1.220  0.00  0.00    +0.211 HD
ENDBRANCH  10  11
ENDBRANCH   7  10
ENDBRANCH   1   3
BRANCH   1  13
ATOM     13  C   UNK A   1       1.442   0.691   0.871  0.00  0.00    +0.089 C 
BRANCH  13  14
ATOM     14  C   UNK A   1       2.809   0.733   0.185  0.00  0.00    +0.182 C 
BRANCH  14  16
ATOM     15  O   UNK A   0       4.283  -1.228   1.738  0.00  0.00    -0.275 OA
ATOM     16  N   UNK A   1       3.228  -0.581  -0.234  0.00  0.00    -0.296 N 
ATOM     17  C   UNK A   0       3.932  -1.452   0.582  0.00  0.00    +0.223 C 
ATOM     18  C   UNK A   0       4.221  -2.766  -0.094  0.00  0.00    +0.095 C 
ATOM     19  H   UNK A   1       3.003  -0.875  -1.147  0.00  0.00    +0.150 HD
ENDBRANCH  14  16
BRANCH  14  21
ATOM     20  O   UNK A   1       2.637   2.937  -0.811  0.00  0.00    -0.248 OA
ATOM     21  C   UNK A   1       2.857   1.740  -0.952  0.00  0.00    +0.333 C 
BRANCH  21  22
ATOM     22  O   UNK A   1       3.153   1.181  -2.150  0.00  0.00    -0.479 OA
ATOM     23  H   UNK A   1       3.313   0.260  -2.211  0.00  0.00    +0.295 HD
ENDBRANCH  21  22
ENDBRANCH  14  21
ENDBRANCH  13  14
ENDBRANCH   1  13
TORSDOF 8
