REMARK  Name = 12548
REMARK  4 active torsions:
REMARK  status: ('A' for Active; 'I' for Inactive)
REMARK    1  A    between atoms: C_10  and  O_18
REMARK    2  A    between atoms: C_11  and  O_20
REMARK    3  A    between atoms: C_15  and  O_22
REMARK    4  A    between atoms: C_16  and  O_24
REMARK                            x       y       z     vdW  Elec       q    Type
REMARK                         _______ _______ _______ _____ _____    ______ ____
ROOT
ATOM      1  O   UNL     1      -0.100   2.487  -0.002  0.00  0.00    -0.286 OA
ATOM      2  O   UNL     1      -0.372  -2.850  -0.002  0.00  0.00    -0.287 OA
ATOM      3  C   UNL     1      -1.543  -0.814   0.000  0.00  0.00    +0.045 C 
ATOM      4  C   UNL     1      -1.471   0.581   0.000  0.00  0.00    +0.076 C 
ATOM      5  C   UNL     1       1.072   0.451   0.000  0.00  0.00    +0.079 C 
ATOM      6  C   UNL     1       1.000  -0.944  -0.001  0.00  0.00    +0.048 C 
ATOM      7  C   UNL     1      -0.161   1.264  -0.001  0.00  0.00    +0.202 C 
ATOM      8  C   UNL     1      -0.310  -1.627  -0.001  0.00  0.00    +0.196 C 
ATOM      9  C   UNL     1      -2.791  -1.448   0.001  0.00  0.00    -0.001 C 
ATOM     10  C   UNL     1      -2.647   1.341   0.000  0.00  0.00    +0.136 C 
ATOM     11  C   UNL     1       2.319   1.085   0.000  0.00  0.00    +0.174 C 
ATOM     12  C   UNL     1      -3.960  -0.688   0.001  0.00  0.00    -0.019 C 
ATOM     13  C   UNL     1       2.176  -1.704   0.000  0.00  0.00    +0.043 C 
ATOM     14  C   UNL     1      -3.889   0.704   0.001  0.00  0.00    +0.032 C 
ATOM     15  C   UNL     1       3.489   0.325   0.001  0.00  0.00    +0.202 C 
ATOM     16  C   UNL     1       3.417  -1.067   0.000  0.00  0.00    +0.171 C 
ATOM     17  C   UNL     1      -5.289  -1.364   0.000  0.00  0.00    +0.031 C 
ENDROOT
BRANCH  10  18
ATOM     18  O   UNL     1      -2.651   2.704   0.000  0.00  0.00    -0.505 OA
ATOM     19  H   UNL     1      -1.841   3.175  -0.001  0.00  0.00    +0.292 HD
ENDBRANCH  10  18
BRANCH  11  20
ATOM     20  O   UNL     1       2.449   2.444   0.001  0.00  0.00    -0.503 OA
ATOM     21  H   UNL     1       1.686   2.988   0.001  0.00  0.00    +0.292 HD
ENDBRANCH  11  20
BRANCH  15  22
ATOM     22  O   UNL     1       4.707   0.939   0.001  0.00  0.00    -0.501 OA
ATOM     23  H   UNL     1       4.760   1.875   0.001  0.00  0.00    +0.292 HD
ENDBRANCH  15  22
BRANCH  16  24
ATOM     24  O   UNL     1       4.554  -1.819   0.001  0.00  0.00    -0.503 OA
ATOM     25  H   UNL     1       4.497  -2.754   0.001  0.00  0.00    +0.292 HD
ENDBRANCH  16  24
TORSDOF 4
