REMARK  Name = 125460
REMARK  4 active torsions:
REMARK  status: ('A' for Active; 'I' for Inactive)
REMARK    1  A    between atoms: N1_3  and  C1*_14
REMARK    2  A    between atoms: C3*_13  and  O3*_16
REMARK    3  A    between atoms: C4*_15  and  C5*_18
REMARK    4  A    between atoms: C5*_18  and  O5*_19
REMARK                            x       y       z     vdW  Elec       q    Type
REMARK                         _______ _______ _______ _____ _____    ______ ____
ROOT
ATOM      1  O2  T   A   1       1.410   1.708   2.216  0.00  0.00    -0.252 OA
ATOM      2  O4  T   A   1       4.663  -0.219  -0.401  0.00  0.00    -0.270 OA
ATOM      3  N1  T   A   1       0.764   0.048   0.708  0.00  0.00    -0.219 N 
ATOM      4  N3  T   A   1       3.022   0.739   0.904  0.00  0.00    -0.236 N 
ATOM      5  C6  T   A   1       1.172  -0.849  -0.271  0.00  0.00    +0.071 C 
ATOM      6  C2  T   A   1       1.701   0.890   1.341  0.00  0.00    +0.315 C 
ATOM      7  C5  T   A   1       2.436  -0.991  -0.687  0.00  0.00    +0.047 C 
ATOM      8  C4  T   A   1       3.484  -0.138  -0.066  0.00  0.00    +0.250 C 
ATOM      9  C5M T   A   1       2.856  -1.963  -1.743  0.00  0.00    +0.037 C 
ATOM     10  H3  T   A   1       3.695   1.316   1.331  0.00  0.00    +0.159 HD
ENDROOT
BRANCH   3  14
ATOM     11  O4* T   A   1      -1.199  -1.214   0.941  0.00  0.00    -0.335 OA
ATOM     12  C2* T   A   1      -1.472   1.012   0.186  0.00  0.00    +0.083 C 
ATOM     13  C3* T   A   1      -2.853   0.399   0.317  0.00  0.00    +0.144 C 
ATOM     14  C1* T   A   1      -0.626   0.093   1.054  0.00  0.00    +0.202 C 
ATOM     15  C4* T   A   1      -2.589  -1.083   0.587  0.00  0.00    +0.173 C 
BRANCH  13  16
ATOM     16  O3* T   A   1      -3.521   0.981   1.437  0.00  0.00    -0.382 OA
ATOM     17  H3* T   A   1      -3.687   1.921   1.262  0.00  0.00    +0.210 HD
ENDBRANCH  13  16
BRANCH  15  18
ATOM     18  C5* T   A   1      -2.851  -1.969  -0.622  0.00  0.00    +0.169 C 
BRANCH  18  19
ATOM     19  O5* T   A   1      -2.568  -3.315  -0.273  0.00  0.00    -0.379 OA
ATOM     20  H5* T   A   1      -2.732  -3.888  -1.038  0.00  0.00    +0.211 HD
ENDBRANCH  18  19
ENDBRANCH  15  18
ENDBRANCH   3  14
TORSDOF 4
REMARK  Name = 125460
REMARK  4 active torsions:
REMARK  status: ('A' for Active; 'I' for Inactive)
REMARK    1  A    between atoms: N1_3  and  C1*_14
REMARK    2  A    between atoms: C3*_13  and  O3*_16
REMARK    3  A    between atoms: C4*_15  and  C5*_18
REMARK    4  A    between atoms: C5*_18  and  O5*_19
REMARK                            x       y       z     vdW  Elec       q    Type
REMARK                         _______ _______ _______ _____ _____    ______ ____
ROOT
ATOM      1  N   UNL     1      -1.283   1.987  -1.893  0.00  0.00    +0.000 NA
ATOM      2  N   UNL     1      -1.491   2.921  -2.513  0.00  0.00    +0.000 NA
ENDROOT
TORSDOF 0
