125499
  -OEChem-03292013323D

 38 39  0     1  0  0  0  0  0999 V2000
    0.0864    0.2331   -0.2328 S   0  0  0  0  0  0  0  0  0  0  0  0
   -2.1499   -2.9611   -1.2785 O   0  0  0  0  0  0  0  0  0  0  0  0
    3.1527    1.1815   -2.1499 O   0  0  0  0  0  0  0  0  0  0  0  0
    2.6374    2.9368   -0.8106 O   0  0  0  0  0  0  0  0  0  0  0  0
    4.2832   -1.2281    1.7378 O   0  0  0  0  0  0  0  0  0  0  0  0
   -3.3220    1.0245    0.1492 N   0  0  0  0  0  0  0  0  0  0  0  0
    3.2280   -0.5814   -0.2344 N   0  0  0  0  0  0  0  0  0  0  0  0
   -1.2638    0.2622    0.9828 C   0  0  1  0  0  0  0  0  0  0  0  0
   -1.5476    1.7085    1.4826 C   0  0  0  0  0  0  0  0  0  0  0  0
   -2.5550   -0.0867    0.3486 C   0  0  0  0  0  0  0  0  0  0  0  0
   -2.6914    2.2493    0.6019 C   0  0  0  0  0  0  0  0  0  0  0  0
   -3.2642   -1.1697   -0.1010 C   0  0  0  0  0  0  0  0  0  0  0  0
   -4.5080    0.7209   -0.4144 C   0  0  0  0  0  0  0  0  0  0  0  0
   -4.5054   -0.6544   -0.5900 C   0  0  0  0  0  0  0  0  0  0  0  0
    1.4416    0.6912    0.8714 C   0  0  0  0  0  0  0  0  0  0  0  0
   -2.8410   -2.5812   -0.0841 C   0  0  0  0  0  0  0  0  0  0  0  0
    2.8093    0.7326    0.1852 C   0  0  2  0  0  0  0  0  0  0  0  0
    2.8569    1.7399   -0.9518 C   0  0  0  0  0  0  0  0  0  0  0  0
    3.9323   -1.4524    0.5824 C   0  0  0  0  0  0  0  0  0  0  0  0
    4.2205   -2.7656   -0.0944 C   0  0  0  0  0  0  0  0  0  0  0  0
   -1.0298   -0.4071    1.8163 H   0  0  0  0  0  0  0  0  0  0  0  0
   -1.9190    1.6432    2.5154 H   0  0  0  0  0  0  0  0  0  0  0  0
   -0.6994    2.3953    1.5051 H   0  0  0  0  0  0  0  0  0  0  0  0
   -3.4132    2.8503    1.1595 H   0  0  0  0  0  0  0  0  0  0  0  0
   -2.3238    2.7799   -0.2809 H   0  0  0  0  0  0  0  0  0  0  0  0
   -5.2515    1.4705   -0.6465 H   0  0  0  0  0  0  0  0  0  0  0  0
   -5.3156   -1.2262   -1.0217 H   0  0  0  0  0  0  0  0  0  0  0  0
    1.2493    1.6821    1.2902 H   0  0  0  0  0  0  0  0  0  0  0  0
    1.4684   -0.0228    1.7022 H   0  0  0  0  0  0  0  0  0  0  0  0
   -2.1680   -2.7743    0.7580 H   0  0  0  0  0  0  0  0  0  0  0  0
   -3.7019   -3.2484    0.0326 H   0  0  0  0  0  0  0  0  0  0  0  0
    3.5506    1.0802    0.9166 H   0  0  0  0  0  0  0  0  0  0  0  0
    2.9678   -0.8865   -1.1682 H   0  0  0  0  0  0  0  0  0  0  0  0
   -2.7709   -2.8547   -2.0194 H   0  0  0  0  0  0  0  0  0  0  0  0
    4.6210   -2.5962   -1.0980 H   0  0  0  0  0  0  0  0  0  0  0  0
    3.2985   -3.3492   -0.1636 H   0  0  0  0  0  0  0  0  0  0  0  0
    4.9589   -3.3251    0.4866 H   0  0  0  0  0  0  0  0  0  0  0  0
    3.1711    1.8470   -2.8702 H   0  0  0  0  0  0  0  0  0  0  0  0
  1  8  1  0  0  0  0
  1 15  1  0  0  0  0
  2 16  1  0  0  0  0
  2 34  1  0  0  0  0
  3 18  1  0  0  0  0
  3 38  1  0  0  0  0
  4 18  2  0  0  0  0
  5 19  2  0  0  0  0
  6 10  1  0  0  0  0
  6 11  1  0  0  0  0
  6 13  1  0  0  0  0
  7 17  1  0  0  0  0
  7 19  1  0  0  0  0
  7 33  1  0  0  0  0
  8  9  1  0  0  0  0
  8 10  1  0  0  0  0
  8 21  1  0  0  0  0
  9 11  1  0  0  0  0
  9 22  1  0  0  0  0
  9 23  1  0  0  0  0
 10 12  2  0  0  0  0
 11 24  1  0  0  0  0
 11 25  1  0  0  0  0
 12 14  1  0  0  0  0
 12 16  1  0  0  0  0
 13 14  2  0  0  0  0
 13 26  1  0  0  0  0
 14 27  1  0  0  0  0
 15 17  1  0  0  0  0
 15 28  1  0  0  0  0
 15 29  1  0  0  0  0
 16 30  1  0  0  0  0
 16 31  1  0  0  0  0
 17 18  1  0  0  0  0
 17 32  1  0  0  0  0
 19 20  1  0  0  0  0
 20 35  1  0  0  0  0
 20 36  1  0  0  0  0
 20 37  1  0  0  0  0
M  END
> <PUBCHEM_COMPOUND_CID>
125499

> <PUBCHEM_CONFORMER_RMSD>
0.8

> <PUBCHEM_CONFORMER_DIVERSEORDER>
1
86
23
96
109
12
117
46
100
138
120
67
54
106
81
92
64
102
8
113
38
123
116
101
105
40
62
65
126
84
33
7
90
70
134
34
66
121
82
13
30
85
41
53
80
37
122
112
104
83
10
79
137
9
49
110
35
60
28
61
16
107
29
93
97
32
89
128
14
21
25
78
77
27
118
18
4
103
19
44
95
114
26
75
69
15
63
5
111
51
124
115
132
76
6
87
58
20
131
22
133
59
55
31
50
119
36
73
17
129
24
57
130
39
72
108
125
99
88
139
11
68
127
74
136
42
47
45
3
56
43
94
52
98
2
91
71
135
48

> <PUBCHEM_MMFF94_PARTIAL_CHARGES>
24
1 -0.46
10 -0.33
11 0.26
12 -0.18
13 -0.3
14 -0.15
15 0.23
16 0.46
17 0.36
18 0.66
19 0.57
2 -0.68
20 0.06
26 0.15
27 0.15
3 -0.65
33 0.37
34 0.4
38 0.5
4 -0.57
5 -0.57
6 0.05
7 -0.73
8 0.41

> <PUBCHEM_EFFECTIVE_ROTOR_COUNT>
7.6

> <PUBCHEM_PHARMACOPHORE_FEATURES>
10
1 2 acceptor
1 2 donor
1 3 acceptor
1 4 acceptor
1 5 acceptor
1 6 cation
1 7 donor
3 3 4 18 anion
5 6 10 12 13 14 rings
5 6 8 9 10 11 rings

> <PUBCHEM_HEAVY_ATOM_COUNT>
20

> <PUBCHEM_ATOM_DEF_STEREO_COUNT>
0

> <PUBCHEM_ATOM_UDEF_STEREO_COUNT>
2

> <PUBCHEM_BOND_DEF_STEREO_COUNT>
0

> <PUBCHEM_BOND_UDEF_STEREO_COUNT>
0

> <PUBCHEM_ISOTOPIC_ATOM_COUNT>
0

> <PUBCHEM_COMPONENT_COUNT>
1

> <PUBCHEM_CACTVS_TAUTO_COUNT>
2

> <PUBCHEM_CONFORMER_ID>
0001EA3B00000001

> <PUBCHEM_MMFF94_ENERGY>
37.1278

> <PUBCHEM_FEATURE_SELFOVERLAP>
51.064

> <PUBCHEM_SHAPE_FINGERPRINT>
10616163 171 18341618177861614166
10759866 29 18338241595122227142
12363563 72 16702303442437525929
12553582 1 17916882303834756929
13167823 11 18407759239732299939
13533116 47 18334017211397851435
13899415 180 17458891674951566652
15099037 8 18410292531802583984
15842332 3 18268734765008560752
17349148 13 18130504137067093303
17492 89 18409451426803914466
1813 80 17969221136534902026
18186145 218 16370720452516161625
192875 21 18412261701172263904
20645477 70 18041001739172613954
2255824 54 18040438793814807890
23402539 116 18130494250822731917
23557571 272 17417819409137191080
23559900 14 18343011216360371152
23598291 2 18261965046051171968
3004659 81 18409444791015495363
312423 11 18335154076029406809
53777708 50 18410865385908710168
559249 180 18193551168975550027
58051976 100 18334860497972018807
633830 44 17022618689122118569
67856867 119 18337102488407798600
7615 1 18340219517688283160
9709674 26 18334299807108325890
9971528 1 18334854962339189320
9981440 41 17757553332496199264

> <PUBCHEM_SHAPE_MULTIPOLES>
382
9.92
3.1
1.32
2.55
1.08
0.13
3.3
0.66
0.82
0.59
0.97
-0.34
-2.01

> <PUBCHEM_SHAPE_SELFOVERLAP>
778.425

> <PUBCHEM_SHAPE_VOLUME>
224.4

> <PUBCHEM_COORDINATE_TYPE>
2
5
10

$$$$
