125406
  -OEChem-03292013323D

 29 29  0     1  0  0  0  0  0999 V2000
    1.0076    2.7755    0.4545 O   0  0  0  0  0  0  0  0  0  0  0  0
   -1.2273    0.2923   -0.3505 O   0  0  0  0  0  0  0  0  0  0  0  0
    0.8107   -1.3849    1.8897 O   0  0  0  0  0  0  0  0  0  0  0  0
    0.1940   -2.9216    0.3407 O   0  0  0  0  0  0  0  0  0  0  0  0
   -4.7804    0.3162    0.2058 O   0  0  0  0  0  0  0  0  0  0  0  0
   -3.4364   -1.2630   -0.7362 O   0  0  0  0  0  0  0  0  0  0  0  0
    2.7029   -2.6932   -0.7911 N   0  0  0  0  0  0  0  0  0  0  0  0
   -0.2783    2.2520    0.3977 N   0  0  0  0  0  0  0  0  0  0  0  0
    1.7503   -0.4564   -1.0996 C   0  0  0  0  0  0  0  0  0  0  0  0
    1.1907    0.7860   -0.4644 C   0  0  0  0  0  0  0  0  0  0  0  0
    2.1546   -1.5337   -0.0827 C   0  0  1  0  0  0  0  0  0  0  0  0
    1.8806    1.8777   -0.0697 C   0  0  0  0  0  0  0  0  0  0  0  0
   -0.1367    1.0476   -0.1629 C   0  0  0  0  0  0  0  0  0  0  0  0
    0.9513   -2.0294    0.7017 C   0  0  0  0  0  0  0  0  0  0  0  0
    3.2944    2.2759   -0.0862 C   0  0  0  0  0  0  0  0  0  0  0  0
   -2.4937    0.8280    0.0654 C   0  0  0  0  0  0  0  0  0  0  0  0
   -3.5842   -0.1691   -0.2122 C   0  0  0  0  0  0  0  0  0  0  0  0
    2.6180   -0.1810   -1.7142 H   0  0  0  0  0  0  0  0  0  0  0  0
    0.9993   -0.8578   -1.7945 H   0  0  0  0  0  0  0  0  0  0  0  0
    2.9110   -1.1576    0.6158 H   0  0  0  0  0  0  0  0  0  0  0  0
    3.5211    2.9627    0.7355 H   0  0  0  0  0  0  0  0  0  0  0  0
    3.9496    1.4055    0.0171 H   0  0  0  0  0  0  0  0  0  0  0  0
    3.5376    2.7774   -1.0278 H   0  0  0  0  0  0  0  0  0  0  0  0
    3.0453   -3.3752   -0.1152 H   0  0  0  0  0  0  0  0  0  0  0  0
    3.5137   -2.4061   -1.3382 H   0  0  0  0  0  0  0  0  0  0  0  0
   -2.4766    1.0190    1.1447 H   0  0  0  0  0  0  0  0  0  0  0  0
   -2.7137    1.7396   -0.5016 H   0  0  0  0  0  0  0  0  0  0  0  0
    0.0376   -1.7150    2.3951 H   0  0  0  0  0  0  0  0  0  0  0  0
   -5.5112   -0.3158    0.0366 H   0  0  0  0  0  0  0  0  0  0  0  0
  1  8  1  0  0  0  0
  1 12  1  0  0  0  0
  2 13  1  0  0  0  0
  2 16  1  0  0  0  0
  3 14  1  0  0  0  0
  3 28  1  0  0  0  0
  4 14  2  0  0  0  0
  5 17  1  0  0  0  0
  5 29  1  0  0  0  0
  6 17  2  0  0  0  0
  7 11  1  0  0  0  0
  7 24  1  0  0  0  0
  7 25  1  0  0  0  0
  8 13  2  0  0  0  0
  9 10  1  0  0  0  0
  9 11  1  0  0  0  0
  9 18  1  0  0  0  0
  9 19  1  0  0  0  0
 10 12  2  0  0  0  0
 10 13  1  0  0  0  0
 11 14  1  0  0  0  0
 11 20  1  0  0  0  0
 12 15  1  0  0  0  0
 15 21  1  0  0  0  0
 15 22  1  0  0  0  0
 15 23  1  0  0  0  0
 16 17  1  0  0  0  0
 16 26  1  0  0  0  0
 16 27  1  0  0  0  0
M  END
> <PUBCHEM_COMPOUND_CID>
125406

> <PUBCHEM_CONFORMER_RMSD>
0.8

> <PUBCHEM_CONFORMER_DIVERSEORDER>
1
95
44
49
71
17
27
81
68
19
13
48
37
33
78
91
31
16
34
24
5
79
83
77
94
3
86
82
69
15
90
51
67
6
36
12
63
32
80
30
43
62
46
66
18
25
70
75
23
89
55
59
7
10
88
28
93
58
74
61
2
76
8
87
72
29
52
20
84
26
56
42
65
96
73
92
53
39
9
35
60
85
57
45
40
4
21
64
22
41
11
38
50
54
47
14

> <PUBCHEM_MMFF94_PARTIAL_CHARGES>
21
1 -0.02
10 -0.18
11 0.33
12 -0.04
13 0.35
14 0.66
15 0.18
16 0.34
17 0.66
2 -0.34
24 0.36
25 0.36
28 0.5
29 0.5
3 -0.65
4 -0.57
5 -0.65
6 -0.57
7 -0.99
8 -0.41
9 0.18

> <PUBCHEM_EFFECTIVE_ROTOR_COUNT>
6

> <PUBCHEM_PHARMACOPHORE_FEATURES>
9
1 3 acceptor
1 4 acceptor
1 5 acceptor
1 6 acceptor
1 7 cation
1 7 donor
3 3 4 14 anion
3 5 6 17 anion
5 1 8 10 12 13 rings

> <PUBCHEM_HEAVY_ATOM_COUNT>
17

> <PUBCHEM_ATOM_DEF_STEREO_COUNT>
0

> <PUBCHEM_ATOM_UDEF_STEREO_COUNT>
1

> <PUBCHEM_BOND_DEF_STEREO_COUNT>
0

> <PUBCHEM_BOND_UDEF_STEREO_COUNT>
0

> <PUBCHEM_ISOTOPIC_ATOM_COUNT>
0

> <PUBCHEM_COMPONENT_COUNT>
1

> <PUBCHEM_CACTVS_TAUTO_COUNT>
1

> <PUBCHEM_CONFORMER_ID>
0001E9DE00000001

> <PUBCHEM_MMFF94_ENERGY>
18.4052

> <PUBCHEM_FEATURE_SELFOVERLAP>
45.787

> <PUBCHEM_SHAPE_FINGERPRINT>
11578080 2 17533486851331759700
12553582 1 18121780517687268555
12716301 132 17760932144634017536
13380535 76 18193837265516191548
14251717 144 18409442600877424095
14787075 74 18334298626619917294
15001771 113 18049163263276767192
15375462 189 18045795493863324427
15442244 35 18199193893136307185
16945 1 18268441298340461644
20645477 70 18410566280708070855
21421861 104 18189614951876876481
2255824 54 18335990838980592725
23419403 2 17608414290971517954
23598291 2 18201433667278427629
257057 1 17684356270316606258
2748010 2 18117582801098355674
2871803 45 17981313810204042615
33824 294 18336826489387256845
34934 24 18201998867578888773
7364860 26 18412824676984938885
81228 2 17258752851255841641
81539 233 18262511606177419885

> <PUBCHEM_SHAPE_MULTIPOLES>
304.67
5.71
3.36
0.97
7.76
0.82
0.22
-0.52
-0.84
-3.02
0.43
-0.28
0.42
0.01

> <PUBCHEM_SHAPE_SELFOVERLAP>
624.465

> <PUBCHEM_SHAPE_VOLUME>
176.6

> <PUBCHEM_COORDINATE_TYPE>
2
5
10

$$$$
