REMARK  Name = 125597
REMARK  8 active torsions:
REMARK  status: ('A' for Active; 'I' for Inactive)
REMARK    1  A    between atoms: C_1  and  N_3
REMARK    2  A    between atoms: C_1  and  C_20
REMARK    3  A    between atoms: C_1  and  C_32
REMARK    4  A    between atoms: C_4  and  C_8
REMARK    5  A    between atoms: C_12  and  C_13
REMARK    6  A    between atoms: C_13  and  N_14
REMARK    7  A    between atoms: N_19  and  C_22
REMARK    8  A    between atoms: C_32  and  C_34
REMARK                            x       y       z     vdW  Elec       q    Type
REMARK                         _______ _______ _______ _____ _____    ______ ____
ROOT
ATOM      1  C   UNL     1       0.685   1.579  -0.218  0.00  0.00    +0.149 C 
ENDROOT
BRANCH   1   3
ATOM      2  O   UNL     1       1.996  -0.827   0.739  0.00  0.00    -0.273 OA
ATOM      3  N   UNL     1       1.853   0.940  -0.770  0.00  0.00    -0.297 N 
ATOM      4  C   UNL     1       2.411  -0.214  -0.241  0.00  0.00    +0.241 C 
ATOM      5  H   UNL     1       2.276   1.343  -1.563  0.00  0.00    +0.150 HD
BRANCH   4   8
ATOM      6  O   UNL     1       5.320   0.502   0.954  0.00  0.00    -0.277 OA
ATOM      7  N   UNL     1       4.476  -1.383  -0.090  0.00  0.00    -0.275 N 
ATOM      8  C   UNL     1       3.603  -0.681  -1.021  0.00  0.00    +0.152 C 
ATOM      9  C   UNL     1       3.223  -1.729  -2.061  0.00  0.00    +0.031 C 
ATOM     10  C   UNL     1       3.286  -3.041  -1.282  0.00  0.00    +0.024 C 
ATOM     11  C   UNL     1       4.448  -2.824  -0.326  0.00  0.00    +0.094 C 
ATOM     12  C   UNL     1       5.325  -0.718   0.781  0.00  0.00    +0.204 C 
BRANCH  12  13
ATOM     13  C   UNL     1       6.285  -1.591   1.547  0.00  0.00    +0.001 C 
BRANCH  13  14
ATOM     14  N   UNL     1       7.057  -0.704   2.389  0.00  0.00    +0.386 N 
ATOM     15  H   UNL     1       7.727  -1.248   2.933  0.00  0.00    -0.089 HD
ATOM     16  H   UNL     1       6.431  -0.206   3.022  0.00  0.00    -0.089 HD
ATOM     17  H   UNL     1       7.557  -0.032   1.807  0.00  0.00    -0.089 HD
ENDBRANCH  13  14
ENDBRANCH  12  13
ENDBRANCH   4   8
ENDBRANCH   1   3
BRANCH   1  20
ATOM     18  O   UNL     1      -0.590   0.477  -1.950  0.00  0.00    -0.273 OA
ATOM     19  N   UNL     1      -1.581   0.832   0.146  0.00  0.00    -0.283 N 
ATOM     20  C   UNL     1      -0.555   0.885  -0.793  0.00  0.00    +0.244 C 
ATOM     21  H   UNL     1      -1.387   1.231   1.025  0.00  0.00    +0.155 HD
BRANCH  19  22
ATOM     22  C   UNL     1      -2.870   0.272  -0.014  0.00  0.00    +0.050 C 
ATOM     23  C   UNL     1      -3.782   0.305   1.042  0.00  0.00    +0.015 C 
ATOM     24  C   UNL     1      -3.228  -0.314  -1.225  0.00  0.00    +0.015 C 
ATOM     25  C   UNL     1      -5.065  -0.248   0.899  0.00  0.00    +0.001 C 
ATOM     26  C   UNL     1      -5.429  -0.844  -0.332  0.00  0.00    +0.000 C 
ATOM     27  C   UNL     1      -4.499  -0.868  -1.385  0.00  0.00    +0.001 C 
ATOM     28  C   UNL     1      -5.995  -0.223   1.951  0.00  0.00    +0.000 C 
ATOM     29  C   UNL     1      -6.712  -1.397  -0.475  0.00  0.00    +0.000 C 
ATOM     30  C   UNL     1      -7.265  -0.778   1.791  0.00  0.00    +0.000 C 
ATOM     31  C   UNL     1      -7.623  -1.363   0.581  0.00  0.00    +0.000 C 
ENDBRANCH  19  22
ENDBRANCH   1  20
BRANCH   1  32
ATOM     32  C   UNL     1       0.666   3.108  -0.455  0.00  0.00    +0.027 C 
ATOM     33  C   UNL     1       0.555   3.463  -1.946  0.00  0.00    +0.002 C 
BRANCH  32  34
ATOM     34  C   UNL     1       1.894   3.830   0.142  0.00  0.00    +0.002 C 
ATOM     35  C   UNL     1       2.110   3.554   1.623  0.00  0.00    +0.000 C 
ENDBRANCH  32  34
ENDBRANCH   1  32
TORSDOF 8
