REMARK  Name = 125598
REMARK  8 active torsions:
REMARK  status: ('A' for Active; 'I' for Inactive)
REMARK    1  A    between atoms: C_4  and  N_10
REMARK    2  A    between atoms: C_5  and  C_20
REMARK    3  A    between atoms: C_6  and  C_17
REMARK    4  A    between atoms: C_7  and  O_14
REMARK    5  A    between atoms: C_17  and  O_18
REMARK    6  A    between atoms: C_20  and  O_21
REMARK    7  A    between atoms: C_20  and  C_23
REMARK    8  A    between atoms: C_23  and  O_24
REMARK                            x       y       z     vdW  Elec       q    Type
REMARK                         _______ _______ _______ _____ _____    ______ ____
ROOT
ATOM      1  O   UNL     1       1.257  -0.842  -1.190  0.00  0.00    -0.324 OA
ATOM      2  O   UNL     1       1.463   0.974   0.246  0.00  0.00    -0.323 OA
ATOM      3  C   UNL     1      -0.061  -0.301  -0.988  0.00  0.00    +0.168 C 
ATOM      4  C   UNL     1      -0.726  -1.192   0.085  0.00  0.00    +0.128 C 
ATOM      5  C   UNL     1       0.318   1.130  -0.611  0.00  0.00    +0.176 C 
ATOM      6  C   UNL     1       1.940  -0.346  -0.035  0.00  0.00    +0.282 C 
ATOM      7  C   UNL     1       0.078  -1.225   1.401  0.00  0.00    +0.136 C 
ATOM      8  C   UNL     1       1.592  -1.262   1.135  0.00  0.00    +0.099 C 
ENDROOT
BRANCH   4  10
ATOM      9  O   UNL     1      -3.062  -2.119  -1.367  0.00  0.00    -0.275 OA
ATOM     10  N   UNL     1      -2.101  -0.824   0.312  0.00  0.00    -0.301 N 
ATOM     11  C   UNL     1      -3.155  -1.322  -0.437  0.00  0.00    +0.223 C 
ATOM     12  C   UNL     1      -4.487  -0.795   0.027  0.00  0.00    +0.095 C 
ATOM     13  H   UNL     1      -2.302  -0.188   1.036  0.00  0.00    +0.150 HD
ENDBRANCH   4  10
BRANCH   7  14
ATOM     14  O   UNL     1      -0.296  -2.354   2.185  0.00  0.00    -0.383 OA
ATOM     15  H   UNL     1      -1.251  -2.330   2.352  0.00  0.00    +0.210 HD
ENDBRANCH   7  14
BRANCH   6  17
ATOM     16  O   UNL     1       4.096   0.706  -0.298  0.00  0.00    -0.245 OA
ATOM     17  C   UNL     1       3.404  -0.300  -0.331  0.00  0.00    +0.366 C 
BRANCH  17  18
ATOM     18  O   UNL     1       3.867  -1.535  -0.647  0.00  0.00    -0.477 OA
ATOM     19  H   UNL     1       3.282  -2.267  -0.654  0.00  0.00    +0.295 HD
ENDBRANCH  17  18
ENDBRANCH   6  17
BRANCH   5  20
ATOM     20  C   UNL     1      -0.740   1.985   0.053  0.00  0.00    +0.169 C 
BRANCH  20  21
ATOM     21  O   UNL     1      -1.883   2.065  -0.801  0.00  0.00    -0.379 OA
ATOM     22  H   UNL     1      -2.218   1.172  -0.976  0.00  0.00    +0.211 HD
ENDBRANCH  20  21
BRANCH  20  23
ATOM     23  C   UNL     1      -0.241   3.405   0.306  0.00  0.00    +0.169 C 
BRANCH  23  24
ATOM     24  O   UNL     1      -1.265   4.152   0.954  0.00  0.00    -0.379 OA
ATOM     25  H   UNL     1      -0.952   5.056   1.117  0.00  0.00    +0.211 HD
ENDBRANCH  23  24
ENDBRANCH  20  23
ENDBRANCH   5  20
TORSDOF 8
