REMARK  Name = 125500
REMARK  10 active torsions:
REMARK  status: ('A' for Active; 'I' for Inactive)
REMARK    1  A    between atoms: C_1  and  C_3
REMARK    2  A    between atoms: C_1  and  O_8
REMARK    3  A    between atoms: C_1  and  C_11
REMARK    4  A    between atoms: C_1  and  C_14
REMARK    5  A    between atoms: C_3  and  C_5
REMARK    6  A    between atoms: C_5  and  O_6
REMARK    7  A    between atoms: C_11  and  O_12
REMARK    8  A    between atoms: C_14  and  C_15
REMARK    9  A    between atoms: C_15  and  C_17
REMARK   10  A    between atoms: C_17  and  O_18
REMARK                            x       y       z     vdW  Elec       q    Type
REMARK                         _______ _______ _______ _____ _____    ______ ____
ROOT
ATOM      1  C   UNL     1       0.564  -0.475   0.136  0.00  0.00    +0.218 C 
ENDROOT
BRANCH   1   3
ATOM      2  F   UNL     1       2.913  -0.568   0.098  0.00  0.00    -0.222 F 
ATOM      3  C   UNL     1       1.861   0.153  -0.400  0.00  0.00    +0.293 C 
BRANCH   3   5
ATOM      4  O   UNL     1       2.489   2.011   1.027  0.00  0.00    -0.247 OA
ATOM      5  C   UNL     1       2.014   1.613  -0.028  0.00  0.00    +0.350 C 
BRANCH   5   6
ATOM      6  O   UNL     1       1.580   2.445  -1.007  0.00  0.00    -0.478 OA
ATOM      7  H   UNL     1       1.224   2.091  -1.799  0.00  0.00    +0.295 HD
ENDBRANCH   5   6
ENDBRANCH   3   5
ENDBRANCH   1   3
BRANCH   1   8
ATOM      8  O   UNL     1       0.653  -0.454   1.563  0.00  0.00    -0.374 OA
ATOM      9  H   UNL     1       0.703   0.464   1.870  0.00  0.00    +0.211 HD
ENDBRANCH   1   8
BRANCH   1  11
ATOM     10  O   UNL     1       0.552  -2.897   0.480  0.00  0.00    -0.248 OA
ATOM     11  C   UNL     1       0.489  -1.942  -0.283  0.00  0.00    +0.341 C 
BRANCH  11  12
ATOM     12  O   UNL     1       0.379  -2.078  -1.630  0.00  0.00    -0.479 OA
ATOM     13  H   UNL     1       0.334  -1.317  -2.175  0.00  0.00    +0.295 HD
ENDBRANCH  11  12
ENDBRANCH   1  11
BRANCH   1  14
ATOM     14  C   UNL     1      -0.733   0.247  -0.282  0.00  0.00    +0.053 C 
BRANCH  14  15
ATOM     15  C   UNL     1      -2.003  -0.254   0.410  0.00  0.00    +0.112 C 
BRANCH  15  17
ATOM     16  O   UNL     1      -3.207   1.531  -0.730  0.00  0.00    -0.250 OA
ATOM     17  C   UNL     1      -3.213   0.568   0.024  0.00  0.00    +0.314 C 
BRANCH  17  18
ATOM     18  O   UNL     1      -4.340   0.101   0.622  0.00  0.00    -0.480 OA
ATOM     19  H   UNL     1      -4.295  -0.641   1.193  0.00  0.00    +0.295 HD
ENDBRANCH  17  18
ENDBRANCH  15  17
ENDBRANCH  14  15
ENDBRANCH   1  14
TORSDOF 10
