REMARK  Name = 125596
REMARK  9 active torsions:
REMARK  status: ('A' for Active; 'I' for Inactive)
REMARK    1  A    between atoms: C_1  and  N_3
REMARK    2  A    between atoms: C_1  and  C_20
REMARK    3  A    between atoms: C_1  and  C_32
REMARK    4  A    between atoms: C_4  and  C_8
REMARK    5  A    between atoms: C_12  and  C_13
REMARK    6  A    between atoms: C_13  and  N_14
REMARK    7  A    between atoms: N_19  and  C_22
REMARK    8  A    between atoms: C_32  and  C_33
REMARK    9  A    between atoms: C_33  and  S_34
REMARK                            x       y       z     vdW  Elec       q    Type
REMARK                         _______ _______ _______ _____ _____    ______ ____
ROOT
ATOM      1  C   UNL     1       0.543  -0.437  -0.493  0.00  0.00    +0.150 C 
ENDROOT
BRANCH   1   3
ATOM      2  O   UNL     1       2.862   1.032  -1.436  0.00  0.00    -0.273 OA
ATOM      3  N   UNL     1       1.632   0.086   0.299  0.00  0.00    -0.297 N 
ATOM      4  C   UNL     1       2.701   0.778  -0.245  0.00  0.00    +0.241 C 
ATOM      5  H   UNL     1       1.614  -0.057   1.273  0.00  0.00    +0.150 HD
BRANCH   4   8
ATOM      6  O   UNL     1       5.374  -0.988   0.132  0.00  0.00    -0.277 OA
ATOM      7  N   UNL     1       4.986   1.294   0.166  0.00  0.00    -0.275 N 
ATOM      8  C   UNL     1       3.675   1.230   0.800  0.00  0.00    +0.152 C 
ATOM      9  C   UNL     1       3.396   2.658   1.255  0.00  0.00    +0.031 C 
ATOM     10  C   UNL     1       4.164   3.509   0.246  0.00  0.00    +0.024 C 
ATOM     11  C   UNL     1       5.406   2.678  -0.037  0.00  0.00    +0.094 C 
ATOM     12  C   UNL     1       5.763   0.167  -0.051  0.00  0.00    +0.204 C 
BRANCH  12  13
ATOM     13  C   UNL     1       7.161   0.429  -0.553  0.00  0.00    +0.001 C 
BRANCH  13  14
ATOM     14  N   UNL     1       7.781  -0.868  -0.719  0.00  0.00    +0.386 N 
ATOM     15  H   UNL     1       8.735  -0.747  -1.059  0.00  0.00    -0.089 HD
ATOM     16  H   UNL     1       7.247  -1.416  -1.393  0.00  0.00    -0.089 HD
ATOM     17  H   UNL     1       7.799  -1.354   0.178  0.00  0.00    -0.089 HD
ENDBRANCH  13  14
ENDBRANCH  12  13
ENDBRANCH   4   8
ENDBRANCH   1   3
BRANCH   1  20
ATOM     18  O   UNL     1      -0.758  -0.530   1.537  0.00  0.00    -0.273 OA
ATOM     19  N   UNL     1      -1.844  -0.090  -0.496  0.00  0.00    -0.283 N 
ATOM     20  C   UNL     1      -0.749  -0.351   0.322  0.00  0.00    +0.244 C 
ATOM     21  H   UNL     1      -1.655   0.003  -1.458  0.00  0.00    +0.155 HD
BRANCH  19  22
ATOM     22  C   UNL     1      -3.196   0.058  -0.108  0.00  0.00    +0.050 C 
ATOM     23  C   UNL     1      -4.155   0.319  -1.074  0.00  0.00    +0.015 C 
ATOM     24  C   UNL     1      -3.532  -0.060   1.228  0.00  0.00    +0.015 C 
ATOM     25  C   UNL     1      -5.501   0.470  -0.704  0.00  0.00    +0.001 C 
ATOM     26  C   UNL     1      -5.862   0.352   0.659  0.00  0.00    +0.000 C 
ATOM     27  C   UNL     1      -4.865   0.087   1.613  0.00  0.00    +0.001 C 
ATOM     28  C   UNL     1      -6.497   0.735  -1.658  0.00  0.00    +0.000 C 
ATOM     29  C   UNL     1      -7.208   0.503   1.029  0.00  0.00    +0.000 C 
ATOM     30  C   UNL     1      -7.830   0.881  -1.273  0.00  0.00    +0.000 C 
ATOM     31  C   UNL     1      -8.185   0.766   0.068  0.00  0.00    +0.000 C 
ENDBRANCH  19  22
ENDBRANCH   1  20
BRANCH   1  32
ATOM     32  C   UNL     1       0.830  -1.856  -1.004  0.00  0.00    +0.041 C 
BRANCH  32  33
ATOM     33  C   UNL     1       1.037  -2.881   0.113  0.00  0.00    +0.060 C 
BRANCH  33  34
ATOM     34  S   UNL     1       1.372  -4.526  -0.584  0.00  0.00    -0.139 S 
ATOM     35  C   UNL     1       1.500  -5.445   0.967  0.00  0.00    +0.069 C 
ENDBRANCH  33  34
ENDBRANCH  32  33
ENDBRANCH   1  32
TORSDOF 9
