REMARK  Name = 125551
REMARK  6 active torsions:
REMARK  status: ('A' for Active; 'I' for Inactive)
REMARK    1  A    between atoms: N_2  and  CA_20
REMARK    2  A    between atoms: C_13  and  S_18
REMARK    3  A    between atoms: CA_20  and  C_22
REMARK    4  A    between atoms: CA_20  and  CB_25
REMARK    5  A    between atoms: C_22  and  O_23
REMARK    6  A    between atoms: CB_25  and  OG1_27
REMARK                            x       y       z     vdW  Elec       q    Type
REMARK                         _______ _______ _______ _____ _____    ______ ____
ROOT
ATOM      1  O   UNL     1      -0.990   1.486   0.595  0.00  0.00    -0.252 OA
ATOM      2  N   UNL     1      -2.247  -0.402   0.149  0.00  0.00    -0.279 N 
ATOM      3  N   UNL     1       0.044  -0.552   0.059  0.00  0.00    -0.245 N 
ATOM      4  N   UNL     1       2.343  -2.513  -0.488  0.00  0.00    -0.268 NA
ATOM      5  N   UNL     1       1.815   1.014   0.412  0.00  0.00    -0.322 NA
ATOM      6  N   UNL     1       4.499  -1.954  -0.399  0.00  0.00    -0.296 N 
ATOM      7  N   UNL     1       4.161   0.379   0.196  0.00  0.00    -0.322 NA
ATOM      8  C   ACE A   0      -1.041   0.296   0.297  0.00  0.00    +0.306 C 
ATOM      9  C   UNL     1       2.369  -1.188  -0.156  0.00  0.00    +0.192 C 
ATOM     10  C   UNL     1       1.421  -0.233   0.107  0.00  0.00    +0.199 C 
ATOM     11  C   UNL     1       3.718  -0.865  -0.106  0.00  0.00    +0.194 C 
ATOM     12  C   UNL     1       3.642  -2.927  -0.623  0.00  0.00    +0.164 C 
ATOM     13  C   UNL     1       3.150   1.242   0.437  0.00  0.00    +0.170 C 
ATOM     14  H   UNL     1      -2.209  -1.356  -0.092  0.00  0.00    +0.152 HD
ATOM     15  H   UNL     1      -0.176  -1.483  -0.170  0.00  0.00    +0.159 HD
ATOM     16  H   UNL     1       1.539  -3.068  -0.609  0.00  0.00    +0.126 HD
ATOM     17  H   UNL     1       5.482  -1.997  -0.433  0.00  0.00    +0.150 HD
ENDROOT
BRANCH  13  18
ATOM     18  S   UNL     1       3.638   2.910   0.850  0.00  0.00    -0.017 S 
ATOM     19  C   UNL     1       2.850   3.860  -0.480  0.00  0.00    +0.087 C 
ENDBRANCH  13  18
BRANCH   2  20
ATOM     20  CA  UNL     1      -3.539   0.209   0.332  0.00  0.00    +0.199 C 
BRANCH  20  22
ATOM     21  OXT UNL     1      -3.671   0.388  -2.096  0.00  0.00    -0.248 OA
ATOM     22  C   UNL     1      -3.924   0.847  -0.990  0.00  0.00    +0.334 C 
BRANCH  22  23
ATOM     23  O   UNL     1      -4.557   2.037  -0.814  0.00  0.00    -0.479 OA
ATOM     24  H   UNL     1      -4.731   2.352   0.052  0.00  0.00    +0.295 HD
ENDBRANCH  22  23
ENDBRANCH  20  22
BRANCH  20  25
ATOM     25  CB  UNL     1      -4.609  -0.784   0.798  0.00  0.00    +0.139 C 
ATOM     26  CG2 UNL     1      -4.249  -1.464   2.114  0.00  0.00    +0.034 C 
BRANCH  25  27
ATOM     27  OG1 UNL     1      -4.824  -1.786  -0.195  0.00  0.00    -0.382 OA
ATOM     28  HG1 UNL     1      -5.054  -1.363  -1.037  0.00  0.00    +0.210 HD
ENDBRANCH  25  27
ENDBRANCH  20  25
ENDBRANCH   2  20
TORSDOF 6
