125551
  -OEChem-03292013323D

 36 37  0     1  0  0  0  0  0999 V2000
    3.6377    2.9098    0.8496 S   0  0  0  0  0  0  0  0  0  0  0  0
   -4.8237   -1.7861   -0.1946 O   0  0  0  0  0  0  0  0  0  0  0  0
   -4.5567    2.0374   -0.8137 O   0  0  0  0  0  0  0  0  0  0  0  0
   -3.6705    0.3881   -2.0959 O   0  0  0  0  0  0  0  0  0  0  0  0
   -0.9895    1.4864    0.5952 O   0  0  0  0  0  0  0  0  0  0  0  0
   -2.2467   -0.4020    0.1489 N   0  0  0  0  0  0  0  0  0  0  0  0
    0.0444   -0.5518    0.0588 N   0  0  0  0  0  0  0  0  0  0  0  0
    2.3429   -2.5130   -0.4883 N   0  0  0  0  0  0  0  0  0  0  0  0
    1.8154    1.0136    0.4116 N   0  0  0  0  0  0  0  0  0  0  0  0
    4.4987   -1.9535   -0.3988 N   0  0  0  0  0  0  0  0  0  0  0  0
    4.1612    0.3793    0.1964 N   0  0  0  0  0  0  0  0  0  0  0  0
   -3.5394    0.2086    0.3320 C   0  0  2  0  0  0  0  0  0  0  0  0
   -4.6088   -0.7842    0.7985 C   0  0  2  0  0  0  0  0  0  0  0  0
   -4.2490   -1.4645    2.1140 C   0  0  0  0  0  0  0  0  0  0  0  0
   -3.9244    0.8474   -0.9898 C   0  0  0  0  0  0  0  0  0  0  0  0
   -1.0413    0.2957    0.2970 C   0  0  0  0  0  0  0  0  0  0  0  0
    2.3686   -1.1885   -0.1558 C   0  0  0  0  0  0  0  0  0  0  0  0
    1.4215   -0.2328    0.1073 C   0  0  0  0  0  0  0  0  0  0  0  0
    3.7177   -0.8645   -0.1063 C   0  0  0  0  0  0  0  0  0  0  0  0
    3.6419   -2.9267   -0.6232 C   0  0  0  0  0  0  0  0  0  0  0  0
    3.1502    1.2416    0.4374 C   0  0  0  0  0  0  0  0  0  0  0  0
    2.8498    3.8596   -0.4804 C   0  0  0  0  0  0  0  0  0  0  0  0
   -3.4259    1.0056    1.0775 H   0  0  0  0  0  0  0  0  0  0  0  0
   -5.5586   -0.2494    0.9195 H   0  0  0  0  0  0  0  0  0  0  0  0
   -2.2103   -1.3607   -0.1842 H   0  0  0  0  0  0  0  0  0  0  0  0
   -3.3702   -2.1090    2.0047 H   0  0  0  0  0  0  0  0  0  0  0  0
   -5.0684   -2.1136    2.4419 H   0  0  0  0  0  0  0  0  0  0  0  0
   -4.0546   -0.7298    2.9011 H   0  0  0  0  0  0  0  0  0  0  0  0
   -0.1758   -1.5159   -0.1772 H   0  0  0  0  0  0  0  0  0  0  0  0
   -5.5293   -2.3727    0.1272 H   0  0  0  0  0  0  0  0  0  0  0  0
    1.5191   -3.0864   -0.6129 H   0  0  0  0  0  0  0  0  0  0  0  0
    3.8920   -3.9449   -0.8853 H   0  0  0  0  0  0  0  0  0  0  0  0
   -4.7866    2.4591   -1.6691 H   0  0  0  0  0  0  0  0  0  0  0  0
    3.1973    3.5067   -1.4550 H   0  0  0  0  0  0  0  0  0  0  0  0
    3.1130    4.9153   -0.3743 H   0  0  0  0  0  0  0  0  0  0  0  0
    1.7621    3.7631   -0.4265 H   0  0  0  0  0  0  0  0  0  0  0  0
  1 21  1  0  0  0  0
  1 22  1  0  0  0  0
  2 13  1  0  0  0  0
  2 30  1  0  0  0  0
  3 15  1  0  0  0  0
  3 33  1  0  0  0  0
  4 15  2  0  0  0  0
  5 16  2  0  0  0  0
  6 12  1  0  0  0  0
  6 16  1  0  0  0  0
  6 25  1  0  0  0  0
  7 16  1  0  0  0  0
  7 18  1  0  0  0  0
  7 29  1  0  0  0  0
  8 17  1  0  0  0  0
  8 20  1  0  0  0  0
  8 31  1  0  0  0  0
  9 18  2  0  0  0  0
  9 21  1  0  0  0  0
 10 19  1  0  0  0  0
 10 20  2  0  0  0  0
 11 19  1  0  0  0  0
 11 21  2  0  0  0  0
 12 13  1  0  0  0  0
 12 15  1  0  0  0  0
 12 23  1  0  0  0  0
 13 14  1  0  0  0  0
 13 24  1  0  0  0  0
 14 26  1  0  0  0  0
 14 27  1  0  0  0  0
 14 28  1  0  0  0  0
 17 18  1  0  0  0  0
 17 19  2  0  0  0  0
 20 32  1  0  0  0  0
 22 34  1  0  0  0  0
 22 35  1  0  0  0  0
 22 36  1  0  0  0  0
M  END
> <PUBCHEM_COMPOUND_CID>
125551

> <PUBCHEM_CONFORMER_RMSD>
0.8

> <PUBCHEM_CONFORMER_DIVERSEORDER>
1
17
82
38
53
41
21
75
2
70
16
61
54
92
37
29
19
90
89
33
27
60
22
72
35
57
62
46
79
42
50
64
86
49
69
78
44
23
87
58
48
34
15
8
59
56
5
18
88
26
71
32
7
83
65
85
63
14
47
28
76
6
84
45
25
4
93
31
91
12
55
67
77
30
9
74
51
39
3
36
40
68
24
81
52
73
10
11
80
43
20
66
13

> <PUBCHEM_MMFF94_PARTIAL_CHARGES>
27
1 -0.33
10 -0.57
11 -0.57
12 0.36
13 0.28
15 0.66
16 0.69
17 -0.15
18 0.43
19 0.48
2 -0.68
20 0.04
21 0.72
22 0.23
25 0.37
29 0.37
3 -0.65
30 0.4
31 0.27
32 0.15
33 0.5
4 -0.57
5 -0.57
6 -0.73
7 -0.55
8 0.03
9 -0.62

> <PUBCHEM_EFFECTIVE_ROTOR_COUNT>
7

> <PUBCHEM_PHARMACOPHORE_FEATURES>
14
1 2 acceptor
1 2 donor
1 22 hydrophobe
1 3 acceptor
1 4 acceptor
1 5 acceptor
1 6 donor
1 7 donor
1 8 donor
3 3 4 15 anion
3 8 10 20 cation
3 9 11 21 cation
5 8 10 17 19 20 rings
6 9 11 17 18 19 21 rings

> <PUBCHEM_HEAVY_ATOM_COUNT>
22

> <PUBCHEM_ATOM_DEF_STEREO_COUNT>
2

> <PUBCHEM_ATOM_UDEF_STEREO_COUNT>
0

> <PUBCHEM_BOND_DEF_STEREO_COUNT>
0

> <PUBCHEM_BOND_UDEF_STEREO_COUNT>
0

> <PUBCHEM_ISOTOPIC_ATOM_COUNT>
0

> <PUBCHEM_COMPONENT_COUNT>
1

> <PUBCHEM_CACTVS_TAUTO_COUNT>
20

> <PUBCHEM_CONFORMER_ID>
0001EA6F00000001

> <PUBCHEM_MMFF94_ENERGY>
37.2472

> <PUBCHEM_FEATURE_SELFOVERLAP>
71.289

> <PUBCHEM_SHAPE_FINGERPRINT>
11370993 144 18338809939987082475
11405975 8 18336265644031153497
11552529 35 17631172081702591335
11796584 16 17387130871633620298
12403259 415 18260269654987182873
12616971 3 17561367279229905747
12730499 353 18267033919567668504
13009979 54 17416420766317347914
13583140 156 18408603630587757727
13675066 3 18261112993327460259
13955234 65 18342742957440882266
14251757 17 18334014982172870331
15961568 22 17096651091906521100
17844677 252 18413395323788974801
18186145 218 17968093084448374641
18785283 64 18336827602169005880
200 152 17917140598741127919
20645477 70 18412824677159310994
20681677 76 18408602556697948009
20693207 138 18188224142682098771
21065198 57 18410856534249839441
21065201 7 17385723586574465179
21709351 56 18411412934320092990
221490 88 18410860936448873672
22393880 68 18114175294579262595
22943178 12 18260830405943651075
23557571 272 17821727247763264277
23559900 14 18411132498519739456
23598288 3 17346045454829122841
312423 11 17916883351664560264
4015057 19 18341597210606761029
5104073 3 18409450262988265857
5281201 14 18335422365445917205
633830 44 18336254666062985613
7495541 125 18334583434274997674
90127 26 18334013891388151401
9709674 26 18335423486622356995

> <PUBCHEM_SHAPE_MULTIPOLES>
403.24
11.68
3.46
1.21
9.12
1.46
-0.04
-1.22
-0.08
-5.28
0.44
1.73
0.02
2.21

> <PUBCHEM_SHAPE_SELFOVERLAP>
834.967

> <PUBCHEM_SHAPE_VOLUME>
233

> <PUBCHEM_COORDINATE_TYPE>
2
5
10

$$$$
