REMARK  Name = 125582
REMARK  4 active torsions:
REMARK  status: ('A' for Active; 'I' for Inactive)
REMARK    1  A    between atoms: N_2  and  N_9
REMARK    2  A    between atoms: C_3  and  C_13
REMARK    3  A    between atoms: C_13  and  O_14
REMARK    4  A    between atoms: O_14  and  N_17
REMARK                            x       y       z     vdW  Elec       q    Type
REMARK                         _______ _______ _______ _____ _____    ______ ____
ROOT
ATOM      1  N   UNL     1      -2.832   0.097  -1.367  0.00  0.00    -0.228 NA
ATOM      2  N   UNL     1      -5.108   0.002  -0.670  0.00  0.00    -0.267 N 
ATOM      3  C   UNL     1      -1.107  -0.051   0.279  0.00  0.00    +0.097 C 
ATOM      4  C   UNL     1      -2.024  -0.163   1.296  0.00  0.00    +0.011 C 
ATOM      5  C   UNL     1      -1.526   0.075  -1.018  0.00  0.00    +0.107 C 
ATOM      6  C   UNL     1      -3.377  -0.145   0.975  0.00  0.00    +0.036 C 
ATOM      7  C   UNL     1      -3.726  -0.015  -0.359  0.00  0.00    +0.141 C 
ATOM      8  H   UNL     1      -5.392  -0.114  -1.605  0.00  0.00    +0.167 HD
ENDROOT
BRANCH   2   9
ATOM      9  N   UNL     1      -6.060   0.176   0.303  0.00  0.00    -0.255 NA
ATOM     10  H   UNL     1      -5.604   0.281   1.210  0.00  0.00    +0.140 HD
ATOM     11  H   UNL     1      -6.677  -0.636   0.324  0.00  0.00    +0.140 HD
ENDBRANCH   2   9
BRANCH   3  13
ATOM     12  O   UNL     1       0.786  -0.178   1.723  0.00  0.00    -0.243 OA
ATOM     13  C   UNL     1       0.345  -0.068   0.589  0.00  0.00    +0.365 C 
BRANCH  13  14
ATOM     14  O   UNL     1       1.103   0.049  -0.547  0.00  0.00    -0.332 OA
BRANCH  14  17
ATOM     15  O   UNL     1       2.779  -2.259  -0.484  0.00  0.00    -0.267 OA
ATOM     16  O   UNL     1       2.765   2.340  -0.183  0.00  0.00    -0.267 OA
ATOM     17  N   UNL     1       2.462   0.037  -0.302  0.00  0.00    -0.054 N 
ATOM     18  C   UNL     1       4.593  -0.745   0.043  0.00  0.00    +0.066 C 
ATOM     19  C   UNL     1       4.588   0.781   0.143  0.00  0.00    +0.066 C 
ATOM     20  C   UNL     1       3.173  -1.120  -0.287  0.00  0.00    +0.287 C 
ATOM     21  C   UNL     1       3.166   1.188  -0.136  0.00  0.00    +0.287 C 
ENDBRANCH  14  17
ENDBRANCH  13  14
ENDBRANCH   3  13
TORSDOF 4
