125597
  -OEChem-03292013323D

 60 62  0     1  0  0  0  0  0999 V2000
    1.9965   -0.8271    0.7390 O   0  0  0  0  0  0  0  0  0  0  0  0
    5.3198    0.5024    0.9538 O   0  0  0  0  0  0  0  0  0  0  0  0
   -0.5899    0.4768   -1.9503 O   0  0  0  0  0  0  0  0  0  0  0  0
    4.4765   -1.3832   -0.0902 N   0  0  0  0  0  0  0  0  0  0  0  0
    1.8530    0.9400   -0.7704 N   0  0  0  0  0  0  0  0  0  0  0  0
   -1.5813    0.8321    0.1464 N   0  0  0  0  0  0  0  0  0  0  0  0
    7.0570   -0.7040    2.3893 N   0  0  0  0  0  0  0  0  0  0  0  0
    3.6026   -0.6812   -1.0211 C   0  0  1  0  0  0  0  0  0  0  0  0
    3.2232   -1.7290   -2.0611 C   0  0  0  0  0  0  0  0  0  0  0  0
    3.2856   -3.0407   -1.2825 C   0  0  0  0  0  0  0  0  0  0  0  0
    4.4482   -2.8244   -0.3257 C   0  0  0  0  0  0  0  0  0  0  0  0
    2.4106   -0.2139   -0.2413 C   0  0  0  0  0  0  0  0  0  0  0  0
    0.6852    1.5794   -0.2185 C   0  0  1  0  0  0  0  0  0  0  0  0
    0.6665    3.1077   -0.4553 C   0  0  1  0  0  0  0  0  0  0  0  0
    5.3248   -0.7175    0.7809 C   0  0  0  0  0  0  0  0  0  0  0  0
    1.8939    3.8300    0.1423 C   0  0  0  0  0  0  0  0  0  0  0  0
    0.5548    3.4635   -1.9458 C   0  0  0  0  0  0  0  0  0  0  0  0
   -0.5548    0.8853   -0.7929 C   0  0  0  0  0  0  0  0  0  0  0  0
    6.2855   -1.5915    1.5469 C   0  0  0  0  0  0  0  0  0  0  0  0
    2.1102    3.5535    1.6232 C   0  0  0  0  0  0  0  0  0  0  0  0
   -2.8705    0.2715   -0.0139 C   0  0  0  0  0  0  0  0  0  0  0  0
   -3.7820    0.3050    1.0418 C   0  0  0  0  0  0  0  0  0  0  0  0
   -3.2283   -0.3140   -1.2246 C   0  0  0  0  0  0  0  0  0  0  0  0
   -5.0650   -0.2483    0.8989 C   0  0  0  0  0  0  0  0  0  0  0  0
   -5.4288   -0.8435   -0.3324 C   0  0  0  0  0  0  0  0  0  0  0  0
   -4.4987   -0.8682   -1.3845 C   0  0  0  0  0  0  0  0  0  0  0  0
   -5.9951   -0.2231    1.9509 C   0  0  0  0  0  0  0  0  0  0  0  0
   -6.7117   -1.3967   -0.4753 C   0  0  0  0  0  0  0  0  0  0  0  0
   -7.2652   -0.7776    1.7914 C   0  0  0  0  0  0  0  0  0  0  0  0
   -7.6228   -1.3634    0.5808 C   0  0  0  0  0  0  0  0  0  0  0  0
    4.1351    0.1699   -1.4595 H   0  0  0  0  0  0  0  0  0  0  0  0
    2.2416   -1.5645   -2.5159 H   0  0  0  0  0  0  0  0  0  0  0  0
    3.9741   -1.7472   -2.8605 H   0  0  0  0  0  0  0  0  0  0  0  0
    3.4297   -3.9117   -1.9277 H   0  0  0  0  0  0  0  0  0  0  0  0
    2.3556   -3.1866   -0.7204 H   0  0  0  0  0  0  0  0  0  0  0  0
    5.3998   -3.1105   -0.7865 H   0  0  0  0  0  0  0  0  0  0  0  0
    4.3275   -3.3702    0.6140 H   0  0  0  0  0  0  0  0  0  0  0  0
    0.6965    1.3851    0.8610 H   0  0  0  0  0  0  0  0  0  0  0  0
   -0.2300    3.5101    0.0364 H   0  0  0  0  0  0  0  0  0  0  0  0
    2.2380    1.3092   -1.6342 H   0  0  0  0  0  0  0  0  0  0  0  0
    2.8030    3.5553   -0.4064 H   0  0  0  0  0  0  0  0  0  0  0  0
    1.7663    4.9117    0.0093 H   0  0  0  0  0  0  0  0  0  0  0  0
    1.4038    3.0887   -2.5252 H   0  0  0  0  0  0  0  0  0  0  0  0
   -0.3654    3.0690   -2.3865 H   0  0  0  0  0  0  0  0  0  0  0  0
    0.5254    4.5515   -2.0748 H   0  0  0  0  0  0  0  0  0  0  0  0
    6.9392   -2.1326    0.8571 H   0  0  0  0  0  0  0  0  0  0  0  0
    5.7284   -2.3000    2.1657 H   0  0  0  0  0  0  0  0  0  0  0  0
    1.1979    3.7436    2.1972 H   0  0  0  0  0  0  0  0  0  0  0  0
    2.8974    4.2070    2.0134 H   0  0  0  0  0  0  0  0  0  0  0  0
    2.4277    2.5219    1.8004 H   0  0  0  0  0  0  0  0  0  0  0  0
   -1.4053    1.2413    1.0613 H   0  0  0  0  0  0  0  0  0  0  0  0
    7.6237   -0.0826    1.8128 H   0  0  0  0  0  0  0  0  0  0  0  0
    7.7160   -1.2494    2.9436 H   0  0  0  0  0  0  0  0  0  0  0  0
   -3.4937    0.7651    1.9858 H   0  0  0  0  0  0  0  0  0  0  0  0
   -2.5790   -0.3808   -2.0860 H   0  0  0  0  0  0  0  0  0  0  0  0
   -4.7578   -1.3215   -2.3392 H   0  0  0  0  0  0  0  0  0  0  0  0
   -5.7373    0.2295    2.9062 H   0  0  0  0  0  0  0  0  0  0  0  0
   -7.0130   -1.8596   -1.4127 H   0  0  0  0  0  0  0  0  0  0  0  0
   -7.9752   -0.7518    2.6130 H   0  0  0  0  0  0  0  0  0  0  0  0
   -8.6119   -1.7949    0.4574 H   0  0  0  0  0  0  0  0  0  0  0  0
  1 12  2  0  0  0  0
  2 15  2  0  0  0  0
  3 18  2  0  0  0  0
  4  8  1  0  0  0  0
  4 11  1  0  0  0  0
  4 15  1  0  0  0  0
  5 12  1  0  0  0  0
  5 13  1  0  0  0  0
  5 40  1  0  0  0  0
  6 18  1  0  0  0  0
  6 21  1  0  0  0  0
  6 51  1  0  0  0  0
  7 19  1  0  0  0  0
  7 52  1  0  0  0  0
  7 53  1  0  0  0  0
  8  9  1  0  0  0  0
  8 12  1  0  0  0  0
  8 31  1  0  0  0  0
  9 10  1  0  0  0  0
  9 32  1  0  0  0  0
  9 33  1  0  0  0  0
 10 11  1  0  0  0  0
 10 34  1  0  0  0  0
 10 35  1  0  0  0  0
 11 36  1  0  0  0  0
 11 37  1  0  0  0  0
 13 14  1  0  0  0  0
 13 18  1  0  0  0  0
 13 38  1  0  0  0  0
 14 16  1  0  0  0  0
 14 17  1  0  0  0  0
 14 39  1  0  0  0  0
 15 19  1  0  0  0  0
 16 20  1  0  0  0  0
 16 41  1  0  0  0  0
 16 42  1  0  0  0  0
 17 43  1  0  0  0  0
 17 44  1  0  0  0  0
 17 45  1  0  0  0  0
 19 46  1  0  0  0  0
 19 47  1  0  0  0  0
 20 48  1  0  0  0  0
 20 49  1  0  0  0  0
 20 50  1  0  0  0  0
 21 22  2  0  0  0  0
 21 23  1  0  0  0  0
 22 24  1  0  0  0  0
 22 54  1  0  0  0  0
 23 26  2  0  0  0  0
 23 55  1  0  0  0  0
 24 25  1  0  0  0  0
 24 27  2  0  0  0  0
 25 26  1  0  0  0  0
 25 28  2  0  0  0  0
 26 56  1  0  0  0  0
 27 29  1  0  0  0  0
 27 57  1  0  0  0  0
 28 30  1  0  0  0  0
 28 58  1  0  0  0  0
 29 30  2  0  0  0  0
 29 59  1  0  0  0  0
 30 60  1  0  0  0  0
M  END
> <PUBCHEM_COMPOUND_CID>
125597

> <PUBCHEM_CONFORMER_RMSD>
1

> <PUBCHEM_CONFORMER_DIVERSEORDER>
1
98
113
46
176
101
62
25
23
149
68
53
145
50
81
110
13
74
177
78
168
192
47
97
37
80
30
87
142
54
121
99
104
164
55
7
140
102
64
60
190
131
51
18
27
76
189
106
119
89
160
77
156
169
158
112
170
126
167
100
179
26
107
146
49
129
111
71
105
42
161
70
103
9
133
86
159
114
73
125
8
63
185
17
20
38
69
34
48
153
29
91
150
173
75
122
175
118
155
72
186
3
182
6
92
57
144
88
52
4
39
138
61
180
174
2
120
84
178
56
24
21
127
83
134
66
82
152
188
157
96
117
163
165
58
123
32
181
130
183
115
94
141
124
139
22
136
36
171
148
10
93
41
65
67
116
147
40
35
31
12
5
128
45
166
162
79
43
16
85
184
11
132
15
187
19
154
151
44
109
137
90
28
172
59
143
33
135
14
95
108
191

> <PUBCHEM_MMFF94_PARTIAL_CHARGES>
33
1 -0.57
11 0.3
12 0.57
13 0.36
15 0.57
18 0.57
19 0.33
2 -0.57
21 0.12
22 -0.15
23 -0.15
26 -0.15
27 -0.15
28 -0.15
29 -0.15
3 -0.57
30 -0.15
4 -0.66
40 0.37
5 -0.73
51 0.37
52 0.36
53 0.36
54 0.15
55 0.15
56 0.15
57 0.15
58 0.15
59 0.15
6 -0.55
60 0.15
7 -0.99
8 0.36

> <PUBCHEM_EFFECTIVE_ROTOR_COUNT>
11

> <PUBCHEM_PHARMACOPHORE_FEATURES>
12
1 1 acceptor
1 17 hydrophobe
1 2 acceptor
1 20 hydrophobe
1 3 acceptor
1 5 donor
1 6 donor
1 7 cation
1 7 donor
5 4 8 9 10 11 rings
6 21 22 23 24 25 26 rings
6 24 25 27 28 29 30 rings

> <PUBCHEM_HEAVY_ATOM_COUNT>
30

> <PUBCHEM_ATOM_DEF_STEREO_COUNT>
2

> <PUBCHEM_ATOM_UDEF_STEREO_COUNT>
1

> <PUBCHEM_BOND_DEF_STEREO_COUNT>
0

> <PUBCHEM_BOND_UDEF_STEREO_COUNT>
0

> <PUBCHEM_ISOTOPIC_ATOM_COUNT>
0

> <PUBCHEM_COMPONENT_COUNT>
1

> <PUBCHEM_CACTVS_TAUTO_COUNT>
4

> <PUBCHEM_CONFORMER_ID>
0001EA9D00000001

> <PUBCHEM_MMFF94_ENERGY>
79.2295

> <PUBCHEM_FEATURE_SELFOVERLAP>
60.922

> <PUBCHEM_SHAPE_FINGERPRINT>
10 15 15410895163432638123
10693767 8 13046205157960591424
11505856 67 12316875008816455664
11646440 116 18407760322375470506
11828532 37 17749394818325253242
12107183 9 18128836148855062073
12218070 45 17559653179358117438
12516196 113 18410294692123725839
12596602 18 16702303429685025059
12616971 3 18059864999972723861
12623949 98 17773890700905842278
12661589 4 16371294470974683105
12758862 65 18335138709253555626
13533116 47 18340216288447395437
13673619 4 17749112188597892629
13685833 64 18260269655182478579
13782708 43 17458354078290450763
14528608 73 10881685745413453759
14739800 52 16987998452624944913
14849402 71 18128253583079657392
14910700 183 18340760520886472610
15183329 4 13045940183646623666
15250474 111 17773873280755736583
15510800 12 17968386658164186746
17980427 23 15410601602006831185
1813 80 18339654351457507621
1979834 28 17988929950971364958
2026 5 17095516271574222315
20642791 268 17274814775176571092
20721686 146 14405187270151619712
21033648 29 13973703732468568441
21344244 78 17988928876855371577
21521239 73 13767927910283656344
2260408 40 17489872622234130398
23559900 14 16588879009239542613
3380486 145 17986084376250719300
3383291 50 18186805785931654739
4112364 45 16414907668837023208
439807 62 16660365870521808707
46194498 28 17240771730437494821
5104073 3 17844811386624037290
59682541 52 12540693704600372578
6823239 73 16443350935531410245
86090 222 18041010526665990595
9689198 14 14692281894327021642
9962374 69 18339355392365578631

> <PUBCHEM_SHAPE_MULTIPOLES>
579.85
18.96
3.65
1.98
18.22
3.7
-0.23
-15.24
-11.04
-5.49
0.77
-0.8
-0.01
0.34

> <PUBCHEM_SHAPE_SELFOVERLAP>
1224.288

> <PUBCHEM_SHAPE_VOLUME>
325.1

> <PUBCHEM_COORDINATE_TYPE>
2
5
10

$$$$
