REMARK  Name = 125567
REMARK  14 active torsions:
REMARK  status: ('A' for Active; 'I' for Inactive)
REMARK    1  A    between atoms: N_1  and  C_2
REMARK    2  A    between atoms: N_1  and  C_10
REMARK    3  A    between atoms: N_1  and  C_19
REMARK    4  A    between atoms: C_5  and  O_8
REMARK    5  A    between atoms: C_10  and  C_12
REMARK    6  A    between atoms: C_12  and  O_13
REMARK    7  A    between atoms: O_13  and  C_14
REMARK    8  A    between atoms: C_14  and  O_15
REMARK    9  A    between atoms: O_15  and  C_17
REMARK   10  A    between atoms: C_19  and  C_21
REMARK   11  A    between atoms: C_21  and  O_22
REMARK   12  A    between atoms: O_22  and  C_23
REMARK   13  A    between atoms: C_23  and  O_24
REMARK   14  A    between atoms: O_24  and  C_26
REMARK                            x       y       z     vdW  Elec       q    Type
REMARK                         _______ _______ _______ _____ _____    ______ ____
ROOT
ATOM      1  N   UNL     1       0.204   1.484   0.149  0.00  0.00    -0.289 N 
ENDROOT
BRANCH   1   2
ATOM      2  C   UNL     1       0.112   0.108  -0.106  0.00  0.00    +0.052 C 
ATOM      3  C   UNL     1      -0.674  -0.702   0.714  0.00  0.00    +0.051 C 
ATOM      4  C   UNL     1       0.805  -0.451  -1.180  0.00  0.00    +0.015 C 
ATOM      5  C   UNL     1      -0.766  -2.071   0.460  0.00  0.00    +0.140 C 
ATOM      6  C   UNL     1       0.712  -1.819  -1.434  0.00  0.00    +0.004 C 
ATOM      7  C   UNL     1      -0.073  -2.629  -0.614  0.00  0.00    +0.037 C 
BRANCH   5   8
ATOM      8  O   UNL     1      -1.533  -2.861   1.260  0.00  0.00    -0.471 OA
ATOM      9  C   UNL     1      -1.582  -4.252   0.943  0.00  0.00    +0.252 C 
ENDBRANCH   5   8
ENDBRANCH   1   2
BRANCH   1  10
ATOM     10  C   UNL     1      -0.926   2.192   0.755  0.00  0.00    +0.202 C 
BRANCH  10  12
ATOM     11  O   UNL     1      -2.115   1.957  -1.350  0.00  0.00    -0.248 OA
ATOM     12  C   UNL     1      -2.138   2.066  -0.132  0.00  0.00    +0.340 C 
BRANCH  12  13
ATOM     13  O   UNL     1      -3.258   2.092   0.649  0.00  0.00    -0.407 OA
BRANCH  13  14
ATOM     14  C   UNL     1      -4.515   1.980  -0.037  0.00  0.00    +0.433 C 
BRANCH  14  15
ATOM     15  O   UNL     1      -4.634   0.783  -0.823  0.00  0.00    -0.408 OA
BRANCH  15  17
ATOM     16  O   UNL     1      -4.405  -0.528   1.067  0.00  0.00    -0.250 OA
ATOM     17  C   UNL     1      -4.561  -0.395  -0.140  0.00  0.00    +0.320 C 
ATOM     18  C   UNL     1      -4.696  -1.538  -1.099  0.00  0.00    +0.121 C 
ENDBRANCH  15  17
ENDBRANCH  14  15
ENDBRANCH  13  14
ENDBRANCH  12  13
ENDBRANCH  10  12
ENDBRANCH   1  10
BRANCH   1  19
ATOM     19  C   UNL     1       1.390   2.233  -0.183  0.00  0.00    +0.202 C 
BRANCH  19  21
ATOM     20  O   UNL     1       2.528   1.121   1.651  0.00  0.00    -0.248 OA
ATOM     21  C   UNL     1       2.574   1.668   0.558  0.00  0.00    +0.340 C 
BRANCH  21  22
ATOM     22  O   UNL     1       3.697   1.865  -0.194  0.00  0.00    -0.407 OA
BRANCH  22  23
ATOM     23  C   UNL     1       4.930   1.380   0.365  0.00  0.00    +0.433 C 
BRANCH  23  24
ATOM     24  O   UNL     1       4.913  -0.028   0.652  0.00  0.00    -0.408 OA
BRANCH  24  26
ATOM     25  O   UNL     1       4.564  -0.520  -1.578  0.00  0.00    -0.250 OA
ATOM     26  C   UNL     1       4.721  -0.857  -0.412  0.00  0.00    +0.320 C 
ATOM     27  C   UNL     1       4.726  -2.281   0.056  0.00  0.00    +0.121 C 
ENDBRANCH  24  26
ENDBRANCH  23  24
ENDBRANCH  22  23
ENDBRANCH  21  22
ENDBRANCH  19  21
ENDBRANCH   1  19
TORSDOF 14
