REMARK  Name = 125544
REMARK  5 active torsions:
REMARK  status: ('A' for Active; 'I' for Inactive)
REMARK    1  A    between atoms: N_1  and  C1*_15
REMARK    2  A    between atoms: C_12  and  O_24
REMARK    3  A    between atoms: C3*_17  and  O3*_19
REMARK    4  A    between atoms: C4*_18  and  C5*_21
REMARK    5  A    between atoms: C5*_21  and  O5*_22
REMARK                            x       y       z     vdW  Elec       q    Type
REMARK                         _______ _______ _______ _____ _____    ______ ____
ROOT
ATOM      1  N   UNL     1      -0.927   0.106  -0.072  0.00  0.00    -0.249 N 
ATOM      2  N   UNL     1       2.874  -1.009  -0.118  0.00  0.00    -0.271 N 
ATOM      3  N   UNL     1       0.523   1.753   0.359  0.00  0.00    -0.242 NA
ATOM      4  N   UNL     1       0.583  -1.756  -0.420  0.00  0.00    -0.232 NA
ATOM      5  N   UNL     1       3.407   1.332   0.368  0.00  0.00    -0.228 NA
ATOM      6  C   UNL     1       0.314  -0.455  -0.140  0.00  0.00    +0.152 C 
ATOM      7  C   UNL     1       1.187   0.581   0.131  0.00  0.00    +0.140 C 
ATOM      8  C   UNL     1       2.613   0.346   0.139  0.00  0.00    +0.151 C 
ATOM      9  C   UNL     1      -0.750   1.433   0.231  0.00  0.00    +0.223 C 
ATOM     10  C   UNL     1       4.278  -1.427  -0.119  0.00  0.00    +0.099 C 
ATOM     11  C   UNL     1       5.090  -0.458   0.742  0.00  0.00    +0.077 C 
ATOM     12  C   UNL     1       4.842   0.991   0.299  0.00  0.00    +0.219 C 
ATOM     13  C   UNL     1       1.873  -1.955  -0.392  0.00  0.00    +0.222 C 
ENDROOT
BRANCH   1  15
ATOM     14  O4* UNL     1      -3.144   0.350  -0.882  0.00  0.00    -0.335 OA
ATOM     15  C1* UNL     1      -2.208  -0.560  -0.278  0.00  0.00    +0.197 C 
ATOM     16  C2* UNL     1      -2.859  -1.075   0.998  0.00  0.00    +0.083 C 
ATOM     17  C3* UNL     1      -4.320  -1.088   0.611  0.00  0.00    +0.144 C 
ATOM     18  C4* UNL     1      -4.448   0.124  -0.307  0.00  0.00    +0.173 C 
BRANCH  17  19
ATOM     19  O3* UNL     1      -4.579  -2.278  -0.131  0.00  0.00    -0.382 OA
ATOM     20  H3* UNL     1      -4.497  -3.047   0.454  0.00  0.00    +0.210 HD
ENDBRANCH  17  19
BRANCH  18  21
ATOM     21  C5* UNL     1      -4.860   1.385   0.441  0.00  0.00    +0.169 C 
BRANCH  21  22
ATOM     22  O5* UNL     1      -4.942   2.454  -0.485  0.00  0.00    -0.379 OA
ATOM     23  H5* UNL     1      -5.204   3.265  -0.021  0.00  0.00    +0.211 HD
ENDBRANCH  21  22
ENDBRANCH  18  21
ENDBRANCH   1  15
BRANCH  12  24
ATOM     24  O   UNL     1       5.456   1.203  -0.975  0.00  0.00    -0.364 OA
ATOM     25  H   UNL     1       5.303   2.118  -1.260  0.00  0.00    +0.212 HD
ENDBRANCH  12  24
TORSDOF 5
