REMARK  Name = 125612
REMARK  10 active torsions:
REMARK  status: ('A' for Active; 'I' for Inactive)
REMARK    1  A    between atoms: C_1  and  N_3
REMARK    2  A    between atoms: C_1  and  C_9
REMARK    3  A    between atoms: C_1  and  C_21
REMARK    4  A    between atoms: C_4  and  C_8
REMARK    5  A    between atoms: C_9  and  C_10
REMARK    6  A    between atoms: C_9  and  O_19
REMARK    7  A    between atoms: C_15  and  N_18
REMARK    8  A    between atoms: C_21  and  O_22
REMARK    9  A    between atoms: O_22  and  C_24
REMARK   10  A    between atoms: C_24  and  C_26
REMARK                            x       y       z     vdW  Elec       q    Type
REMARK                         _______ _______ _______ _____ _____    ______ ____
ROOT
ATOM      1  C   UNL     1      -1.062   0.667  -0.066  0.00  0.00    +0.147 C 
ENDROOT
BRANCH   1   3
ATOM      2  O   UNL     1      -3.234   1.742  -1.598  0.00  0.00    -0.272 OA
ATOM      3  N   UNL     1      -2.411   0.915   0.405  0.00  0.00    -0.298 N 
ATOM      4  C   UNL     1      -3.392   1.439  -0.417  0.00  0.00    +0.253 C 
ATOM      5  H   UNL     1      -2.636   0.703   1.340  0.00  0.00    +0.150 HD
BRANCH   4   8
ATOM      6 CL   UNL     1      -5.150   3.321   0.254  0.00  0.00    -0.087 Cl
ATOM      7 CL   UNL     1      -5.920   0.618  -0.544  0.00  0.00    -0.087 Cl
ATOM      8  C   UNL     1      -4.713   1.605   0.297  0.00  0.00    +0.234 C 
ENDBRANCH   4   8
ENDBRANCH   1   3
BRANCH   1   9
ATOM      9  C   UNL     1      -0.063   0.871   1.094  0.00  0.00    +0.154 C 
BRANCH   9  10
ATOM     10  C   UNL     1       1.387   0.764   0.680  0.00  0.00    +0.006 C 
ATOM     11  C   UNL     1       2.228  -0.150   1.315  0.00  0.00    -0.000 C 
ATOM     12  C   UNL     1       1.884   1.577  -0.339  0.00  0.00    -0.000 C 
ATOM     13  C   UNL     1       3.566  -0.250   0.932  0.00  0.00    +0.024 C 
ATOM     14  C   UNL     1       3.222   1.477  -0.721  0.00  0.00    +0.024 C 
ATOM     15  C   UNL     1       4.063   0.564  -0.086  0.00  0.00    +0.143 C 
BRANCH  15  18
ATOM     16  O   UNL     1       6.163  -0.369   0.107  0.00  0.00    -0.126 OA
ATOM     17  O   UNL     1       5.851   1.202  -1.395  0.00  0.00    -0.126 OA
ATOM     18  N   UNL     1       5.424   0.461  -0.477  0.00  0.00    +0.058 N 
ENDBRANCH  15  18
ENDBRANCH   9  10
BRANCH   9  19
ATOM     19  O   UNL     1      -0.244   2.177   1.652  0.00  0.00    -0.378 OA
ATOM     20  H   UNL     1      -1.167   2.284   1.931  0.00  0.00    +0.211 HD
ENDBRANCH   9  19
ENDBRANCH   1   9
BRANCH   1  21
ATOM     21  C   UNL     1      -0.996  -0.722  -0.713  0.00  0.00    +0.231 C 
BRANCH  21  22
ATOM     22  O   UNL     1      -1.269  -1.752   0.228  0.00  0.00    -0.446 OA
BRANCH  22  24
ATOM     23  O   UNL     1      -0.989  -3.339  -1.418  0.00  0.00    -0.249 OA
ATOM     24  C   UNL     1      -1.233  -3.035  -0.260  0.00  0.00    +0.329 C 
BRANCH  24  26
ATOM     25 BR   UNL     1      -1.570  -5.801   0.201  0.00  0.00    -0.068 Br
ATOM     26  C   UNL     1      -1.542  -3.980   0.868  0.00  0.00    +0.177 C 
ENDBRANCH  24  26
ENDBRANCH  22  24
ENDBRANCH  21  22
ENDBRANCH   1  21
TORSDOF 10
