REMARK  Name = 125610
REMARK  7 active torsions:
REMARK  status: ('A' for Active; 'I' for Inactive)
REMARK    1  A    between atoms: C_1  and  N_5
REMARK    2  A    between atoms: C_1  and  C_20
REMARK    3  A    between atoms: N_6  and  C_12
REMARK    4  A    between atoms: C_12  and  N_14
REMARK    5  A    between atoms: C_20  and  N_23
REMARK    6  A    between atoms: N_24  and  C_30
REMARK    7  A    between atoms: C_30  and  N_32
REMARK                            x       y       z     vdW  Elec       q    Type
REMARK                         _______ _______ _______ _____ _____    ______ ____
ROOT
ATOM      1  C   UNL     1       0.311   0.897  -0.484  0.00  0.00    -0.078 C 
ATOM      2  C   UNL     1      -0.279   1.998   0.398  0.00  0.00    -0.025 C 
ENDROOT
BRANCH   1   5
ATOM      3  O   UNL     1       4.544   2.345  -1.948  0.00  0.00    -0.277 OA
ATOM      4  O   UNL     1       4.080   0.504   2.309  0.00  0.00    -0.277 OA
ATOM      5  N   UNL     1       1.765   0.899  -0.323  0.00  0.00    +0.399 N 
ATOM      6  N   UNL     1       4.384   1.345   0.156  0.00  0.00    -0.255 N 
ATOM      7  C   UNL     1       2.356   1.989  -1.094  0.00  0.00    +0.011 C 
ATOM      8  C   UNL     1       2.116   1.052   1.085  0.00  0.00    +0.011 C 
ATOM      9  C   UNL     1       3.862   1.895  -1.024  0.00  0.00    +0.208 C 
ATOM     10  C   UNL     1       3.611   0.915   1.245  0.00  0.00    +0.208 C 
ATOM     11  H   UNL     1       2.130   0.010  -0.665  0.00  0.00    -0.078 HD
BRANCH   6  12
ATOM     12  C   UNL     1       5.832   1.241   0.291  0.00  0.00    +0.028 C 
BRANCH  12  14
ATOM     13  O   UNL     1       7.869  -2.411  -0.066  0.00  0.00    -0.358 OA
ATOM     14  N   UNL     1       6.198  -0.165   0.449  0.00  0.00    +0.403 N 
ATOM     15  C   UNL     1       6.177  -0.858  -0.847  0.00  0.00    -0.042 C 
ATOM     16  C   UNL     1       7.525  -0.293   1.067  0.00  0.00    -0.042 C 
ATOM     17  C   UNL     1       6.573  -2.320  -0.658  0.00  0.00    +0.120 C 
ATOM     18  C   UNL     1       7.890  -1.768   1.209  0.00  0.00    +0.120 C 
ATOM     19  H   UNL     1       5.509  -0.600   1.063  0.00  0.00    -0.077 HD
ENDBRANCH  12  14
ENDBRANCH   6  12
ENDBRANCH   1   5
BRANCH   1  20
ATOM     20  C   UNL     1      -0.220  -0.502  -0.136  0.00  0.00    -0.097 C 
BRANCH  20  23
ATOM     21  O   UNL     1      -4.345  -2.220   1.346  0.00  0.00    -0.277 OA
ATOM     22  O   UNL     1      -4.027  -0.325  -2.900  0.00  0.00    -0.277 OA
ATOM     23  N   UNL     1      -1.673  -0.594  -0.285  0.00  0.00    +0.397 N 
ATOM     24  N   UNL     1      -4.263  -1.199  -0.749  0.00  0.00    -0.255 N 
ATOM     25  C   UNL     1      -2.186  -1.727   0.478  0.00  0.00    +0.011 C 
ATOM     26  C   UNL     1      -2.027  -0.753  -1.692  0.00  0.00    +0.011 C 
ATOM     27  C   UNL     1      -3.695  -1.724   0.422  0.00  0.00    +0.208 C 
ATOM     28  C   UNL     1      -3.530  -0.712  -1.840  0.00  0.00    +0.208 C 
ATOM     29  H   UNL     1      -2.091   0.266   0.070  0.00  0.00    -0.078 HD
BRANCH  24  30
ATOM     30  C   UNL     1      -5.719  -1.201  -0.835  0.00  0.00    +0.028 C 
BRANCH  30  32
ATOM     31  O   UNL     1      -8.100   1.571   1.227  0.00  0.00    -0.358 OA
ATOM     32  N   UNL     1      -6.263  -0.359   0.228  0.00  0.00    +0.403 N 
ATOM     33  C   UNL     1      -6.151   1.063  -0.125  0.00  0.00    -0.042 C 
ATOM     34  C   UNL     1      -7.665  -0.702   0.499  0.00  0.00    -0.042 C 
ATOM     35  C   UNL     1      -6.736   1.921   0.993  0.00  0.00    +0.120 C 
ATOM     36  C   UNL     1      -8.215   0.198   1.603  0.00  0.00    +0.120 C 
ATOM     37  H   UNL     1      -5.716  -0.529   1.072  0.00  0.00    -0.077 HD
ENDBRANCH  30  32
ENDBRANCH  24  30
ENDBRANCH  20  23
ENDBRANCH   1  20
TORSDOF 7
