REMARK  Name = 125654
REMARK  4 active torsions:
REMARK  status: ('A' for Active; 'I' for Inactive)
REMARK    1  A    between atoms: N1_2  and  C1*_14
REMARK    2  A    between atoms: C3*_13  and  O3*_16
REMARK    3  A    between atoms: C4*_15  and  C5*_18
REMARK    4  A    between atoms: C5*_18  and  O5*_19
REMARK                            x       y       z     vdW  Elec       q    Type
REMARK                         _______ _______ _______ _____ _____    ______ ____
ROOT
ATOM      1  O2  C   A   1       1.811   0.820   2.300  0.00  0.00    -0.193 OA
ATOM      2  N1  C   A   1       0.941  -0.297   0.479  0.00  0.00    -0.180 N 
ATOM      3  N3  C   A   1       3.291   0.183   0.702  0.00  0.00    -0.306 NA
ATOM      4  N4  C   A   1       4.803  -0.471  -0.940  0.00  0.00    -0.332 N 
ATOM      5  C6  C   A   1       1.199  -0.912  -0.735  0.00  0.00    +0.083 C 
ATOM      6  C2  C   A   1       2.009   0.265   1.218  0.00  0.00    +0.275 C 
ATOM      7  C5  C   A   1       2.424  -1.000  -1.248  0.00  0.00    +0.065 C 
ATOM      8  C4  C   A   1       3.521  -0.400  -0.445  0.00  0.00    +0.193 C 
ATOM      9  H41 C   A   1       5.550  -0.083  -0.429  0.00  0.00    +0.145 HD
ATOM     10  H42 C   A   1       4.973  -0.911  -1.804  0.00  0.00    +0.145 HD
ENDROOT
BRANCH   2  14
ATOM     11  O4* C   A   1      -1.111  -1.431   0.539  0.00  0.00    -0.334 OA
ATOM     12  C2* C   A   1      -1.225   0.930   0.442  0.00  0.00    +0.084 C 
ATOM     13  C3* C   A   1      -2.645   0.406   0.527  0.00  0.00    +0.144 C 
ATOM     14  C1* C   A   1      -0.412  -0.251   0.949  0.00  0.00    +0.209 C 
ATOM     15  C4* C   A   1      -2.504  -1.109   0.361  0.00  0.00    +0.173 C 
BRANCH  13  16
ATOM     16  O3* C   A   1      -3.179   0.700   1.818  0.00  0.00    -0.382 OA
ATOM     17  H3* C   A   1      -3.268   1.661   1.920  0.00  0.00    +0.210 HD
ENDBRANCH  13  16
BRANCH  15  18
ATOM     18  C5* C   A   1      -2.928  -1.604  -1.013  0.00  0.00    +0.169 C 
BRANCH  18  19
ATOM     19  O5* C   A   1      -2.749  -3.010  -1.068  0.00  0.00    -0.379 OA
ATOM     20  H5* C   A   1      -3.017  -3.336  -1.942  0.00  0.00    +0.211 HD
ENDBRANCH  18  19
ENDBRANCH  15  18
ENDBRANCH   2  14
TORSDOF 4
REMARK  Name = 125654
REMARK  4 active torsions:
REMARK  status: ('A' for Active; 'I' for Inactive)
REMARK    1  A    between atoms: N1_2  and  C1*_14
REMARK    2  A    between atoms: C3*_13  and  O3*_16
REMARK    3  A    between atoms: C4*_15  and  C5*_18
REMARK    4  A    between atoms: C5*_18  and  O5*_19
REMARK                            x       y       z     vdW  Elec       q    Type
REMARK                         _______ _______ _______ _____ _____    ______ ____
ROOT
ATOM      1  N   UNL     1      -1.087   2.427  -1.304  0.00  0.00    +0.000 NA
ATOM      2  N   UNL     1      -1.248   3.510  -1.626  0.00  0.00    +0.000 NA
ENDROOT
TORSDOF 0
