125610
  -OEChem-03292013323D

 67 70  0     1  0  0  0  0  0999 V2000
    7.8690   -2.4113   -0.0655 O   0  0  0  0  0  0  0  0  0  0  0  0
   -8.1002    1.5713    1.2273 O   0  0  0  0  0  0  0  0  0  0  0  0
    4.5439    2.3447   -1.9476 O   0  0  0  0  0  0  0  0  0  0  0  0
    4.0799    0.5036    2.3087 O   0  0  0  0  0  0  0  0  0  0  0  0
   -4.3449   -2.2198    1.3463 O   0  0  0  0  0  0  0  0  0  0  0  0
   -4.0270   -0.3245   -2.8996 O   0  0  0  0  0  0  0  0  0  0  0  0
    1.7653    0.8991   -0.3231 N   0  0  0  0  0  0  0  0  0  0  0  0
   -1.6735   -0.5940   -0.2849 N   0  0  0  0  0  0  0  0  0  0  0  0
    4.3843    1.3455    0.1558 N   0  0  0  0  0  0  0  0  0  0  0  0
   -4.2630   -1.1994   -0.7486 N   0  0  0  0  0  0  0  0  0  0  0  0
    6.1981   -0.1652    0.4490 N   0  0  0  0  0  0  0  0  0  0  0  0
   -6.2626   -0.3587    0.2277 N   0  0  0  0  0  0  0  0  0  0  0  0
    0.3106    0.8972   -0.4842 C   0  0  1  0  0  0  0  0  0  0  0  0
   -0.2203   -0.5016   -0.1364 C   0  0  0  0  0  0  0  0  0  0  0  0
    2.3559    1.9886   -1.0939 C   0  0  0  0  0  0  0  0  0  0  0  0
    2.1158    1.0518    1.0850 C   0  0  0  0  0  0  0  0  0  0  0  0
   -2.1864   -1.7272    0.4781 C   0  0  0  0  0  0  0  0  0  0  0  0
   -2.0269   -0.7529   -1.6918 C   0  0  0  0  0  0  0  0  0  0  0  0
   -0.2788    1.9981    0.3975 C   0  0  0  0  0  0  0  0  0  0  0  0
    5.8324    1.2410    0.2914 C   0  0  0  0  0  0  0  0  0  0  0  0
    3.8621    1.8945   -1.0241 C   0  0  0  0  0  0  0  0  0  0  0  0
    3.6112    0.9154    1.2449 C   0  0  0  0  0  0  0  0  0  0  0  0
   -5.7187   -1.2013   -0.8353 C   0  0  0  0  0  0  0  0  0  0  0  0
   -3.6954   -1.7244    0.4223 C   0  0  0  0  0  0  0  0  0  0  0  0
   -3.5298   -0.7124   -1.8401 C   0  0  0  0  0  0  0  0  0  0  0  0
    6.1770   -0.8581   -0.8467 C   0  0  0  0  0  0  0  0  0  0  0  0
    7.5252   -0.2931    1.0668 C   0  0  0  0  0  0  0  0  0  0  0  0
   -6.1514    1.0634   -0.1252 C   0  0  0  0  0  0  0  0  0  0  0  0
   -7.6653   -0.7020    0.4994 C   0  0  0  0  0  0  0  0  0  0  0  0
    6.5731   -2.3197   -0.6584 C   0  0  0  0  0  0  0  0  0  0  0  0
    7.8904   -1.7681    1.2094 C   0  0  0  0  0  0  0  0  0  0  0  0
   -6.7356    1.9214    0.9933 C   0  0  0  0  0  0  0  0  0  0  0  0
   -8.2147    0.1982    1.6025 C   0  0  0  0  0  0  0  0  0  0  0  0
    0.0674    1.1123   -1.5313 H   0  0  0  0  0  0  0  0  0  0  0  0
    0.2862   -1.2679   -0.7402 H   0  0  0  0  0  0  0  0  0  0  0  0
    0.0324   -0.7276    0.9063 H   0  0  0  0  0  0  0  0  0  0  0  0
    2.0831    1.8940   -2.1522 H   0  0  0  0  0  0  0  0  0  0  0  0
    2.0708    2.9887   -0.7500 H   0  0  0  0  0  0  0  0  0  0  0  0
    1.6739    0.2705    1.7115 H   0  0  0  0  0  0  0  0  0  0  0  0
    1.8771    2.0328    1.5141 H   0  0  0  0  0  0  0  0  0  0  0  0
   -1.8182   -2.6910    0.1064 H   0  0  0  0  0  0  0  0  0  0  0  0
   -1.9094   -1.6310    1.5351 H   0  0  0  0  0  0  0  0  0  0  0  0
   -1.6368    0.0725   -2.2961 H   0  0  0  0  0  0  0  0  0  0  0  0
   -1.6598   -1.6953   -2.1169 H   0  0  0  0  0  0  0  0  0  0  0  0
   -0.2930    1.7450    1.4638 H   0  0  0  0  0  0  0  0  0  0  0  0
    0.1881    2.9783    0.2632 H   0  0  0  0  0  0  0  0  0  0  0  0
   -1.3314    2.1449    0.1221 H   0  0  0  0  0  0  0  0  0  0  0  0
    6.3629    1.7190   -0.5401 H   0  0  0  0  0  0  0  0  0  0  0  0
    6.0881    1.8003    1.2010 H   0  0  0  0  0  0  0  0  0  0  0  0
   -6.0759   -0.9028   -1.8277 H   0  0  0  0  0  0  0  0  0  0  0  0
   -6.0254   -2.2444   -0.6824 H   0  0  0  0  0  0  0  0  0  0  0  0
    5.1763   -0.8253   -1.2916 H   0  0  0  0  0  0  0  0  0  0  0  0
    6.8758   -0.3809   -1.5463 H   0  0  0  0  0  0  0  0  0  0  0  0
    8.2801    0.2137    0.4517 H   0  0  0  0  0  0  0  0  0  0  0  0
    7.5302    0.1683    2.0609 H   0  0  0  0  0  0  0  0  0  0  0  0
   -5.1038    1.3498   -0.2699 H   0  0  0  0  0  0  0  0  0  0  0  0
   -6.6917    1.2685   -1.0587 H   0  0  0  0  0  0  0  0  0  0  0  0
   -8.2687   -0.5781   -0.4094 H   0  0  0  0  0  0  0  0  0  0  0  0
   -7.7476   -1.7458    0.8233 H   0  0  0  0  0  0  0  0  0  0  0  0
    6.6157   -2.8224   -1.6300 H   0  0  0  0  0  0  0  0  0  0  0  0
    5.8471   -2.8589   -0.0376 H   0  0  0  0  0  0  0  0  0  0  0  0
    7.2097   -2.2890    1.8937 H   0  0  0  0  0  0  0  0  0  0  0  0
    8.9033   -1.8639    1.6133 H   0  0  0  0  0  0  0  0  0  0  0  0
   -6.1653    1.8157    1.9242 H   0  0  0  0  0  0  0  0  0  0  0  0
   -6.7079    2.9774    0.7062 H   0  0  0  0  0  0  0  0  0  0  0  0
   -9.2762   -0.0152    1.7636 H   0  0  0  0  0  0  0  0  0  0  0  0
   -7.6952    0.0343    2.5545 H   0  0  0  0  0  0  0  0  0  0  0  0
  1 30  1  0  0  0  0
  1 31  1  0  0  0  0
  2 32  1  0  0  0  0
  2 33  1  0  0  0  0
  3 21  2  0  0  0  0
  4 22  2  0  0  0  0
  5 24  2  0  0  0  0
  6 25  2  0  0  0  0
  7 13  1  0  0  0  0
  7 15  1  0  0  0  0
  7 16  1  0  0  0  0
  8 14  1  0  0  0  0
  8 17  1  0  0  0  0
  8 18  1  0  0  0  0
  9 20  1  0  0  0  0
  9 21  1  0  0  0  0
  9 22  1  0  0  0  0
 10 23  1  0  0  0  0
 10 24  1  0  0  0  0
 10 25  1  0  0  0  0
 11 20  1  0  0  0  0
 11 26  1  0  0  0  0
 11 27  1  0  0  0  0
 12 23  1  0  0  0  0
 12 28  1  0  0  0  0
 12 29  1  0  0  0  0
 13 14  1  0  0  0  0
 13 19  1  0  0  0  0
 13 34  1  0  0  0  0
 14 35  1  0  0  0  0
 14 36  1  0  0  0  0
 15 21  1  0  0  0  0
 15 37  1  0  0  0  0
 15 38  1  0  0  0  0
 16 22  1  0  0  0  0
 16 39  1  0  0  0  0
 16 40  1  0  0  0  0
 17 24  1  0  0  0  0
 17 41  1  0  0  0  0
 17 42  1  0  0  0  0
 18 25  1  0  0  0  0
 18 43  1  0  0  0  0
 18 44  1  0  0  0  0
 19 45  1  0  0  0  0
 19 46  1  0  0  0  0
 19 47  1  0  0  0  0
 20 48  1  0  0  0  0
 20 49  1  0  0  0  0
 23 50  1  0  0  0  0
 23 51  1  0  0  0  0
 26 30  1  0  0  0  0
 26 52  1  0  0  0  0
 26 53  1  0  0  0  0
 27 31  1  0  0  0  0
 27 54  1  0  0  0  0
 27 55  1  0  0  0  0
 28 32  1  0  0  0  0
 28 56  1  0  0  0  0
 28 57  1  0  0  0  0
 29 33  1  0  0  0  0
 29 58  1  0  0  0  0
 29 59  1  0  0  0  0
 30 60  1  0  0  0  0
 30 61  1  0  0  0  0
 31 62  1  0  0  0  0
 31 63  1  0  0  0  0
 32 64  1  0  0  0  0
 32 65  1  0  0  0  0
 33 66  1  0  0  0  0
 33 67  1  0  0  0  0
M  END
> <PUBCHEM_COMPOUND_CID>
125610

> <PUBCHEM_CONFORMER_RMSD>
1.4

> <PUBCHEM_CONFORMER_DIVERSEORDER>
1
20
28
13
21
27
22
30
2
32
33
3
7
18
11
34
8
19
17
26
4
16
23
14
15
6
31
10
12
24
9
5
29
25

> <PUBCHEM_MMFF94_PARTIAL_CHARGES>
32
1 -0.56
10 -0.42
11 -0.81
12 -0.81
13 0.27
14 0.27
15 0.33
16 0.33
17 0.33
18 0.33
2 -0.56
20 0.57
21 0.57
22 0.57
23 0.57
24 0.57
25 0.57
26 0.27
27 0.27
28 0.27
29 0.27
3 -0.57
30 0.28
31 0.28
32 0.28
33 0.28
4 -0.57
5 -0.57
6 -0.57
7 -0.81
8 -0.81
9 -0.42

> <PUBCHEM_EFFECTIVE_ROTOR_COUNT>
11

> <PUBCHEM_PHARMACOPHORE_FEATURES>
14
1 1 acceptor
1 11 cation
1 12 cation
1 2 acceptor
1 3 acceptor
1 4 acceptor
1 5 acceptor
1 6 acceptor
1 7 cation
1 8 cation
6 1 11 26 27 30 31 rings
6 2 12 28 29 32 33 rings
6 7 9 15 16 21 22 rings
6 8 10 17 18 24 25 rings

> <PUBCHEM_HEAVY_ATOM_COUNT>
33

> <PUBCHEM_ATOM_DEF_STEREO_COUNT>
0

> <PUBCHEM_ATOM_UDEF_STEREO_COUNT>
1

> <PUBCHEM_BOND_DEF_STEREO_COUNT>
0

> <PUBCHEM_BOND_UDEF_STEREO_COUNT>
0

> <PUBCHEM_ISOTOPIC_ATOM_COUNT>
0

> <PUBCHEM_COMPONENT_COUNT>
1

> <PUBCHEM_CACTVS_TAUTO_COUNT>
1

> <PUBCHEM_CONFORMER_ID>
0001EAAA00000001

> <PUBCHEM_MMFF94_ENERGY>
76.5004

> <PUBCHEM_FEATURE_SELFOVERLAP>
71.052

> <PUBCHEM_SHAPE_FINGERPRINT>
10 15 12535344628224236094
10280341 67 17417257508042293377
10577160 183 17203034206856030103
10674148 151 18335417972422166394
10917259 128 16557634006629163283
11135609 12 18410012122442155340
11181472 205 18131362903542503384
11331351 85 18412259540957448700
12144603 126 18343023333207112972
12373685 5 15195275413749704365
12730499 353 15502365751734320088
13782708 43 17969501700435694763
13914758 101 17704072893541546627
14347424 109 18201717380038899936
14444916 359 17603868888512611827
1454969 45 8430315731880176065
14856354 85 15357703007178847539
150020 25 10881404231217489675
15183329 4 17749659766277798665
15328829 1 18342738477230901539
15510800 12 18339641145515136774
18608769 82 14418136235787734585
20105231 36 16588025705926415859
20156587 191 18122624955676168543
20511986 3 15410896262411315517
20554085 129 14836404713747717366
21130935 74 18339641273229720058
21150785 3 8070028869654740781
21585482 57 10375570613078550818
21774942 28 16199883765010778217
21781051 124 16081376258448336298
21792965 169 18186524318953476196
21814621 53 18341611580928582731
21859007 373 17203894037412235841
23389318 12 8862938351963916961
23522609 53 17969804032200941453
2747138 104 14779547924346844077
2838139 119 17846777421727699185
34797466 226 17313103099024268012
4093350 32 17846219925459941790
4173938 306 14836119923087375861
4258327 124 9367049091533716994
439807 62 18261393313718143330
445580 167 11025802010972109171
44880168 125 18335973259489936166
4625314 4 8646507214160189041
5381727 24 18342177774838085827
6126387 218 17703783709399265730
6201320 215 17775288206487279689
6371009 1 13830133913953507987

> <PUBCHEM_SHAPE_MULTIPOLES>
614.02
26.87
2.47
1.79
3.27
0.07
-0.51
5.95
8.88
-1.87
-0.09
0.59
-0.11
-1.67

> <PUBCHEM_SHAPE_SELFOVERLAP>
1275.764

> <PUBCHEM_SHAPE_VOLUME>
347.7

> <PUBCHEM_COORDINATE_TYPE>
2
5
10

$$$$
