REMARK  Name = 125650
REMARK  7 active torsions:
REMARK  status: ('A' for Active; 'I' for Inactive)
REMARK    1  A    between atoms: C_2  and  O_18
REMARK    2  A    between atoms: C_3  and  O_20
REMARK    3  A    between atoms: C_4  and  N_6
REMARK    4  A    between atoms: C_5  and  C_22
REMARK    5  A    between atoms: C_22  and  S_23
REMARK    6  A    between atoms: S_23  and  C_24
REMARK    7  A    between atoms: C_24  and  C_25
REMARK                            x       y       z     vdW  Elec       q    Type
REMARK                         _______ _______ _______ _____ _____    ______ ____
ROOT
ATOM      1  O   UNL     1       0.725  -1.041   0.982  0.00  0.00    -0.337 OA
ATOM      2  C   UNL     1      -0.266  -2.092  -0.895  0.00  0.00    +0.183 C 
ATOM      3  C   UNL     1       0.948  -2.903  -0.484  0.00  0.00    +0.169 C 
ATOM      4  C   UNL     1      -0.555  -1.314   0.380  0.00  0.00    +0.208 C 
ATOM      5  C   UNL     1       1.713  -1.920   0.397  0.00  0.00    +0.157 C 
ENDROOT
BRANCH   4   6
ATOM      6  N   UNL     1      -1.275  -0.062   0.163  0.00  0.00    -0.220 NA
ATOM      7  N   UNL     1      -1.604   2.095  -0.279  0.00  0.00    -0.252 NA
ATOM      8  N   UNL     1      -5.164   1.179   0.181  0.00  0.00    -0.229 NA
ATOM      9  N   UNL     1      -4.329   3.354  -0.350  0.00  0.00    -0.342 N 
ATOM     10  C   UNL     1      -2.634   0.126   0.222  0.00  0.00    +0.128 C 
ATOM     11  C   UNL     1      -0.705   1.146  -0.140  0.00  0.00    +0.203 C 
ATOM     12  C   UNL     1      -2.812   1.477  -0.057  0.00  0.00    +0.105 C 
ATOM     13  C   UNL     1      -3.687  -0.739   0.486  0.00  0.00    +0.016 C 
ATOM     14  C   UNL     1      -4.109   1.992  -0.072  0.00  0.00    +0.140 C 
ATOM     15  C   UNL     1      -4.934  -0.131   0.446  0.00  0.00    +0.097 C 
ATOM     16  H   UNL     1      -5.245   3.712  -0.360  0.00  0.00    +0.144 HD
ATOM     17  H   UNL     1      -3.566   3.948  -0.534  0.00  0.00    +0.144 HD
ENDBRANCH   4   6
BRANCH   2  18
ATOM     18  O   UNL     1      -1.362  -2.895  -1.283  0.00  0.00    -0.378 OA
ATOM     19  H   UNL     1      -1.140  -3.374  -2.096  0.00  0.00    +0.211 HD
ENDBRANCH   2  18
BRANCH   3  20
ATOM     20  O   UNL     1       0.533  -4.010   0.315  0.00  0.00    -0.379 OA
ATOM     21  H   UNL     1       0.045  -4.642  -0.236  0.00  0.00    +0.211 HD
ENDBRANCH   3  20
BRANCH   5  22
ATOM     22  C   UNL     1       2.707  -1.071  -0.385  0.00  0.00    +0.090 C 
BRANCH  22  23
ATOM     23  S   UNL     1       3.581   0.061   0.726  0.00  0.00    -0.138 S 
BRANCH  23  24
ATOM     24  C   UNL     1       4.634   0.875  -0.498  0.00  0.00    +0.058 C 
BRANCH  24  25
ATOM     25  C   UNL     1       5.619   1.912   0.068  0.00  0.00    +0.011 C 
ATOM     26  C   UNL     1       6.575   1.317   1.104  0.00  0.00    +0.001 C 
ATOM     27  C   UNL     1       6.400   2.644  -1.026  0.00  0.00    +0.001 C 
ENDBRANCH  24  25
ENDBRANCH  23  24
ENDBRANCH  22  23
ENDBRANCH   5  22
TORSDOF 7
