125614
  -OEChem-03292013323D

 40 41  0     1  0  0  0  0  0999 V2000
   -3.3535    1.6753    0.9825 S   0  0  0  0  0  0  0  0  0  0  0  0
   -2.0485   -2.8995    0.6263 O   0  0  0  0  0  0  0  0  0  0  0  0
    3.5654    0.5035   -1.7469 O   0  0  0  0  0  0  0  0  0  0  0  0
    1.6962   -2.4161    1.0538 O   0  0  0  0  0  0  0  0  0  0  0  0
   -1.3287   -0.7613   -0.0052 N   0  0  0  0  0  0  0  0  0  0  0  0
   -3.4214   -1.3985   -0.5355 N   0  0  0  0  0  0  0  0  0  0  0  0
    3.5528   -0.3213    0.4214 N   0  0  0  0  0  0  0  0  0  0  0  0
   -1.8614    0.3618   -0.7528 C   0  0  1  0  0  0  0  0  0  0  0  0
   -3.3226   -0.0452   -1.0462 C   0  0  2  0  0  0  0  0  0  0  0  0
   -1.8321    1.6956   -0.0014 C   0  0  2  0  0  0  0  0  0  0  0  0
   -4.3014    0.8907   -0.3406 C   0  0  0  0  0  0  0  0  0  0  0  0
   -0.6013    1.9424    0.8551 C   0  0  0  0  0  0  0  0  0  0  0  0
    0.6800    1.8914    0.0227 C   0  0  0  0  0  0  0  0  0  0  0  0
   -2.2441   -1.8149    0.0949 C   0  0  0  0  0  0  0  0  0  0  0  0
    1.9182    2.1129    0.8966 C   0  0  0  0  0  0  0  0  0  0  0  0
    3.2167    2.0393    0.0948 C   0  0  0  0  0  0  0  0  0  0  0  0
    3.4703    0.6801   -0.5353 C   0  0  0  0  0  0  0  0  0  0  0  0
    3.7647   -1.7044    0.0672 C   0  0  0  0  0  0  0  0  0  0  0  0
    2.4506   -2.4318   -0.1512 C   0  0  0  0  0  0  0  0  0  0  0  0
   -1.2807    0.4247   -1.6803 H   0  0  0  0  0  0  0  0  0  0  0  0
   -3.5330   -0.0880   -2.1201 H   0  0  0  0  0  0  0  0  0  0  0  0
   -1.9396    2.5129   -0.7253 H   0  0  0  0  0  0  0  0  0  0  0  0
   -5.1835    0.3791    0.0552 H   0  0  0  0  0  0  0  0  0  0  0  0
   -4.6331    1.6782   -1.0249 H   0  0  0  0  0  0  0  0  0  0  0  0
   -0.5353    1.2089    1.6691 H   0  0  0  0  0  0  0  0  0  0  0  0
   -0.6767    2.9286    1.3317 H   0  0  0  0  0  0  0  0  0  0  0  0
   -0.3744   -0.8256    0.3338 H   0  0  0  0  0  0  0  0  0  0  0  0
   -4.2450   -1.9843   -0.6320 H   0  0  0  0  0  0  0  0  0  0  0  0
    0.7708    0.9284   -0.4876 H   0  0  0  0  0  0  0  0  0  0  0  0
    0.6414    2.6624   -0.7567 H   0  0  0  0  0  0  0  0  0  0  0  0
    1.8546    3.1029    1.3648 H   0  0  0  0  0  0  0  0  0  0  0  0
    1.9252    1.3821    1.7131 H   0  0  0  0  0  0  0  0  0  0  0  0
    3.2106    2.7906   -0.7034 H   0  0  0  0  0  0  0  0  0  0  0  0
    4.0661    2.2715    0.7484 H   0  0  0  0  0  0  0  0  0  0  0  0
    3.4921   -0.0878    1.4076 H   0  0  0  0  0  0  0  0  0  0  0  0
    4.3841   -1.7608   -0.8338 H   0  0  0  0  0  0  0  0  0  0  0  0
    4.3145   -2.1563    0.8995 H   0  0  0  0  0  0  0  0  0  0  0  0
    1.8524   -1.9624   -0.9389 H   0  0  0  0  0  0  0  0  0  0  0  0
    2.6302   -3.4750   -0.4266 H   0  0  0  0  0  0  0  0  0  0  0  0
    1.5673   -1.4857    1.3053 H   0  0  0  0  0  0  0  0  0  0  0  0
  1 10  1  0  0  0  0
  1 11  1  0  0  0  0
  2 14  2  0  0  0  0
  3 17  2  0  0  0  0
  4 19  1  0  0  0  0
  4 40  1  0  0  0  0
  5  8  1  0  0  0  0
  5 14  1  0  0  0  0
  5 27  1  0  0  0  0
  6  9  1  0  0  0  0
  6 14  1  0  0  0  0
  6 28  1  0  0  0  0
  7 17  1  0  0  0  0
  7 18  1  0  0  0  0
  7 35  1  0  0  0  0
  8  9  1  0  0  0  0
  8 10  1  0  0  0  0
  8 20  1  0  0  0  0
  9 11  1  0  0  0  0
  9 21  1  0  0  0  0
 10 12  1  0  0  0  0
 10 22  1  0  0  0  0
 11 23  1  0  0  0  0
 11 24  1  0  0  0  0
 12 13  1  0  0  0  0
 12 25  1  0  0  0  0
 12 26  1  0  0  0  0
 13 15  1  0  0  0  0
 13 29  1  0  0  0  0
 13 30  1  0  0  0  0
 15 16  1  0  0  0  0
 15 31  1  0  0  0  0
 15 32  1  0  0  0  0
 16 17  1  0  0  0  0
 16 33  1  0  0  0  0
 16 34  1  0  0  0  0
 18 19  1  0  0  0  0
 18 36  1  0  0  0  0
 18 37  1  0  0  0  0
 19 38  1  0  0  0  0
 19 39  1  0  0  0  0
M  END
> <PUBCHEM_COMPOUND_CID>
125614

> <PUBCHEM_CONFORMER_RMSD>
0.8

> <PUBCHEM_CONFORMER_DIVERSEORDER>
1
12
77
98
202
143
147
55
189
145
20
183
113
7
205
29
52
80
104
201
23
204
192
102
6
57
85
38
109
81
121
30
200
28
62
157
162
177
137
153
88
90
76
91
117
131
48
95
197
123
180
207
78
132
173
13
99
156
50
208
64
144
32
158
49
65
140
148
92
35
3
170
10
46
71
33
59
199
56
135
86
187
120
84
163
9
130
110
126
186
101
198
114
16
34
39
107
139
125
190
133
93
184
8
94
181
112
122
182
171
2
70
118
191
66
60
45
134
194
168
67
127
14
72
54
61
100
176
41
58
27
44
42
51
96
79
47
74
11
36
119
17
195
172
152
203
138
4
26
115
19
82
142
185
128
73
196
83
105
174
161
155
193
165
18
106
21
166
87
15
53
40
89
150
75
68
146
22
43
97
154
206
160
164
159
69
188
63
179
169
31
108
129
116
151
24
111
136
141
5
103
25
175
167
178
124
149
37

> <PUBCHEM_MMFF94_PARTIAL_CHARGES>
20
1 -0.46
10 0.23
11 0.23
14 0.69
16 0.06
17 0.57
18 0.3
19 0.28
2 -0.57
27 0.37
28 0.37
3 -0.57
35 0.37
4 -0.68
40 0.4
5 -0.73
6 -0.73
7 -0.73
8 0.3
9 0.3

> <PUBCHEM_EFFECTIVE_ROTOR_COUNT>
9

> <PUBCHEM_PHARMACOPHORE_FEATURES>
10
1 2 acceptor
1 3 acceptor
1 4 acceptor
1 4 donor
1 5 donor
1 6 donor
1 7 donor
4 12 13 15 16 hydrophobe
5 1 8 9 10 11 rings
5 5 6 8 9 14 rings

> <PUBCHEM_HEAVY_ATOM_COUNT>
19

> <PUBCHEM_ATOM_DEF_STEREO_COUNT>
3

> <PUBCHEM_ATOM_UDEF_STEREO_COUNT>
0

> <PUBCHEM_BOND_DEF_STEREO_COUNT>
0

> <PUBCHEM_BOND_UDEF_STEREO_COUNT>
0

> <PUBCHEM_ISOTOPIC_ATOM_COUNT>
0

> <PUBCHEM_COMPONENT_COUNT>
1

> <PUBCHEM_CACTVS_TAUTO_COUNT>
6

> <PUBCHEM_CONFORMER_ID>
0001EAAE00000001

> <PUBCHEM_MMFF94_ENERGY>
31.1659

> <PUBCHEM_FEATURE_SELFOVERLAP>
51.313

> <PUBCHEM_SHAPE_FINGERPRINT>
10062212 137 17988915648730223613
10616163 171 18339926029629522886
12553582 1 18340772546362124544
12596599 1 17845952800174142890
12633257 1 18336259025370726346
12788726 201 17702677544155570177
13533116 47 18201150036096499009
14178342 30 18339071696358071640
14251705 54 18193276514517597002
14251745 187 18338793519921051296
14617045 38 18337683013013375893
14790565 3 18196375815054551857
14931854 50 18409729547610978006
15635459 17 18201726196957834206
17834074 16 18411136982460542385
19107657 46 18411135874501248972
19930381 70 18050567339979293883
20291156 8 18124312710293280608
20645477 70 17845933038834766980
2255824 54 18410576227731794732
23559900 14 18341322392486675792
2871803 45 18340768247189382772
314173 41 18343027709077355660
4921388 177 16950568838862610113
9709674 26 18200030775650069884

> <PUBCHEM_SHAPE_MULTIPOLES>
362.31
8.3
3.3
1.07
1.42
1.37
0.14
0.45
1.25
0.86
-0.95
0.12
-0.1
-0.5

> <PUBCHEM_SHAPE_SELFOVERLAP>
716.136

> <PUBCHEM_SHAPE_VOLUME>
217.8

> <PUBCHEM_COORDINATE_TYPE>
2
5
10

$$$$
