REMARK  Name = 125641
REMARK  7 active torsions:
REMARK  status: ('A' for Active; 'I' for Inactive)
REMARK    1  A    between atoms: C_2  and  O_7
REMARK    2  A    between atoms: C_3  and  O_9
REMARK    3  A    between atoms: C_4  and  O_11
REMARK    4  A    between atoms: C_5  and  C_14
REMARK    5  A    between atoms: C_6  and  O_17
REMARK    6  A    between atoms: C_14  and  O_15
REMARK    7  A    between atoms: O_17  and  C_20
REMARK                            x       y       z     vdW  Elec       q    Type
REMARK                         _______ _______ _______ _____ _____    ______ ____
ROOT
ATOM      1  O   UNL     1      -1.651  -0.318  -0.699  0.00  0.00    -0.307 OA
ATOM      2  C   UNL     1      -3.679   0.985   0.866  0.00  0.00    +0.173 C 
ATOM      3  C   UNL     1      -2.582   1.761   0.137  0.00  0.00    +0.210 C 
ATOM      4  C   UNL     1      -3.889  -0.398   0.247  0.00  0.00    +0.178 C 
ATOM      5  C   UNL     1      -2.556  -1.113   0.059  0.00  0.00    +0.246 C 
ATOM      6  C   UNL     1      -1.327   0.907  -0.046  0.00  0.00    +0.318 C 
ENDROOT
BRANCH   2   7
ATOM      7  O   UNL     1      -4.912   1.701   0.774  0.00  0.00    -0.379 OA
ATOM      8  H   UNL     1      -4.802   2.583   1.161  0.00  0.00    +0.211 HD
ENDBRANCH   2   7
BRANCH   3   9
ATOM      9  O   UNL     1      -2.232   2.915   0.901  0.00  0.00    -0.377 OA
ATOM     10  H   UNL     1      -3.017   3.470   1.027  0.00  0.00    +0.211 HD
ENDBRANCH   3   9
BRANCH   4  11
ATOM     11  O   UNL     1      -4.708  -1.179   1.117  0.00  0.00    -0.379 OA
ATOM     12  H   UNL     1      -5.560  -0.733   1.244  0.00  0.00    +0.211 HD
ENDBRANCH   4  11
BRANCH   5  14
ATOM     13  O   UNL     1      -2.208  -2.515  -1.875  0.00  0.00    -0.247 OA
ATOM     14  C   UNL     1      -2.720  -2.339  -0.779  0.00  0.00    +0.344 C 
BRANCH  14  15
ATOM     15  O   UNL     1      -3.522  -3.239  -0.159  0.00  0.00    -0.478 OA
ATOM     16  H   UNL     1      -3.884  -3.042   0.683  0.00  0.00    +0.295 HD
ENDBRANCH  14  15
ENDBRANCH   5  14
BRANCH   6  17
ATOM     17  O   UNL     1      -0.403   1.648  -0.841  0.00  0.00    -0.450 OA
BRANCH  17  20
ATOM     18  O   UNL     1       3.085  -1.362   0.450  0.00  0.00    -0.421 OA
ATOM     19  O   UNL     1       4.767  -2.790   1.063  0.00  0.00    -0.244 OA
ATOM     20  C   UNL     1       0.926   1.404  -0.624  0.00  0.00    +0.144 C 
ATOM     21  C   UNL     1       1.336   0.147  -0.198  0.00  0.00    +0.075 C 
ATOM     22  C   UNL     1       1.857   2.420  -0.832  0.00  0.00    +0.037 C 
ATOM     23  C   UNL     1       2.694  -0.078   0.017  0.00  0.00    +0.152 C 
ATOM     24  C   UNL     1       3.643   0.921  -0.184  0.00  0.00    +0.035 C 
ATOM     25  C   UNL     1       3.216   2.180  -0.612  0.00  0.00    +0.006 C 
ATOM     26  C   UNL     1       5.043   0.618   0.060  0.00  0.00    +0.010 C 
ATOM     27  C   UNL     1       5.405  -0.601   0.468  0.00  0.00    +0.082 C 
ATOM     28  C   UNL     1       4.419  -1.676   0.688  0.00  0.00    +0.346 C 
ENDBRANCH  17  20
ENDBRANCH   6  17
TORSDOF 7
