REMARK  Name = 125618
REMARK  5 active torsions:
REMARK  status: ('A' for Active; 'I' for Inactive)
REMARK    1  A    between atoms: N_2  and  C1*_13
REMARK    2  A    between atoms: C_7  and  C_24
REMARK    3  A    between atoms: C3*_12  and  O3*_16
REMARK    4  A    between atoms: C4*_15  and  C5*_18
REMARK    5  A    between atoms: C5*_18  and  O5*_19
REMARK                            x       y       z     vdW  Elec       q    Type
REMARK                         _______ _______ _______ _____ _____    ______ ____
ROOT
ATOM      1  O   UNL     1       0.190  -3.318   0.306  0.00  0.00    -0.193 OA
ATOM      2  N   UNL     1       0.232  -1.017   0.197  0.00  0.00    -0.180 N 
ATOM      3  N   UNL     1      -1.805  -2.259   0.100  0.00  0.00    -0.306 NA
ATOM      4  N   UNL     1      -3.856  -1.217  -0.111  0.00  0.00    -0.332 N 
ATOM      5  C   UNL     1      -0.474   0.158   0.084  0.00  0.00    +0.087 C 
ATOM      6  C   UNL     1      -0.427  -2.256   0.206  0.00  0.00    +0.275 C 
ATOM      7  C   UNL     1      -1.805   0.190  -0.022  0.00  0.00    +0.131 C 
ATOM      8  C   UNL     1      -2.484  -1.145  -0.008  0.00  0.00    +0.196 C 
ATOM      9  H   UNL     1      -4.306  -2.093  -0.102  0.00  0.00    +0.145 HD
ATOM     10  H   UNL     1      -4.388  -0.392  -0.193  0.00  0.00    +0.145 HD
ENDROOT
BRANCH   2  13
ATOM     11  O4* UNL     1       2.013   0.264   1.011  0.00  0.00    -0.334 OA
ATOM     12  C3* UNL     1       3.556  -0.017  -0.767  0.00  0.00    +0.144 C 
ATOM     13  C1* UNL     1       1.659  -0.934   0.304  0.00  0.00    +0.209 C 
ATOM     14  C2* UNL     1       2.350  -0.882  -1.049  0.00  0.00    +0.084 C 
ATOM     15  C4* UNL     1       3.042   0.960   0.282  0.00  0.00    +0.173 C 
BRANCH  12  16
ATOM     16  O3* UNL     1       4.602  -0.814  -0.217  0.00  0.00    -0.382 OA
ATOM     17  H3* UNL     1       4.925  -1.434  -0.890  0.00  0.00    +0.210 HD
ENDBRANCH  12  16
BRANCH  15  18
ATOM     18  C5* UNL     1       2.421   2.210  -0.326  0.00  0.00    +0.169 C 
BRANCH  18  19
ATOM     19  O5* UNL     1       1.964   3.050   0.721  0.00  0.00    -0.379 OA
ATOM     20  H5* UNL     1       1.566   3.851   0.343  0.00  0.00    +0.211 HD
ENDBRANCH  18  19
ENDBRANCH  15  18
ENDBRANCH   2  13
BRANCH   7  24
ATOM     21  F   UNL     1      -1.798   2.534  -0.138  0.00  0.00    -0.166 F 
ATOM     22  F   UNL     1      -3.305   1.468  -1.298  0.00  0.00    -0.166 F 
ATOM     23  F   UNL     1      -3.476   1.578   0.872  0.00  0.00    -0.166 F 
ATOM     24  C   UNL     1      -2.600   1.448  -0.147  0.00  0.00    +0.423 C 
ENDBRANCH   7  24
TORSDOF 5
