REMARK  Name = 125696
REMARK  10 active torsions:
REMARK  status: ('A' for Active; 'I' for Inactive)
REMARK    1  A    between atoms: O_1  and  P_2
REMARK    2  A    between atoms: O_1  and  C_13
REMARK    3  A    between atoms: P_2  and  O_4
REMARK    4  A    between atoms: P_2  and  O_6
REMARK    5  A    between atoms: O_6  and  P_7
REMARK    6  A    between atoms: P_7  and  O_9
REMARK    7  A    between atoms: P_7  and  O_11
REMARK    8  A    between atoms: C_13  and  C_15
REMARK    9  A    between atoms: C_16  and  C_24
REMARK   10  A    between atoms: C_17  and  O_21
REMARK                            x       y       z     vdW  Elec       q    Type
REMARK                         _______ _______ _______ _____ _____    ______ ____
ROOT
ATOM      1  O   UNL     1      -0.944   0.713   0.527  0.00  0.00    -0.268 OA
ENDROOT
BRANCH   1   2
ATOM      2  P   UNL     1      -2.416   1.383   0.482  0.00  0.00    +0.484 P 
ATOM      3  O   UNL     1      -3.026   1.652   1.827  0.00  0.00    -0.227 OA
BRANCH   2   4
ATOM      4  O   UNL     1      -2.233   2.698  -0.443  0.00  0.00    -0.302 OA
ATOM      5  H   UNL     1      -1.836   2.444  -1.291  0.00  0.00    +0.222 HD
ENDBRANCH   2   4
BRANCH   2   6
ATOM      6  O   UNL     1      -3.286   0.391  -0.453  0.00  0.00    -0.186 OA
BRANCH   6   7
ATOM      7  P   UNL     1      -3.758  -1.138  -0.225  0.00  0.00    +0.481 P 
ATOM      8  O   UNL     1      -2.638  -2.119  -0.046  0.00  0.00    -0.227 OA
BRANCH   7   9
ATOM      9  O   UNL     1      -4.723  -1.416  -1.491  0.00  0.00    -0.302 OA
ATOM     10  H   UNL     1      -5.414  -0.736  -1.527  0.00  0.00    +0.222 HD
ENDBRANCH   7   9
BRANCH   7  11
ATOM     11  O   UNL     1      -4.787  -1.029   1.017  0.00  0.00    -0.302 OA
ATOM     12  H   UNL     1      -5.473  -0.375   0.813  0.00  0.00    +0.222 HD
ENDBRANCH   7  11
ENDBRANCH   6   7
ENDBRANCH   2   6
ENDBRANCH   1   2
BRANCH   1  13
ATOM     13  C   UNL     1      -0.266   0.411  -0.681  0.00  0.00    +0.182 C 
BRANCH  13  15
ATOM     14  N   UNL     1       2.331  -2.201   0.081  0.00  0.00    -0.245 NA
ATOM     15  C   UNL     1       1.067  -0.197  -0.355  0.00  0.00    +0.033 C 
ATOM     16  C   UNL     1       2.202   0.579  -0.188  0.00  0.00    +0.077 C 
ATOM     17  C   UNL     1       3.411  -0.038   0.115  0.00  0.00    +0.150 C 
ATOM     18  C   UNL     1       3.422  -1.418   0.238  0.00  0.00    +0.093 C 
ATOM     19  C   UNL     1       1.174  -1.566  -0.214  0.00  0.00    +0.097 C 
ATOM     20  C   UNL     1       4.693  -2.131   0.563  0.00  0.00    +0.055 C 
BRANCH  17  21
ATOM     21  O   UNL     1       4.547   0.688   0.289  0.00  0.00    -0.504 OA
ATOM     22  H   UNL     1       4.524   1.621   0.203  0.00  0.00    +0.292 HD
ENDBRANCH  17  21
BRANCH  16  24
ATOM     23  O   UNL     1       3.089   2.708  -0.718  0.00  0.00    -0.283 OA
ATOM     24  C   UNL     1       2.138   2.030  -0.326  0.00  0.00    +0.237 C 
ENDBRANCH  16  24
ENDBRANCH  13  15
ENDBRANCH   1  13
TORSDOF 10
