REMARK  Name = 125614
REMARK  8 active torsions:
REMARK  status: ('A' for Active; 'I' for Inactive)
REMARK    1  A    between atoms: C_1  and  C_8
REMARK    2  A    between atoms: C_1  and  C_13
REMARK    3  A    between atoms: C_13  and  C_14
REMARK    4  A    between atoms: C_14  and  C_15
REMARK    5  A    between atoms: C_15  and  C_18
REMARK    6  A    between atoms: N_17  and  C_20
REMARK    7  A    between atoms: C_20  and  C_21
REMARK    8  A    between atoms: C_21  and  O_22
REMARK                            x       y       z     vdW  Elec       q    Type
REMARK                         _______ _______ _______ _____ _____    ______ ____
ROOT
ATOM      1  C   UNL     1      -0.601   1.942   0.855  0.00  0.00    +0.013 C 
ENDROOT
BRANCH   1   8
ATOM      2  S   UNL     1      -3.353   1.675   0.983  0.00  0.00    -0.138 S 
ATOM      3  O   UNL     1      -2.049  -2.900   0.626  0.00  0.00    -0.253 OA
ATOM      4  N   UNL     1      -1.329  -0.761  -0.005  0.00  0.00    -0.288 N 
ATOM      5  N   UNL     1      -3.421  -1.399  -0.535  0.00  0.00    -0.288 N 
ATOM      6  C   UNL     1      -1.861   0.362  -0.753  0.00  0.00    +0.102 C 
ATOM      7  C   UNL     1      -3.323  -0.045  -1.046  0.00  0.00    +0.103 C 
ATOM      8  C   UNL     1      -1.832   1.696  -0.001  0.00  0.00    +0.067 C 
ATOM      9  C   UNL     1      -4.301   0.891  -0.341  0.00  0.00    +0.079 C 
ATOM     10  C   UNL     1      -2.244  -1.815   0.095  0.00  0.00    +0.301 C 
ATOM     11  H   UNL     1      -0.426  -0.780   0.387  0.00  0.00    +0.151 HD
ATOM     12  H   UNL     1      -4.225  -1.960  -0.622  0.00  0.00    +0.151 HD
ENDBRANCH   1   8
BRANCH   1  13
ATOM     13  C   UNL     1       0.680   1.891   0.023  0.00  0.00    +0.001 C 
BRANCH  13  14
ATOM     14  C   UNL     1       1.918   2.113   0.897  0.00  0.00    +0.010 C 
BRANCH  14  15
ATOM     15  C   UNL     1       3.217   2.039   0.095  0.00  0.00    +0.085 C 
BRANCH  15  18
ATOM     16  O   UNL     1       3.565   0.503  -1.747  0.00  0.00    -0.275 OA
ATOM     17  N   UNL     1       3.553  -0.321   0.421  0.00  0.00    -0.302 N 
ATOM     18  C   UNL     1       3.470   0.680  -0.535  0.00  0.00    +0.223 C 
ATOM     19  H   UNL     1       3.464  -0.081   1.372  0.00  0.00    +0.150 HD
BRANCH  17  20
ATOM     20  C   UNL     1       3.765  -1.704   0.067  0.00  0.00    +0.121 C 
BRANCH  20  21
ATOM     21  C   UNL     1       2.451  -2.432  -0.151  0.00  0.00    +0.158 C 
BRANCH  21  22
ATOM     22  O   UNL     1       1.696  -2.416   1.054  0.00  0.00    -0.380 OA
ATOM     23  H   UNL     1       0.856  -2.881   0.915  0.00  0.00    +0.211 HD
ENDBRANCH  21  22
ENDBRANCH  20  21
ENDBRANCH  17  20
ENDBRANCH  15  18
ENDBRANCH  14  15
ENDBRANCH  13  14
ENDBRANCH   1  13
TORSDOF 8
