125632
  -OEChem-03292013323D

 33 34  0     1  0  0  0  0  0999 V2000
   -3.5959   -1.5062    0.1223 P   0  0  0  0  0  0  0  0  0  0  0  0
   -0.3336    1.1651    1.0244 O   0  0  0  0  0  0  0  0  0  0  0  0
   -0.6578    4.0238   -0.0219 O   0  0  0  0  0  0  0  0  0  0  0  0
   -2.7289   -0.2292    0.6091 O   0  0  0  0  0  0  0  0  0  0  0  0
    3.6765    1.4055    0.3921 O   0  0  0  0  0  0  0  0  0  0  0  0
   -2.6334   -2.2369   -0.9521 O   0  0  0  0  0  0  0  0  0  0  0  0
   -4.7406   -0.8335   -0.8007 O   0  0  0  0  0  0  0  0  0  0  0  0
   -4.1071   -2.3840    1.2271 O   0  0  0  0  0  0  0  0  0  0  0  0
    1.6703    0.3021    0.1792 N   0  0  0  0  0  0  0  0  0  0  0  0
    3.7477   -0.8410    0.0350 N   0  0  0  0  0  0  0  0  0  0  0  0
    1.7210   -2.0232   -0.1906 N   0  0  0  0  0  0  0  0  0  0  0  0
    3.7949   -3.1327   -0.3292 N   0  0  0  0  0  0  0  0  0  0  0  0
   -0.8275    2.7596   -0.6593 C   0  0  2  0  0  0  0  0  0  0  0  0
   -1.4371    1.7643    0.3181 C   0  0  1  0  0  0  0  0  0  0  0  0
    0.5247    2.1568   -0.9627 C   0  0  0  0  0  0  0  0  0  0  0  0
    0.8919    1.4932    0.3546 C   0  0  1  0  0  0  0  0  0  0  0  0
   -2.2097    0.6499   -0.3756 C   0  0  0  0  0  0  0  0  0  0  0  0
    3.0707    0.3484    0.2123 C   0  0  0  0  0  0  0  0  0  0  0  0
    1.0743   -0.9212   -0.0267 C   0  0  0  0  0  0  0  0  0  0  0  0
    3.0996   -1.9607   -0.1553 C   0  0  0  0  0  0  0  0  0  0  0  0
   -1.4410    2.9197   -1.5509 H   0  0  0  0  0  0  0  0  0  0  0  0
   -2.0698    2.2517    1.0682 H   0  0  0  0  0  0  0  0  0  0  0  0
    0.4267    1.4120   -1.7618 H   0  0  0  0  0  0  0  0  0  0  0  0
    1.2815    2.8848   -1.2712 H   0  0  0  0  0  0  0  0  0  0  0  0
    1.4290    2.2023    0.9955 H   0  0  0  0  0  0  0  0  0  0  0  0
   -1.5815    0.0904   -1.0728 H   0  0  0  0  0  0  0  0  0  0  0  0
   -3.0425    1.0822   -0.9400 H   0  0  0  0  0  0  0  0  0  0  0  0
   -0.2138    4.6121   -0.6564 H   0  0  0  0  0  0  0  0  0  0  0  0
   -0.0182   -0.9353   -0.0423 H   0  0  0  0  0  0  0  0  0  0  0  0
   -2.9199   -3.0895   -1.3433 H   0  0  0  0  0  0  0  0  0  0  0  0
   -5.4620   -1.3991   -1.1497 H   0  0  0  0  0  0  0  0  0  0  0  0
    3.3134   -4.0127   -0.4783 H   0  0  0  0  0  0  0  0  0  0  0  0
    4.8089   -3.1499   -0.3135 H   0  0  0  0  0  0  0  0  0  0  0  0
  1  4  1  0  0  0  0
  1  6  1  0  0  0  0
  1  7  1  0  0  0  0
  1  8  2  0  0  0  0
  2 14  1  0  0  0  0
  2 16  1  0  0  0  0
  3 13  1  0  0  0  0
  3 28  1  0  0  0  0
  4 17  1  0  0  0  0
  5 18  2  0  0  0  0
  6 30  1  0  0  0  0
  7 31  1  0  0  0  0
  9 16  1  0  0  0  0
  9 18  1  0  0  0  0
  9 19  1  0  0  0  0
 10 18  1  0  0  0  0
 10 20  2  0  0  0  0
 11 19  2  0  0  0  0
 11 20  1  0  0  0  0
 12 20  1  0  0  0  0
 12 32  1  0  0  0  0
 12 33  1  0  0  0  0
 13 14  1  0  0  0  0
 13 15  1  0  0  0  0
 13 21  1  0  0  0  0
 14 17  1  0  0  0  0
 14 22  1  0  0  0  0
 15 16  1  0  0  0  0
 15 23  1  0  0  0  0
 15 24  1  0  0  0  0
 16 25  1  0  0  0  0
 17 26  1  0  0  0  0
 17 27  1  0  0  0  0
 19 29  1  0  0  0  0
M  END
> <PUBCHEM_COMPOUND_CID>
125632

> <PUBCHEM_CONFORMER_RMSD>
0.8

> <PUBCHEM_CONFORMER_DIVERSEORDER>
1
22
26
6
30
25
29
27
12
23
28
18
13
19
20
15
7
21
31
10
4
3
16
24
9
5
14
8
17
2
11

> <PUBCHEM_MMFF94_PARTIAL_CHARGES>
25
1 1.51
10 -0.66
11 -0.66
12 -0.85
13 0.28
14 0.28
16 0.58
17 0.28
18 0.84
19 0.45
2 -0.56
20 0.71
28 0.4
29 0.06
3 -0.68
30 0.5
31 0.5
32 0.4
33 0.4
4 -0.55
5 -0.57
6 -0.77
7 -0.77
8 -0.7
9 -0.42

> <PUBCHEM_EFFECTIVE_ROTOR_COUNT>
5

> <PUBCHEM_PHARMACOPHORE_FEATURES>
12
1 10 donor
1 12 donor
1 2 acceptor
1 3 acceptor
1 3 donor
1 5 acceptor
1 6 acceptor
1 7 acceptor
1 8 acceptor
4 1 6 7 8 anion
5 2 13 14 15 16 rings
6 9 10 11 18 19 20 rings

> <PUBCHEM_HEAVY_ATOM_COUNT>
20

> <PUBCHEM_ATOM_DEF_STEREO_COUNT>
3

> <PUBCHEM_ATOM_UDEF_STEREO_COUNT>
0

> <PUBCHEM_BOND_DEF_STEREO_COUNT>
0

> <PUBCHEM_BOND_UDEF_STEREO_COUNT>
0

> <PUBCHEM_ISOTOPIC_ATOM_COUNT>
0

> <PUBCHEM_COMPONENT_COUNT>
1

> <PUBCHEM_CACTVS_TAUTO_COUNT>
3

> <PUBCHEM_CONFORMER_ID>
0001EAC000000001

> <PUBCHEM_MMFF94_ENERGY>
17.9826

> <PUBCHEM_FEATURE_SELFOVERLAP>
60.981

> <PUBCHEM_SHAPE_FINGERPRINT>
116883 192 18336542729398566405
12500047 106 17687744939737139964
12506688 2 18342175574421996865
12553582 1 18337967778008868771
12633257 1 17843975736311675331
13004483 165 18339350877885107535
13140716 1 18340211773740565355
13544653 18 18413108385513429017
138480 1 15023585169759795053
14223421 5 18341325592220778724
14251705 54 18336830887196547011
14790565 3 17761776573590520084
14863182 85 18119537788855036116
15352361 1 18410009944630238743
15422964 175 18409726291893846181
17357779 13 18337093623447015727
17859628 97 16894833138372510331
19141452 34 18268717108587599017
19591789 44 17039521756011128788
20291156 8 18411703196699930415
20645477 70 17902217147120188871
21665056 4 17688027513966969925
221490 88 18339927009383466538
2255824 54 17905613559543928373
23557571 272 18261660498425874640
23559900 14 18267293245382495080
2871803 45 18335978696807327326
314173 41 18260546770793640867
46194498 28 17604703516916948237
474229 33 18338793550418520680
6443956 14 18336545018800764477
7364860 26 18049440649893381793
81228 2 18187931616606972665
8809292 202 18122065295403970650
9709674 26 18196647398119602044

> <PUBCHEM_SHAPE_MULTIPOLES>
354.43
7.46
3.98
0.87
1.84
1.27
0
-7.08
-0.11
0.24
0.4
0.49
-0.03
0.59

> <PUBCHEM_SHAPE_SELFOVERLAP>
726.765

> <PUBCHEM_SHAPE_VOLUME>
206.3

> <PUBCHEM_COORDINATE_TYPE>
2
5
10

$$$$
