REMARK  Name = 125666
REMARK  4 active torsions:
REMARK  status: ('A' for Active; 'I' for Inactive)
REMARK    1  A    between atoms: C_7  and  O_18
REMARK    2  A    between atoms: C_14  and  O_20
REMARK    3  A    between atoms: C_15  and  O_22
REMARK    4  A    between atoms: C_16  and  O_24
REMARK                            x       y       z     vdW  Elec       q    Type
REMARK                         _______ _______ _______ _____ _____    ______ ____
ROOT
ATOM      1  O   UNL     1      -3.972   0.663  -0.700  0.00  0.00    -0.334 OA
ATOM      2  O   UNL     1      -0.169  -2.477  -0.114  0.00  0.00    -0.291 OA
ATOM      3  O   UNL     1      -0.445   2.862   0.051  0.00  0.00    -0.291 OA
ATOM      4  C   UNL     1      -1.535  -0.521   0.284  0.00  0.00    +0.077 C 
ATOM      5  C   UNL     1      -1.546   0.784  -0.508  0.00  0.00    +0.099 C 
ATOM      6  C   UNL     1      -2.758  -1.363  -0.098  0.00  0.00    +0.064 C 
ATOM      7  C   UNL     1      -4.057  -0.555   0.050  0.00  0.00    +0.184 C 
ATOM      8  C   UNL     1      -2.881   1.500  -0.316  0.00  0.00    +0.153 C 
ATOM      9  C   UNL     1      -0.232  -1.261   0.036  0.00  0.00    +0.176 C 
ATOM     10  C   UNL     1      -0.367   1.648  -0.098  0.00  0.00    +0.179 C 
ATOM     11  C   UNL     1       1.006  -0.443   0.065  0.00  0.00    +0.077 C 
ATOM     12  C   UNL     1       0.938   0.956   0.043  0.00  0.00    +0.074 C 
ATOM     13  C   UNL     1      -5.234  -1.354  -0.510  0.00  0.00    +0.061 C 
ATOM     14  C   UNL     1       2.248  -1.080   0.148  0.00  0.00    +0.171 C 
ATOM     15  C   UNL     1       2.112   1.713   0.123  0.00  0.00    +0.140 C 
ATOM     16  C   UNL     1       3.416  -0.320   0.222  0.00  0.00    +0.175 C 
ATOM     17  C   UNL     1       3.348   1.072   0.213  0.00  0.00    +0.077 C 
ENDROOT
BRANCH   7  18
ATOM     18  O   UNL     1      -4.288  -0.312   1.439  0.00  0.00    -0.364 OA
ATOM     19  H   UNL     1      -3.547   0.195   1.806  0.00  0.00    +0.213 HD
ENDBRANCH   7  18
BRANCH  14  20
ATOM     20  O   UNL     1       2.369  -2.439   0.182  0.00  0.00    -0.503 OA
ATOM     21  H   UNL     1       1.605  -2.979   0.135  0.00  0.00    +0.292 HD
ENDBRANCH  14  20
BRANCH  15  22
ATOM     22  O   UNL     1       2.114   3.075   0.098  0.00  0.00    -0.505 OA
ATOM     23  H   UNL     1       1.305   3.544   0.038  0.00  0.00    +0.292 HD
ENDBRANCH  15  22
BRANCH  16  24
ATOM     24  O   UNL     1       4.635  -0.925   0.308  0.00  0.00    -0.468 OA
ATOM     25  C   UNL     1       5.299  -1.221  -0.919  0.00  0.00    +0.253 C 
ENDBRANCH  16  24
TORSDOF 4
