125641
  -OEChem-03292013323D

 38 40  0     1  0  0  0  0  0999 V2000
   -1.6514   -0.3175   -0.6988 O   0  0  0  0  0  0  0  0  0  0  0  0
   -0.4027    1.6481   -0.8413 O   0  0  0  0  0  0  0  0  0  0  0  0
   -4.9118    1.7006    0.7742 O   0  0  0  0  0  0  0  0  0  0  0  0
   -2.2317    2.9148    0.9008 O   0  0  0  0  0  0  0  0  0  0  0  0
   -4.7077   -1.1785    1.1166 O   0  0  0  0  0  0  0  0  0  0  0  0
   -3.5224   -3.2388   -0.1585 O   0  0  0  0  0  0  0  0  0  0  0  0
   -2.2082   -2.5146   -1.8745 O   0  0  0  0  0  0  0  0  0  0  0  0
    3.0848   -1.3620    0.4495 O   0  0  0  0  0  0  0  0  0  0  0  0
    4.7672   -2.7899    1.0631 O   0  0  0  0  0  0  0  0  0  0  0  0
   -3.6793    0.9846    0.8657 C   0  0  2  0  0  0  0  0  0  0  0  0
   -2.5823    1.7612    0.1367 C   0  0  2  0  0  0  0  0  0  0  0  0
   -3.8885   -0.3982    0.2475 C   0  0  1  0  0  0  0  0  0  0  0  0
   -2.5562   -1.1127    0.0589 C   0  0  1  0  0  0  0  0  0  0  0  0
   -1.3273    0.9073   -0.0456 C   0  0  1  0  0  0  0  0  0  0  0  0
   -2.7205   -2.3392   -0.7790 C   0  0  0  0  0  0  0  0  0  0  0  0
    0.9257    1.4042   -0.6237 C   0  0  0  0  0  0  0  0  0  0  0  0
    1.3359    0.1466   -0.1975 C   0  0  0  0  0  0  0  0  0  0  0  0
    1.8568    2.4199   -0.8318 C   0  0  0  0  0  0  0  0  0  0  0  0
    2.6941   -0.0781    0.0174 C   0  0  0  0  0  0  0  0  0  0  0  0
    3.6427    0.9210   -0.1837 C   0  0  0  0  0  0  0  0  0  0  0  0
    3.2164    2.1801   -0.6123 C   0  0  0  0  0  0  0  0  0  0  0  0
    5.0426    0.6176    0.0597 C   0  0  0  0  0  0  0  0  0  0  0  0
    5.4047   -0.6010    0.4684 C   0  0  0  0  0  0  0  0  0  0  0  0
    4.4189   -1.6756    0.6882 C   0  0  0  0  0  0  0  0  0  0  0  0
   -3.4443    0.9088    1.9347 H   0  0  0  0  0  0  0  0  0  0  0  0
   -2.9467    2.1172   -0.8349 H   0  0  0  0  0  0  0  0  0  0  0  0
   -4.4245   -0.3033   -0.7049 H   0  0  0  0  0  0  0  0  0  0  0  0
   -2.0862   -1.4068    1.0056 H   0  0  0  0  0  0  0  0  0  0  0  0
   -0.9032    0.7108    0.9509 H   0  0  0  0  0  0  0  0  0  0  0  0
   -5.5875    1.1773    1.2384 H   0  0  0  0  0  0  0  0  0  0  0  0
   -3.0432    3.4350    1.0297 H   0  0  0  0  0  0  0  0  0  0  0  0
   -4.2436   -1.2708    1.9661 H   0  0  0  0  0  0  0  0  0  0  0  0
    0.6564   -0.6828   -0.0408 H   0  0  0  0  0  0  0  0  0  0  0  0
    1.5324    3.4021   -1.1648 H   0  0  0  0  0  0  0  0  0  0  0  0
   -3.6443   -4.0517   -0.6940 H   0  0  0  0  0  0  0  0  0  0  0  0
    3.9298    2.9832   -0.7792 H   0  0  0  0  0  0  0  0  0  0  0  0
    5.7843    1.3932   -0.0956 H   0  0  0  0  0  0  0  0  0  0  0  0
    6.4476   -0.8351    0.6520 H   0  0  0  0  0  0  0  0  0  0  0  0
  1 13  1  0  0  0  0
  1 14  1  0  0  0  0
  2 14  1  0  0  0  0
  2 16  1  0  0  0  0
  3 10  1  0  0  0  0
  3 30  1  0  0  0  0
  4 11  1  0  0  0  0
  4 31  1  0  0  0  0
  5 12  1  0  0  0  0
  5 32  1  0  0  0  0
  6 15  1  0  0  0  0
  6 35  1  0  0  0  0
  7 15  2  0  0  0  0
  8 19  1  0  0  0  0
  8 24  1  0  0  0  0
  9 24  2  0  0  0  0
 10 11  1  0  0  0  0
 10 12  1  0  0  0  0
 10 25  1  0  0  0  0
 11 14  1  0  0  0  0
 11 26  1  0  0  0  0
 12 13  1  0  0  0  0
 12 27  1  0  0  0  0
 13 15  1  0  0  0  0
 13 28  1  0  0  0  0
 14 29  1  0  0  0  0
 16 17  2  0  0  0  0
 16 18  1  0  0  0  0
 17 19  1  0  0  0  0
 17 33  1  0  0  0  0
 18 21  2  0  0  0  0
 18 34  1  0  0  0  0
 19 20  2  0  0  0  0
 20 21  1  0  0  0  0
 20 22  1  0  0  0  0
 21 36  1  0  0  0  0
 22 23  2  0  0  0  0
 22 37  1  0  0  0  0
 23 24  1  0  0  0  0
 23 38  1  0  0  0  0
M  END
> <PUBCHEM_COMPOUND_CID>
125641

> <PUBCHEM_CONFORMER_RMSD>
0.8

> <PUBCHEM_CONFORMER_DIVERSEORDER>
4
63
51
42
32
5
22
26
46
13
71
61
53
21
64
52
24
54
72
11
16
44
17
45
12
62
57
9
43
67
35
58
8
41
28
60
48
18
7
14
68
49
65
66
40
27
56
69
6
73
25
33
70
1
50
36
3
55
30
19
39
38
20
59
31
15
34
10
2
29
23
37
47

> <PUBCHEM_MMFF94_PARTIAL_CHARGES>
33
1 -0.56
10 0.28
11 0.28
12 0.28
13 0.34
14 0.56
15 0.66
16 0.08
17 -0.15
18 -0.15
19 0.08
2 -0.36
20 0.03
21 -0.15
22 -0.18
23 -0.14
24 0.71
3 -0.68
30 0.4
31 0.4
32 0.4
33 0.15
34 0.15
35 0.5
36 0.15
37 0.15
38 0.15
4 -0.68
5 -0.68
6 -0.65
7 -0.57
8 -0.23
9 -0.57

> <PUBCHEM_EFFECTIVE_ROTOR_COUNT>
4.2

> <PUBCHEM_PHARMACOPHORE_FEATURES>
15
1 1 acceptor
1 2 acceptor
1 3 acceptor
1 3 donor
1 4 acceptor
1 4 donor
1 5 acceptor
1 5 donor
1 6 acceptor
1 7 acceptor
1 9 acceptor
3 6 7 15 anion
6 1 10 11 12 13 14 rings
6 16 17 18 19 20 21 rings
6 8 19 20 22 23 24 rings

> <PUBCHEM_HEAVY_ATOM_COUNT>
24

> <PUBCHEM_ATOM_DEF_STEREO_COUNT>
5

> <PUBCHEM_ATOM_UDEF_STEREO_COUNT>
0

> <PUBCHEM_BOND_DEF_STEREO_COUNT>
0

> <PUBCHEM_BOND_UDEF_STEREO_COUNT>
0

> <PUBCHEM_ISOTOPIC_ATOM_COUNT>
0

> <PUBCHEM_COMPONENT_COUNT>
1

> <PUBCHEM_CACTVS_TAUTO_COUNT>
1

> <PUBCHEM_CONFORMER_ID>
0001EAC900000004

> <PUBCHEM_MMFF94_ENERGY>
76.5662

> <PUBCHEM_FEATURE_SELFOVERLAP>
76.286

> <PUBCHEM_SHAPE_FINGERPRINT>
10616163 171 18341617056948866606
10622 236 18197195126509473559
11552529 35 18273205426457235166
12107183 9 18193842543814915849
12174731 88 17610321767758766266
12553582 1 17969490525257500730
12633257 1 17489597796019761779
13140716 1 18412825810803745837
13167823 11 18408887334725990504
13533116 47 18335706099828535681
13551218 46 18335987480358326259
13583140 156 17131821084792205690
14100547 121 18273208703391292599
14341114 176 18412269419661011504
14420673 8 18122068598371491018
14790565 3 17756718790613116236
14849402 71 18194680600396069056
15099037 8 18337950198465185204
15209289 33 18186522111461325506
15250474 111 18338793528537729726
15442244 35 18408885127102263740
15537594 2 18260838068513668030
16110190 28 18339638933142391666
17492 89 18337111262699144418
17780758 139 18341604893922938928
17818456 19 18271251525491213928
17857418 61 18410851092188632886
1813 80 17240489083103783300
19141452 34 18409448046611281292
19319366 153 17112133499783086615
20281475 54 18336542815260826748
20554085 129 17273976831821334385
21065198 48 18411422855394145404
21267235 1 18335713761786330506
21673915 165 18409445908213310130
22950370 63 18261397677166882972
23503953 91 18341326730334546720
23559900 14 18341888623578768464
23598288 3 18201157766831683349
23728640 28 18272089401049744015
4214541 1 18410293596828177976
4283 87 18260539018377977010
5104073 3 18411986874773526512
559249 180 18335699416943870897
56633871 153 18266736883461013106
5924683 9 18059847419975573967
6823239 73 17916044411987862582
7064713 232 18130786720272025346
7097593 13 18410293601365628140
9709674 26 18114751532965948818

> <PUBCHEM_SHAPE_MULTIPOLES>
441.08
11.58
3.32
1.04
4.46
1.05
0.15
4
-3.36
-1.1
0.22
-0.47
0.26
-2.33

> <PUBCHEM_SHAPE_SELFOVERLAP>
957.504

> <PUBCHEM_SHAPE_VOLUME>
237.1

> <PUBCHEM_COORDINATE_TYPE>
2
5
10

$$$$
