125654
  -OEChem-03292013323D

 31 32  0     1  0  0  0  0  0999 V2000
   -1.1109   -1.4314    0.5386 O   0  0  0  0  0  0  0  0  0  0  0  0
   -3.1794    0.7003    1.8180 O   0  0  0  0  0  0  0  0  0  0  0  0
   -2.7495   -3.0098   -1.0684 O   0  0  0  0  0  0  0  0  0  0  0  0
    1.8111    0.8200    2.3005 O   0  0  0  0  0  0  0  0  0  0  0  0
    0.9407   -0.2974    0.4790 N   0  0  0  0  0  0  0  0  0  0  0  0
   -0.9093    1.2441   -0.9567 N   0  0  0  0  0  0  0  0  0  0  0  0
    3.2914    0.1827    0.7023 N   0  0  0  0  0  0  0  0  0  0  0  0
   -1.0868    2.4274   -1.3042 N   0  3  0  0  0  0  0  0  0  0  0  0
    4.8027   -0.4714   -0.9397 N   0  0  0  0  0  0  0  0  0  0  0  0
   -1.2480    3.5096   -1.6264 N   0  5  0  0  0  0  0  0  0  0  0  0
   -1.2254    0.9303    0.4421 C   0  0  1  0  0  0  0  0  0  0  0  0
   -2.6454    0.4056    0.5272 C   0  0  1  0  0  0  0  0  0  0  0  0
   -0.4124   -0.2508    0.9494 C   0  0  1  0  0  0  0  0  0  0  0  0
   -2.5038   -1.1085    0.3614 C   0  0  1  0  0  0  0  0  0  0  0  0
   -2.9279   -1.6039   -1.0133 C   0  0  0  0  0  0  0  0  0  0  0  0
    1.1986   -0.9116   -0.7347 C   0  0  0  0  0  0  0  0  0  0  0  0
    2.0092    0.2652    1.2181 C   0  0  0  0  0  0  0  0  0  0  0  0
    2.4240   -1.0001   -1.2483 C   0  0  0  0  0  0  0  0  0  0  0  0
    3.5210   -0.4004   -0.4450 C   0  0  0  0  0  0  0  0  0  0  0  0
   -1.0431    1.8058    1.0786 H   0  0  0  0  0  0  0  0  0  0  0  0
   -3.3303    0.8446   -0.2059 H   0  0  0  0  0  0  0  0  0  0  0  0
   -0.4148   -0.2505    2.0468 H   0  0  0  0  0  0  0  0  0  0  0  0
   -3.0549   -1.6524    1.1376 H   0  0  0  0  0  0  0  0  0  0  0  0
   -2.3087   -1.1681   -1.8031 H   0  0  0  0  0  0  0  0  0  0  0  0
   -3.9774   -1.3730   -1.2201 H   0  0  0  0  0  0  0  0  0  0  0  0
   -3.2263    1.6683    1.8992 H   0  0  0  0  0  0  0  0  0  0  0  0
    0.3619   -1.3214   -1.2889 H   0  0  0  0  0  0  0  0  0  0  0  0
   -3.3249   -3.4068   -0.3925 H   0  0  0  0  0  0  0  0  0  0  0  0
    2.6344   -1.4723   -2.1985 H   0  0  0  0  0  0  0  0  0  0  0  0
    5.0129   -0.9165   -1.8270 H   0  0  0  0  0  0  0  0  0  0  0  0
    5.5819   -0.0749   -0.4254 H   0  0  0  0  0  0  0  0  0  0  0  0
  1 13  1  0  0  0  0
  1 14  1  0  0  0  0
  2 12  1  0  0  0  0
  2 26  1  0  0  0  0
  3 15  1  0  0  0  0
  3 28  1  0  0  0  0
  4 17  2  0  0  0  0
  5 13  1  0  0  0  0
  5 16  1  0  0  0  0
  5 17  1  0  0  0  0
  6  8  2  0  0  0  0
  6 11  1  0  0  0  0
  7 17  1  0  0  0  0
  7 19  2  0  0  0  0
  8 10  2  0  0  0  0
  9 19  1  0  0  0  0
  9 30  1  0  0  0  0
  9 31  1  0  0  0  0
 11 12  1  0  0  0  0
 11 13  1  0  0  0  0
 11 20  1  0  0  0  0
 12 14  1  0  0  0  0
 12 21  1  0  0  0  0
 13 22  1  0  0  0  0
 14 15  1  0  0  0  0
 14 23  1  0  0  0  0
 15 24  1  0  0  0  0
 15 25  1  0  0  0  0
 16 18  2  0  0  0  0
 16 27  1  0  0  0  0
 18 19  1  0  0  0  0
 18 29  1  0  0  0  0
M  CHG  2   8   1  10  -1
M  END
> <PUBCHEM_COMPOUND_CID>
125654

> <PUBCHEM_CONFORMER_RMSD>
0.6

> <PUBCHEM_CONFORMER_DIVERSEORDER>
1
16
27
10
29
30
25
26
4
7
13
22
31
24
15
21
18
3
20
11
9
23
12
19
2
28
14
17
6
8
5

> <PUBCHEM_MMFF94_PARTIAL_CHARGES>
25
1 -0.56
10 -0.37
11 0.25
12 0.28
13 0.58
14 0.28
15 0.28
16 -0.04
17 0.84
18 -0.14
19 0.49
2 -0.68
26 0.4
27 0.15
28 0.4
29 0.15
3 -0.68
30 0.4
31 0.4
4 -0.57
5 -0.47
6 -0.56
7 -0.66
8 0.69
9 -0.85

> <PUBCHEM_EFFECTIVE_ROTOR_COUNT>
4

> <PUBCHEM_PHARMACOPHORE_FEATURES>
10
1 1 acceptor
1 2 acceptor
1 2 donor
1 3 acceptor
1 3 donor
1 4 acceptor
1 7 donor
1 9 donor
5 1 11 12 13 14 rings
6 5 7 16 17 18 19 rings

> <PUBCHEM_HEAVY_ATOM_COUNT>
19

> <PUBCHEM_ATOM_DEF_STEREO_COUNT>
4

> <PUBCHEM_ATOM_UDEF_STEREO_COUNT>
0

> <PUBCHEM_BOND_DEF_STEREO_COUNT>
0

> <PUBCHEM_BOND_UDEF_STEREO_COUNT>
0

> <PUBCHEM_ISOTOPIC_ATOM_COUNT>
0

> <PUBCHEM_COMPONENT_COUNT>
1

> <PUBCHEM_CACTVS_TAUTO_COUNT>
3

> <PUBCHEM_CONFORMER_ID>
0001EAD600000001

> <PUBCHEM_MMFF94_ENERGY>
49.199

> <PUBCHEM_FEATURE_SELFOVERLAP>
50.797

> <PUBCHEM_SHAPE_FINGERPRINT>
12403814 3 18262533497730930065
12500047 106 17988369169723018787
12932764 1 18409726219032350794
13380536 127 17604150311664293024
13583140 156 17911195587205364330
14181834 199 17541078197415924727
14863182 85 16980676946049690423
16945 1 18113613486733305026
17357779 13 17986086704006585367
1813 80 18264201599015844983
20361792 2 18187364393434904451
20388580 30 17907571777121589375
20600515 1 17903049446824914227
21524375 3 17248063438055453509
22112679 90 18263100944731459781
221490 88 17560524031353389082
23402539 116 18040439893099725158
23419403 2 17260976463747743857
23557571 272 18266159781526580193
23559900 14 17703502298198120659
238 59 17038088525894348877
3286 77 17560517412586843674
6442390 28 18052538764607555513
81228 2 18408879646824130097

> <PUBCHEM_SHAPE_MULTIPOLES>
337.65
6.19
2.45
1.7
4.86
0.93
0.25
-2.08
-0.49
-2.66
-1.82
-0.05
0.84
0.42

> <PUBCHEM_SHAPE_SELFOVERLAP>
709.712

> <PUBCHEM_SHAPE_VOLUME>
188.6

> <PUBCHEM_COORDINATE_TYPE>
2
5
10

$$$$
