REMARK  Name = 125672
REMARK  12 active torsions:
REMARK  status: ('A' for Active; 'I' for Inactive)
REMARK    1  A    between atoms: CA_3  and  C_10
REMARK    2  A    between atoms: C_7  and  CA_20
REMARK    3  A    between atoms: N_9  and  CA_12
REMARK    4  A    between atoms: CA_12  and  CB_13
REMARK    5  A    between atoms: CA_12  and  C_17
REMARK    6  A    between atoms: C_17  and  O_18
REMARK    7  A    between atoms: CA_20  and  N_21
REMARK    8  A    between atoms: CA_20  and  CB_25
REMARK    9  A    between atoms: CB_25  and  CG_26
REMARK   10  A    between atoms: CG_26  and  CD_27
REMARK   11  A    between atoms: CD_27  and  CE_28
REMARK   12  A    between atoms: CE_28  and  NZ_29
REMARK                            x       y       z     vdW  Elec       q    Type
REMARK                         _______ _______ _______ _____ _____    ______ ____
ROOT
ATOM      1  O   LYS A   1      -0.626  -0.034  -1.954  0.00  0.00    -0.277 OA
ATOM      2  N   PRO A   2      -0.579   1.543  -0.261  0.00  0.00    -0.275 N 
ATOM      3  CA  PRO A   2       0.864   1.741  -0.258  0.00  0.00    +0.152 C 
ATOM      4  CB  PRO A   2       1.078   3.022   0.539  0.00  0.00    +0.031 C 
ATOM      5  CG  PRO A   2      -0.105   3.041   1.505  0.00  0.00    +0.024 C 
ATOM      6  CD  PRO A   2      -1.237   2.443   0.683  0.00  0.00    +0.094 C 
ATOM      7  C   LYS A   1      -1.215   0.713  -1.171  0.00  0.00    +0.205 C 
ENDROOT
BRANCH   3  10
ATOM      8  O   PRO A   2       0.873  -0.067   1.301  0.00  0.00    -0.273 OA
ATOM      9  N   VAL A   3       2.749   0.281  -0.033  0.00  0.00    -0.295 N 
ATOM     10  C   PRO A   2       1.471   0.553   0.425  0.00  0.00    +0.241 C 
ATOM     11  H   VAL A   3       3.123   0.851  -0.743  0.00  0.00    +0.150 HD
BRANCH   9  12
ATOM     12  CA  VAL A   3       3.559  -0.800   0.480  0.00  0.00    +0.171 C 
BRANCH  12  13
ATOM     13  CB  VAL A   3       3.276  -2.099  -0.305  0.00  0.00    +0.029 C 
ATOM     14  CG1 VAL A   3       3.938  -3.320   0.338  0.00  0.00    +0.002 C 
ATOM     15  CG2 VAL A   3       3.659  -2.005  -1.785  0.00  0.00    +0.002 C 
ENDBRANCH  12  13
BRANCH  12  17
ATOM     16  OXT VAL A   3       5.907  -1.094   1.030  0.00  0.00    -0.248 OA
ATOM     17  C   VAL A   3       5.032  -0.400   0.525  0.00  0.00    +0.332 C 
BRANCH  17  18
ATOM     18  O   VAL A   3       5.300   0.822   0.004  0.00  0.00    -0.479 OA
ATOM     19  H   VAL A   3       4.611   1.331  -0.375  0.00  0.00    +0.295 HD
ENDBRANCH  17  18
ENDBRANCH  12  17
ENDBRANCH   9  12
ENDBRANCH   3  10
BRANCH   7  20
ATOM     20  CA  LYS A   1      -2.722   0.760  -1.151  0.00  0.00    +0.013 C 
BRANCH  20  21
ATOM     21  N   LYS A   1      -3.146   0.525  -2.528  0.00  0.00    +0.387 N 
ATOM     22  H1  LYS A   1      -2.746   1.242  -3.133  0.00  0.00    -0.089 HD
ATOM     23  H2  LYS A   1      -4.164   0.562  -2.581  0.00  0.00    -0.089 HD
ATOM     24  H3  LYS A   1      -2.823  -0.394  -2.830  0.00  0.00    -0.089 HD
ENDBRANCH  20  21
BRANCH  20  25
ATOM     25  CB  LYS A   1      -3.305  -0.301  -0.211  0.00  0.00    -0.013 C 
BRANCH  25  26
ATOM     26  CG  LYS A   1      -4.838  -0.274  -0.193  0.00  0.00    -0.004 C 
BRANCH  26  27
ATOM     27  CD  LYS A   1      -5.454  -1.340   0.719  0.00  0.00    -0.024 C 
BRANCH  27  28
ATOM     28  CE  LYS A   1      -6.983  -1.330   0.714  0.00  0.00    -0.086 C 
BRANCH  28  29
ATOM     29  NZ  LYS A   1      -7.496  -2.380   1.587  0.00  0.00    +0.380 N 
ATOM     30  HZ1 LYS A   1      -8.516  -2.364   1.575  0.00  0.00    -0.089 HD
ATOM     31  HZ2 LYS A   1      -7.164  -2.224   2.538  0.00  0.00    -0.089 HD
ATOM     32  HZ3 LYS A   1      -7.167  -3.288   1.257  0.00  0.00    -0.089 HD
ENDBRANCH  28  29
ENDBRANCH  27  28
ENDBRANCH  26  27
ENDBRANCH  25  26
ENDBRANCH  20  25
ENDBRANCH   7  20
TORSDOF 12
