REMARK  Name = 125632
REMARK  7 active torsions:
REMARK  status: ('A' for Active; 'I' for Inactive)
REMARK    1  A    between atoms: C_2  and  O_16
REMARK    2  A    between atoms: C_3  and  C_18
REMARK    3  A    between atoms: C_5  and  N_7
REMARK    4  A    between atoms: C_18  and  O_19
REMARK    5  A    between atoms: O_19  and  P_20
REMARK    6  A    between atoms: P_20  and  O_22
REMARK    7  A    between atoms: P_20  and  O_24
REMARK                            x       y       z     vdW  Elec       q    Type
REMARK                         _______ _______ _______ _____ _____    ______ ____
ROOT
ATOM      1  O   UNL     1      -0.334   1.165   1.024  0.00  0.00    -0.334 OA
ATOM      2  C   UNL     1      -0.828   2.760  -0.659  0.00  0.00    +0.144 C 
ATOM      3  C   UNL     1      -1.437   1.764   0.318  0.00  0.00    +0.174 C 
ATOM      4  C   UNL     1       0.525   2.157  -0.963  0.00  0.00    +0.083 C 
ATOM      5  C   UNL     1       0.892   1.493   0.355  0.00  0.00    +0.206 C 
ENDROOT
BRANCH   5   7
ATOM      6  O   UNL     1       3.676   1.405   0.392  0.00  0.00    -0.192 OA
ATOM      7  N   UNL     1       1.670   0.302   0.179  0.00  0.00    -0.179 N 
ATOM      8  N   UNL     1       3.748  -0.841   0.035  0.00  0.00    -0.252 NA
ATOM      9  N   UNL     1       1.721  -2.023  -0.191  0.00  0.00    -0.174 NA
ATOM     10  N   UNL     1       3.795  -3.133  -0.329  0.00  0.00    -0.293 N 
ATOM     11  C   UNL     1       3.071   0.348   0.212  0.00  0.00    +0.282 C 
ATOM     12  C   UNL     1       1.074  -0.921  -0.027  0.00  0.00    +0.245 C 
ATOM     13  C   UNL     1       3.100  -1.961  -0.155  0.00  0.00    +0.151 C 
ATOM     14  H   UNL     1       4.779  -3.129  -0.310  0.00  0.00    +0.155 HD
ATOM     15  H   UNL     1       3.309  -3.977  -0.473  0.00  0.00    +0.155 HD
ENDBRANCH   5   7
BRANCH   2  16
ATOM     16  O   UNL     1      -0.658   4.024  -0.022  0.00  0.00    -0.382 OA
ATOM     17  H   UNL     1      -1.527   4.408   0.171  0.00  0.00    +0.210 HD
ENDBRANCH   2  16
BRANCH   3  18
ATOM     18  C   UNL     1      -2.210   0.650  -0.376  0.00  0.00    +0.186 C 
BRANCH  18  19
ATOM     19  O   UNL     1      -2.729  -0.229   0.609  0.00  0.00    -0.271 OA
BRANCH  19  20
ATOM     20  P   UNL     1      -3.596  -1.506   0.122  0.00  0.00    +0.473 P 
ATOM     21  O   UNL     1      -4.107  -2.384   1.227  0.00  0.00    -0.227 OA
BRANCH  20  22
ATOM     22  O   UNL     1      -2.633  -2.237  -0.952  0.00  0.00    -0.303 OA
ATOM     23  H   UNL     1      -2.354  -1.596  -1.624  0.00  0.00    +0.222 HD
ENDBRANCH  20  22
BRANCH  20  24
ATOM     24  O   UNL     1      -4.741  -0.834  -0.801  0.00  0.00    -0.303 OA
ATOM     25  H   UNL     1      -4.324  -0.286  -1.485  0.00  0.00    +0.222 HD
ENDBRANCH  20  24
ENDBRANCH  19  20
ENDBRANCH  18  19
ENDBRANCH   3  18
TORSDOF 7
