125697
  -OEChem-03292013323D

 53 55  0     1  0  0  0  0  0999 V2000
    3.3456    1.9268   -0.7003 S   0  0  0  0  0  0  0  0  0  0  0  0
    2.6905   -3.0332    0.1335 S   0  0  0  0  0  0  0  0  0  0  0  0
    3.2370    3.3504   -0.4433 O   0  0  0  0  0  0  0  0  0  0  0  0
    4.5740    1.2203   -0.3892 O   0  0  0  0  0  0  0  0  0  0  0  0
    3.6215   -2.5726   -0.8779 O   0  0  0  0  0  0  0  0  0  0  0  0
    1.6703   -4.0126   -0.1880 O   0  0  0  0  0  0  0  0  0  0  0  0
   -2.0876    1.8737    0.6149 N   0  0  1  0  0  0  0  0  0  0  0  0
    2.0182    1.1130    0.0266 N   0  0  2  0  0  0  0  0  0  0  0  0
    1.9603   -1.6668    0.8926 N   0  0  0  0  0  0  0  0  0  0  0  0
   -1.7847    0.8689   -0.4374 C   0  0  1  0  0  0  0  0  0  0  0  0
    0.6513    1.5865   -0.2969 C   0  0  1  0  0  0  0  0  0  0  0  0
   -0.3210    0.4061   -0.2503 C   0  0  0  0  0  0  0  0  0  0  0  0
    0.2394    2.6721    0.6894 C   0  0  0  0  0  0  0  0  0  0  0  0
   -1.2253    3.0564    0.4954 C   0  0  0  0  0  0  0  0  0  0  0  0
   -3.5009    2.2577    0.5791 C   0  0  0  0  0  0  0  0  0  0  0  0
   -2.7732   -0.2975   -0.4429 C   0  0  0  0  0  0  0  0  0  0  0  0
   -4.3517    1.0613    0.9983 C   0  0  0  0  0  0  0  0  0  0  0  0
   -4.0092   -0.1836    0.2242 C   0  0  0  0  0  0  0  0  0  0  0  0
    2.1489    0.7043    1.4478 C   0  0  0  0  0  0  0  0  0  0  0  0
   -2.5201   -1.4662   -1.1806 C   0  0  0  0  0  0  0  0  0  0  0  0
   -4.9226   -1.2489    0.2051 C   0  0  0  0  0  0  0  0  0  0  0  0
    2.7758   -0.6788    1.5449 C   0  0  0  0  0  0  0  0  0  0  0  0
   -3.4403   -2.5165   -1.2048 C   0  0  0  0  0  0  0  0  0  0  0  0
    3.0052    1.6693   -2.4287 C   0  0  0  0  0  0  0  0  0  0  0  0
   -4.6375   -2.4115   -0.5057 C   0  0  0  0  0  0  0  0  0  0  0  0
    3.6362   -3.6787    1.4940 C   0  0  0  0  0  0  0  0  0  0  0  0
   -1.8779    1.3465   -1.4242 H   0  0  0  0  0  0  0  0  0  0  0  0
    0.6148    1.9983   -1.3092 H   0  0  0  0  0  0  0  0  0  0  0  0
   -0.2644   -0.1458    0.6937 H   0  0  0  0  0  0  0  0  0  0  0  0
   -0.0259   -0.3011   -1.0341 H   0  0  0  0  0  0  0  0  0  0  0  0
    0.8552    3.5670    0.5439 H   0  0  0  0  0  0  0  0  0  0  0  0
    0.3597    2.4025    1.7420 H   0  0  0  0  0  0  0  0  0  0  0  0
   -1.4864    3.7922    1.2660 H   0  0  0  0  0  0  0  0  0  0  0  0
   -1.3618    3.5458   -0.4779 H   0  0  0  0  0  0  0  0  0  0  0  0
   -3.7889    2.6104   -0.4202 H   0  0  0  0  0  0  0  0  0  0  0  0
   -3.7006    3.0755    1.2825 H   0  0  0  0  0  0  0  0  0  0  0  0
   -5.4087    1.3135    0.8504 H   0  0  0  0  0  0  0  0  0  0  0  0
   -4.2039    0.8548    2.0661 H   0  0  0  0  0  0  0  0  0  0  0  0
    1.2006    0.6512    1.9868 H   0  0  0  0  0  0  0  0  0  0  0  0
    2.7668    1.4349    1.9835 H   0  0  0  0  0  0  0  0  0  0  0  0
   -1.6064   -1.5769   -1.7573 H   0  0  0  0  0  0  0  0  0  0  0  0
   -5.8659   -1.1714    0.7401 H   0  0  0  0  0  0  0  0  0  0  0  0
    2.8844   -0.9474    2.6015 H   0  0  0  0  0  0  0  0  0  0  0  0
    3.7790   -0.6618    1.1108 H   0  0  0  0  0  0  0  0  0  0  0  0
   -3.2213   -3.4150   -1.7745 H   0  0  0  0  0  0  0  0  0  0  0  0
    2.1554    2.2748   -2.7426 H   0  0  0  0  0  0  0  0  0  0  0  0
    3.8903    1.9824   -2.9883 H   0  0  0  0  0  0  0  0  0  0  0  0
    2.8260    0.6062   -2.6004 H   0  0  0  0  0  0  0  0  0  0  0  0
   -5.3518   -3.2291   -0.5218 H   0  0  0  0  0  0  0  0  0  0  0  0
    1.0683   -1.8553    1.3686 H   0  0  0  0  0  0  0  0  0  0  0  0
    4.1024   -4.6100    1.1634 H   0  0  0  0  0  0  0  0  0  0  0  0
    4.4118   -2.9651    1.7753 H   0  0  0  0  0  0  0  0  0  0  0  0
    2.9635   -3.8828    2.3292 H   0  0  0  0  0  0  0  0  0  0  0  0
  1  3  2  0  0  0  0
  1  4  2  0  0  0  0
  1  8  1  0  0  0  0
  1 24  1  0  0  0  0
  2  5  2  0  0  0  0
  2  6  2  0  0  0  0
  2  9  1  0  0  0  0
  2 26  1  0  0  0  0
  7 10  1  0  0  0  0
  7 14  1  0  0  0  0
  7 15  1  0  0  0  0
  8 11  1  0  0  0  0
  8 19  1  0  0  0  0
  9 22  1  0  0  0  0
  9 50  1  0  0  0  0
 10 12  1  0  0  0  0
 10 16  1  0  0  0  0
 10 27  1  0  0  0  0
 11 12  1  0  0  0  0
 11 13  1  0  0  0  0
 11 28  1  0  0  0  0
 12 29  1  0  0  0  0
 12 30  1  0  0  0  0
 13 14  1  0  0  0  0
 13 31  1  0  0  0  0
 13 32  1  0  0  0  0
 14 33  1  0  0  0  0
 14 34  1  0  0  0  0
 15 17  1  0  0  0  0
 15 35  1  0  0  0  0
 15 36  1  0  0  0  0
 16 18  1  0  0  0  0
 16 20  2  0  0  0  0
 17 18  1  0  0  0  0
 17 37  1  0  0  0  0
 17 38  1  0  0  0  0
 18 21  2  0  0  0  0
 19 22  1  0  0  0  0
 19 39  1  0  0  0  0
 19 40  1  0  0  0  0
 20 23  1  0  0  0  0
 20 41  1  0  0  0  0
 21 25  1  0  0  0  0
 21 42  1  0  0  0  0
 22 43  1  0  0  0  0
 22 44  1  0  0  0  0
 23 25  2  0  0  0  0
 23 45  1  0  0  0  0
 24 46  1  0  0  0  0
 24 47  1  0  0  0  0
 24 48  1  0  0  0  0
 25 49  1  0  0  0  0
 26 51  1  0  0  0  0
 26 52  1  0  0  0  0
 26 53  1  0  0  0  0
M  END
> <PUBCHEM_COMPOUND_CID>
125697

> <PUBCHEM_CONFORMER_RMSD>
1

> <PUBCHEM_CONFORMER_DIVERSEORDER>
1
31
300
308
16
495
350
522
119
305
340
481
196
338
431
88
515
354
159
138
175
273
123
425
189
148
318
387
90
268
312
69
95
26
117
419
367
198
504
52
77
83
279
317
106
73
29
121
408
107
166
105
30
233
242
164
285
271
265
67
221
3
143
191
210
37
236
6
323
545
174
135
68
8
86
48
22
179
160
13
62
156
288
45
331
240
477
10
244
227
71
2
18
15
505
130
322
252
369
176
355
50
146
390
56
108
63
516
4
120
129
79
84
19
329
103
64
7
78
28
58
230
124
315
111
23
238
14
9
281
532

> <PUBCHEM_MMFF94_PARTIAL_CHARGES>
29
1 1.33
10 0.41
11 0.36
14 0.27
15 0.27
16 -0.14
17 0.14
18 -0.14
19 0.36
2 1.33
20 -0.15
21 -0.15
22 0.36
23 -0.15
24 0.11
25 -0.15
26 0.11
3 -0.65
4 -0.65
41 0.15
42 0.15
45 0.15
49 0.15
5 -0.65
50 0.42
6 -0.65
7 -0.81
8 -0.85
9 -0.91

> <PUBCHEM_EFFECTIVE_ROTOR_COUNT>
7.2

> <PUBCHEM_PHARMACOPHORE_FEATURES>
9
1 3 acceptor
1 4 acceptor
1 5 acceptor
1 6 acceptor
1 7 cation
1 9 donor
6 16 18 20 21 23 25 rings
6 7 10 11 12 13 14 rings
6 7 10 15 16 17 18 rings

> <PUBCHEM_HEAVY_ATOM_COUNT>
26

> <PUBCHEM_ATOM_DEF_STEREO_COUNT>
2

> <PUBCHEM_ATOM_UDEF_STEREO_COUNT>
0

> <PUBCHEM_BOND_DEF_STEREO_COUNT>
0

> <PUBCHEM_BOND_UDEF_STEREO_COUNT>
0

> <PUBCHEM_ISOTOPIC_ATOM_COUNT>
0

> <PUBCHEM_COMPONENT_COUNT>
1

> <PUBCHEM_CACTVS_TAUTO_COUNT>
1

> <PUBCHEM_CONFORMER_ID>
0001EB0100000001

> <PUBCHEM_MMFF94_ENERGY>
54.4096

> <PUBCHEM_FEATURE_SELFOVERLAP>
45.75

> <PUBCHEM_SHAPE_FINGERPRINT>
10616163 171 18341613745713398647
10940486 97 18049448037257989804
11186622 123 18341058462218858182
11578080 2 17822563898406952453
12107183 9 18051133597257746857
12553582 1 18269545216931295719
13140716 1 18270391677512636195
13533116 47 18341888619953467027
14790565 3 18122629615283784425
14863182 85 18337098086160733138
15250474 111 18412821395856933879
15537594 2 18339935921424424539
16110190 28 18126277550273064882
17492 89 18409445869479873147
1813 80 17896879850968803874
19319366 153 18120370118941017510
20567600 347 18262803007450941622
20775530 9 18339066104073307571
21054139 6 18338516477445613332
21421861 104 18411146805003028867
2255824 54 17975688708347354293
23559900 14 18340200769981605193
23566358 27 18336835207896502690
338550 245 18410015412033656630
340366 18 17901949642934088085
3737641 26 18339371850105087979
463206 1 18267304407443717870
57091435 65 18412543223657443518
6287921 2 18340482275266095866
6823239 73 17773890696647726542
7097593 13 18341325605000205249

> <PUBCHEM_SHAPE_MULTIPOLES>
504.35
9.71
4.91
1.44
4.31
2.86
-0.3
3.67
-0.31
-3.73
0.23
-1.09
0.01
-2.87

> <PUBCHEM_SHAPE_SELFOVERLAP>
1019.102

> <PUBCHEM_SHAPE_VOLUME>
295.8

> <PUBCHEM_COORDINATE_TYPE>
2
5
10

$$$$
