REMARK  Name = 125640
REMARK  4 active torsions:
REMARK  status: ('A' for Active; 'I' for Inactive)
REMARK    1  A    between atoms: N_2  and  C_7
REMARK    2  A    between atoms: C_3  and  C_19
REMARK    3  A    between atoms: C_23  and  C_24
REMARK    4  A    between atoms: C_24  and  N_25
REMARK                            x       y       z     vdW  Elec       q    Type
REMARK                         _______ _______ _______ _____ _____    ______ ____
ROOT
ATOM      1  O   UNL     1      -1.474  -0.456   0.993  0.00  0.00    -0.273 OA
ATOM      2  N   UNL     1      -0.657   1.322  -0.314  0.00  0.00    -0.282 N 
ATOM      3  C   UNL     1      -1.626   0.569   0.337  0.00  0.00    +0.244 C 
ATOM      4  H   UNL     1      -0.975   2.122  -0.792  0.00  0.00    +0.155 HD
ENDROOT
BRANCH   2   7
ATOM      5  O   UNL     1       3.110  -1.404   0.880  0.00  0.00    -0.421 OA
ATOM      6  O   UNL     1       4.889  -2.718   1.460  0.00  0.00    -0.244 OA
ATOM      7  C   UNL     1       0.734   1.071  -0.370  0.00  0.00    +0.053 C 
ATOM      8  C   UNL     1       1.251  -0.035   0.276  0.00  0.00    +0.052 C 
ATOM      9  C   UNL     1       1.553   1.940  -1.071  0.00  0.00    +0.015 C 
ATOM     10  C   UNL     1       3.489   0.585  -0.488  0.00  0.00    +0.031 C 
ATOM     11  C   UNL     1       2.626  -0.264   0.207  0.00  0.00    +0.150 C 
ATOM     12  C   UNL     1       2.930   1.697  -1.131  0.00  0.00    +0.004 C 
ATOM     13  C   UNL     1       4.924   0.267  -0.507  0.00  0.00    -0.012 C 
ATOM     14  C   UNL     1       5.356  -0.824   0.141  0.00  0.00    +0.078 C 
ATOM     15  C   UNL     1       5.878   1.159  -1.246  0.00  0.00    +0.031 C 
ATOM     16  C   UNL     1       4.458  -1.728   0.879  0.00  0.00    +0.346 C 
ENDBRANCH   2   7
BRANCH   3  19
ATOM     17  O   UNL     1      -3.520  -0.738  -1.925  0.00  0.00    -0.277 OA
ATOM     18  N   UNL     1      -3.949   0.075   0.200  0.00  0.00    -0.275 N 
ATOM     19  C   UNL     1      -2.988   1.169   0.156  0.00  0.00    +0.152 C 
ATOM     20  C   UNL     1      -3.370   2.067   1.327  0.00  0.00    +0.031 C 
ATOM     21  C   UNL     1      -3.990   1.097   2.330  0.00  0.00    +0.024 C 
ATOM     22  C   UNL     1      -4.711   0.092   1.445  0.00  0.00    +0.094 C 
ATOM     23  C   UNL     1      -4.185  -0.752  -0.888  0.00  0.00    +0.204 C 
BRANCH  23  24
ATOM     24  C   UNL     1      -5.334  -1.717  -0.732  0.00  0.00    +0.001 C 
BRANCH  24  25
ATOM     25  N   UNL     1      -5.392  -2.478  -1.961  0.00  0.00    +0.386 N 
ATOM     26  H   UNL     1      -6.157  -3.150  -1.908  0.00  0.00    -0.089 HD
ATOM     27  H   UNL     1      -4.512  -2.975  -2.095  0.00  0.00    -0.089 HD
ATOM     28  H   UNL     1      -5.549  -1.845  -2.746  0.00  0.00    -0.089 HD
ENDBRANCH  24  25
ENDBRANCH  23  24
ENDBRANCH   3  19
TORSDOF 4
