REMARK  Name = 125701
REMARK  11 active torsions:
REMARK  status: ('A' for Active; 'I' for Inactive)
REMARK    1  A    between atoms: C_1  and  O_2
REMARK    2  A    between atoms: C_1  and  C_4
REMARK    3  A    between atoms: C_1  and  CA_13
REMARK    4  A    between atoms: C_4  and  O_5
REMARK    5  A    between atoms: C_4  and  C_7
REMARK    6  A    between atoms: C_7  and  O_8
REMARK    7  A    between atoms: C_7  and  C_10
REMARK    8  A    between atoms: C_10  and  O_11
REMARK    9  A    between atoms: CA_13  and  N_15
REMARK   10  A    between atoms: CA_13  and  C_21
REMARK   11  A    between atoms: C_16  and  C_19
REMARK                            x       y       z     vdW  Elec       q    Type
REMARK                         _______ _______ _______ _____ _____    ______ ____
ROOT
ATOM      1  C   UNL     1       0.623   0.990   0.186  0.00  0.00    +0.165 C 
ENDROOT
BRANCH   1   2
ATOM      2  O   UNL     1       0.702   1.328   1.578  0.00  0.00    -0.380 OA
ATOM      3  H   UNL     1       1.632   1.359   1.851  0.00  0.00    +0.211 HD
ENDBRANCH   1   2
BRANCH   1   4
ATOM      4  C   UNL     1       1.396  -0.328  -0.024  0.00  0.00    +0.168 C 
BRANCH   4   5
ATOM      5  O   UNL     1       1.216  -0.722  -1.392  0.00  0.00    -0.379 OA
ATOM      6  H   UNL     1       0.268  -0.762  -1.595  0.00  0.00    +0.211 HD
ENDBRANCH   4   5
BRANCH   4   7
ATOM      7  C   UNL     1       2.901  -0.268   0.285  0.00  0.00    +0.169 C 
BRANCH   7   8
ATOM      8  O   UNL     1       3.523   0.755  -0.494  0.00  0.00    -0.379 OA
ATOM      9  H   UNL     1       3.096   1.607  -0.309  0.00  0.00    +0.211 HD
ENDBRANCH   7   8
BRANCH   7  10
ATOM     10  C   UNL     1       3.607  -1.583  -0.042  0.00  0.00    +0.169 C 
BRANCH  10  11
ATOM     11  O   UNL     1       4.996  -1.443   0.238  0.00  0.00    -0.379 OA
ATOM     12  H   UNL     1       5.453  -2.274   0.033  0.00  0.00    +0.211 HD
ENDBRANCH  10  11
ENDBRANCH   7  10
ENDBRANCH   4   7
ENDBRANCH   1   4
BRANCH   1  13
ATOM     13  CA  UNL     1      -0.858   0.949  -0.215  0.00  0.00    +0.167 C 
BRANCH  13  15
ATOM     14  O   UNL     1      -3.241  -0.394  -1.190  0.00  0.00    -0.272 OA
ATOM     15  N   UNL     1      -1.597  -0.105   0.434  0.00  0.00    -0.295 N 
ATOM     16  C   UNL     1      -2.730  -0.688  -0.113  0.00  0.00    +0.259 C 
ATOM     17  H   UNL     1      -1.281  -0.427   1.309  0.00  0.00    +0.150 HD
BRANCH  16  19
ATOM     18  F   UNL     1      -4.416  -2.312   0.226  0.00  0.00    -0.224 F 
ATOM     19  C   UNL     1      -3.302  -1.760   0.776  0.00  0.00    +0.277 C 
ENDBRANCH  16  19
ENDBRANCH  13  15
BRANCH  13  21
ATOM     20  O   UNL     1      -1.257   3.331  -0.374  0.00  0.00    -0.286 OA
ATOM     21  C   UNL     1      -1.563   2.250   0.121  0.00  0.00    +0.229 C 
ENDBRANCH  13  21
ENDBRANCH   1  13
TORSDOF 11
