125734
  -OEChem-03292013323D

 32 34  0     1  0  0  0  0  0999 V2000
   -2.0882    0.5041   -0.9846 O   0  0  0  0  0  0  0  0  0  0  0  0
   -1.1753   -2.2472    1.1307 O   0  0  0  0  0  0  0  0  0  0  0  0
   -3.4505   -2.1716   -0.3740 O   0  0  0  0  0  0  0  0  0  0  0  0
   -3.8803    2.5669   -0.3618 O   0  0  0  0  0  0  0  0  0  0  0  0
    1.4311   -0.2492   -0.2246 N   0  0  0  0  0  0  0  0  0  0  0  0
    0.3611    1.6053    0.2169 N   0  0  0  0  0  0  0  0  0  0  0  0
    1.7178    1.8474    0.3706 N   0  0  0  0  0  0  0  0  0  0  0  0
    4.1487   -0.7890   -0.1982 N   0  0  0  0  0  0  0  0  0  0  0  0
    4.6774    1.3990    0.4386 N   0  0  0  0  0  0  0  0  0  0  0  0
   -1.7174   -0.9769    0.8277 C   0  0  2  0  0  0  0  0  0  0  0  0
   -3.1849   -1.0381    0.4517 C   0  0  1  0  0  0  0  0  0  0  0  0
   -1.0825   -0.3681   -0.4190 C   0  0  2  0  0  0  0  0  0  0  0  0
   -3.3653    0.2343   -0.3655 C   0  0  1  0  0  0  0  0  0  0  0  0
    0.2113    0.3458   -0.1395 C   0  0  0  0  0  0  0  0  0  0  0  0
   -3.7474    1.4384    0.4845 C   0  0  0  0  0  0  0  0  0  0  0  0
    2.3354    0.7227    0.1006 C   0  0  0  0  0  0  0  0  0  0  0  0
    1.8636   -1.5159   -0.5450 C   0  0  0  0  0  0  0  0  0  0  0  0
    3.7555    0.4326    0.1122 C   0  0  0  0  0  0  0  0  0  0  0  0
    3.1900   -1.7407   -0.5214 C   0  0  0  0  0  0  0  0  0  0  0  0
   -1.5872   -0.3218    1.6982 H   0  0  0  0  0  0  0  0  0  0  0  0
   -3.8515   -1.1033    1.3169 H   0  0  0  0  0  0  0  0  0  0  0  0
   -0.9046   -1.1458   -1.1723 H   0  0  0  0  0  0  0  0  0  0  0  0
   -4.0889    0.1051   -1.1783 H   0  0  0  0  0  0  0  0  0  0  0  0
   -2.9738    1.6693    1.2237 H   0  0  0  0  0  0  0  0  0  0  0  0
   -4.6994    1.2692    0.9971 H   0  0  0  0  0  0  0  0  0  0  0  0
   -0.2432   -2.1190    1.3747 H   0  0  0  0  0  0  0  0  0  0  0  0
   -3.2084   -2.9628    0.1370 H   0  0  0  0  0  0  0  0  0  0  0  0
    1.1385   -2.2771   -0.8005 H   0  0  0  0  0  0  0  0  0  0  0  0
   -4.1275    3.3202    0.2013 H   0  0  0  0  0  0  0  0  0  0  0  0
    3.5768   -2.7240   -0.7665 H   0  0  0  0  0  0  0  0  0  0  0  0
    4.3985    2.3442    0.6803 H   0  0  0  0  0  0  0  0  0  0  0  0
    5.6703    1.1921    0.4456 H   0  0  0  0  0  0  0  0  0  0  0  0
  1 12  1  0  0  0  0
  1 13  1  0  0  0  0
  2 10  1  0  0  0  0
  2 26  1  0  0  0  0
  3 11  1  0  0  0  0
  3 27  1  0  0  0  0
  4 15  1  0  0  0  0
  4 29  1  0  0  0  0
  5 14  1  0  0  0  0
  5 16  1  0  0  0  0
  5 17  1  0  0  0  0
  6  7  1  0  0  0  0
  6 14  2  0  0  0  0
  7 16  2  0  0  0  0
  8 18  2  0  0  0  0
  8 19  1  0  0  0  0
  9 18  1  0  0  0  0
  9 31  1  0  0  0  0
  9 32  1  0  0  0  0
 10 11  1  0  0  0  0
 10 12  1  0  0  0  0
 10 20  1  0  0  0  0
 11 13  1  0  0  0  0
 11 21  1  0  0  0  0
 12 14  1  0  0  0  0
 12 22  1  0  0  0  0
 13 15  1  0  0  0  0
 13 23  1  0  0  0  0
 15 24  1  0  0  0  0
 15 25  1  0  0  0  0
 16 18  1  0  0  0  0
 17 19  2  0  0  0  0
 17 28  1  0  0  0  0
 19 30  1  0  0  0  0
M  END
> <PUBCHEM_COMPOUND_CID>
125734

> <PUBCHEM_CONFORMER_RMSD>
0.6

> <PUBCHEM_CONFORMER_DIVERSEORDER>
1
7
17
15
18
3
6
11
16
4
8
9
13
2
12
5
10
14

> <PUBCHEM_MMFF94_PARTIAL_CHARGES>
26
1 -0.56
10 0.28
11 0.28
12 0.46
13 0.28
14 0.01
15 0.28
16 0.1
17 -0.18
18 0.58
19 0.02
2 -0.68
26 0.4
27 0.4
28 0.15
29 0.4
3 -0.68
30 0.15
31 0.4
32 0.4
4 -0.68
5 0.33
6 -0.34
7 -0.34
8 -0.62
9 -0.85

> <PUBCHEM_EFFECTIVE_ROTOR_COUNT>
3

> <PUBCHEM_PHARMACOPHORE_FEATURES>
14
1 1 acceptor
1 2 acceptor
1 2 donor
1 3 acceptor
1 3 donor
1 4 acceptor
1 4 donor
1 9 donor
3 5 6 14 cation
3 5 7 16 cation
3 8 9 18 cation
5 1 10 11 12 13 rings
5 5 6 7 14 16 rings
6 5 8 16 17 18 19 rings

> <PUBCHEM_HEAVY_ATOM_COUNT>
19

> <PUBCHEM_ATOM_DEF_STEREO_COUNT>
3

> <PUBCHEM_ATOM_UDEF_STEREO_COUNT>
1

> <PUBCHEM_BOND_DEF_STEREO_COUNT>
0

> <PUBCHEM_BOND_UDEF_STEREO_COUNT>
0

> <PUBCHEM_ISOTOPIC_ATOM_COUNT>
0

> <PUBCHEM_COMPONENT_COUNT>
1

> <PUBCHEM_CACTVS_TAUTO_COUNT>
2

> <PUBCHEM_CONFORMER_ID>
0001EB2600000001

> <PUBCHEM_MMFF94_ENERGY>
50.8153

> <PUBCHEM_FEATURE_SELFOVERLAP>
73.698

> <PUBCHEM_SHAPE_FINGERPRINT>
10608611 8 18411135865716330353
1100329 8 16463893815098821641
11471102 20 18342453729789797444
11578080 2 16700583849644488625
116883 192 17984146959378832332
12500047 106 18410571786270613931
13296908 3 18413109454907772110
13544592 145 18194128421349382590
13675066 3 18261404308047963313
14115302 16 18042140794532713902
15196674 1 18412263934977146958
15219456 202 18410857667968302742
15375358 24 18411417310944566714
16945 1 18119823653256479691
18186145 218 18187363173363466814
19049666 15 18409451388264473883
200 152 17917144013683441543
20201158 50 18409732884747948706
20279233 1 18335704970305027050
20645477 56 18408605851312566257
20645477 70 17917993828617993942
21421861 104 17752479863722424578
21501502 16 18335709398263179205
23402539 116 18115013199342376740
23559900 14 18268146470885395166
25 1 18263642862161441095
296302 2 18412829096738388496
335352 9 18195247719880811910
4214541 1 18412263921918184741
495365 180 17845637180149140696
5104073 3 18411698781584125898
69090 78 18413386549339815111
8809292 202 18335425646906341738
9709674 26 18410298050814947310

> <PUBCHEM_SHAPE_MULTIPOLES>
342.63
8.37
2.3
0.82
1.94
0.04
0.04
1.56
-0.01
-1.01
0.14
-0.27
-0.16
0.77

> <PUBCHEM_SHAPE_SELFOVERLAP>
742.163

> <PUBCHEM_SHAPE_VOLUME>
187.7

> <PUBCHEM_COORDINATE_TYPE>
2
5
10

$$$$
