REMARK  Name = 125700
REMARK  6 active torsions:
REMARK  status: ('A' for Active; 'I' for Inactive)
REMARK    1  A    between atoms: C_11  and  C_14
REMARK    2  A    between atoms: C_12  and  C_20
REMARK    3  A    between atoms: C_14  and  O_15
REMARK    4  A    between atoms: O_15  and  C_16
REMARK    5  A    between atoms: C_20  and  O_21
REMARK    6  A    between atoms: O_21  and  C_23
REMARK                            x       y       z     vdW  Elec       q    Type
REMARK                         _______ _______ _______ _____ _____    ______ ____
ROOT
ATOM      1 CL   UNL     1       4.712   0.616  -1.795  0.00  0.00    -0.101 Cl
ATOM      2  S   UNL     1       2.196  -2.263   0.340  0.00  0.00    +0.012 S 
ATOM      3  O   UNL     1       2.809  -3.453  -0.224  0.00  0.00    -0.171 OA
ATOM      4  O   UNL     1       2.467  -1.900   1.718  0.00  0.00    -0.171 OA
ATOM      5  O   UNL     1       2.662   2.276   0.364  0.00  0.00    -0.273 OA
ATOM      6  N   UNL     1       1.647   0.182  -0.031  0.00  0.00    -0.233 N 
ATOM      7  C   UNL     1       2.433  -0.849  -0.688  0.00  0.00    +0.234 C 
ATOM      8  C   UNL     1       3.652   0.066  -0.472  0.00  0.00    +0.197 C 
ATOM      9  C   UNL     1       0.430  -2.458   0.187  0.00  0.00    +0.180 C 
ATOM     10  C   UNL     1       2.622   1.119   0.016  0.00  0.00    +0.249 C 
ATOM     11  C   UNL     1       0.334   0.069   0.299  0.00  0.00    +0.129 C 
ATOM     12  C   UNL     1      -0.287  -1.131   0.364  0.00  0.00    +0.043 C 
ENDROOT
BRANCH  11  14
ATOM     13  O   UNL     1      -0.397   1.771   1.779  0.00  0.00    -0.244 OA
ATOM     14  C   UNL     1      -0.374   1.309   0.652  0.00  0.00    +0.355 C 
BRANCH  14  15
ATOM     15  O   UNL     1      -0.960   1.802  -0.466  0.00  0.00    -0.452 OA
BRANCH  15  16
ATOM     16  C   UNL     1      -1.693   3.018  -0.284  0.00  0.00    +0.137 C 
ATOM     17  C   UNL     1      -0.735   4.090   0.231  0.00  0.00    +0.044 C 
ATOM     18  C   UNL     1      -2.268   3.417  -1.641  0.00  0.00    +0.044 C 
ATOM     19  C   UNL     1      -2.816   2.762   0.721  0.00  0.00    +0.044 C 
ENDBRANCH  15  16
ENDBRANCH  14  15
ENDBRANCH  11  14
BRANCH  12  20
ATOM     20  C   UNL     1      -1.758  -1.322   0.644  0.00  0.00    +0.234 C 
BRANCH  20  21
ATOM     21  O   UNL     1      -2.359  -1.994  -0.443  0.00  0.00    -0.444 OA
BRANCH  21  23
ATOM     22  O   UNL     1      -4.411  -1.931   0.615  0.00  0.00    -0.250 OA
ATOM     23  C   UNL     1      -3.704  -2.241  -0.334  0.00  0.00    +0.318 C 
ATOM     24  C   UNL     1      -4.201  -2.955  -1.554  0.00  0.00    +0.121 C 
ENDBRANCH  21  23
ENDBRANCH  20  21
ENDBRANCH  12  20
TORSDOF 6
