REMARK  Name = 125704
REMARK  11 active torsions:
REMARK  status: ('A' for Active; 'I' for Inactive)
REMARK    1  A    between atoms: C_1  and  C_22
REMARK    2  A    between atoms: C_2  and  C_9
REMARK    3  A    between atoms: N_8  and  CA_11
REMARK    4  A    between atoms: CA_11  and  C_13
REMARK    5  A    between atoms: CA_11  and  CB_16
REMARK    6  A    between atoms: C_13  and  O_14
REMARK    7  A    between atoms: CB_16  and  CG_17
REMARK    8  A    between atoms: CG_17  and  CD_19
REMARK    9  A    between atoms: CD_19  and  OE1_20
REMARK   10  A    between atoms: C_22  and  C_23
REMARK   11  A    between atoms: C_23  and  C_28
REMARK                            x       y       z     vdW  Elec       q    Type
REMARK                         _______ _______ _______ _____ _____    ______ ____
ROOT
ATOM      1  C   UNL     1      -1.739  -3.167  -0.158  0.00  0.00    -0.022 C 
ATOM      2  C   UNL     1       0.984  -2.575  -0.024  0.00  0.00    +0.053 C 
ATOM      3  C   UNL     1      -0.869  -3.664  -1.128  0.00  0.00    -0.004 C 
ATOM      4  C   UNL     1      -1.248  -2.374   0.879  0.00  0.00    -0.004 C 
ATOM      5  C   UNL     1       0.492  -3.368  -1.061  0.00  0.00    +0.004 C 
ATOM      6  C   UNL     1       0.113  -2.078   0.946  0.00  0.00    +0.004 C 
ENDROOT
BRANCH   2   9
ATOM      7  O   UNL     1       3.241  -3.031  -0.466  0.00  0.00    -0.270 OA
ATOM      8  N   UNL     1       2.768  -1.073   0.685  0.00  0.00    -0.293 N 
ATOM      9  C   ACE A   0       2.434  -2.260   0.046  0.00  0.00    +0.246 C 
ATOM     10  H   UNL     1       2.047  -0.521   1.066  0.00  0.00    +0.150 HD
BRANCH   8  11
ATOM     11  CA  UNL     1       4.129  -0.618   0.812  0.00  0.00    +0.172 C 
BRANCH  11  13
ATOM     12  OXT UNL     1       3.325   0.335   2.904  0.00  0.00    -0.248 OA
ATOM     13  C   UNL     1       4.256   0.081   2.150  0.00  0.00    +0.332 C 
BRANCH  13  14
ATOM     14  O   UNL     1       5.548   0.372   2.450  0.00  0.00    -0.479 OA
ATOM     15  H   UNL     1       6.230   0.160   1.843  0.00  0.00    +0.295 HD
ENDBRANCH  13  14
ENDBRANCH  11  13
BRANCH  11  16
ATOM     16  CB  UNL     1       4.582   0.236  -0.378  0.00  0.00    +0.043 C 
BRANCH  16  17
ATOM     17  CG  UNL     1       3.814   1.547  -0.591  0.00  0.00    +0.112 C 
BRANCH  17  19
ATOM     18  OE2 UNL     1       5.190   2.019  -2.545  0.00  0.00    -0.250 OA
ATOM     19  CD  UNL     1       4.290   2.346  -1.784  0.00  0.00    +0.314 C 
BRANCH  19  20
ATOM     20  OE1 UNL     1       3.616   3.521  -1.900  0.00  0.00    -0.480 OA
ATOM     21  HE1 UNL     1       2.933   3.731  -1.294  0.00  0.00    +0.295 HD
ENDBRANCH  19  20
ENDBRANCH  17  19
ENDBRANCH  16  17
ENDBRANCH  11  16
ENDBRANCH   8  11
ENDBRANCH   2   9
BRANCH   1  22
ATOM     22  C   UNL     1      -3.195  -3.484  -0.229  0.00  0.00    +0.031 C 
BRANCH  22  23
ATOM     23  C   UNL     1      -4.021  -2.466  -1.039  0.00  0.00    +0.033 C 
BRANCH  23  28
ATOM     24  N   UNL     1      -4.802   0.643   0.984  0.00  0.00    -0.182 NA
ATOM     25  N   UNL     1      -3.825   2.740   1.091  0.00  0.00    -0.273 NA
ATOM     26  N   UNL     1      -1.913   3.307  -0.258  0.00  0.00    -0.312 NA
ATOM     27  N   UNL     1      -2.848   4.871   1.213  0.00  0.00    -0.283 N 
ATOM     28  C   UNL     1      -3.936  -1.062  -0.492  0.00  0.00    -0.001 C 
ATOM     29  C   UNL     1      -2.960  -0.178  -0.918  0.00  0.00    +0.012 C 
ATOM     30  C   UNL     1      -2.918   1.118  -0.383  0.00  0.00    +0.119 C 
ATOM     31  C   UNL     1      -4.828  -0.604   0.455  0.00  0.00    +0.106 C 
ATOM     32  C   UNL     1      -3.861   1.506   0.576  0.00  0.00    +0.105 C 
ATOM     33  C   UNL     1      -1.967   2.063  -0.761  0.00  0.00    +0.201 C 
ATOM     34  C   UNL     1      -2.860   3.575   0.652  0.00  0.00    +0.206 C 
ATOM     35  H   UNL     1      -3.521   5.122   1.886  0.00  0.00    +0.156 HD
ATOM     36  H   UNL     1      -2.167   5.523   0.930  0.00  0.00    +0.156 HD
ATOM     37  N   UNL     1      -0.991   1.720  -1.728  0.00  0.00    -0.332 N 
ATOM     38  H   UNL     1      -0.315   2.382  -2.002  0.00  0.00    +0.145 HD
ATOM     39  H   UNL     1      -0.988   0.820  -2.128  0.00  0.00    +0.145 HD
ENDBRANCH  23  28
ENDBRANCH  22  23
ENDBRANCH   1  22
TORSDOF 11
