REMARK  Name = 125702
REMARK  7 active torsions:
REMARK  status: ('A' for Active; 'I' for Inactive)
REMARK    1  A    between atoms: C_3  and  C_10
REMARK    2  A    between atoms: C_7  and  C_24
REMARK    3  A    between atoms: N_9  and  C_14
REMARK    4  A    between atoms: C_24  and  N_26
REMARK    5  A    between atoms: C_27  and  O_29
REMARK    6  A    between atoms: O_29  and  C_30
REMARK    7  A    between atoms: C_30  and  C_31
REMARK                            x       y       z     vdW  Elec       q    Type
REMARK                         _______ _______ _______ _____ _____    ______ ____
ROOT
ATOM      1  O   UNL     1       1.388   1.550   0.909  0.00  0.00    -0.273 OA
ATOM      2  N   UNL     1       0.329   3.418   0.048  0.00  0.00    -0.272 N 
ATOM      3  C   UNL     1      -0.880   3.311   0.854  0.00  0.00    +0.152 C 
ATOM      4  C   UNL     1      -1.565   4.665   0.708  0.00  0.00    +0.031 C 
ATOM      5  C   UNL     1      -1.122   5.139  -0.674  0.00  0.00    +0.024 C 
ATOM      6  C   UNL     1       0.303   4.620  -0.782  0.00  0.00    +0.094 C 
ATOM      7  C   UNL     1       1.403   2.556   0.199  0.00  0.00    +0.246 C 
ENDROOT
BRANCH   3  10
ATOM      8  O   UNL     1      -1.653   1.949  -0.929  0.00  0.00    -0.273 OA
ATOM      9  N   UNL     1      -2.473   1.582   1.246  0.00  0.00    -0.282 N 
ATOM     10  C   UNL     1      -1.705   2.205   0.269  0.00  0.00    +0.244 C 
ATOM     11  H   UNL     1      -2.381   1.933   2.161  0.00  0.00    +0.155 HD
BRANCH   9  14
ATOM     12  O   UNL     1      -4.602  -1.648  -1.626  0.00  0.00    -0.421 OA
ATOM     13  O   UNL     1      -5.597  -3.170  -3.012  0.00  0.00    -0.244 OA
ATOM     14  C   UNL     1      -3.371   0.502   1.077  0.00  0.00    +0.053 C 
ATOM     15  C   UNL     1      -3.561  -0.057  -0.183  0.00  0.00    +0.052 C 
ATOM     16  C   UNL     1      -4.068  -0.005   2.172  0.00  0.00    +0.015 C 
ATOM     17  C   UNL     1      -4.452  -1.123  -0.327  0.00  0.00    +0.150 C 
ATOM     18  C   UNL     1      -5.163  -1.651   0.751  0.00  0.00    +0.031 C 
ATOM     19  C   UNL     1      -4.957  -1.074   2.011  0.00  0.00    +0.004 C 
ATOM     20  C   UNL     1      -6.079  -2.773   0.508  0.00  0.00    -0.012 C 
ATOM     21  C   UNL     1      -6.202  -3.252  -0.738  0.00  0.00    +0.078 C 
ATOM     22  C   UNL     1      -6.859  -3.364   1.646  0.00  0.00    +0.031 C 
ATOM     23  C   UNL     1      -5.458  -2.706  -1.886  0.00  0.00    +0.346 C 
ENDBRANCH   9  14
ENDBRANCH   3  10
BRANCH   7  24
ATOM     24  C   UNL     1       2.639   2.914  -0.587  0.00  0.00    +0.178 C 
BRANCH  24  26
ATOM     25  O   UNL     1       3.123   0.369  -1.900  0.00  0.00    -0.226 OA
ATOM     26  N   UNL     1       3.608   1.925  -0.246  0.00  0.00    -0.262 N 
ATOM     27  C   UNL     1       3.778   0.726  -0.927  0.00  0.00    +0.402 C 
ATOM     28  H   UNL     1       4.196   2.104   0.524  0.00  0.00    +0.153 HD
BRANCH  27  29
ATOM     29  O   UNL     1       4.784  -0.004  -0.358  0.00  0.00    -0.430 OA
BRANCH  29  30
ATOM     30  C   UNL     1       5.061  -1.268  -0.971  0.00  0.00    +0.237 C 
BRANCH  30  31
ATOM     31  C   UNL     1       6.182  -1.936  -0.230  0.00  0.00    +0.021 C 
ATOM     32  C   UNL     1       7.503  -1.716  -0.620  0.00  0.00    -0.001 C 
ATOM     33  C   UNL     1       5.904  -2.777   0.847  0.00  0.00    -0.001 C 
ATOM     34  C   UNL     1       8.546  -2.336   0.068  0.00  0.00    -0.000 C 
ATOM     35  C   UNL     1       6.947  -3.397   1.535  0.00  0.00    -0.000 C 
ATOM     36  C   UNL     1       8.268  -3.177   1.146  0.00  0.00    -0.000 C 
ENDBRANCH  30  31
ENDBRANCH  29  30
ENDBRANCH  27  29
ENDBRANCH  24  26
ENDBRANCH   7  24
TORSDOF 7
