125748
  -OEChem-03292013323D

 35 35  0     1  0  0  0  0  0999 V2000
   -0.6575    1.1620    1.1281 O   0  0  0  0  0  0  0  0  0  0  0  0
   -5.5158    1.5298   -0.4657 O   0  0  0  0  0  0  0  0  0  0  0  0
   -5.6364   -0.5707   -1.3140 O   0  0  0  0  0  0  0  0  0  0  0  0
    5.1460    1.8096   -0.1953 O   0  0  0  0  0  0  0  0  0  0  0  0
    3.0152    2.4432    0.2788 O   0  0  0  0  0  0  0  0  0  0  0  0
   -4.5988   -1.7378    0.8435 N   0  0  0  0  0  0  0  0  0  0  0  0
   -0.0346    0.1189   -0.8535 N   0  0  0  0  0  0  0  0  0  0  0  0
    1.2517    0.5655   -0.7648 N   0  0  0  0  0  0  0  0  0  0  0  0
   -3.2517    0.3122    1.0498 C   0  0  0  0  0  0  0  0  0  0  0  0
   -4.6554   -0.2766    0.8744 C   0  0  1  0  0  0  0  0  0  0  0  0
   -2.3037   -0.1011   -0.0776 C   0  0  0  0  0  0  0  0  0  0  0  0
   -0.9197    0.4711    0.1457 C   0  0  0  0  0  0  0  0  0  0  0  0
   -5.3014    0.1910   -0.4141 C   0  0  0  0  0  0  0  0  0  0  0  0
    2.2666   -0.3295   -0.4047 C   0  0  0  0  0  0  0  0  0  0  0  0
    3.5313    0.1245   -0.0068 C   0  0  0  0  0  0  0  0  0  0  0  0
    2.0176   -1.7079   -0.4410 C   0  0  0  0  0  0  0  0  0  0  0  0
    4.5286   -0.7838    0.3485 C   0  0  0  0  0  0  0  0  0  0  0  0
    3.0149   -2.6160   -0.0856 C   0  0  0  0  0  0  0  0  0  0  0  0
    4.2703   -2.1539    0.3091 C   0  0  0  0  0  0  0  0  0  0  0  0
    3.8328    1.5495    0.0451 C   0  0  0  0  0  0  0  0  0  0  0  0
   -2.8420   -0.0093    2.0166 H   0  0  0  0  0  0  0  0  0  0  0  0
   -3.3150    1.4073    1.0901 H   0  0  0  0  0  0  0  0  0  0  0  0
   -5.2993    0.0311    1.7060 H   0  0  0  0  0  0  0  0  0  0  0  0
   -2.2055   -1.1910   -0.1344 H   0  0  0  0  0  0  0  0  0  0  0  0
   -2.6659    0.2617   -1.0461 H   0  0  0  0  0  0  0  0  0  0  0  0
   -5.5451   -2.1167    0.8258 H   0  0  0  0  0  0  0  0  0  0  0  0
   -4.1717   -2.0814    1.7029 H   0  0  0  0  0  0  0  0  0  0  0  0
   -0.2768   -0.4123   -1.6830 H   0  0  0  0  0  0  0  0  0  0  0  0
    1.3988    1.5657   -0.7461 H   0  0  0  0  0  0  0  0  0  0  0  0
    1.0575   -2.1137   -0.7489 H   0  0  0  0  0  0  0  0  0  0  0  0
    5.5127   -0.4565    0.6735 H   0  0  0  0  0  0  0  0  0  0  0  0
    2.8149   -3.6831   -0.1171 H   0  0  0  0  0  0  0  0  0  0  0  0
    5.0457   -2.8613    0.5884 H   0  0  0  0  0  0  0  0  0  0  0  0
   -5.9506    1.7989   -1.3028 H   0  0  0  0  0  0  0  0  0  0  0  0
    5.3409    2.7703   -0.1577 H   0  0  0  0  0  0  0  0  0  0  0  0
  1 12  2  0  0  0  0
  2 13  1  0  0  0  0
  2 34  1  0  0  0  0
  3 13  2  0  0  0  0
  4 20  1  0  0  0  0
  4 35  1  0  0  0  0
  5 20  2  0  0  0  0
  6 10  1  0  0  0  0
  6 26  1  0  0  0  0
  6 27  1  0  0  0  0
  7  8  1  0  0  0  0
  7 12  1  0  0  0  0
  7 28  1  0  0  0  0
  8 14  1  0  0  0  0
  8 29  1  0  0  0  0
  9 10  1  0  0  0  0
  9 11  1  0  0  0  0
  9 21  1  0  0  0  0
  9 22  1  0  0  0  0
 10 13  1  0  0  0  0
 10 23  1  0  0  0  0
 11 12  1  0  0  0  0
 11 24  1  0  0  0  0
 11 25  1  0  0  0  0
 14 15  1  0  0  0  0
 14 16  2  0  0  0  0
 15 17  2  0  0  0  0
 15 20  1  0  0  0  0
 16 18  1  0  0  0  0
 16 30  1  0  0  0  0
 17 19  1  0  0  0  0
 17 31  1  0  0  0  0
 18 19  2  0  0  0  0
 18 32  1  0  0  0  0
 19 33  1  0  0  0  0
M  END
> <PUBCHEM_COMPOUND_CID>
125748

> <PUBCHEM_CONFORMER_RMSD>
0.8

> <PUBCHEM_CONFORMER_DIVERSEORDER>
2
99
27
98
103
66
91
139
60
135
124
96
127
93
79
113
126
46
129
118
32
24
31
122
112
134
101
83
73
88
81
7
68
87
120
30
108
12
13
29
137
119
21
39
33
80
67
52
34
86
41
58
125
133
140
38
55
26
131
69
40
123
105
54
45
75
136
22
23
106
107
117
100
49
72
74
116
17
48
115
53
71
121
3
36
130
15
65
57
59
62
37
109
4
104
28
102
44
6
78
47
70
61
19
90
128
94
138
18
84
25
50
20
141
14
11
85
111
56
132
110
5
82
10
63
77
8
16
64
92
51
97
89
9
114
76
42
35
43
1
95

> <PUBCHEM_MMFF94_PARTIAL_CHARGES>
29
1 -0.57
10 0.33
11 0.06
12 0.57
13 0.66
14 0.1
15 0.09
16 -0.15
17 -0.15
18 -0.15
19 -0.15
2 -0.65
20 0.63
26 0.36
27 0.36
28 0.37
29 0.4
3 -0.57
30 0.15
31 0.15
32 0.15
33 0.15
34 0.5
35 0.5
4 -0.65
5 -0.57
6 -0.99
7 -0.41
8 -0.52

> <PUBCHEM_EFFECTIVE_ROTOR_COUNT>
8

> <PUBCHEM_PHARMACOPHORE_FEATURES>
12
1 1 acceptor
1 2 acceptor
1 3 acceptor
1 4 acceptor
1 5 acceptor
1 6 cation
1 6 donor
1 7 donor
1 8 donor
3 2 3 13 anion
3 4 5 20 anion
6 14 15 16 17 18 19 rings

> <PUBCHEM_HEAVY_ATOM_COUNT>
20

> <PUBCHEM_ATOM_DEF_STEREO_COUNT>
1

> <PUBCHEM_ATOM_UDEF_STEREO_COUNT>
0

> <PUBCHEM_BOND_DEF_STEREO_COUNT>
0

> <PUBCHEM_BOND_UDEF_STEREO_COUNT>
0

> <PUBCHEM_ISOTOPIC_ATOM_COUNT>
0

> <PUBCHEM_COMPONENT_COUNT>
1

> <PUBCHEM_CACTVS_TAUTO_COUNT>
4

> <PUBCHEM_CONFORMER_ID>
0001EB3400000002

> <PUBCHEM_MMFF94_ENERGY>
52.5538

> <PUBCHEM_FEATURE_SELFOVERLAP>
62.59

> <PUBCHEM_SHAPE_FINGERPRINT>
10366900 7 18335998510045248056
10447042 23 18413668010877378655
10835480 77 18335697252491785669
10912923 1 17918278640863362507
114674 6 18115594721125815714
11823591 26 18191871335222617092
12107183 9 17694512442110887993
12236239 1 17846779602710852796
13073987 5 18410863157574732881
13167823 11 18342457024014123015
13533116 47 18412544288524333843
13583140 156 18341051938469191337
13675066 3 18040724683817464595
13911852 28 17979073782753998462
14528608 73 18273215326093283908
14573314 32 18186800271045251165
146900 427 17845942934359795704
15375358 24 18187368748410482027
16752209 62 14923942310612815764
17834072 33 18272929440607003951
17844677 252 18409454657024983205
18222031 100 15769768053298214313
200 152 18341892961827396911
20028762 73 18201714007962922502
20511986 3 18129925832985507303
20645477 70 18410008806331835310
21065198 48 18272940383920040712
22224240 67 18340196488880308856
23402539 116 16153421779401779479
23557571 272 17240478070311686332
23559900 14 18334579053033575728
23845131 108 18192706968085343922
239999 70 18341900654146122478
26918003 58 18409448055327797027
33824 294 18408044018145457666
4073 2 18041003972497722315
42630746 31 18413388740120873382
5104073 3 18335992999549291451
5283173 99 18189047612820410053
633830 44 15936700336748842231
8988823 20 18410288107843824796
9971528 1 17822014198359027901

> <PUBCHEM_SHAPE_MULTIPOLES>
367.3
13.92
2.25
0.95
14.26
0.27
0.02
0.27
-0.44
-3.24
0.14
0.92
0.04
0.16

> <PUBCHEM_SHAPE_SELFOVERLAP>
758.589

> <PUBCHEM_SHAPE_VOLUME>
207.9

> <PUBCHEM_COORDINATE_TYPE>
2
5
10

$$$$
