REMARK  Name = 125734
REMARK  5 active torsions:
REMARK  status: ('A' for Active; 'I' for Inactive)
REMARK    1  A    between atoms: C_2  and  O_18
REMARK    2  A    between atoms: C_3  and  O_20
REMARK    3  A    between atoms: C_4  and  C_11
REMARK    4  A    between atoms: C_5  and  C_22
REMARK    5  A    between atoms: C_22  and  O_23
REMARK                            x       y       z     vdW  Elec       q    Type
REMARK                         _______ _______ _______ _____ _____    ______ ____
ROOT
ATOM      1  O   UNL     1      -2.088   0.504  -0.985  0.00  0.00    -0.343 OA
ATOM      2  C   UNL     1      -1.717  -0.977   0.828  0.00  0.00    +0.174 C 
ATOM      3  C   UNL     1      -3.185  -1.038   0.452  0.00  0.00    +0.170 C 
ATOM      4  C   UNL     1      -1.083  -0.368  -0.419  0.00  0.00    +0.203 C 
ATOM      5  C   UNL     1      -3.365   0.234  -0.365  0.00  0.00    +0.174 C 
ENDROOT
BRANCH   4  11
ATOM      6  N   UNL     1       1.431  -0.249  -0.225  0.00  0.00    -0.270 N 
ATOM      7  N   UNL     1       0.361   1.605   0.217  0.00  0.00    -0.130 NA
ATOM      8  N   UNL     1       1.718   1.847   0.371  0.00  0.00    -0.126 NA
ATOM      9  N   UNL     1       4.149  -0.789  -0.198  0.00  0.00    -0.225 NA
ATOM     10  N   UNL     1       4.677   1.399   0.439  0.00  0.00    -0.340 N 
ATOM     11  C   UNL     1       0.211   0.346  -0.140  0.00  0.00    +0.177 A 
ATOM     12  C   UNL     1       2.335   0.723   0.101  0.00  0.00    +0.202 A 
ATOM     13  C   UNL     1       1.864  -1.516  -0.545  0.00  0.00    +0.103 C 
ATOM     14  C   UNL     1       3.756   0.433   0.112  0.00  0.00    +0.162 C 
ATOM     15  C   UNL     1       3.190  -1.741  -0.521  0.00  0.00    +0.119 C 
ATOM     16  H   UNL     1       5.638   1.182   0.441  0.00  0.00    +0.144 HD
ATOM     17  H   UNL     1       4.377   2.308   0.670  0.00  0.00    +0.144 HD
ENDBRANCH   4  11
BRANCH   2  18
ATOM     18  O   UNL     1      -1.175  -2.247   1.131  0.00  0.00    -0.379 OA
ATOM     19  H   UNL     1      -1.603  -2.600   1.927  0.00  0.00    +0.211 HD
ENDBRANCH   2  18
BRANCH   3  20
ATOM     20  O   UNL     1      -3.450  -2.172  -0.374  0.00  0.00    -0.379 OA
ATOM     21  H   UNL     1      -3.336  -2.983   0.145  0.00  0.00    +0.211 HD
ENDBRANCH   3  20
BRANCH   5  22
ATOM     22  C   UNL     1      -3.747   1.438   0.484  0.00  0.00    +0.169 C 
BRANCH  22  23
ATOM     23  O   UNL     1      -3.880   2.567  -0.362  0.00  0.00    -0.379 OA
ATOM     24  H   UNL     1      -4.124   3.342   0.168  0.00  0.00    +0.211 HD
ENDBRANCH  22  23
ENDBRANCH   5  22
TORSDOF 5
