REMARK  Name = 125773
REMARK  10 active torsions:
REMARK  status: ('A' for Active; 'I' for Inactive)
REMARK    1  A    between atoms: N_2  and  CA_5
REMARK    2  A    between atoms: C_3  and  CA_16
REMARK    3  A    between atoms: CA_5  and  C_9
REMARK    4  A    between atoms: N_8  and  CA_11
REMARK    5  A    between atoms: CA_11  and  C_13
REMARK    6  A    between atoms: C_13  and  O_14
REMARK    7  A    between atoms: CA_16  and  N_17
REMARK    8  A    between atoms: CA_16  and  CB_21
REMARK    9  A    between atoms: CB_21  and  CG_22
REMARK   10  A    between atoms: CZ_27  and  OH_28
REMARK                            x       y       z     vdW  Elec       q    Type
REMARK                         _______ _______ _______ _____ _____    ______ ____
ROOT
ATOM      1  O   TYR A   1      -0.609  -2.083   1.523  0.00  0.00    -0.277 OA
ATOM      2  N   ALA A   2      -0.591  -2.080  -0.796  0.00  0.00    -0.300 N 
ATOM      3  C   TYR A   1      -1.194  -1.961   0.448  0.00  0.00    +0.202 C 
ATOM      4  H   ALA A   2      -1.140  -1.966  -1.605  0.00  0.00    +0.150 HD
ENDROOT
BRANCH   2   5
ATOM      5  CA  ALA A   2       0.817  -2.366  -0.942  0.00  0.00    +0.149 C 
ATOM      6  CB  ALA A   2       1.095  -3.136  -2.224  0.00  0.00    +0.031 C 
BRANCH   5   9
ATOM      7  O   ALA A   2       1.111  -0.005  -1.401  0.00  0.00    -0.273 OA
ATOM      8  N   GLY A   3       2.831  -1.166  -0.362  0.00  0.00    -0.294 N 
ATOM      9  C   ALA A   2       1.570  -1.043  -0.928  0.00  0.00    +0.241 C 
ATOM     10  H   GLY A   3       3.107  -2.043  -0.009  0.00  0.00    +0.150 HD
BRANCH   8  11
ATOM     11  CA  GLY A   3       3.756  -0.060  -0.271  0.00  0.00    +0.200 C 
BRANCH  11  13
ATOM     12  OXT GLY A   3       4.291   1.705   1.276  0.00  0.00    -0.248 OA
ATOM     13  C   GLY A   3       3.608   0.724   1.008  0.00  0.00    +0.334 C 
BRANCH  13  14
ATOM     14  O   GLY A   3       2.649   0.241   1.831  0.00  0.00    -0.479 OA
ATOM     15  H   GLY A   3       2.153  -0.513   1.581  0.00  0.00    +0.295 HD
ENDBRANCH  13  14
ENDBRANCH  11  13
ENDBRANCH   8  11
ENDBRANCH   5   9
ENDBRANCH   2   5
BRANCH   3  16
ATOM     16  CA  TYR A   1      -2.679  -1.630   0.349  0.00  0.00    +0.017 C 
BRANCH  16  17
ATOM     17  N   TYR A   1      -3.401  -2.738   0.976  0.00  0.00    +0.388 N 
ATOM     18  H1  TYR A   1      -4.404  -2.559   0.933  0.00  0.00    -0.089 HD
ATOM     19  H2  TYR A   1      -3.113  -2.824   1.951  0.00  0.00    -0.089 HD
ATOM     20  H3  TYR A   1      -3.189  -3.605   0.481  0.00  0.00    -0.089 HD
ENDBRANCH  16  17
BRANCH  16  21
ATOM     21  CB  TYR A   1      -2.995  -0.319   1.084  0.00  0.00    +0.013 C 
BRANCH  21  22
ATOM     22  CG  TYR A   1      -2.291   0.874   0.482  0.00  0.00    -0.024 C 
ATOM     23  CD1 TYR A   1      -1.034   1.225   0.946  0.00  0.00    -0.001 C 
ATOM     24  CD2 TYR A   1      -2.917   1.594  -0.523  0.00  0.00    -0.001 C 
ATOM     25  CE1 TYR A   1      -0.384   2.328   0.390  0.00  0.00    +0.036 C 
ATOM     26  CE2 TYR A   1      -2.267   2.696  -1.079  0.00  0.00    +0.036 C 
ATOM     27  CZ  TYR A   1      -1.001   3.063  -0.622  0.00  0.00    +0.134 C 
BRANCH  27  28
ATOM     28  OH  TYR A   1      -0.366   4.138  -1.165  0.00  0.00    -0.506 OA
ATOM     29  HH  TYR A   1       0.484   4.384  -0.858  0.00  0.00    +0.292 HD
ENDBRANCH  27  28
ENDBRANCH  21  22
ENDBRANCH  16  21
ENDBRANCH   3  16
TORSDOF 10
