REMARK  Name = 125748
REMARK  10 active torsions:
REMARK  status: ('A' for Active; 'I' for Inactive)
REMARK    1  A    between atoms: N_2  and  N_5
REMARK    2  A    between atoms: C_3  and  C_17
REMARK    3  A    between atoms: N_5  and  C_7
REMARK    4  A    between atoms: C_8  and  C_14
REMARK    5  A    between atoms: C_14  and  O_15
REMARK    6  A    between atoms: C_17  and  C_18
REMARK    7  A    between atoms: C_18  and  CA_19
REMARK    8  A    between atoms: CA_19  and  N_20
REMARK    9  A    between atoms: CA_19  and  C_25
REMARK   10  A    between atoms: C_25  and  O_26
REMARK                            x       y       z     vdW  Elec       q    Type
REMARK                         _______ _______ _______ _____ _____    ______ ____
ROOT
ATOM      1  O   UNL     1      -0.657   1.162   1.128  0.00  0.00    -0.274 OA
ATOM      2  N   UNL     1      -0.035   0.119  -0.854  0.00  0.00    -0.236 N 
ATOM      3  C   UNL     1      -0.920   0.471   0.146  0.00  0.00    +0.238 C 
ATOM      4  H   UNL     1      -0.324  -0.440  -1.611  0.00  0.00    +0.173 HD
ENDROOT
BRANCH   2   5
ATOM      5  N   UNL     1       1.252   0.566  -0.765  0.00  0.00    -0.263 N 
ATOM      6  H   UNL     1       1.464   1.508  -0.952  0.00  0.00    +0.170 HD
BRANCH   5   7
ATOM      7  C   UNL     1       2.267  -0.330  -0.405  0.00  0.00    +0.067 C 
ATOM      8  C   UNL     1       3.531   0.124  -0.007  0.00  0.00    +0.090 C 
ATOM      9  C   UNL     1       2.018  -1.708  -0.441  0.00  0.00    +0.016 C 
ATOM     10  C   UNL     1       4.529  -0.784   0.348  0.00  0.00    +0.008 C 
ATOM     11  C   UNL     1       3.015  -2.616  -0.086  0.00  0.00    +0.001 C 
ATOM     12  C   UNL     1       4.270  -2.154   0.309  0.00  0.00    +0.000 C 
BRANCH   8  14
ATOM     13  O   UNL     1       3.015   2.443   0.279  0.00  0.00    -0.245 OA
ATOM     14  C   UNL     1       3.833   1.550   0.045  0.00  0.00    +0.339 C 
BRANCH  14  15
ATOM     15  O   UNL     1       5.146   1.810  -0.195  0.00  0.00    -0.477 OA
ATOM     16  H   UNL     1       5.739   1.105  -0.369  0.00  0.00    +0.295 HD
ENDBRANCH  14  15
ENDBRANCH   8  14
ENDBRANCH   5   7
ENDBRANCH   2   5
BRANCH   3  17
ATOM     17  C   UNL     1      -2.304  -0.101  -0.078  0.00  0.00    +0.085 C 
BRANCH  17  18
ATOM     18  C   UNL     1      -3.252   0.312   1.050  0.00  0.00    -0.001 C 
BRANCH  18  19
ATOM     19  CA  UNL     1      -4.655  -0.277   0.874  0.00  0.00    +0.036 C 
BRANCH  19  20
ATOM     20  N   UNL     1      -4.599  -1.738   0.844  0.00  0.00    +0.389 N 
ATOM     21  H1  UNL     1      -4.167  -2.080   1.702  0.00  0.00    -0.088 HD
ATOM     22  H2  UNL     1      -4.046  -2.040   0.041  0.00  0.00    -0.088 HD
ATOM     23  H3  UNL     1      -5.544  -2.113   0.766  0.00  0.00    -0.088 HD
ENDBRANCH  19  20
BRANCH  19  25
ATOM     24  OXT UNL     1      -5.636  -0.571  -1.314  0.00  0.00    -0.253 OA
ATOM     25  C   UNL     1      -5.301   0.191  -0.414  0.00  0.00    +0.293 C 
BRANCH  25  26
ATOM     26  O   UNL     1      -5.516   1.530  -0.466  0.00  0.00    -0.482 OA
ATOM     27  H   UNL     1      -5.243   2.076   0.245  0.00  0.00    +0.295 HD
ENDBRANCH  25  26
ENDBRANCH  19  25
ENDBRANCH  18  19
ENDBRANCH  17  18
ENDBRANCH   3  17
TORSDOF 10
